data_image0
_chemical_formula_structural       FeCSFeSCHCS2FeCSFeSHFePS2H2C3H2C3H2CSH2C6H2C3HCH2C7HFeH3C2H2C3SC2HC3HC2PC9H2C3SC4H12C2H5SCH2C2HPHC3HCH2C2SC2HC2HCH5C6H8CHC4SHSFeSFeSCFeHSH3C2SHCSHSFeSFeCSFeCSFeSHCHS2C6H2FeHC2H3C3H2C6H5C2HC3H2FeCHC4PCSCH2C10H2FeH4C2H5CH3CSC2HC2HCHCH3CPHCHCH2C3H4C5HC4HCH4C4HCFeCH5C2H5CHC5HC6HCH3C2HC2HCSH3C3H2SH2PCHC3HCHCHCHSCHCSFeSCFeHSFeCH2SHFeH2C6H4C5H3CPC10HC3H2CHSC2H7C4H2CHCHFeHC3H5CHCHCHSC2H2FeC6HC2H2C2HSCH3FeS2FeS2FeSFeS3C2SCHSCHSC2FeS2FeS2FeSFeS3C6H4CFeC5H3CHC2H2C6H5C3H3C4H2C7H4C3H3C4H2C5HC2H4CH2CHC2HCHC2HCHCSHFeH3SC5PC18HCH19CHC5PC2HC5HCH3CH6C2H2CHCH2C2H2CHCHC4HC2HC6H2C4HC2SH2CHPCH2CHC5HC2HC3HC5HCHC7HC2HCH2C2PCH5PC3PC2H2C2H3CHC2HCHCH3C2HC3HC3HC4PHC2H3PCHCH3CHC2H2C2H2C2H2CH7CH2CH2C10H3CHCHC2H3CHC3H4C3HCH2CH2CH6SCPS2CFeS2FeSFeSFeS2FeS2FeSFeS3HSCHFeS2FeS2FeSFeS4HCSC6H4C6H4C5H4C7H4C6H3C7H2FeHC6H4CHC4PH3C6HCH2C7H2C4H2C2HSHC7PC8HFeH2C6H10CHC2H6C6H6C6PC18H17C2H2SH2C8HCH3C3HC6PC18H22CH2PSC3SHSC2H3C2HCHC2FeHC3SC3H3CHC3H3CHSHC5H2SH3CHCHC2HC2HC3HCH6C3PC4HC2H2C8H8C2PC6HCHCHCH3CH3C2HCH2CH2C3H8C2H2CH3C3H2CSCH2C3HCHC2HC3HC6H3CH2CHC6HCHC2H3CFeC5H2CH2C4H6CSC3P2FeH2C2HSHSH3S2H3C2H2CHSCHC2FeCHCSFeCHFeS2H2FeS3HSHSFeSHSFeS2FeS2FeSFeS3C6H4C6H4C13H6CHC7H4C3H3C3HFeHC2HCHCHCH3C2H2C2H4C3H2C2H3CH2C6H2CSH2C2HSHPFeC3H3C6HC3SC2HCHC9H4C2HC2H2CH4C3PC13H2CH8C3HPHC3H4CH7CHCHC2HC2H2C3H2CHPC4HCH2C2HC2H2C5SHCPCHC5HC4H3C3HFeHC2H3C2H3SCH2CHCH2CFePC4HC3H2SH5C3HC2HC4H5C2HCH2CH3CSC3SC2S2FeS2FeS2FeSFeS3HSHSHFeS2FeS2FeSFeS3C3H2C2HCH2C3FeCHC7H4C6H4C6SH3C4H3C6H4C10PH2CHSCH4C3HC4H7C2HC2H2CH2CH3C3HCPC7HC3HCH3CH2PHCH5CHC4H2CH2FeC2H2C6PC18H20C6PC16H21SC4HCHPC7HC12H8CHFeCH4CHC6PHCHCHPCHCH3C2HC3H3CHCH2CH2C2HC3H2CH2CHC2HC2H2SH2C4HC6H2C4H2CH5CH2C3H2CH2CH2CHC4HC2SCHCH3C2HCHSC2HC3H5C3H2C2S2FeS2FeS2FeSFeS5FeSFeSFeS2CFeSCSCS2CSCFeS2FeS2FeSFeS3CHC9H4C6H3C6H4C6H4C6H5SH3C6H4C6HCH2C6H4C6H4C6H2CHSH2C6H6C3PC18H16C6PC18H20C3HC2H2CSCHC3FeHC2HCHC3SHC2H2FeH2CH2C3HPHCHC2FeH3C2HC3HC2FeHC2HSHCHCH4C2H2CHC2HC3HC7HCHC2HCSH2C2HC2HSH2CHCHCPFeHC3H2C2SPCSC6HC2H2SFeHCH2SC2H2C3HC6PC18H21CH3CSHCSCHCHC4HC2HC2H2C2H2C2HCHCH2CHCHPCH2FeCPC4HCH2C2HCHPC3H3C3H5CHCHCHC3FeC2HCHC9H3CPH5C3HCHPCH2C2H2C2H6CH2CH3CH3CH4C2HFeH2SC4FeH2CH2FeHC2HC3HC4HC2HCH5CFeHCHCPC4HC2H2C3HSCSHSFe2CFeS2FeSHCS2CFeS2CFeS2FeS2FeS2FeSFeS3C7H4C2H3C6H6C3HC7H5C3HC2HC6H4C3H2C5HC2H4C5HC2SH5C7HC3HC2SHCH7C3HC2HC5PC15H15C6HPC2HC12HCHCH8C6PC7HC6H2CH10CH5C3SHPCH2CHPC4HCH4PCH3CH2CH2SCH2CH3PC3H2CHC5HC2FeC2H2CH3CHC3H4CSCH2C3H3CHC2H2CSHSHC2FeS2CHSH2CH3C7H4C3HSC2HC2FeC2H2CHC4HCHC3SC6PHC4PC2HC3FeCH2C3HCH6C3HCH5CHCSPH2FeC2HCHCHC2HSCSCH2C4FeH6CHCH2CH2CHC2H2CH3C2HC3HCH2SH2SCHFeCSC2HSFeCSH2CHSFeCSFeSPC2S2CFeC5H5SHC7H4FeHC2H2C2H3C3H3CPC2H3CHSHC2HC4SH3C2FeH2C4H2C2H3C3HC2H3CH3C8HCHCHC2HCH2C5H3C2H3C2SC2HCH4FeCHCHCH3CH2FeC5HC2SH2C3HCHC2HC3SHC2Fe2CSC2SCFeHSC2H2SCH3C4HC2HCHCHCH2CSHC2HFeHCH3C2HC2H2C8HSCSCHC2HCH4CPH3FeSCHCH3FeH2CH2
_chemical_formula_sum              "Fe128 C1920 S256 H1536 P64"
_cell_length_a       52.3116
_cell_length_b       52.1618
_cell_length_c       74.9309
_cell_angle_alpha    90.127
_cell_angle_beta     90.3644
_cell_angle_gamma    117.163

_space_group_name_H-M_alt    "P 1"
_space_group_IT_number       1

loop_
  _space_group_symop_operation_xyz
  'x, y, z'

loop_
  _atom_site_type_symbol
  _atom_site_label
  _atom_site_symmetry_multiplicity
  _atom_site_fract_x
  _atom_site_fract_y
  _atom_site_fract_z
  _atom_site_occupancy
  Fe  Fe1       1.0  0.46287  0.09760  0.09797  1.0000
  C   C1        1.0  0.03856  0.46626  0.10782  1.0000
  S   S1        1.0  0.42530  0.05574  0.10708  1.0000
  Fe  Fe2       1.0  0.48461  0.14756  0.07099  1.0000
  S   S2        1.0  0.47550  0.16415  0.04495  1.0000
  C   C2        1.0  0.43592  0.02037  0.08396  1.0000
  H   H1        1.0  0.49247  0.21292  0.06962  1.0000
  C   C3        1.0  0.51040  0.01435  0.07510  1.0000
  S   S3        1.0  0.48150  0.10303  0.07059  1.0000
  S   S4        1.0  0.46198  0.14056  0.09729  1.0000
  Fe  Fe3       1.0  0.12221  0.45172  0.08563  1.0000
  C   C4        1.0  0.43428  0.35545  0.02501  1.0000
  S   S5        1.0  0.08056  0.41092  0.09131  1.0000
  Fe  Fe4       1.0  0.17597  0.48521  0.06219  1.0000
  S   S6        1.0  0.19854  0.48959  0.03554  1.0000
  H   H2        1.0  0.44365  0.13753  0.18453  1.0000
  Fe  Fe5       1.0  0.18047  0.49126  0.10300  1.0000
  P   P1        1.0  0.42644  0.01797  0.01931  1.0000
  S   S7        1.0  0.16619  0.45319  0.08428  1.0000
  S   S8        1.0  0.13074  0.48027  0.06176  1.0000
  H   H3        1.0  0.37523  0.04714  0.07792  1.0000
  H   H4        1.0  0.50551  0.24984  0.17468  1.0000
  C   C5        1.0  0.22892  0.48363  0.03232  1.0000
  C   C6        1.0  0.23990  0.47320  0.04593  1.0000
  C   C7        1.0  0.05384  0.47911  0.09240  1.0000
  H   H5        1.0  0.50588  0.31687  0.30930  1.0000
  H   H6        1.0  0.22997  0.46892  0.05891  1.0000
  C   C8        1.0  0.50842  0.25364  0.30209  1.0000
  C   C9        1.0  0.04584  0.40301  0.08281  1.0000
  C   C10       1.0  0.04197  0.41929  0.06922  1.0000
  H   H7        1.0  0.48768  0.08747  0.01627  1.0000
  H   H8        1.0  0.06040  0.43759  0.06386  1.0000
  C   C11       1.0  0.48356  0.23811  0.02219  1.0000
  S   S9        1.0  0.21240  0.49790  0.12529  1.0000
  H   H9        1.0  0.09988  0.41959  0.03199  1.0000
  H   H10       1.0  0.43164  0.31625  0.03610  1.0000
  C   C12       1.0  0.47902  0.20967  0.02499  1.0000
  C   C13       1.0  0.20469  0.34029  0.04924  1.0000
  C   C14       1.0  0.50695  0.19779  0.17863  1.0000
  C   C15       1.0  0.48207  0.20034  0.04209  1.0000
  C   C16       1.0  0.46586  0.46563  0.01798  1.0000
  C   C17       1.0  0.20877  0.39197  0.06290  1.0000
  H   H11       1.0  0.45493  0.43256  0.05841  1.0000
  H   H12       1.0  0.46953  0.12354  0.01792  1.0000
  C   C18       1.0  0.26596  0.48414  0.01228  1.0000
  C   C19       1.0  0.02156  0.37914  0.08952  1.0000
  C   C20       1.0  0.40968  0.02730  0.03765  1.0000
  H   H13       1.0  0.07078  0.38204  0.05368  1.0000
  C   C21       1.0  0.50722  0.27680  0.10932  1.0000
  H   H14       1.0  0.47931  0.16356  0.16101  1.0000
  H   H15       1.0  0.18156  0.43346  0.13978  1.0000
  C   C22       1.0  0.24210  0.48913  0.01552  1.0000
  C   C23       1.0  0.09331  0.38772  0.05194  1.0000
  C   C24       1.0  0.49007  0.21985  0.05639  1.0000
  C   C25       1.0  0.44320  0.47286  0.01828  1.0000
  C   C26       1.0  0.38434  0.04171  0.06642  1.0000
  C   C27       1.0  0.44386  0.33952  0.03562  1.0000
  C   C28       1.0  0.26353  0.46787  0.04261  1.0000
  H   H16       1.0  0.25936  0.44288  0.09542  1.0000
  Fe  Fe6       1.0  0.50646  0.15875  0.10948  1.0000
  H   H17       1.0  0.16166  0.32053  0.05889  1.0000
  H   H18       1.0  0.27190  0.45974  0.05312  1.0000
  H   H19       1.0  0.02429  0.36629  0.09996  1.0000
  C   C29       1.0  0.48611  0.38343  0.04388  1.0000
  C   C30       1.0  0.08668  0.28463  0.07099  1.0000
  H   H20       1.0  0.46464  0.04570  0.05032  1.0000
  H   H21       1.0  0.49403  0.23109  0.11073  1.0000
  C   C31       1.0  0.46254  0.15750  0.18777  1.0000
  C   C32       1.0  0.37352  0.01304  0.06088  1.0000
  C   C33       1.0  0.49140  0.19440  0.20929  1.0000
  S   S10       1.0  0.30384  0.46266  0.02165  1.0000
  C   C34       1.0  0.42054  0.05607  0.04346  1.0000
  C   C35       1.0  0.30821  0.50910  0.08120  1.0000
  H   H22       1.0  0.25227  0.41103  0.05306  1.0000
  C   C36       1.0  0.26847  0.46549  0.09205  1.0000
  C   C37       1.0  0.51159  0.20926  0.19601  1.0000
  C   C38       1.0  0.41841  0.02207  0.09740  1.0000
  H   H23       1.0  0.30911  0.46841  0.08378  1.0000
  C   C39       1.0  0.18299  0.36641  0.06484  1.0000
  C   C40       1.0  0.25233  0.48041  0.09439  1.0000
  P   P2        1.0  0.15219  0.36680  0.07561  1.0000
  C   C41       1.0  0.12607  0.33023  0.08054  1.0000
  C   C42       1.0  0.16151  0.38662  0.09650  1.0000
  C   C43       1.0  0.14086  0.39221  0.10523  1.0000
  C   C44       1.0  0.14802  0.40883  0.12085  1.0000
  C   C45       1.0  0.17571  0.41963  0.12805  1.0000
  C   C46       1.0  0.19598  0.41301  0.11997  1.0000
  C   C47       1.0  0.18886  0.39627  0.10437  1.0000
  C   C48       1.0  0.12491  0.31870  0.09762  1.0000
  C   C49       1.0  0.10459  0.29043  0.10135  1.0000
  H   H24       1.0  0.23077  0.46942  0.09968  1.0000
  H   H25       1.0  0.47414  0.26573  0.30140  1.0000
  C   C50       1.0  0.45064  0.38533  0.02373  1.0000
  C   C51       1.0  0.13560  0.38284  0.06111  1.0000
  C   C52       1.0  0.10617  0.37493  0.06269  1.0000
  S   S11       1.0  0.50549  0.11538  0.11238  1.0000
  C   C53       1.0  0.46971  0.35351  0.04510  1.0000
  C   C54       1.0  0.46423  0.02950  0.02365  1.0000
  C   C55       1.0  0.15192  0.40410  0.04866  1.0000
  C   C56       1.0  0.18114  0.34059  0.05780  1.0000
  H   H26       1.0  0.50409  0.47406  0.06408  1.0000
  H   H27       1.0  0.06959  0.25159  0.09103  1.0000
  H   H28       1.0  0.11945  0.38464  0.09972  1.0000
  H   H29       1.0  0.13232  0.41413  0.12702  1.0000
  H   H30       1.0  0.07617  0.48363  0.09124  1.0000
  H   H31       1.0  0.21736  0.42133  0.12571  1.0000
  H   H32       1.0  0.20480  0.39113  0.09856  1.0000
  H   H33       1.0  0.13957  0.33147  0.10810  1.0000
  H   H34       1.0  0.10361  0.28175  0.11460  1.0000
  H   H35       1.0  0.20312  0.32028  0.04390  1.0000
  H   H36       1.0  0.49498  0.01671  0.08364  1.0000
  H   H37       1.0  0.41549  0.44622  0.05893  1.0000
  C   C57       1.0  0.23233  0.39147  0.05444  1.0000
  C   C58       1.0  0.10698  0.31288  0.06720  1.0000
  H   H38       1.0  0.21074  0.41230  0.06796  1.0000
  H   H39       1.0  0.15184  0.43399  0.02887  1.0000
  H   H40       1.0  0.17474  0.41157  0.04743  1.0000
  H   H41       1.0  0.05202  0.49512  0.06629  1.0000
  H   H42       1.0  0.50620  0.39355  0.05107  1.0000
  S   S12       1.0  0.13624  0.48765  0.10588  1.0000
  C   C59       1.0  0.49451  0.24830  0.05359  1.0000
  H   H43       1.0  0.04907  0.46063  0.11853  1.0000
  H   H44       1.0  0.48630  0.27460  0.11297  1.0000
  C   C60       1.0  0.40779  0.06321  0.05769  1.0000
  C   C61       1.0  0.13898  0.41701  0.03803  1.0000
  H   H45       1.0  0.07180  0.27144  0.06069  1.0000
  P   P3        1.0  0.49719  0.43839  0.03156  1.0000
  H   H46       1.0  0.24858  0.36549  0.04099  1.0000
  C   C62       1.0  0.49115  0.25750  0.03649  1.0000
  C   C63       1.0  0.46695  0.16864  0.20514  1.0000
  C   C64       1.0  0.26415  0.50975  0.09031  1.0000
  H   H47       1.0  0.49432  0.20255  0.22280  1.0000
  C   C65       1.0  0.04016  0.48552  0.07830  1.0000
  H   H48       1.0  0.45140  0.15725  0.21539  1.0000
  H   H49       1.0  0.43926  0.07300  0.03727  1.0000
  C   C66       1.0  0.27644  0.47292  0.02575  1.0000
  C   C67       1.0  0.10973  0.40891  0.03973  1.0000
  S   S13       1.0  0.49626  0.29321  0.03354  1.0000
  C   C68       1.0  0.47718  0.04333  0.03972  1.0000
  C   C69       1.0  0.42530  0.46621  0.03310  1.0000
  H   H50       1.0  0.20610  0.40746  0.02350  1.0000
  C   C70       1.0  0.08543  0.27343  0.08807  1.0000
  C   C71       1.0  0.47080  0.45165  0.03263  1.0000
  H   H51       1.0  0.10773  0.32121  0.05387  1.0000
  C   C72       1.0  0.42982  0.45197  0.04762  1.0000
  H   H52       1.0  0.45359  0.50482  0.06744  1.0000
  H   H53       1.0  0.45424  0.03977  0.07975  1.0000
  H   H54       1.0  0.41456  0.34454  0.01731  1.0000
  H   H55       1.0  0.09314  0.35951  0.07262  1.0000
  H   H56       1.0  0.47748  0.34095  0.05288  1.0000
  C   C73       1.0  0.29647  0.47988  0.08555  1.0000
  C   C74       1.0  0.45234  0.44454  0.04735  1.0000
  C   C75       1.0  0.48256  0.17210  0.17452  1.0000
  C   C76       1.0  0.23028  0.36570  0.04759  1.0000
  C   C77       1.0  0.49691  0.27302  0.30367  1.0000
  C   C78       1.0  0.47677  0.39961  0.03311  1.0000
  H   H57       1.0  0.49457  0.23133  0.29857  1.0000
  H   H58       1.0  0.40761  0.47163  0.03317  1.0000
  H   H59       1.0  0.41655  0.08535  0.06232  1.0000
  H   H60       1.0  0.44304  0.39719  0.01516  1.0000
  H   H61       1.0  0.01937  0.50077  0.03966  1.0000
  H   H62       1.0  0.24864  0.40338  0.01240  1.0000
  H   H63       1.0  0.47277  0.19475  0.01388  1.0000
  H   H64       1.0  0.47281  0.01369  0.14113  1.0000
  C   C79       1.0  0.51145  0.25228  0.10797  1.0000
  H   H65       1.0  0.50020  0.26309  0.06477  1.0000
  C   C80       1.0  0.50692  0.05518  0.04209  1.0000
  C   C81       1.0  0.01418  0.41177  0.06247  1.0000
  C   C82       1.0  0.51116  0.03770  0.01296  1.0000
  C   C83       1.0  0.40302  0.45647  0.64426  1.0000
  S   S14       1.0  0.46961  0.30418  0.59787  1.0000
  H   H66       1.0  0.46162  0.24653  0.51708  1.0000
  S   S15       1.0  0.47782  0.35452  0.56941  1.0000
  Fe  Fe7       1.0  0.46446  0.34479  0.59792  1.0000
  S   S16       1.0  0.42385  0.34172  0.61048  1.0000
  Fe  Fe8       1.0  0.48684  0.31620  0.57019  1.0000
  S   S17       1.0  0.47220  0.28508  0.54662  1.0000
  C   C84       1.0  0.47350  0.06610  0.52909  1.0000
  Fe  Fe9       1.0  0.49106  0.12166  0.47668  1.0000
  H   H67       1.0  0.02595  0.35528  0.46728  1.0000
  S   S18       1.0  0.44947  0.07931  0.47494  1.0000
  H   H68       1.0  0.07966  0.46303  0.51000  1.0000
  H   H69       1.0  0.49422  0.01392  0.47479  1.0000
  H   H70       1.0  0.17691  0.49563  0.63011  1.0000
  C   C85       1.0  0.46858  0.47721  0.49450  1.0000
  C   C86       1.0  0.38440  0.46897  0.64470  1.0000
  S   S19       1.0  0.49277  0.16588  0.47486  1.0000
  H   H71       1.0  0.05427  0.45169  0.56495  1.0000
  C   C87       1.0  0.05611  0.50318  0.49091  1.0000
  S   S20       1.0  0.34070  0.44603  0.57084  1.0000
  H   H72       1.0  0.50209  0.01969  0.56530  1.0000
  S   S21       1.0  0.32295  0.46814  0.60802  1.0000
  Fe  Fe10      1.0  0.35078  0.44736  0.60003  1.0000
  S   S22       1.0  0.34830  0.40882  0.61510  1.0000
  Fe  Fe11      1.0  0.31568  0.46995  0.57838  1.0000
  C   C88       1.0  0.06806  0.46074  0.53770  1.0000
  S   S23       1.0  0.11933  0.48944  0.46912  1.0000
  Fe  Fe12      1.0  0.12112  0.44815  0.47425  1.0000
  C   C89       1.0  0.01232  0.42142  0.47473  1.0000
  S   S24       1.0  0.08129  0.40519  0.46982  1.0000
  Fe  Fe13      1.0  0.18393  0.47977  0.48752  1.0000
  S   S25       1.0  0.22683  0.48134  0.49507  1.0000
  H   H73       1.0  0.49557  0.21509  0.44962  1.0000
  C   C90       1.0  0.20967  0.50342  0.64992  1.0000
  H   H74       1.0  0.02518  0.49588  0.44879  1.0000
  S   S26       1.0  0.14135  0.46083  0.50157  1.0000
  S   S27       1.0  0.16390  0.46298  0.46044  1.0000
  C   C91       1.0  0.25788  0.46361  0.54902  1.0000
  C   C92       1.0  0.22863  0.45595  0.54634  1.0000
  C   C93       1.0  0.21868  0.46139  0.52997  1.0000
  C   C94       1.0  0.23797  0.47427  0.51605  1.0000
  C   C95       1.0  0.26714  0.48166  0.51867  1.0000
  C   C96       1.0  0.27711  0.47645  0.53511  1.0000
  H   H75       1.0  0.02725  0.32107  0.50296  1.0000
  H   H76       1.0  0.19612  0.45531  0.52806  1.0000
  Fe  Fe14      1.0  0.36221  0.51050  0.60451  1.0000
  H   H77       1.0  0.29959  0.48224  0.53706  1.0000
  C   C97       1.0  0.44184  0.43049  0.54666  1.0000
  C   C98       1.0  0.04580  0.40129  0.47122  1.0000
  H   H78       1.0  0.49516  0.41887  0.49443  1.0000
  H   H79       1.0  0.47564  0.42530  0.39083  1.0000
  H   H80       1.0  0.05855  0.44621  0.47556  1.0000
  C   C99       1.0  0.44950  0.04523  0.47357  1.0000
  C   C100      1.0  0.47503  0.04282  0.47457  1.0000
  C   C101      1.0  0.45752  0.45718  0.53845  1.0000
  H   H81       1.0  0.49531  0.06207  0.47582  1.0000
  H   H82       1.0  0.46274  0.37411  0.39693  1.0000
  C   C102      1.0  0.40433  0.36202  0.61037  1.0000
  C   C103      1.0  0.41114  0.38655  0.59981  1.0000
  C   C104      1.0  0.39397  0.40118  0.60069  1.0000
  C   C105      1.0  0.37051  0.39162  0.61240  1.0000
  C   C106      1.0  0.36424  0.36743  0.62292  1.0000
  C   C107      1.0  0.38076  0.35267  0.62179  1.0000
  H   H83       1.0  0.42937  0.39406  0.59099  1.0000
  H   H84       1.0  0.39880  0.41972  0.59238  1.0000
  H   H85       1.0  0.34626  0.35983  0.63197  1.0000
  H   H86       1.0  0.37529  0.33384  0.62998  1.0000
  H   H87       1.0  0.50758  0.16633  0.55768  1.0000
  C   C108      1.0  0.05488  0.32959  0.58649  1.0000
  C   C109      1.0  0.43882  0.42083  0.65392  1.0000
  H   H88       1.0  0.03692  0.48027  0.51485  1.0000
  C   C110      1.0  0.49191  0.22917  0.51918  1.0000
  C   C111      1.0  0.47930  0.24663  0.52468  1.0000
  C   C112      1.0  0.46686  0.22524  0.46505  1.0000
  H   H89       1.0  0.20904  0.50945  0.53661  1.0000
  H   H90       1.0  0.48402  0.21578  0.50737  1.0000
  Fe  Fe15      1.0  0.14168  0.50304  0.49552  1.0000
  C   C113      1.0  0.07529  0.33632  0.57303  1.0000
  H   H91       1.0  0.07516  0.48373  0.53894  1.0000
  C   C114      1.0  0.50753  0.44183  0.41181  1.0000
  C   C115      1.0  0.39528  0.49861  0.64739  1.0000
  C   C116      1.0  0.04625  0.34978  0.55339  1.0000
  C   C117      1.0  0.07107  0.34644  0.55656  1.0000
  P   P4        1.0  0.04076  0.36346  0.53230  1.0000
  C   C118      1.0  0.06239  0.35832  0.51525  1.0000
  S   S28       1.0  0.41731  0.50263  0.55299  1.0000
  C   C119      1.0  0.42089  0.41479  0.66886  1.0000
  H   H92       1.0  0.40275  0.34372  0.67411  1.0000
  H   H93       1.0  0.05708  0.31525  0.47964  1.0000
  C   C120      1.0  0.46427  0.24547  0.47612  1.0000
  C   C121      1.0  0.47432  0.01547  0.47398  1.0000
  C   C122      1.0  0.04998  0.33574  0.50277  1.0000
  C   C123      1.0  0.06686  0.33223  0.48952  1.0000
  C   C124      1.0  0.09621  0.35114  0.48865  1.0000
  C   C125      1.0  0.10877  0.37356  0.50107  1.0000
  C   C126      1.0  0.09195  0.37720  0.51429  1.0000
  C   C127      1.0  0.05100  0.40146  0.53449  1.0000
  C   C128      1.0  0.04802  0.41316  0.55079  1.0000
  C   C129      1.0  0.45210  0.46365  0.60849  1.0000
  H   H94       1.0  0.43162  0.05511  0.51806  1.0000
  H   H95       1.0  0.40344  0.02155  0.47084  1.0000
  Fe  Fe16      1.0  0.37888  0.48987  0.57062  1.0000
  H   H96       1.0  0.09435  0.33352  0.57532  1.0000
  H   H97       1.0  0.41971  0.42369  0.55048  1.0000
  H   H98       1.0  0.50892  0.50969  0.63712  1.0000
  H   H99       1.0  0.15288  0.41564  0.57814  1.0000
  C   C130      1.0  0.45307  0.50391  0.47452  1.0000
  C   C131      1.0  0.41306  0.36532  0.66870  1.0000
  H   H100      1.0  0.48578  0.28632  0.48920  1.0000
  H   H101      1.0  0.06954  0.49260  0.48916  1.0000
  H   H102      1.0  0.45740  0.40243  0.63506  1.0000
  H   H103      1.0  0.08713  0.35129  0.54636  1.0000
  H   H104      1.0  0.43510  0.35431  0.64822  1.0000
  C   C132      1.0  0.48841  0.27144  0.48023  1.0000
  H   H105      1.0  0.10910  0.34891  0.47808  1.0000
  H   H106      1.0  0.13138  0.38866  0.50008  1.0000
  H   H107      1.0  0.10198  0.39508  0.52352  1.0000
  C   C133      1.0  0.34545  0.50688  0.50125  1.0000
  S   S29       1.0  0.26937  0.45714  0.57005  1.0000
  C   C134      1.0  0.03025  0.33305  0.58351  1.0000
  C   C135      1.0  0.48645  0.46654  0.53392  1.0000
  H   H108      1.0  0.49364  0.40820  0.54847  1.0000
  C   C136      1.0  0.45478  0.41276  0.55021  1.0000
  C   C137      1.0  0.48392  0.24508  0.61678  1.0000
  H   H109      1.0  0.05812  0.32160  0.59921  1.0000
  C   C138      1.0  0.25844  0.48835  0.43392  1.0000
  H   H110      1.0  0.39276  0.49659  0.47513  1.0000
  C   C139      1.0  0.18026  0.48701  0.56798  1.0000
  H   H111      1.0  0.19115  0.46270  0.58746  1.0000
  H   H112      1.0  0.04470  0.46267  0.43933  1.0000
  H   H113      1.0  0.23974  0.48997  0.57874  1.0000
  C   C140      1.0  0.17698  0.46186  0.57669  1.0000
  P   P5        1.0  0.45659  0.45714  0.64528  1.0000
  H   H114      1.0  0.23899  0.49224  0.45828  1.0000
  C   C141      1.0  0.25884  0.49946  0.45094  1.0000
  H   H115      1.0  0.41683  0.43146  0.67487  1.0000
  C   C142      1.0  0.48920  0.47798  0.65789  1.0000
  H   H116      1.0  0.15346  0.49923  0.59551  1.0000
  H   H117      1.0  0.48750  0.36174  0.42128  1.0000
  C   C143      1.0  0.40785  0.38708  0.67609  1.0000
  C   C144      1.0  0.48640  0.41991  0.40149  1.0000
  C   C145      1.0  0.44725  0.04750  0.52116  1.0000
  H   H118      1.0  0.11812  0.41228  0.55444  1.0000
  H   H119      1.0  0.33513  0.50063  0.51409  1.0000
  H   H120      1.0  0.50422  0.36752  0.50696  1.0000
  H   H121      1.0  0.46612  0.25010  0.61842  1.0000
  C   C146      1.0  0.44351  0.50331  0.64944  1.0000
  C   C147      1.0  0.16009  0.48488  0.55482  1.0000
  C   C148      1.0  0.43270  0.47347  0.64676  1.0000
  C   C149      1.0  0.49307  0.38410  0.41865  1.0000
  C   C150      1.0  0.24469  0.50425  0.59014  1.0000
  H   H122      1.0  0.47799  0.08799  0.53241  1.0000
  C   C151      1.0  0.05652  0.44271  0.55236  1.0000
  C   C152      1.0  0.26449  0.50464  0.60287  1.0000
  C   C153      1.0  0.49025  0.45247  0.61798  1.0000
  C   C154      1.0  0.37806  0.50469  0.47931  1.0000
  H   H123      1.0  0.49016  0.25758  0.58918  1.0000
  C   C155      1.0  0.46664  0.45727  0.62223  1.0000
  H   H124      1.0  0.03920  0.39967  0.56232  1.0000
  H   H125      1.0  0.35423  0.05253  0.51402  1.0000
  H   H126      1.0  0.36971  0.48320  0.50474  1.0000
  H   H127      1.0  0.39423  0.43358  0.64158  1.0000
  C   C156      1.0  0.48489  0.46096  0.58678  1.0000
  C   C157      1.0  0.46121  0.46548  0.59083  1.0000
  C   C158      1.0  0.07061  0.44915  0.52138  1.0000
  C   C159      1.0  0.13785  0.45804  0.54995  1.0000
  H   H128      1.0  0.12259  0.45670  0.53971  1.0000
  C   C160      1.0  0.49407  0.23559  0.63135  1.0000
  Fe  Fe17      1.0  0.16359  0.50570  0.45751  1.0000
  C   C161      1.0  0.04066  0.42503  0.47409  1.0000
  H   H129      1.0  0.23827  0.47278  0.42807  1.0000
  H   H130      1.0  0.44826  0.20493  0.46206  1.0000
  H   H131      1.0  0.16142  0.50408  0.54840  1.0000
  H   H132      1.0  0.44717  0.47072  0.53585  1.0000
  H   H133      1.0  0.44064  0.50458  0.46307  1.0000
  C   C162      1.0  0.28403  0.49730  0.42450  1.0000
  C   C163      1.0  0.47914  0.39106  0.40492  1.0000
  H   H134      1.0  0.44363  0.24081  0.48183  1.0000
  H   H135      1.0  0.21359  0.44552  0.55695  1.0000
  H   H136      1.0  0.43958  0.45837  0.47224  1.0000
  H   H137      1.0  0.46793  0.45692  0.49832  1.0000
  H   H138      1.0  0.44274  0.39223  0.55682  1.0000
  C   C164      1.0  0.15486  0.43499  0.57164  1.0000
  H   H139      1.0  0.51137  0.19230  0.58577  1.0000
  C   C165      1.0  0.36486  0.49689  0.49593  1.0000
  C   C166      1.0  0.02220  0.37380  0.46942  1.0000
  C   C167      1.0  0.13532  0.43307  0.55827  1.0000
  C   C168      1.0  0.48340  0.42169  0.54548  1.0000
  C   C169      1.0  0.43135  0.37129  0.65412  1.0000
  H   H140      1.0  0.06407  0.41121  0.50694  1.0000
  C   C170      1.0  0.49360  0.23095  0.45809  1.0000
  C   C171      1.0  0.44175  0.01954  0.51641  1.0000
  C   C172      1.0  0.44406  0.39884  0.64667  1.0000
  C   C173      1.0  0.06195  0.41967  0.51973  1.0000
  C   C174      1.0  0.49764  0.24950  0.60032  1.0000
  C   C175      1.0  0.03779  0.49646  0.50555  1.0000
  H   H141      1.0  0.38161  0.03509  0.53333  1.0000
  C   C176      1.0  0.02237  0.45724  0.43673  1.0000
  H   H142      1.0  0.44960  0.47010  0.58030  1.0000
  H   H143      1.0  0.48417  0.23345  0.64427  1.0000
  H   H144      1.0  0.50174  0.44740  0.62834  1.0000
  C   C177      1.0  0.02596  0.34318  0.56706  1.0000
  C   C178      1.0  0.49447  0.05693  0.53195  1.0000
  H   H145      1.0  0.20739  0.48171  0.64925  1.0000
  C   C179      1.0  0.02086  0.51065  0.50818  1.0000
  C   C180      1.0  0.42328  0.01992  0.47177  1.0000
  H   H146      1.0  0.36158  0.45566  0.64241  1.0000
  C   C181      1.0  0.48946  0.02912  0.52666  1.0000
  S   S30       1.0  0.39050  0.48943  0.59931  1.0000
  H   H147      1.0  0.43354  0.46695  0.61124  1.0000
  H   H148      1.0  0.27412  0.49021  0.60150  1.0000
  H   H149      1.0  0.28203  0.49126  0.50787  1.0000
  C   C182      1.0  0.48910  0.26391  0.54010  1.0000
  C   C183      1.0  0.45258  0.47796  0.47966  1.0000
  C   C184      1.0  0.49918  0.44839  0.53732  1.0000
  H   H150      1.0  0.01302  0.41682  0.42406  1.0000
  H   H151      1.0  0.49928  0.43511  0.46309  1.0000
  S   S31       1.0  0.50847  0.37183  0.60959  1.0000
  H   H152      1.0  0.28374  0.48856  0.41133  1.0000
  H   H153      1.0  0.01439  0.32776  0.59393  1.0000
  P   P6        1.0  0.50625  0.50111  0.52323  1.0000
  C   C185      1.0  0.49920  0.45413  0.60030  1.0000
  H   H154      1.0  0.49210  0.46251  0.57318  1.0000
  C   C186      1.0  0.36462  0.02009  0.52472  1.0000
  C   C187      1.0  0.48521  0.50246  0.50433  1.0000
  C   C188      1.0  0.34913  0.02991  0.51388  1.0000
  H   H155      1.0  0.38086  0.50836  0.64727  1.0000
  C   C189      1.0  0.51191  0.26387  0.54991  1.0000
  H   H156      1.0  0.48380  0.50509  0.55885  1.0000
  C   C190      1.0  0.51135  0.50276  0.65037  1.0000
  H   H157      1.0  0.31535  0.01830  0.49426  1.0000
  C   C191      1.0  0.49302  0.46945  0.67506  1.0000
  H   H158      1.0  0.42273  0.07161  0.95363  1.0000
  S   S32       1.0  0.46822  0.29537  0.98289  1.0000
  C   C192      1.0  0.47362  0.18216  0.92127  1.0000
  H   H159      1.0  0.50211  0.37227  0.85951  1.0000
  C   C193      1.0  0.45286  0.35064  0.93251  1.0000
  S   S33       1.0  0.50824  0.35590  0.96181  1.0000
  Fe  Fe18      1.0  0.47131  0.34003  0.98102  1.0000
  S   S34       1.0  0.43003  0.34485  0.97896  1.0000
  C   C194      1.0  0.23146  0.42886  0.97485  1.0000
  Fe  Fe19      1.0  0.38301  0.47585  0.97712  1.0000
  H   H160      1.0  0.46552  0.37792  0.88371  1.0000
  S   S35       1.0  0.41691  0.46049  0.97141  1.0000
  Fe  Fe20      1.0  0.33447  0.48042  0.99821  1.0000
  C   C195      1.0  0.41831  0.07198  0.98217  1.0000
  H   H161      1.0  0.47836  0.39106  0.91988  1.0000
  H   H162      1.0  0.41465  0.09083  0.98222  1.0000
  S   S36       1.0  0.33509  0.45824  0.97230  1.0000
  H   H163      1.0  0.49405  0.40810  0.99766  1.0000
  Fe  Fe21      1.0  0.34601  0.50153  0.95991  1.0000
  H   H164      1.0  0.46263  0.29073  0.92872  1.0000
  H   H165      1.0  0.45623  0.13942  0.96557  1.0000
  C   C196      1.0  0.42714  0.37752  0.97769  1.0000
  C   C197      1.0  0.44965  0.40301  0.97145  1.0000
  C   C198      1.0  0.44622  0.42822  0.96996  1.0000
  C   C199      1.0  0.42018  0.42828  0.97456  1.0000
  C   C200      1.0  0.39772  0.40285  0.98097  1.0000
  C   C201      1.0  0.40116  0.37759  0.98242  1.0000
  H   H166      1.0  0.46938  0.40304  0.96728  1.0000
  H   H167      1.0  0.46369  0.44770  0.96490  1.0000
  H   H168      1.0  0.37755  0.40250  0.98450  1.0000
  H   H169      1.0  0.39355  0.38240  0.68734  1.0000
  C   C202      1.0  0.18448  0.49029  0.98515  1.0000
  C   C203      1.0  0.44825  0.32234  0.93504  1.0000
  C   C204      1.0  0.14226  0.48391  0.00156  1.0000
  C   C205      1.0  0.48158  0.40019  0.88241  1.0000
  C   C206      1.0  0.47359  0.42022  0.87520  1.0000
  H   H170      1.0  0.24959  0.48885  0.97278  1.0000
  H   H171      1.0  0.41473  0.06749  0.01038  1.0000
  H   H172      1.0  0.23353  0.49678  0.00486  1.0000
  C   C207      1.0  0.20786  0.43213  0.98119  1.0000
  P   P7        1.0  0.18950  0.44619  0.96670  1.0000
  C   C208      1.0  0.21554  0.47424  0.95287  1.0000
  C   C209      1.0  0.16397  0.41764  0.95264  1.0000
  C   C210      1.0  0.14080  0.42030  0.94483  1.0000
  C   C211      1.0  0.12118  0.39845  0.93377  1.0000
  C   C212      1.0  0.12459  0.37384  0.93037  1.0000
  C   C213      1.0  0.14763  0.37108  0.93802  1.0000
  C   C214      1.0  0.16729  0.39288  0.94909  1.0000
  C   C215      1.0  0.24354  0.49140  0.95933  1.0000
  C   C216      1.0  0.22931  0.49906  0.92442  1.0000
  C   C217      1.0  0.48277  0.12370  0.00682  1.0000
  H   H173      1.0  0.47209  0.01474  0.99818  1.0000
  C   C218      1.0  0.20847  0.47853  0.93537  1.0000
  C   C219      1.0  0.17090  0.46113  0.98013  1.0000
  C   C220      1.0  0.44515  0.16413  0.92589  1.0000
  H   H174      1.0  0.27558  0.48788  0.99921  1.0000
  H   H175      1.0  0.41699  0.13497  0.94550  1.0000
  C   C221      1.0  0.43910  0.14867  0.94184  1.0000
  H   H176      1.0  0.50460  0.22307  0.96072  1.0000
  S   S37       1.0  0.49972  0.35600  0.00523  1.0000
  C   C222      1.0  0.47473  0.36900  0.92124  1.0000
  C   C223      1.0  0.23671  0.41052  0.00356  1.0000
  H   H177      1.0  0.23906  0.43487  0.96133  1.0000
  H   H178      1.0  0.45151  0.41343  0.87112  1.0000
  H   H179      1.0  0.13800  0.43937  0.94718  1.0000
  H   H180      1.0  0.10338  0.40064  0.92776  1.0000
  H   H181      1.0  0.10944  0.35694  0.92175  1.0000
  H   H182      1.0  0.15037  0.35206  0.93530  1.0000
  H   H183      1.0  0.18504  0.39030  0.95476  1.0000
  C   C224      1.0  0.46557  0.31239  0.92631  1.0000
  C   C225      1.0  0.24598  0.41840  0.98607  1.0000
  C   C226      1.0  0.14291  0.44338  0.98613  1.0000
  C   C227      1.0  0.49401  0.44900  0.87335  1.0000
  H   H184      1.0  0.18712  0.46584  0.92999  1.0000
  H   H185      1.0  0.13227  0.42061  0.98288  1.0000
  C   C228      1.0  0.46149  0.15129  0.95322  1.0000
  H   H186      1.0  0.42778  0.16237  0.91719  1.0000
  C   C229      1.0  0.49276  0.10312  0.00580  1.0000
  H   H187      1.0  0.22398  0.50202  0.91083  1.0000
  Fe  Fe22      1.0  0.49917  0.31267  0.00598  1.0000
  H   H188      1.0  0.48777  0.46452  0.86783  1.0000
  C   C230      1.0  0.50840  0.14594  0.97967  1.0000
  C   C231      1.0  0.51008  0.40888  0.88795  1.0000
  C   C232      1.0  0.42365  0.03436  0.99851  1.0000
  H   H189      1.0  0.26488  0.41702  0.98137  1.0000
  H   H190      1.0  0.43902  0.48299  0.00679  1.0000
  H   H191      1.0  0.20630  0.50421  0.98119  1.0000
  H   H192      1.0  0.47866  0.47012  0.00603  1.0000
  H   H193      1.0  0.50089  0.32255  0.90872  1.0000
  C   C233      1.0  0.49071  0.14517  0.99390  1.0000
  H   H194      1.0  0.43984  0.35848  0.93967  1.0000
  C   C234      1.0  0.42751  0.02328  0.98219  1.0000
  H   H195      1.0  0.43179  0.30844  0.94419  1.0000
  C   C235      1.0  0.12859  0.45483  0.99666  1.0000
  H   H196      1.0  0.38350  0.35792  0.98711  1.0000
  S   S38       1.0  0.38144  0.49456  0.00390  1.0000
  C   C236      1.0  0.17015  0.50163  0.99578  1.0000
  C   C237      1.0  0.49018  0.16932  0.94863  1.0000
  H   H197      1.0  0.47834  0.19446  0.90902  1.0000
  H   H198      1.0  0.48340  0.16146  0.99522  1.0000
  Fe  Fe23      1.0  0.50786  0.31302  0.96575  1.0000
  C   C238      1.0  0.21282  0.41296  0.00983  1.0000
  C   C239      1.0  0.42282  0.06115  0.96609  1.0000
  C   C240      1.0  0.42721  0.03667  0.96610  1.0000
  C   C241      1.0  0.19838  0.42367  0.99870  1.0000
  C   C242      1.0  0.48739  0.33065  0.91494  1.0000
  C   C243      1.0  0.49605  0.18477  0.93258  1.0000
  H   H199      1.0  0.48061  0.24485  0.00902  1.0000
  C   C244      1.0  0.41853  0.05860  0.99829  1.0000
  C   C245      1.0  0.49194  0.35904  0.91213  1.0000
  H   H200      1.0  0.43043  0.02808  0.95360  1.0000
  H   H201      1.0  0.15292  0.50325  0.95356  1.0000
  C   C246      1.0  0.51048  0.10375  0.99177  1.0000
  C   C247      1.0  0.48143  0.02606  0.01048  1.0000
  H   H202      1.0  0.47645  0.45036  0.68114  1.0000
  S   S39       1.0  0.32621  0.50825  0.93449  1.0000
  C   C248      1.0  0.51098  0.42996  0.99675  1.0000
  H   H203      1.0  0.10703  0.44109  0.00127  1.0000
  H   H204      1.0  0.18041  0.42604  0.00402  1.0000
  H   H205      1.0  0.13149  0.49259  0.01013  1.0000
  Fe  Fe24      1.0  0.36433  0.88923  0.07523  1.0000
  S   S40       1.0  0.37534  0.85475  0.08543  1.0000
  S   S41       1.0  0.40079  0.93503  0.07179  1.0000
  Fe  Fe25      1.0  0.30348  0.84356  0.06422  1.0000
  S   S42       1.0  0.31007  0.80632  0.07358  1.0000
  S   S43       1.0  0.26209  0.83781  0.05142  1.0000
  Fe  Fe26      1.0  0.33137  0.83440  0.09735  1.0000
  S   S44       1.0  0.32171  0.81597  0.12515  1.0000
  Fe  Fe27      1.0  0.35300  0.82997  0.06089  1.0000
  S   S45       1.0  0.37188  0.80711  0.04451  1.0000
  S   S46       1.0  0.32154  0.87055  0.08908  1.0000
  S   S47       1.0  0.34512  0.86534  0.04960  1.0000
  C   C249      1.0  0.41799  0.57842  0.27494  1.0000
  C   C250      1.0  0.35638  0.59865  0.25940  1.0000
  S   S48       1.0  0.45590  0.58972  0.07809  1.0000
  C   C251      1.0  0.15679  0.59672  0.05361  1.0000
  H   H206      1.0  0.37083  0.95020  0.09995  1.0000
  S   S49       1.0  0.13873  0.55375  0.07841  1.0000
  C   C252      1.0  0.08256  0.65039  0.03130  1.0000
  H   H207      1.0  0.19967  0.65403  0.32989  1.0000
  S   S50       1.0  0.32745  0.64124  0.31839  1.0000
  C   C253      1.0  0.42013  0.64492  0.29791  1.0000
  C   C254      1.0  0.37247  0.59045  0.03361  1.0000
  Fe  Fe28      1.0  0.35652  0.69923  0.17167  1.0000
  S   S51       1.0  0.38717  0.69646  0.19189  1.0000
  S   S52       1.0  0.37141  0.73080  0.14868  1.0000
  Fe  Fe29      1.0  0.30870  0.63981  0.18125  1.0000
  S   S53       1.0  0.33545  0.63175  0.20221  1.0000
  S   S54       1.0  0.26260  0.61326  0.17165  1.0000
  Fe  Fe30      1.0  0.34948  0.67776  0.21089  1.0000
  S   S55       1.0  0.35749  0.69606  0.23967  1.0000
  Fe  Fe31      1.0  0.37139  0.65118  0.18216  1.0000
  S   S56       1.0  0.40018  0.63127  0.17421  1.0000
  S   S57       1.0  0.32016  0.68471  0.19116  1.0000
  S   S58       1.0  0.34330  0.65502  0.16084  1.0000
  C   C255      1.0  0.33537  0.65739  0.29669  1.0000
  C   C256      1.0  0.35343  0.68678  0.29410  1.0000
  C   C257      1.0  0.35999  0.69809  0.27662  1.0000
  C   C258      1.0  0.34889  0.68028  0.26143  1.0000
  C   C259      1.0  0.33096  0.65089  0.26404  1.0000
  C   C260      1.0  0.32411  0.63967  0.28151  1.0000
  H   H208      1.0  0.36252  0.70073  0.30557  1.0000
  H   H209      1.0  0.37394  0.72082  0.27483  1.0000
  H   H210      1.0  0.32212  0.63684  0.25260  1.0000
  H   H211      1.0  0.31005  0.61698  0.28330  1.0000
  C   C261      1.0  0.22733  0.53088  0.13727  1.0000
  Fe  Fe32      1.0  0.14781  0.51614  0.08190  1.0000
  C   C262      1.0  0.26299  0.56353  0.15862  1.0000
  C   C263      1.0  0.25022  0.58196  0.15808  1.0000
  C   C264      1.0  0.22612  0.57481  0.14699  1.0000
  C   C265      1.0  0.21495  0.54962  0.13644  1.0000
  C   C266      1.0  0.27334  0.79126  0.31645  1.0000
  H   H212      1.0  0.28132  0.56861  0.16728  1.0000
  H   H213      1.0  0.21593  0.58879  0.14664  1.0000
  H   H214      1.0  0.19622  0.54425  0.12809  1.0000
  C   C267      1.0  0.15617  0.57076  0.05882  1.0000
  H   H215      1.0  0.38199  0.58876  0.12791  1.0000
  C   C268      1.0  0.41855  0.68135  0.26296  1.0000
  C   C269      1.0  0.16927  0.55814  0.04816  1.0000
  H   H216      1.0  0.36189  0.57064  0.09787  1.0000
  H   H217      1.0  0.16862  0.53796  0.05186  1.0000
  C   C270      1.0  0.48369  0.68144  0.14298  1.0000
  C   C271      1.0  0.46715  0.65174  0.14046  1.0000
  C   C272      1.0  0.44142  0.63670  0.14994  1.0000
  C   C273      1.0  0.43148  0.65132  0.16155  1.0000
  C   C274      1.0  0.44741  0.68123  0.16350  1.0000
  C   C275      1.0  0.47363  0.69614  0.15445  1.0000
  H   H218      1.0  0.47469  0.64017  0.13170  1.0000
  H   H219      1.0  0.42934  0.61357  0.14843  1.0000
  H   H220      1.0  0.44003  0.69272  0.17243  1.0000
  H   H221      1.0  0.48632  0.71905  0.15651  1.0000
  H   H222      1.0  0.10365  0.66873  0.03015  1.0000
  C   C276      1.0  0.42235  0.56178  0.04934  1.0000
  C   C277      1.0  0.44663  0.58618  0.05540  1.0000
  C   C278      1.0  0.46290  0.60791  0.04336  1.0000
  H   H223      1.0  0.22970  0.69893  0.31385  1.0000
  H   H224      1.0  0.31357  0.74400  0.03908  1.0000
  H   H225      1.0  0.48125  0.62705  0.04800  1.0000
  C   C279      1.0  0.23570  0.80424  0.04330  1.0000
  C   C280      1.0  0.20745  0.80027  0.04211  1.0000
  C   C281      1.0  0.18544  0.77432  0.03572  1.0000
  C   C282      1.0  0.24283  0.56884  0.05408  1.0000
  H   H226      1.0  0.20246  0.81729  0.04642  1.0000
  H   H227      1.0  0.30736  0.61798  0.08414  1.0000
  C   C283      1.0  0.43390  0.67007  0.33213  1.0000
  C   C284      1.0  0.33358  0.79036  0.13082  1.0000
  C   C285      1.0  0.35278  0.78583  0.11994  1.0000
  C   C286      1.0  0.36389  0.76717  0.12552  1.0000
  C   C287      1.0  0.35543  0.75248  0.14181  1.0000
  C   C288      1.0  0.33560  0.75634  0.15244  1.0000
  C   C289      1.0  0.32488  0.77544  0.14701  1.0000
  H   H228      1.0  0.35974  0.79737  0.10751  1.0000
  H   H229      1.0  0.37935  0.76438  0.11727  1.0000
  H   H230      1.0  0.32904  0.74516  0.16502  1.0000
  H   H231      1.0  0.31011  0.77895  0.15550  1.0000
  C   C290      1.0  0.43044  0.58111  0.01932  1.0000
  C   C291      1.0  0.39724  0.83304  0.03062  1.0000
  C   C292      1.0  0.42550  0.83697  0.03049  1.0000
  H   H232      1.0  0.35562  0.60458  0.14891  1.0000
  H   H233      1.0  0.08246  0.53090  0.04310  1.0000
  H   H234      1.0  0.43200  0.82465  0.03937  1.0000
  C   C293      1.0  0.34699  0.59713  0.13566  1.0000
  C   C294      1.0  0.03096  0.63114  0.03352  1.0000
  C   C295      1.0  0.40639  0.96809  0.08182  1.0000
  C   C296      1.0  0.38891  0.96966  0.09540  1.0000
  H   H235      1.0  0.49945  0.77804  0.05994  1.0000
  H   H236      1.0  0.33008  0.51997  0.07640  1.0000
  C   C297      1.0  0.30896  0.58531  0.11379  1.0000
  C   C298      1.0  0.32065  0.59576  0.13063  1.0000
  C   C299      1.0  0.33455  0.57261  0.06243  1.0000
  C   C300      1.0  0.32720  0.55675  0.04641  1.0000
  C   C301      1.0  0.40836  0.66579  0.32371  1.0000
  H   H237      1.0  0.39636  0.56683  0.27999  1.0000
  C   C302      1.0  0.38013  0.60598  0.04964  1.0000
  C   C303      1.0  0.36103  0.59744  0.06391  1.0000
  H   H238      1.0  0.28775  0.58291  0.11061  1.0000
  H   H239      1.0  0.30894  0.60221  0.13999  1.0000
  H   H240      1.0  0.19241  0.56117  0.02399  1.0000
  H   H241      1.0  0.42404  0.54027  0.27383  1.0000
  C   C304      1.0  0.28531  0.70156  0.02876  1.0000
  H   H242      1.0  0.22459  0.76405  0.28254  1.0000
  H   H243      1.0  0.36705  0.61023  0.07602  1.0000
  C   C305      1.0  0.44579  0.90364  0.06096  1.0000
  H   H244      1.0  0.30811  0.74632  0.23752  1.0000
  C   C306      1.0  0.44309  0.78089  0.16380  1.0000
  C   C307      1.0  0.42353  0.70154  0.24948  1.0000
  H   H245      1.0  0.30185  0.77462  0.32514  1.0000
  C   C308      1.0  0.41514  0.66403  0.11098  1.0000
  H   H246      1.0  0.28484  0.61140  0.02985  1.0000
  C   C309      1.0  0.25318  0.74695  0.29101  1.0000
  C   C310      1.0  0.46969  0.91046  0.05022  1.0000
  H   H247      1.0  0.42115  0.62808  0.23772  1.0000
  C   C311      1.0  0.26775  0.69236  0.31409  1.0000
  H   H248      1.0  0.36941  0.59243  0.30346  1.0000
  C   C312      1.0  0.01717  0.53537  0.02499  1.0000
  S   S59       1.0  0.16222  0.72010  0.02218  1.0000
  H   H249      1.0  0.47376  0.86772  0.13511  1.0000
  Fe  Fe33      1.0  0.49691  0.62994  0.08320  1.0000
  H   H250      1.0  0.38718  0.59723  0.02251  1.0000
  H   H251      1.0  0.12041  0.52587  0.02685  1.0000
  H   H252      1.0  0.27530  0.75885  0.01151  1.0000
  S   S60       1.0  0.19326  0.52313  0.08086  1.0000
  C   C313      1.0  0.22181  0.65956  0.32694  1.0000
  C   C314      1.0  0.45845  0.62260  0.26537  1.0000
  C   C315      1.0  0.24512  0.67201  0.04758  1.0000
  C   C316      1.0  0.25372  0.69449  0.06012  1.0000
  C   C317      1.0  0.27883  0.72025  0.05711  1.0000
  P   P8        1.0  0.23413  0.68884  0.08067  1.0000
  C   C318      1.0  0.24170  0.72302  0.09088  1.0000
  C   C319      1.0  0.19591  0.67283  0.07644  1.0000
  C   C320      1.0  0.17654  0.65854  0.09021  1.0000
  C   C321      1.0  0.14697  0.64821  0.08750  1.0000
  C   C322      1.0  0.13657  0.65264  0.07118  1.0000
  C   C323      1.0  0.15576  0.66730  0.05754  1.0000
  C   C324      1.0  0.18531  0.67751  0.06015  1.0000
  C   C325      1.0  0.24954  0.72871  0.10897  1.0000
  C   C326      1.0  0.25506  0.75532  0.11649  1.0000
  C   C327      1.0  0.25189  0.77602  0.10622  1.0000
  C   C328      1.0  0.24286  0.77004  0.08845  1.0000
  C   C329      1.0  0.23791  0.74371  0.08077  1.0000
  C   C330      1.0  0.24462  0.66653  0.09425  1.0000
  C   C331      1.0  0.27149  0.67867  0.10297  1.0000
  C   C332      1.0  0.27947  0.66163  0.11379  1.0000
  C   C333      1.0  0.26117  0.63218  0.11547  1.0000
  C   C334      1.0  0.23507  0.61963  0.10611  1.0000
  C   C335      1.0  0.22688  0.63665  0.09541  1.0000
  H   H253      1.0  0.25172  0.52122  0.09293  1.0000
  C   C336      1.0  0.11098  0.53868  0.02118  1.0000
  H   H254      1.0  0.40949  0.54511  0.05865  1.0000
  H   H255      1.0  0.22621  0.65174  0.04987  1.0000
  H   H256      1.0  0.28645  0.73760  0.06685  1.0000
  H   H257      1.0  0.18430  0.65574  0.10314  1.0000
  H   H258      1.0  0.13216  0.63698  0.09813  1.0000
  H   H259      1.0  0.11370  0.64484  0.06910  1.0000
  H   H260      1.0  0.14782  0.67112  0.04496  1.0000
  H   H261      1.0  0.19974  0.68958  0.04955  1.0000
  H   H262      1.0  0.25133  0.71283  0.11742  1.0000
  H   H263      1.0  0.26220  0.76016  0.13026  1.0000
  H   H264      1.0  0.25676  0.79684  0.11201  1.0000
  H   H265      1.0  0.24033  0.78612  0.08050  1.0000
  H   H266      1.0  0.23113  0.73955  0.06693  1.0000
  H   H267      1.0  0.28606  0.70144  0.10172  1.0000
  H   H268      1.0  0.29960  0.67133  0.12119  1.0000
  H   H269      1.0  0.26714  0.61913  0.12415  1.0000
  H   H270      1.0  0.22105  0.59668  0.10726  1.0000
  H   H271      1.0  0.20672  0.62633  0.08811  1.0000
  H   H272      1.0  0.43022  0.90135  0.08742  1.0000
  C   C337      1.0  0.04816  0.55260  0.09618  1.0000
  H   H273      1.0  0.47370  0.56591  0.26220  1.0000
  C   C338      1.0  0.45451  0.67089  0.03514  1.0000
  C   C339      1.0  0.45326  0.68827  0.04892  1.0000
  C   C340      1.0  0.43032  0.69497  0.04983  1.0000
  C   C341      1.0  0.40831  0.68423  0.03694  1.0000
  C   C342      1.0  0.40976  0.66684  0.02301  1.0000
  P   P9        1.0  0.38047  0.69559  0.03725  1.0000
  C   C343      1.0  0.36978  0.69780  0.05992  1.0000
  C   C344      1.0  0.39383  0.73037  0.02673  1.0000
  H   H274      1.0  0.35149  0.72591  0.02044  1.0000
  C   C345      1.0  0.36141  0.71891  0.06480  1.0000
  C   C346      1.0  0.35437  0.72131  0.08251  1.0000
  C   C347      1.0  0.35513  0.70238  0.09541  1.0000
  C   C348      1.0  0.36237  0.68066  0.09055  1.0000
  C   C349      1.0  0.36984  0.67844  0.07291  1.0000
  H   H275      1.0  0.46839  0.64561  0.26301  1.0000
  C   C350      1.0  0.42348  0.74866  0.02561  1.0000
  H   H276      1.0  0.47269  0.66626  0.03440  1.0000
  H   H277      1.0  0.47036  0.69677  0.05876  1.0000
  H   H278      1.0  0.43012  0.70914  0.06033  1.0000
  C   C351      1.0  0.18294  0.59694  0.02699  1.0000
  H   H279      1.0  0.43911  0.74309  0.03161  1.0000
  H   H280      1.0  0.36079  0.73401  0.05513  1.0000
  H   H281      1.0  0.34874  0.73818  0.08630  1.0000
  H   H282      1.0  0.35030  0.70468  0.10923  1.0000
  H   H283      1.0  0.36256  0.66582  0.10059  1.0000
  H   H284      1.0  0.37587  0.66178  0.06947  1.0000
  C   C352      1.0  0.47144  0.96565  0.10982  1.0000
  C   C353      1.0  0.37772  0.76504  0.30806  1.0000
  H   H285      1.0  0.30681  0.53752  0.04499  1.0000
  H   H286      1.0  0.46759  0.62216  0.01605  1.0000
  C   C354      1.0  0.42782  0.69534  0.23194  1.0000
  H   H287      1.0  0.48794  0.98401  0.16015  1.0000
  C   C355      1.0  0.02311  0.54851  0.06819  1.0000
  H   H288      1.0  0.42951  0.66375  0.21406  1.0000
  H   H289      1.0  0.34070  0.55314  0.01982  1.0000
  C   C356      1.0  0.36181  0.58816  0.12378  1.0000
  C   C357      1.0  0.29968  0.73657  0.26550  1.0000
  H   H290      1.0  0.41229  0.91878  0.02986  1.0000
  H   H291      1.0  0.24255  0.80344  0.30510  1.0000
  C   C358      1.0  0.42325  0.70858  0.12559  1.0000
  H   H292      1.0  0.27458  0.63611  0.07233  1.0000
  C   C359      1.0  0.27072  0.61432  0.06922  1.0000
  H   H293      1.0  0.30116  0.67910  0.31678  1.0000
  C   C360      1.0  0.44980  0.88831  0.12322  1.0000
  C   C361      1.0  0.46164  0.57771  0.26494  1.0000
  C   C362      1.0  0.38607  0.00581  0.04658  1.0000
  C   C363      1.0  0.48031  0.94893  0.12041  1.0000
  H   H294      1.0  0.43231  0.83030  0.15052  1.0000
  C   C364      1.0  0.02275  0.54616  0.08679  1.0000
  C   C365      1.0  0.40159  0.65334  0.30670  1.0000
  H   H295      1.0  0.42496  0.78205  0.17000  1.0000
  C   C366      1.0  0.23316  0.64106  0.33211  1.0000
  C   C367      1.0  0.28905  0.60383  0.07607  1.0000
  C   C368      1.0  0.42292  0.88834  0.12299  1.0000
  C   C369      1.0  0.47404  0.60737  0.26192  1.0000
  C   C370      1.0  0.47398  0.52408  0.06735  1.0000
  C   C371      1.0  0.24732  0.59667  0.05846  1.0000
  H   H296      1.0  0.14690  0.60657  0.06189  1.0000
  H   H297      1.0  0.39361  0.67188  0.33040  1.0000
  C   C372      1.0  0.32679  0.64756  0.03315  1.0000
  C   C373      1.0  0.07407  0.56219  0.08702  1.0000
  C   C374      1.0  0.17016  0.60983  0.03765  1.0000
  C   C375      1.0  0.43343  0.77481  0.01659  1.0000
  H   H298      1.0  0.26118  0.52365  0.14903  1.0000
  C   C376      1.0  0.02814  0.60317  0.03419  1.0000
  C   C377      1.0  0.32421  0.57727  0.10151  1.0000
  S   S61       1.0  0.49623  0.67241  0.08501  1.0000
  H   H299      1.0  0.32598  0.79559  0.01595  1.0000
  H   H300      1.0  0.50191  0.81405  0.09297  1.0000
  C   C378      1.0  0.05255  0.59860  0.03310  1.0000
  H   H301      1.0  0.25698  0.53652  0.05751  1.0000
  P   P10       1.0  0.30863  0.56257  0.08004  1.0000
  C   C379      1.0  0.49839  0.77495  0.10526  1.0000
  H   H302      1.0  0.38116  0.99767  0.11353  1.0000
  H   H303      1.0  0.29025  0.55069  0.27404  1.0000
  C   C380      1.0  0.38112  0.76689  0.32660  1.0000
  H   H304      1.0  0.22449  0.73888  0.02634  1.0000
  C   C381      1.0  0.38915  0.84946  0.01934  1.0000
  C   C382      1.0  0.41420  0.55929  0.03131  1.0000
  C   C383      1.0  0.18268  0.57124  0.03229  1.0000
  C   C384      1.0  0.19141  0.75220  0.02984  1.0000
  C   C385      1.0  0.42977  0.99363  0.07609  1.0000
  H   H305      1.0  0.44307  0.99276  0.06542  1.0000
  C   C386      1.0  0.45495  0.60529  0.02531  1.0000
  C   C387      1.0  0.34978  0.67024  0.02461  1.0000
  H   H306      1.0  0.50211  0.73814  0.11556  1.0000
  C   C388      1.0  0.35043  0.57814  0.10677  1.0000
  C   C389      1.0  0.40435  0.93207  0.02308  1.0000
  C   C390      1.0  0.26080  0.67558  0.03193  1.0000
  H   H307      1.0  0.36733  0.84652  0.01941  1.0000
  C   C391      1.0  0.08967  0.54199  0.03055  1.0000
  C   C392      1.0  0.32579  0.74043  0.31135  1.0000
  C   C393      1.0  0.07981  0.62245  0.03222  1.0000
  C   C394      1.0  0.28365  0.57530  0.07254  1.0000
  C   C395      1.0  0.26093  0.55819  0.06104  1.0000
  H   H308      1.0  0.42278  0.72150  0.25249  1.0000
  C   C396      1.0  0.48596  0.95556  0.13866  1.0000
  H   H309      1.0  0.49572  0.61859  0.25683  1.0000
  C   C397      1.0  0.24194  0.78200  0.03766  1.0000
  C   C398      1.0  0.25149  0.53803  0.14830  1.0000
  C   C399      1.0  0.47579  0.91447  0.08761  1.0000
  C   C400      1.0  0.46892  0.98896  0.11734  1.0000
  C   C401      1.0  0.42710  0.66890  0.22780  1.0000
  C   C402      1.0  0.49980  0.92156  0.07663  1.0000
  C   C403      1.0  0.30259  0.62891  0.02330  1.0000
  H   H310      1.0  0.47834  0.97856  0.06020  1.0000
  C   C404      1.0  0.47522  0.99581  0.13538  1.0000
  C   C405      1.0  0.49028  0.53240  0.05178  1.0000
  H   H311      1.0  0.39462  0.54112  0.02695  1.0000
  C   C406      1.0  0.48375  0.97911  0.14605  1.0000
  H   H312      1.0  0.29540  0.69604  0.22885  1.0000
  H   H313      1.0  0.09500  0.57349  0.06171  1.0000
  C   C407      1.0  0.29363  0.70130  0.24265  1.0000
  C   C408      1.0  0.30095  0.72966  0.24758  1.0000
  P   P11       1.0  0.41017  0.62796  0.27611  1.0000
  C   C409      1.0  0.27522  0.74976  0.30289  1.0000
  H   H314      1.0  0.22489  0.55508  0.04563  1.0000
  H   H315      1.0  0.28019  0.65803  0.25178  1.0000
  H   H316      1.0  0.34816  0.75083  0.28605  1.0000
  H   H317      1.0  0.24497  0.72975  0.28117  1.0000
  H   H318      1.0  0.41904  0.71907  0.13683  1.0000
  P   P12       1.0  0.04943  0.56283  0.03510  1.0000
  C   C410      1.0  0.28507  0.67984  0.25561  1.0000
  C   C411      1.0  0.29442  0.72385  0.04139  1.0000
  C   C412      1.0  0.39487  0.99659  0.10311  1.0000
  P   P13       1.0  0.29002  0.72454  0.30178  1.0000
  C   C413      1.0  0.35697  0.75571  0.33754  1.0000
  C   C414      1.0  0.07457  0.56518  0.06847  1.0000
  H   H319      1.0  0.30578  0.75873  0.26912  1.0000
  H   H320      1.0  0.38169  0.64999  0.30042  1.0000
  C   C415      1.0  0.32850  0.56998  0.29039  1.0000
  C   C416      1.0  0.34617  0.56568  0.03205  1.0000
  H   H321      1.0  0.09388  0.56736  0.09425  1.0000
  H   H322      1.0  0.06029  0.67636  0.03112  1.0000
  H   H323      1.0  0.43453  0.84021  0.10038  1.0000
  C   C417      1.0  0.48810  0.77462  0.14785  1.0000
  H   H324      1.0  0.45705  0.81664  0.11883  1.0000
  C   C418      1.0  0.29123  0.71513  0.27865  1.0000
  C   C419      1.0  0.28408  0.68669  0.27356  1.0000
  H   H325      1.0  0.42447  0.77438  0.13762  1.0000
  C   C420      1.0  0.44283  0.77647  0.14538  1.0000
  H   H326      1.0  0.40549  0.64074  0.11092  1.0000
  C   C421      1.0  0.40971  0.67847  0.12501  1.0000
  H   H327      1.0  0.27824  0.66976  0.28332  1.0000
  H   H328      1.0  0.23283  0.60461  0.05338  1.0000
  H   H329      1.0  0.39565  0.66635  0.13578  1.0000
  C   C422      1.0  0.46521  0.77313  0.13724  1.0000
  C   C423      1.0  0.44652  0.80664  0.10644  1.0000
  H   H330      1.0  0.47249  0.66530  0.33004  1.0000
  C   C424      1.0  0.43431  0.82038  0.09594  1.0000
  C   C425      1.0  0.04897  0.55757  0.05888  1.0000
  C   C426      1.0  0.23898  0.68508  0.31787  1.0000
  H   H331      1.0  0.41271  0.81964  0.07140  1.0000
  C   C427      1.0  0.42176  0.80864  0.07953  1.0000
  C   C428      1.0  0.44274  0.72455  0.11222  1.0000
  C   C429      1.0  0.24149  0.76628  0.29179  1.0000
  H   H332      1.0  0.46232  0.72160  0.08744  1.0000
  C   C430      1.0  0.44529  0.78036  0.10083  1.0000
  C   C431      1.0  0.05813  0.65472  0.03189  1.0000
  C   C432      1.0  0.44730  0.70982  0.09784  1.0000
  C   C433      1.0  0.43352  0.67966  0.09726  1.0000
  P   P14       1.0  0.46261  0.76346  0.11385  1.0000
  H   H333      1.0  0.32738  0.64428  0.04736  1.0000
  C   C434      1.0  0.43262  0.76870  0.08424  1.0000
  C   C435      1.0  0.42115  0.78300  0.07356  1.0000
  H   H334      1.0  0.43779  0.66829  0.08652  1.0000
  H   H335      1.0  0.47051  0.53527  0.09463  1.0000
  H   H336      1.0  0.09894  0.61943  0.03240  1.0000
  P   P15       1.0  0.47997  0.91644  0.11173  1.0000
  C   C436      1.0  0.42236  0.64874  0.24128  1.0000
  H   H337      1.0  0.42474  0.89672  0.05494  1.0000
  C   C437      1.0  0.46590  0.78231  0.17426  1.0000
  H   H338      1.0  0.43089  0.71074  0.22147  1.0000
  H   H339      1.0  0.41186  0.77441  0.06060  1.0000
  H   H340      1.0  0.48041  0.56497  0.02141  1.0000
  C   C438      1.0  0.37207  0.60362  0.27543  1.0000
  H   H341      1.0  0.43195  0.74887  0.07942  1.0000
  C   C439      1.0  0.35018  0.75209  0.30043  1.0000
  C   C440      1.0  0.41926  0.96208  0.02466  1.0000
  H   H342      1.0  0.43854  0.97157  0.03282  1.0000
  H   H343      1.0  0.04789  0.55036  0.11056  1.0000
  C   C441      1.0  0.48355  0.54113  0.08271  1.0000
  C   C442      1.0  0.50955  0.56634  0.08256  1.0000
  H   H344      1.0  0.41423  0.68628  0.27629  1.0000
  H   H345      1.0  0.36650  0.60974  0.24728  1.0000
  C   C443      1.0  0.29204  0.52419  0.08346  1.0000
  C   C444      1.0  0.21979  0.75603  0.03069  1.0000
  H   H346      1.0  0.43348  0.64609  0.01174  1.0000
  H   H347      1.0  0.46572  0.78504  0.18859  1.0000
  C   C445      1.0  0.27903  0.67386  0.31955  1.0000
  H   H348      1.0  0.40107  0.62439  0.05112  1.0000
  H   H349      1.0  0.16362  0.77149  0.03521  1.0000
  H   H350      1.0  0.49143  0.94209  0.14726  1.0000
  H   H351      1.0  0.40243  0.77681  0.33253  1.0000
  H   H352      1.0  0.46690  0.85867  0.01819  1.0000
  H   H353      1.0  0.41986  0.90494  0.11605  1.0000
  H   H354      1.0  0.46731  0.90902  0.03583  1.0000
  C   C446      1.0  0.39960  0.86713  0.13204  1.0000
  H   H355      1.0  0.17089  0.63004  0.03374  1.0000
  H   H356      1.0  0.38480  0.82969  0.14879  1.0000
  C   C447      1.0  0.43024  0.60819  0.27181  1.0000
  H   H357      1.0  0.37876  0.86693  0.13152  1.0000
  H   H358      1.0  0.26377  0.78496  0.03854  1.0000
  C   C448      1.0  0.42978  0.84646  0.14271  1.0000
  C   C449      1.0  0.40298  0.84611  0.14180  1.0000
  C   C450      1.0  0.41833  0.65493  0.25902  1.0000
  C   C451      1.0  0.49668  0.91921  0.05806  1.0000
  C   C452      1.0  0.45321  0.86765  0.13367  1.0000
  C   C453      1.0  0.44886  0.90584  0.07953  1.0000
  C   C454      1.0  0.32943  0.74222  0.32999  1.0000
  C   C455      1.0  0.31309  0.56512  0.27438  1.0000
  C   C456      1.0  0.44592  0.64946  0.30639  1.0000
  C   C457      1.0  0.07806  0.55952  0.02373  1.0000
  H   H359      1.0  0.31502  0.57610  0.24654  1.0000
  H   H360      1.0  0.24045  0.55114  0.01205  1.0000
  H   H361      1.0  0.31759  0.55942  0.30250  1.0000
  C   C458      1.0  0.45271  0.66197  0.32345  1.0000
  H   H362      1.0  0.35596  0.99626  0.06808  1.0000
  C   C459      1.0  0.37443  0.73913  0.01921  1.0000
  H   H363      1.0  0.46545  0.96027  0.09594  1.0000
  C   C460      1.0  0.35790  0.58898  0.29091  1.0000
  C   C461      1.0  0.25159  0.78845  0.30450  1.0000
  H   H364      1.0  0.28113  0.80838  0.32636  1.0000
  H   H365      1.0  0.25376  0.65814  0.02228  1.0000
  H   H366      1.0  0.46075  0.64328  0.30001  1.0000
  C   C462      1.0  0.32704  0.57944  0.25890  1.0000
  H   H367      1.0  0.39644  0.77347  0.29956  1.0000
  C   C463      1.0  0.28511  0.77200  0.31569  1.0000
  C   C464      1.0  0.43366  0.56326  0.27148  1.0000
  C   C465      1.0  0.26170  0.64816  0.32830  1.0000
  H   H368      1.0  0.37764  0.98329  0.04301  1.0000
  H   H369      1.0  0.29720  0.70438  0.01652  1.0000
  H   H370      1.0  0.27053  0.63373  0.33209  1.0000
  H   H371      1.0  0.48255  0.51884  0.04007  1.0000
  C   C466      1.0  0.43262  0.65992  0.02229  1.0000
  C   C467      1.0  0.44523  0.85612  0.01838  1.0000
  C   C468      1.0  0.48846  0.77931  0.16627  1.0000
  H   H372      1.0  0.31101  0.73335  0.33875  1.0000
  C   C469      1.0  0.50100  0.99329  0.06172  1.0000
  H   H373      1.0  0.21990  0.62121  0.33903  1.0000
  H   H374      1.0  0.48714  0.72637  0.01585  1.0000
  C   C470      1.0  0.40861  0.97936  0.01630  1.0000
  H   H375      1.0  0.45625  0.78925  0.01615  1.0000
  H   H376      1.0  0.39341  0.65858  0.01268  1.0000
  C   C471      1.0  0.37862  0.91913  0.01338  1.0000
  H   H377      1.0  0.49726  0.87169  0.10474  1.0000
  H   H378      1.0  0.36675  0.89585  0.01262  1.0000
  H   H379      1.0  0.50524  0.77120  0.14215  1.0000
  H   H380      1.0  0.50582  0.77970  0.17442  1.0000
  H   H381      1.0  0.46132  0.00137  0.10934  1.0000
  H   H382      1.0  0.30301  0.54859  0.58017  1.0000
  S   S62       1.0  0.38232  0.55190  0.62090  1.0000
  C   C472      1.0  0.35375  0.53405  0.47374  1.0000
  P   P16       1.0  0.15560  0.61576  0.46632  1.0000
  S   S63       1.0  0.35683  0.63699  0.36677  1.0000
  S   S64       1.0  0.42851  0.59486  0.49562  1.0000
  C   C473      1.0  0.45558  0.62773  0.62848  1.0000
  Fe  Fe34      1.0  0.38414  0.68143  0.37766  1.0000
  S   S65       1.0  0.35269  0.67939  0.39858  1.0000
  S   S66       1.0  0.43233  0.70069  0.38221  1.0000
  Fe  Fe35      1.0  0.33469  0.69678  0.37724  1.0000
  S   S67       1.0  0.31678  0.72885  0.37999  1.0000
  Fe  Fe36      1.0  0.32394  0.63588  0.38651  1.0000
  S   S68       1.0  0.30366  0.59767  0.40535  1.0000
  Fe  Fe37      1.0  0.41409  0.90923  0.47183  1.0000
  S   S69       1.0  0.41673  0.87836  0.45162  1.0000
  S   S70       1.0  0.44879  0.95634  0.47221  1.0000
  Fe  Fe38      1.0  0.36794  0.85944  0.49375  1.0000
  S   S71       1.0  0.36719  0.82512  0.47546  1.0000
  S   S72       1.0  0.34512  0.85011  0.52040  1.0000
  Fe  Fe39      1.0  0.41503  0.85117  0.47504  1.0000
  S   S73       1.0  0.44514  0.83194  0.47881  1.0000
  Fe  Fe40      1.0  0.36865  0.85453  0.45338  1.0000
  S   S74       1.0  0.33921  0.83675  0.42943  1.0000
  S   S75       1.0  0.41598  0.88313  0.49516  1.0000
  S   S76       1.0  0.36569  0.88764  0.47172  1.0000
  H   H383      1.0  0.49283  0.97456  0.50062  1.0000
  S   S77       1.0  0.44794  0.82010  0.56199  1.0000
  C   C474      1.0  0.27244  0.58459  0.54656  1.0000
  H   H384      1.0  0.25252  0.75067  0.59760  1.0000
  Fe  Fe41      1.0  0.14622  0.66550  0.56634  1.0000
  S   S78       1.0  0.16934  0.64995  0.58562  1.0000
  S   S79       1.0  0.09878  0.64099  0.55759  1.0000
  Fe  Fe42      1.0  0.20408  0.71471  0.55236  1.0000
  S   S80       1.0  0.23116  0.70312  0.57073  1.0000
  S   S81       1.0  0.22125  0.74360  0.52817  1.0000
  Fe  Fe43      1.0  0.20085  0.65764  0.56362  1.0000
  S   S82       1.0  0.21945  0.62861  0.55541  1.0000
  Fe  Fe44      1.0  0.19795  0.69688  0.59136  1.0000
  S   S83       1.0  0.20967  0.71239  0.61987  1.0000
  S   S84       1.0  0.17602  0.66912  0.54383  1.0000
  S   S85       1.0  0.17266  0.71251  0.57357  1.0000
  S   S86       1.0  0.43261  0.71395  0.65313  1.0000
  H   H385      1.0  0.37607  0.60322  0.40070  1.0000
  C   C475      1.0  0.44374  0.69103  0.51759  1.0000
  S   S87       1.0  0.35069  0.67518  0.65882  1.0000
  C   C476      1.0  0.23960  0.71509  0.63252  1.0000
  C   C477      1.0  0.25621  0.70109  0.62802  1.0000
  C   C478      1.0  0.27856  0.70290  0.63963  1.0000
  C   C479      1.0  0.28463  0.71931  0.65547  1.0000
  C   C480      1.0  0.26854  0.73381  0.65943  1.0000
  C   C481      1.0  0.24608  0.73143  0.64822  1.0000
  H   H386      1.0  0.25141  0.68841  0.61589  1.0000
  H   H387      1.0  0.29093  0.69167  0.63637  1.0000
  H   H388      1.0  0.49584  0.54556  0.57947  1.0000
  H   H389      1.0  0.23351  0.74233  0.65182  1.0000
  C   C482      1.0  0.14935  0.55115  0.52686  1.0000
  C   C483      1.0  0.14198  0.56891  0.53740  1.0000
  C   C484      1.0  0.16346  0.59291  0.54616  1.0000
  C   C485      1.0  0.19224  0.59872  0.54467  1.0000
  C   C486      1.0  0.19938  0.58033  0.53473  1.0000
  C   C487      1.0  0.17801  0.55660  0.52578  1.0000
  H   H390      1.0  0.11977  0.56442  0.53858  1.0000
  H   H391      1.0  0.15768  0.60678  0.55408  1.0000
  H   H392      1.0  0.22156  0.58494  0.53355  1.0000
  H   H393      1.0  0.18376  0.54257  0.51809  1.0000
  C   C488      1.0  0.47789  0.72553  0.58786  1.0000
  C   C489      1.0  0.49331  0.78891  0.63286  1.0000
  C   C490      1.0  0.47648  0.75974  0.63686  1.0000
  C   C491      1.0  0.45384  0.75112  0.64903  1.0000
  C   C492      1.0  0.44831  0.77214  0.65732  1.0000
  H   H394      1.0  0.14366  0.55536  0.45955  1.0000
  H   H395      1.0  0.25039  0.59718  0.48810  1.0000
  H   H396      1.0  0.48136  0.74403  0.63051  1.0000
  H   H397      1.0  0.49933  0.77085  0.41346  1.0000
  C   C493      1.0  0.18612  0.53897  0.58436  1.0000
  C   C494      1.0  0.31141  0.81953  0.52261  1.0000
  C   C495      1.0  0.29909  0.81153  0.53959  1.0000
  C   C496      1.0  0.27184  0.78766  0.54164  1.0000
  C   C497      1.0  0.25652  0.77209  0.52663  1.0000
  C   C498      1.0  0.26882  0.78032  0.50968  1.0000
  C   C499      1.0  0.29627  0.80368  0.50768  1.0000
  H   H398      1.0  0.31064  0.82383  0.55120  1.0000
  H   H399      1.0  0.26245  0.78173  0.55475  1.0000
  H   H400      1.0  0.25693  0.76868  0.49803  1.0000
  H   H401      1.0  0.30548  0.80984  0.49455  1.0000
  C   C500      1.0  0.44529  0.82584  0.50168  1.0000
  C   C501      1.0  0.42178  0.82262  0.51191  1.0000
  C   C502      1.0  0.42221  0.81930  0.53036  1.0000
  C   C503      1.0  0.44661  0.82050  0.53874  1.0000
  C   C504      1.0  0.46991  0.82295  0.52852  1.0000
  C   C505      1.0  0.46910  0.82531  0.50990  1.0000
  H   H402      1.0  0.40328  0.82297  0.50569  1.0000
  H   H403      1.0  0.40398  0.81685  0.53814  1.0000
  H   H404      1.0  0.14650  0.70244  0.44769  1.0000
  C   C506      1.0  0.26088  0.54337  0.61857  1.0000
  C   C507      1.0  0.26733  0.57974  0.41213  1.0000
  C   C508      1.0  0.24592  0.58524  0.40441  1.0000
  C   C509      1.0  0.21746  0.57085  0.41071  1.0000
  C   C510      1.0  0.21026  0.55084  0.42468  1.0000
  C   C511      1.0  0.23160  0.54512  0.43219  1.0000
  C   C512      1.0  0.25988  0.55933  0.42581  1.0000
  H   H405      1.0  0.25127  0.60030  0.39350  1.0000
  H   H406      1.0  0.34928  0.59078  0.58585  1.0000
  Fe  Fe45      1.0  0.51078  0.65305  0.45635  1.0000
  H   H407      1.0  0.27609  0.55431  0.43139  1.0000
  C   C513      1.0  0.32420  0.75788  0.39491  1.0000
  C   C514      1.0  0.34383  0.76543  0.40923  1.0000
  C   C515      1.0  0.34876  0.78943  0.42029  1.0000
  C   C516      1.0  0.33402  0.80578  0.41693  1.0000
  C   C517      1.0  0.31416  0.79761  0.40285  1.0000
  C   C518      1.0  0.30929  0.77394  0.39199  1.0000
  H   H408      1.0  0.35525  0.75296  0.41165  1.0000
  H   H409      1.0  0.36407  0.79544  0.43121  1.0000
  H   H410      1.0  0.30264  0.80995  0.40016  1.0000
  H   H411      1.0  0.29403  0.76828  0.38106  1.0000
  C   C519      1.0  0.48498  0.66652  0.41477  1.0000
  H   H412      1.0  0.18943  0.62842  0.49954  1.0000
  C   C520      1.0  0.47188  0.68072  0.38656  1.0000
  C   C521      1.0  0.44985  0.68445  0.39476  1.0000
  C   C522      1.0  0.44529  0.67908  0.41313  1.0000
  C   C523      1.0  0.46311  0.67053  0.42319  1.0000
  P   P17       1.0  0.34383  0.55530  0.45889  1.0000
  H   H413      1.0  0.47610  0.68547  0.37253  1.0000
  H   H414      1.0  0.42856  0.68225  0.41963  1.0000
  H   H415      1.0  0.45983  0.66689  0.43735  1.0000
  C   C524      1.0  0.36347  0.56324  0.63580  1.0000
  C   C525      1.0  0.33790  0.54382  0.64384  1.0000
  C   C526      1.0  0.32388  0.55393  0.65589  1.0000
  C   C527      1.0  0.33551  0.58342  0.66002  1.0000
  C   C528      1.0  0.36127  0.60272  0.65212  1.0000
  C   C529      1.0  0.37520  0.59259  0.64015  1.0000
  H   H416      1.0  0.20328  0.64834  0.44222  1.0000
  C   C530      1.0  0.50917  0.73734  0.44999  1.0000
  H   H417      1.0  0.37058  0.62545  0.65530  1.0000
  H   H418      1.0  0.39516  0.60755  0.63419  1.0000
  C   C531      1.0  0.42089  0.52963  0.53794  1.0000
  C   C532      1.0  0.44703  0.54529  0.52923  1.0000
  C   C533      1.0  0.44986  0.56618  0.51661  1.0000
  C   C534      1.0  0.42634  0.57104  0.51255  1.0000
  C   C535      1.0  0.40055  0.55615  0.52170  1.0000
  C   C536      1.0  0.39778  0.53539  0.53438  1.0000
  C   C537      1.0  0.35008  0.80174  0.65886  1.0000
  H   H419      1.0  0.46998  0.57803  0.50975  1.0000
  H   H420      1.0  0.38246  0.56006  0.51861  1.0000
  C   C538      1.0  0.22625  0.53051  0.53969  1.0000
  C   C539      1.0  0.03969  0.61048  0.55757  1.0000
  C   C540      1.0  0.06447  0.62663  0.56799  1.0000
  C   C541      1.0  0.06115  0.63102  0.58608  1.0000
  H   H421      1.0  0.04196  0.60689  0.54358  1.0000
  H   H422      1.0  0.07992  0.64350  0.59425  1.0000
  C   C542      1.0  0.01510  0.68380  0.60309  1.0000
  C   C543      1.0  0.44814  0.99016  0.47235  1.0000
  H   H423      1.0  0.45250  0.77492  0.48341  1.0000
  S   S88       1.0  0.31204  0.72359  0.67101  1.0000
  H   H424      1.0  0.33491  0.64785  0.49376  1.0000
  C   C544      1.0  0.15340  0.56410  0.59894  1.0000
  C   C545      1.0  0.33582  0.93525  0.45689  1.0000
  C   C546      1.0  0.31661  0.90703  0.45201  1.0000
  C   C547      1.0  0.30104  0.88706  0.46511  1.0000
  C   C548      1.0  0.30481  0.89520  0.48313  1.0000
  C   C549      1.0  0.32394  0.92360  0.48816  1.0000
  C   C550      1.0  0.33949  0.94351  0.47487  1.0000
  P   P18       1.0  0.32985  0.93434  0.51144  1.0000
  C   C551      1.0  0.33674  0.97155  0.51298  1.0000
  C   C552      1.0  0.29836  0.91151  0.52416  1.0000
  C   C553      1.0  0.27848  0.92116  0.52945  1.0000
  C   C554      1.0  0.25398  0.90295  0.53900  1.0000
  C   C555      1.0  0.24912  0.87502  0.54329  1.0000
  C   C556      1.0  0.26881  0.86530  0.53811  1.0000
  C   C557      1.0  0.29336  0.88349  0.52866  1.0000
  C   C558      1.0  0.46289  0.01050  0.51895  1.0000
  H   H425      1.0  0.15427  0.65793  0.49272  1.0000
  Fe  Fe46      1.0  0.33851  0.65779  0.34749  1.0000
  H   H426      1.0  0.26782  0.55897  0.62938  1.0000
  H   H427      1.0  0.32911  0.52104  0.64089  1.0000
  C   C559      1.0  0.36086  0.93159  0.52004  1.0000
  C   C560      1.0  0.38439  0.93740  0.50899  1.0000
  C   C561      1.0  0.40906  0.93703  0.51591  1.0000
  C   C562      1.0  0.41063  0.93103  0.53389  1.0000
  C   C563      1.0  0.38734  0.92526  0.54504  1.0000
  C   C564      1.0  0.36259  0.92569  0.53819  1.0000
  H   H428      1.0  0.34840  0.95057  0.44677  1.0000
  H   H429      1.0  0.31439  0.90041  0.43812  1.0000
  H   H430      1.0  0.28678  0.86499  0.46134  1.0000
  H   H431      1.0  0.29313  0.87905  0.49298  1.0000
  H   H432      1.0  0.35483  0.96536  0.47838  1.0000
  H   H433      1.0  0.28170  0.94261  0.52622  1.0000
  H   H434      1.0  0.23866  0.91044  0.54302  1.0000
  H   H435      1.0  0.23005  0.86082  0.55057  1.0000
  H   H436      1.0  0.26501  0.84357  0.54128  1.0000
  H   H437      1.0  0.30832  0.87557  0.52465  1.0000
  C   C565      1.0  0.19101  0.60135  0.64569  1.0000
  H   H438      1.0  0.43315  0.53886  0.65141  1.0000
  C   C566      1.0  0.01648  0.54089  0.57622  1.0000
  C   C567      1.0  0.24520  0.54565  0.52601  1.0000
  H   H439      1.0  0.30413  0.96689  0.49348  1.0000
  H   H440      1.0  0.38389  0.94224  0.49502  1.0000
  H   H441      1.0  0.42694  0.94113  0.50722  1.0000
  H   H442      1.0  0.42979  0.93055  0.53906  1.0000
  H   H443      1.0  0.38834  0.92014  0.55894  1.0000
  H   H444      1.0  0.34490  0.92146  0.54708  1.0000
  C   C568      1.0  0.42572  0.56983  0.58025  1.0000
  C   C569      1.0  0.45153  0.57845  0.57119  1.0000
  C   C570      1.0  0.41013  0.58544  0.57848  1.0000
  C   C571      1.0  0.35351  0.58645  0.54060  1.0000
  C   C572      1.0  0.32717  0.56210  0.53758  1.0000
  C   C573      1.0  0.30897  0.54851  0.55184  1.0000
  H   H445      1.0  0.41740  0.55059  0.58834  1.0000
  H   H446      1.0  0.46265  0.56539  0.57189  1.0000
  H   H447      1.0  0.38991  0.57791  0.58535  1.0000
  H   H448      1.0  0.36719  0.59602  0.52936  1.0000
  H   H449      1.0  0.32095  0.55343  0.52421  1.0000
  H   H450      1.0  0.17281  0.65229  0.63004  1.0000
  C   C574      1.0  0.32265  0.75080  0.53713  1.0000
  C   C575      1.0  0.34330  0.74270  0.53139  1.0000
  C   C576      1.0  0.36737  0.74869  0.54209  1.0000
  C   C577      1.0  0.37065  0.76255  0.55858  1.0000
  C   C578      1.0  0.34979  0.77031  0.56461  1.0000
  C   C579      1.0  0.32594  0.76463  0.55361  1.0000
  P   P19       1.0  0.35642  0.79162  0.58481  1.0000
  C   C580      1.0  0.36895  0.77544  0.60197  1.0000
  C   C581      1.0  0.38274  0.82774  0.57914  1.0000
  C   C582      1.0  0.40441  0.84503  0.59127  1.0000
  C   C583      1.0  0.42551  0.87226  0.58615  1.0000
  C   C584      1.0  0.42473  0.88264  0.56908  1.0000
  C   C585      1.0  0.40245  0.86610  0.55726  1.0000
  C   C586      1.0  0.38136  0.83894  0.56235  1.0000
  C   C587      1.0  0.34955  0.75563  0.61410  1.0000
  C   C588      1.0  0.35920  0.74277  0.62708  1.0000
  C   C589      1.0  0.38829  0.74976  0.62825  1.0000
  C   C590      1.0  0.40781  0.76968  0.61644  1.0000
  C   C591      1.0  0.39814  0.78198  0.60313  1.0000
  C   C592      1.0  0.32439  0.79313  0.59243  1.0000
  C   C593      1.0  0.29770  0.76835  0.59216  1.0000
  C   C594      1.0  0.27306  0.76972  0.59800  1.0000
  C   C595      1.0  0.27479  0.79558  0.60444  1.0000
  C   C596      1.0  0.30127  0.82030  0.60494  1.0000
  C   C597      1.0  0.32600  0.81912  0.59896  1.0000
  H   H451      1.0  0.30444  0.74716  0.52863  1.0000
  H   H452      1.0  0.34098  0.73244  0.51850  1.0000
  H   H453      1.0  0.38408  0.74362  0.53738  1.0000
  H   H454      1.0  0.39008  0.76836  0.56624  1.0000
  H   H455      1.0  0.31025  0.77157  0.55743  1.0000
  H   H456      1.0  0.40546  0.83741  0.60453  1.0000
  H   H457      1.0  0.44293  0.88496  0.59526  1.0000
  H   H458      1.0  0.44152  0.90333  0.56495  1.0000
  H   H459      1.0  0.40176  0.87376  0.54391  1.0000
  H   H460      1.0  0.36451  0.82642  0.55285  1.0000
  H   H461      1.0  0.32695  0.74999  0.61374  1.0000
  H   H462      1.0  0.43052  0.77548  0.61751  1.0000
  H   H463      1.0  0.41362  0.79675  0.59383  1.0000
  H   H464      1.0  0.29586  0.74793  0.58743  1.0000
  H   H465      1.0  0.25554  0.79631  0.60909  1.0000
  H   H466      1.0  0.30262  0.84038  0.60993  1.0000
  H   H467      1.0  0.34629  0.83853  0.59948  1.0000
  C   C598      1.0  0.45285  0.72025  0.59720  1.0000
  C   C599      1.0  0.19421  0.62783  0.63911  1.0000
  H   H468      1.0  0.32964  0.52363  0.42469  1.0000
  H   H469      1.0  0.16029  0.55954  0.65547  1.0000
  S   S89       1.0  0.35317  0.51395  0.57549  1.0000
  H   H470      1.0  0.42970  0.76030  0.57244  1.0000
  H   H471      1.0  0.27310  0.74665  0.67149  1.0000
  C   C600      1.0  0.33939  0.58307  0.47081  1.0000
  C   C601      1.0  0.25369  0.56938  0.56030  1.0000
  C   C602      1.0  0.26819  0.57272  0.52940  1.0000
  C   C603      1.0  0.04650  0.55449  0.57659  1.0000
  C   C604      1.0  0.50002  0.52616  0.55503  1.0000
  C   C605      1.0  0.01680  0.52169  0.54667  1.0000
  C   C606      1.0  0.33841  0.80608  0.67461  1.0000
  C   C607      1.0  0.06173  0.55136  0.56220  1.0000
  H   H472      1.0  0.50316  0.68106  0.53363  1.0000
  C   C608      1.0  0.32098  0.98153  0.50232  1.0000
  H   H473      1.0  0.11416  0.61484  0.43932  1.0000
  H   H474      1.0  0.31882  0.80830  0.67408  1.0000
  H   H475      1.0  0.36522  0.65937  0.56762  1.0000
  C   C609      1.0  0.31039  0.52964  0.44887  1.0000
  C   C610      1.0  0.04696  0.53472  0.54736  1.0000
  C   C611      1.0  0.38755  0.79785  0.67601  1.0000
  H   H476      1.0  0.37108  0.98405  0.53263  1.0000
  C   C612      1.0  0.25749  0.64568  0.43306  1.0000
  C   C613      1.0  0.25805  0.65745  0.41625  1.0000
  C   C614      1.0  0.26656  0.68685  0.41459  1.0000
  C   C615      1.0  0.27472  0.70461  0.42970  1.0000
  C   C616      1.0  0.27408  0.69296  0.44668  1.0000
  C   C617      1.0  0.26536  0.66333  0.44828  1.0000
  P   P20       1.0  0.28820  0.71710  0.46551  1.0000
  C   C618      1.0  0.27936  0.69906  0.48691  1.0000
  C   C619      1.0  0.32691  0.73434  0.46455  1.0000
  C   C620      1.0  0.34289  0.75134  0.47902  1.0000
  C   C621      1.0  0.37289  0.76444  0.47870  1.0000
  C   C622      1.0  0.38709  0.76132  0.46381  1.0000
  C   C623      1.0  0.37142  0.74394  0.44953  1.0000
  C   C624      1.0  0.34141  0.73035  0.44989  1.0000
  C   C625      1.0  0.26244  0.70449  0.49942  1.0000
  C   C626      1.0  0.25796  0.69218  0.51639  1.0000
  C   C627      1.0  0.27086  0.67494  0.52122  1.0000
  C   C628      1.0  0.28795  0.66961  0.50899  1.0000
  C   C629      1.0  0.29225  0.68166  0.49193  1.0000
  C   C630      1.0  0.27429  0.74292  0.46345  1.0000
  C   C631      1.0  0.24457  0.73364  0.46452  1.0000
  C   C632      1.0  0.23351  0.75341  0.46293  1.0000
  C   C633      1.0  0.25199  0.78246  0.45982  1.0000
  C   C634      1.0  0.28147  0.79168  0.45820  1.0000
  C   C635      1.0  0.29261  0.77200  0.45985  1.0000
  H   H477      1.0  0.25146  0.62294  0.43417  1.0000
  H   H478      1.0  0.25241  0.64393  0.40443  1.0000
  H   H479      1.0  0.26759  0.69606  0.40149  1.0000
  H   H480      1.0  0.28240  0.72761  0.42800  1.0000
  H   H481      1.0  0.26499  0.65383  0.46111  1.0000
  H   H482      1.0  0.33219  0.75500  0.49036  1.0000
  H   H483      1.0  0.38524  0.77794  0.48971  1.0000
  H   H484      1.0  0.41027  0.77273  0.46328  1.0000
  H   H485      1.0  0.38256  0.74135  0.43806  1.0000
  H   H486      1.0  0.32991  0.71715  0.43857  1.0000
  H   H487      1.0  0.25315  0.71874  0.49654  1.0000
  H   H488      1.0  0.24481  0.69647  0.52593  1.0000
  H   H489      1.0  0.26756  0.66574  0.53447  1.0000
  H   H490      1.0  0.29787  0.65620  0.51282  1.0000
  H   H491      1.0  0.30606  0.67789  0.48271  1.0000
  H   H492      1.0  0.23003  0.71120  0.46697  1.0000
  H   H493      1.0  0.21069  0.74629  0.46439  1.0000
  H   H494      1.0  0.24354  0.79787  0.45871  1.0000
  H   H495      1.0  0.29581  0.81417  0.45566  1.0000
  H   H496      1.0  0.31544  0.77960  0.45809  1.0000
  H   H497      1.0  0.30880  0.63857  0.59801  1.0000
  H   H498      1.0  0.48228  0.60985  0.55364  1.0000
  C   C636      1.0  0.29959  0.62788  0.62576  1.0000
  H   H499      1.0  0.45886  0.98954  0.51411  1.0000
  H   H500      1.0  0.38384  0.79449  0.64740  1.0000
  P   P21       1.0  0.39731  0.62672  0.56287  1.0000
  S   S90       1.0  0.17460  0.53359  0.43266  1.0000
  C   C637      1.0  0.17008  0.63177  0.63519  1.0000
  C   C638      1.0  0.27864  0.61904  0.63904  1.0000
  C   C639      1.0  0.31693  0.55938  0.56910  1.0000
  S   S91       1.0  0.30336  0.65298  0.36665  1.0000
  H   H501      1.0  0.04240  0.55471  0.47186  1.0000
  S   S92       1.0  0.36845  0.70254  0.35696  1.0000
  C   C640      1.0  0.21620  0.55990  0.65137  1.0000
  C   C641      1.0  0.46239  0.60335  0.56086  1.0000
  H   H502      1.0  0.37792  0.68214  0.62322  1.0000
  H   H503      1.0  0.39570  0.73999  0.63845  1.0000
  H   H504      1.0  0.20098  0.57518  0.40471  1.0000
  C   C642      1.0  0.42016  0.60980  0.56751  1.0000
  C   C643      1.0  0.29268  0.63201  0.60831  1.0000
  H   H505      1.0  0.34421  0.72785  0.63654  1.0000
  C   C644      1.0  0.38137  0.67135  0.61180  1.0000
  H   H506      1.0  0.35686  0.68366  0.59372  1.0000
  C   C645      1.0  0.36965  0.67227  0.59516  1.0000
  C   C646      1.0  0.03341  0.61965  0.59355  1.0000
  Fe  Fe47      1.0  0.47417  0.62249  0.48779  1.0000
  H   H507      1.0  0.30412  0.53885  0.66211  1.0000
  C   C647      1.0  0.36199  0.59734  0.55799  1.0000
  C   C648      1.0  0.37474  0.65882  0.58041  1.0000
  C   C649      1.0  0.33990  0.52539  0.49022  1.0000
  S   S93       1.0  0.12272  0.52257  0.51483  1.0000
  C   C650      1.0  0.44699  0.61918  0.55919  1.0000
  C   C651      1.0  0.39226  0.64500  0.58207  1.0000
  C   C652      1.0  0.34325  0.58357  0.57220  1.0000
  H   H508      1.0  0.32108  0.63104  0.62902  1.0000
  H   H509      1.0  0.25936  0.63050  0.59055  1.0000
  H   H510      1.0  0.28422  0.61543  0.65242  1.0000
  C   C653      1.0  0.43857  0.71278  0.46110  1.0000
  H   H511      1.0  0.42749  0.61676  0.40625  1.0000
  C   C654      1.0  0.24042  0.54245  0.60614  1.0000
  C   C655      1.0  0.39812  0.65699  0.61368  1.0000
  C   C656      1.0  0.40366  0.64387  0.59888  1.0000
  H   H512      1.0  0.40718  0.65655  0.62665  1.0000
  H   H513      1.0  0.41652  0.63270  0.60067  1.0000
  H   H514      1.0  0.25823  0.65652  0.66252  1.0000
  C   C657      1.0  0.44269  0.75007  0.57650  1.0000
  H   H515      1.0  0.22621  0.52963  0.44285  1.0000
  S   S94       1.0  0.50034  0.61043  0.46921  1.0000
  H   H516      1.0  0.46975  0.54918  0.48032  1.0000
  C   C658      1.0  0.42248  0.68148  0.54697  1.0000
  C   C659      1.0  0.50646  0.96619  0.54423  1.0000
  C   C660      1.0  0.25050  0.61392  0.63488  1.0000
  C   C661      1.0  0.41287  0.65170  0.54451  1.0000
  C   C662      1.0  0.12172  0.63287  0.51149  1.0000
  H   H517      1.0  0.49881  0.92566  0.55608  1.0000
  H   H518      1.0  0.50575  0.77390  0.48457  1.0000
  S   S95       1.0  0.48192  0.66275  0.47361  1.0000
  H   H519      1.0  0.45587  0.63810  0.55092  1.0000
  H   H520      1.0  0.41429  0.61973  0.52653  1.0000
  H   H521      1.0  0.41637  0.72860  0.59897  1.0000
  C   C663      1.0  0.26481  0.62729  0.60409  1.0000
  H   H522      1.0  0.30583  0.62548  0.46645  1.0000
  C   C664      1.0  0.09996  0.58120  0.50760  1.0000
  H   H523      1.0  0.18902  0.72030  0.42791  1.0000
  C   C665      1.0  0.40773  0.70323  0.48679  1.0000
  C   C666      1.0  0.23386  0.55202  0.66181  1.0000
  H   H524      1.0  0.28862  0.52958  0.54954  1.0000
  C   C667      1.0  0.45885  0.65387  0.63551  1.0000
  C   C668      1.0  0.24373  0.61790  0.61727  1.0000
  H   H525      1.0  0.35954  0.75715  0.35194  1.0000
  C   C669      1.0  0.48018  0.65223  0.60164  1.0000
  C   C670      1.0  0.41921  0.64209  0.52838  1.0000
  C   C671      1.0  0.43530  0.73236  0.59147  1.0000
  H   H526      1.0  0.22996  0.62015  0.50883  1.0000
  C   C672      1.0  0.23347  0.61350  0.67281  1.0000
  H   H527      1.0  0.41963  0.69010  0.55949  1.0000
  H   H528      1.0  0.41426  0.74049  0.50254  1.0000
  H   H529      1.0  0.39080  0.68815  0.49516  1.0000
  H   H530      1.0  0.23189  0.55771  0.60745  1.0000
  H   H531      1.0  0.47604  0.92221  0.50061  1.0000
  H   H532      1.0  0.12392  0.61280  0.63527  1.0000
  C   C673      1.0  0.31947  0.61700  0.47220  1.0000
  C   C674      1.0  0.04089  0.53825  0.48119  1.0000
  C   C675      1.0  0.42106  0.73261  0.49104  1.0000
  P   P22       1.0  0.22247  0.59691  0.65112  1.0000
  C   C676      1.0  0.43759  0.70094  0.53348  1.0000
  C   C677      1.0  0.38271  0.59742  0.41317  1.0000
  C   C678      1.0  0.11401  0.59406  0.43924  1.0000
  C   C679      1.0  0.50316  0.79887  0.46214  1.0000
  H   H533      1.0  0.11529  0.56568  0.48585  1.0000
  C   C680      1.0  0.48500  0.74321  0.57268  1.0000
  C   C681      1.0  0.49368  0.96412  0.51295  1.0000
  H   H534      1.0  0.48855  0.82317  0.53493  1.0000
  H   H535      1.0  0.21535  0.64560  0.63713  1.0000
  C   C682      1.0  0.50264  0.69388  0.56080  1.0000
  C   C683      1.0  0.05761  0.52398  0.47872  1.0000
  C   C684      1.0  0.15091  0.66523  0.45629  1.0000
  C   C685      1.0  0.36228  0.58247  0.42615  1.0000
  C   C686      1.0  0.43435  0.66163  0.51498  1.0000
  C   C687      1.0  0.44306  0.75210  0.48028  1.0000
  C   C688      1.0  0.23304  0.60162  0.48373  1.0000
  C   C689      1.0  0.41666  0.69328  0.47191  1.0000
  H   H536      1.0  0.45838  0.81298  0.44716  1.0000
  H   H537      1.0  0.02882  0.66927  0.56100  1.0000
  H   H538      1.0  0.43975  0.65406  0.50278  1.0000
  H   H539      1.0  0.42703  0.82109  0.42573  1.0000
  H   H540      1.0  0.40655  0.67048  0.46865  1.0000
  H   H541      1.0  0.07207  0.52928  0.46750  1.0000
  H   H542      1.0  0.05916  0.53235  0.53647  1.0000
  H   H543      1.0  0.24204  0.53619  0.51277  1.0000
  C   C690      1.0  0.18283  0.70069  0.43548  1.0000
  C   C691      1.0  0.14440  0.53462  0.60094  1.0000
  P   P23       1.0  0.47730  0.76780  0.44996  1.0000
  C   C692      1.0  0.35425  0.61920  0.49439  1.0000
  C   C693      1.0  0.45201  0.74230  0.46525  1.0000
  C   C694      1.0  0.44963  0.79844  0.43595  1.0000
  C   C695      1.0  0.43165  0.80299  0.42385  1.0000
  C   C696      1.0  0.33588  0.62960  0.48751  1.0000
  C   C697      1.0  0.35851  0.99104  0.52429  1.0000
  H   H544      1.0  0.28286  0.58425  0.51877  1.0000
  C   C698      1.0  0.48598  0.52853  0.49886  1.0000
  H   H545      1.0  0.25787  0.57861  0.57359  1.0000
  C   C699      1.0  0.37481  0.79795  0.65957  1.0000
  H   H546      1.0  0.05793  0.56801  0.58786  1.0000
  C   C700      1.0  0.45556  0.77496  0.43378  1.0000
  H   H547      1.0  0.11781  0.56655  0.64820  1.0000
  H   H548      1.0  0.37108  0.58881  0.49121  1.0000
  H   H549      1.0  0.40552  0.78766  0.40008  1.0000
  C   C701      1.0  0.41935  0.78405  0.40949  1.0000
  H   H550      1.0  0.49890  0.54848  0.50590  1.0000
  H   H551      1.0  0.14065  0.57389  0.60421  1.0000
  H   H552      1.0  0.03109  0.62364  0.60747  1.0000
  C   C702      1.0  0.16713  0.64996  0.45518  1.0000
  C   C703      1.0  0.48893  0.67137  0.39640  1.0000
  H   H553      1.0  0.08502  0.56231  0.56244  1.0000
  C   C704      1.0  0.11240  0.53985  0.43841  1.0000
  H   H554      1.0  0.12417  0.65145  0.51926  1.0000
  H   H555      1.0  0.44487  0.70488  0.44941  1.0000
  C   C705      1.0  0.44227  0.75546  0.41967  1.0000
  H   H556      1.0  0.46064  0.81766  0.65943  1.0000
  H   H557      1.0  0.44719  0.70761  0.60921  1.0000
  C   C706      1.0  0.35607  0.59604  0.48607  1.0000
  C   C707      1.0  0.42454  0.76020  0.40747  1.0000
  C   C708      1.0  0.13916  0.58347  0.64541  1.0000
  H   H558      1.0  0.36768  0.62952  0.50590  1.0000
  H   H559      1.0  0.46392  0.60666  0.60625  1.0000
  H   H560      1.0  0.50389  0.73336  0.46401  1.0000
  H   H561      1.0  0.29052  0.60537  0.54929  1.0000
  H   H562      1.0  0.08606  0.55976  0.51232  1.0000
  H   H563      1.0  0.21477  0.58215  0.57595  1.0000
  H   H564      1.0  0.41475  0.74523  0.39647  1.0000
  H   H565      1.0  0.44558  0.73655  0.41801  1.0000
  C   C709      1.0  0.41168  0.60526  0.41636  1.0000
  C   C710      1.0  0.19592  0.53949  0.63974  1.0000
  H   H566      1.0  0.02602  0.69263  0.61563  1.0000
  H   H567      1.0  0.23055  0.58388  0.45746  1.0000
  C   C711      1.0  0.48408  0.93434  0.51290  1.0000
  H   H568      1.0  0.50583  0.66859  0.38979  1.0000
  H   H569      1.0  0.47364  0.76989  0.55575  1.0000
  H   H570      1.0  0.21685  0.69290  0.42508  1.0000
  C   C712      1.0  0.39996  0.58437  0.44588  1.0000
  C   C713      1.0  0.50461  0.98031  0.52867  1.0000
  C   C714      1.0  0.16330  0.57948  0.64934  1.0000
  H   H571      1.0  0.44306  0.60645  0.43553  1.0000
  H   H572      1.0  0.40250  0.97332  0.46935  1.0000
  C   C715      1.0  0.46522  0.80148  0.65327  1.0000
  S   S96       1.0  0.50830  0.65579  0.42627  1.0000
  C   C716      1.0  0.46643  0.62697  0.61162  1.0000
  H   H573      1.0  0.05368  0.68956  0.58963  1.0000
  H   H574      1.0  0.45631  0.70619  0.50738  1.0000
  C   C717      1.0  0.23164  0.52231  0.59205  1.0000
  C   C718      1.0  0.18657  0.61108  0.47279  1.0000
  C   C719      1.0  0.50648  0.75826  0.42163  1.0000
  H   H575      1.0  0.30957  0.58533  0.45151  1.0000
  C   C720      1.0  0.42038  0.59919  0.43282  1.0000
  H   H576      1.0  0.32460  0.53271  0.49447  1.0000
  C   C721      1.0  0.46749  0.75543  0.56707  1.0000
  C   C722      1.0  0.37060  0.57482  0.44233  1.0000
  H   H577      1.0  0.47524  0.69912  0.63150  1.0000
  C   C723      1.0  0.22997  0.54244  0.55694  1.0000
  C   C724      1.0  0.13056  0.56075  0.45055  1.0000
  C   C725      1.0  0.09497  0.54592  0.42677  1.0000
  H   H578      1.0  0.47799  0.89721  0.52841  1.0000
  C   C726      1.0  0.32141  0.59399  0.46380  1.0000
  C   C727      1.0  0.13203  0.58831  0.45080  1.0000
  C   C728      1.0  0.19866  0.68531  0.43397  1.0000
  C   C729      1.0  0.11647  0.58467  0.49241  1.0000
  C   C730      1.0  0.10231  0.60526  0.51705  1.0000
  C   C731      1.0  0.19096  0.66013  0.44381  1.0000
  H   H579      1.0  0.37748  0.52317  0.54089  1.0000
  H   H580      1.0  0.44543  0.72388  0.53547  1.0000
  H   H581      1.0  0.48079  0.69080  0.55966  1.0000
  C   C732      1.0  0.50669  0.54927  0.56676  1.0000
  H   H582      1.0  0.13162  0.65721  0.46424  1.0000
  H   H583      1.0  0.45036  0.65458  0.64858  1.0000
  C   C733      1.0  0.15898  0.69067  0.44666  1.0000
  H   H584      1.0  0.19067  0.59319  0.44741  1.0000
  C   C734      1.0  0.46963  0.52911  0.48416  1.0000
  C   C735      1.0  0.09561  0.57297  0.42728  1.0000
  C   C736      1.0  0.22183  0.59411  0.46647  1.0000
  C   C737      1.0  0.28467  0.52003  0.45844  1.0000
  C   C738      1.0  0.17886  0.58102  0.58998  1.0000
  C   C739      1.0  0.03072  0.68225  0.58844  1.0000
  H   H585      1.0  0.08127  0.52974  0.41724  1.0000
  C   C740      1.0  0.42262  0.99254  0.47107  1.0000
  H   H586      1.0  0.46502  0.54117  0.53221  1.0000
  C   C741      1.0  0.48782  0.80991  0.64105  1.0000
  C   C742      1.0  0.30999  0.51753  0.43204  1.0000
  H   H587      1.0  0.22211  0.61338  0.61357  1.0000
  H   H588      1.0  0.44439  0.60797  0.63599  1.0000
  H   H589      1.0  0.28445  0.52825  0.47169  1.0000
  C   C743      1.0  0.13844  0.63644  0.49630  1.0000
  Fe  Fe48      1.0  0.49326  0.84359  0.57202  1.0000
  C   C744      1.0  0.49668  0.93632  0.54415  1.0000
  C   C745      1.0  0.27243  0.52407  0.61710  1.0000
  C   C746      1.0  0.13489  0.61230  0.48616  1.0000
  C   C747      1.0  0.25041  0.64338  0.67430  1.0000
  C   C748      1.0  0.19526  0.56859  0.58286  1.0000
  H   H590      1.0  0.33963  0.80069  0.64615  1.0000
  H   H591      1.0  0.08216  0.57774  0.41821  1.0000
  C   C749      1.0  0.48530  0.92034  0.52852  1.0000
  H   H592      1.0  0.48729  0.82780  0.50199  1.0000
  H   H593      1.0  0.18584  0.60385  0.58827  1.0000
  C   C750      1.0  0.19897  0.59917  0.46089  1.0000
  C   C751      1.0  0.14256  0.60954  0.63821  1.0000
  C   C752      1.0  0.48341  0.67867  0.60853  1.0000
  C   C753      1.0  0.19832  0.61905  0.49003  1.0000
  H   H594      1.0  0.40719  0.58063  0.45874  1.0000
  H   H595      1.0  0.08976  0.60246  0.52899  1.0000
  H   H596      1.0  0.33998  0.57700  0.42352  1.0000
  H   H597      1.0  0.28780  0.52433  0.62683  1.0000
  H   H598      1.0  0.50019  0.76479  0.51877  1.0000
  H   H599      1.0  0.18335  0.54557  0.63078  1.0000
  C   C754      1.0  0.22148  0.61439  0.49541  1.0000
  S   S97       1.0  0.18575  0.52333  0.48361  1.0000
  C   C755      1.0  0.47276  0.67919  0.62563  1.0000
  C   C756      1.0  0.49864  0.75289  0.43965  1.0000
  C   C757      1.0  0.02261  0.53168  0.49587  1.0000
  P   P24       1.0  0.20694  0.52238  0.57519  1.0000
  P   P25       1.0  0.50188  0.71157  0.59576  1.0000
  Fe  Fe49      1.0  0.39432  0.69889  0.67156  1.0000
  H   H600      1.0  0.43104  0.76580  0.66679  1.0000
  H   H601      1.0  0.42171  0.00536  0.50983  1.0000
  C   C758      1.0  0.23046  0.52384  0.66117  1.0000
  C   C759      1.0  0.16079  0.52212  0.59381  1.0000
  H   H602      1.0  0.43899  0.67956  0.34540  1.0000
  S   S98       1.0  0.50961  0.84669  0.63647  1.0000
  H   H603      1.0  0.48826  0.65091  0.58861  1.0000
  S   S99       1.0  0.31772  0.59583  0.67508  1.0000
  H   H604      1.0  0.40570  0.79329  0.67610  1.0000
  H   H605      1.0  0.25080  0.56778  0.67016  1.0000
  H   H606      1.0  0.51102  0.79519  0.62371  1.0000
  S   S100      1.0  0.50882  0.81797  0.58843  1.0000
  S   S101      1.0  0.50506  0.87908  0.59201  1.0000
  H   H607      1.0  0.50452  0.74824  0.56541  1.0000
  H   H608      1.0  0.50849  0.82974  0.44140  1.0000
  H   H609      1.0  0.12460  0.52142  0.60787  1.0000
  C   C760      1.0  0.42481  0.51579  0.64971  1.0000
  C   C761      1.0  0.32724  0.01062  0.50274  1.0000
  H   H610      1.0  0.11241  0.51909  0.43771  1.0000
  H   H611      1.0  0.38176  0.52768  0.45500  1.0000
  C   C762      1.0  0.01667  0.67078  0.57227  1.0000
  H   H612      1.0  0.24441  0.51807  0.66914  1.0000
  S   S102      1.0  0.50955  0.64477  0.50762  1.0000
  C   C763      1.0  0.37213  0.52275  0.46808  1.0000
  H   H613      1.0  0.46629  0.51706  0.65103  1.0000
  C   C764      1.0  0.19245  0.51126  0.63918  1.0000
  C   C765      1.0  0.16253  0.57180  0.94828  1.0000
  Fe  Fe50      1.0  0.34178  0.64365  0.68108  1.0000
  C   C766      1.0  0.41402  0.78260  0.00839  1.0000
  H   H614      1.0  0.15025  0.58367  0.94652  1.0000
  C   C767      1.0  0.34860  0.67330  0.00601  1.0000
  S   S103      1.0  0.41926  0.57947  0.99711  1.0000
  Fe  Fe51      1.0  0.18165  0.64134  0.99633  1.0000
  C   C768      1.0  0.25044  0.56751  0.89859  1.0000
  H   H615      1.0  0.31577  0.53039  0.90156  1.0000
  Fe  Fe52      1.0  0.19360  0.68522  0.96736  1.0000
  S   S104      1.0  0.15426  0.69025  0.97406  1.0000
  S   S105      1.0  0.22725  0.71235  0.94717  1.0000
  H   H616      1.0  0.43074  0.00420  0.98185  1.0000
  H   H617      1.0  0.32183  0.61010  0.90521  1.0000
  Fe  Fe53      1.0  0.13084  0.64208  0.97659  1.0000
  S   S106      1.0  0.08759  0.61072  0.96433  1.0000
  S   S107      1.0  0.20871  0.68911  0.99584  1.0000
  S   S108      1.0  0.16934  0.63710  0.96749  1.0000
  H   H618      1.0  0.41177  0.83392  0.94261  1.0000
  S   S109      1.0  0.38650  0.66537  0.69255  1.0000
  H   H619      1.0  0.06760  0.64045  0.98961  1.0000
  S   S110      1.0  0.32460  0.66581  0.69992  1.0000
  Fe  Fe54      1.0  0.37021  0.69015  0.70996  1.0000
  S   S111      1.0  0.38756  0.70397  0.73863  1.0000
  H   H620      1.0  0.23527  0.55611  0.88800  1.0000
  S   S112      1.0  0.38158  0.72543  0.68947  1.0000
  Fe  Fe55      1.0  0.36717  0.65607  0.88400  1.0000
  S   S113      1.0  0.35110  0.68048  0.90147  1.0000
  S   S114      1.0  0.38811  0.63266  0.89912  1.0000
  Fe  Fe56      1.0  0.35186  0.67799  0.84894  1.0000
  S   S115      1.0  0.33488  0.70414  0.86447  1.0000
  S   S116      1.0  0.34172  0.66832  0.81878  1.0000
  Fe  Fe57      1.0  0.37370  0.71694  0.88251  1.0000
  S   S117      1.0  0.39517  0.76206  0.89463  1.0000
  Fe  Fe58      1.0  0.31401  0.66588  0.88240  1.0000
  S   S118      1.0  0.26829  0.64576  0.89247  1.0000
  S   S119      1.0  0.39253  0.69371  0.86581  1.0000
  S   S120      1.0  0.32831  0.63853  0.86614  1.0000
  C   C769      1.0  0.37376  0.69445  0.76076  1.0000
  C   C770      1.0  0.34648  0.67197  0.76419  1.0000
  C   C771      1.0  0.33699  0.66469  0.78197  1.0000
  C   C772      1.0  0.35453  0.67976  0.79663  1.0000
  C   C773      1.0  0.38166  0.70254  0.79318  1.0000
  C   C774      1.0  0.39108  0.70988  0.77540  1.0000
  H   H621      1.0  0.33277  0.66013  0.75314  1.0000
  H   H622      1.0  0.31594  0.64706  0.78440  1.0000
  H   H623      1.0  0.39549  0.71436  0.80421  1.0000
  H   H624      1.0  0.41212  0.72750  0.77298  1.0000
  C   C775      1.0  0.23831  0.69402  0.93158  1.0000
  C   C776      1.0  0.26417  0.70911  0.92232  1.0000
  C   C777      1.0  0.27366  0.69467  0.91018  1.0000
  C   C778      1.0  0.25698  0.66513  0.90702  1.0000
  C   C779      1.0  0.23079  0.65027  0.91592  1.0000
  C   C780      1.0  0.22159  0.66462  0.92824  1.0000
  H   H625      1.0  0.27714  0.73188  0.92472  1.0000
  H   H626      1.0  0.29384  0.70633  0.90331  1.0000
  H   H627      1.0  0.21776  0.62748  0.91343  1.0000
  H   H628      1.0  0.20139  0.65299  0.93496  1.0000
  C   C781      1.0  0.42085  0.65905  0.95808  1.0000
  C   C782      1.0  0.32700  0.78528  0.97096  1.0000
  C   C783      1.0  0.29928  0.59769  0.90829  1.0000
  C   C784      1.0  0.40454  0.66725  0.94662  1.0000
  C   C785      1.0  0.26020  0.58489  0.92929  1.0000
  C   C786      1.0  0.37702  0.62642  0.97318  1.0000
  C   C787      1.0  0.34403  0.59876  0.81828  1.0000
  C   C788      1.0  0.34298  0.54306  0.92497  1.0000
  C   C789      1.0  0.36588  0.56587  0.93362  1.0000
  C   C790      1.0  0.37920  0.59323  0.92565  1.0000
  C   C791      1.0  0.36957  0.59824  0.90910  1.0000
  C   C792      1.0  0.34665  0.57539  0.90044  1.0000
  C   C793      1.0  0.33329  0.54798  0.90841  1.0000
  H   H629      1.0  0.37359  0.56237  0.94636  1.0000
  H   H630      1.0  0.39710  0.61050  0.93236  1.0000
  H   H631      1.0  0.33954  0.57876  0.88747  1.0000
  H   H632      1.0  0.33891  0.53145  0.81685  1.0000
  H   H633      1.0  0.44840  0.54403  0.99539  1.0000
  H   H634      1.0  0.35896  0.81233  0.99029  1.0000
  C   C794      1.0  0.33687  0.79635  0.98814  1.0000
  H   H635      1.0  0.28730  0.58117  0.88157  1.0000
  C   C795      1.0  0.28482  0.57241  0.96842  1.0000
  C   C796      1.0  0.37463  0.65455  0.94816  1.0000
  C   C797      1.0  0.02106  0.61799  0.98826  1.0000
  C   C798      1.0  0.45795  0.81169  0.92991  1.0000
  C   C799      1.0  0.43346  0.80040  0.91870  1.0000
  C   C800      1.0  0.42534  0.77451  0.90922  1.0000
  C   C801      1.0  0.44192  0.75988  0.91109  1.0000
  H   H636      1.0  0.25801  0.73823  0.98130  1.0000
  H   H637      1.0  0.46408  0.83176  0.93700  1.0000
  H   H638      1.0  0.42093  0.81196  0.91712  1.0000
  H   H639      1.0  0.43603  0.74003  0.90378  1.0000
  C   C802      1.0  0.36544  0.59193  0.79112  1.0000
  C   C803      1.0  0.04901  0.62268  0.98373  1.0000
  C   C804      1.0  0.05283  0.60468  0.97135  1.0000
  H   H640      1.0  0.36645  0.61047  0.98343  1.0000
  H   H641      1.0  0.49538  0.79258  0.70213  1.0000
  H   H642      1.0  0.43138  0.77723  0.97150  1.0000
  C   C805      1.0  0.40132  0.58491  0.76321  1.0000
  C   C806      1.0  0.49744  0.71466  0.93208  1.0000
  C   C807      1.0  0.43037  0.59379  0.76740  1.0000
  H   H643      1.0  0.47555  0.68548  0.99526  1.0000
  Fe  Fe59      1.0  0.38823  0.53437  0.98912  1.0000
  H   H644      1.0  0.13363  0.76828  0.97360  1.0000
  C   C808      1.0  0.35156  0.80679  0.69106  1.0000
  C   C809      1.0  0.38267  0.96619  0.00661  1.0000
  H   H645      1.0  0.21772  0.55915  0.91781  1.0000
  C   C810      1.0  0.28980  0.76602  0.00026  1.0000
  H   H646      1.0  0.23624  0.61789  0.98078  1.0000
  C   C811      1.0  0.43685  0.87174  0.00662  1.0000
  H   H647      1.0  0.45577  0.68760  0.80556  1.0000
  C   C812      1.0  0.41071  0.64288  0.77348  1.0000
  H   H648      1.0  0.31459  0.56155  0.98247  1.0000
  H   H649      1.0  0.42184  0.80279  0.00130  1.0000
  H   H650      1.0  0.22941  0.77045  0.97296  1.0000
  C   C813      1.0  0.42831  0.55182  0.75219  1.0000
  C   C814      1.0  0.22291  0.59710  0.68835  1.0000
  H   H651      1.0  0.03105  0.56735  0.95439  1.0000
  H   H652      1.0  0.32294  0.65790  0.98206  1.0000
  C   C815      1.0  0.42952  0.77761  0.71851  1.0000
  C   C816      1.0  0.47282  0.81758  0.69707  1.0000
  H   H653      1.0  0.40830  0.65639  0.74640  1.0000
  H   H654      1.0  0.44946  0.90058  0.73835  1.0000
  H   H655      1.0  0.37356  0.97909  0.00061  1.0000
  H   H656      1.0  0.15038  0.79724  0.94298  1.0000
  C   C817      1.0  0.20865  0.77034  0.97293  1.0000
  C   C818      1.0  0.24062  0.56932  0.91563  1.0000
  C   C819      1.0  0.46852  0.54284  0.99624  1.0000
  H   H657      1.0  0.30546  0.69481  0.94236  1.0000
  H   H658      1.0  0.38642  0.60650  0.73122  1.0000
  C   C820      1.0  0.10828  0.56894  0.99760  1.0000
  C   C821      1.0  0.19403  0.54099  0.95225  1.0000
  H   H659      1.0  0.44560  0.70598  0.75084  1.0000
  H   H660      1.0  0.41478  0.68320  0.93632  1.0000
  H   H661      1.0  0.36306  0.63103  0.79818  1.0000
  C   C822      1.0  0.07528  0.71160  0.94021  1.0000
  H   H662      1.0  0.36643  0.69010  0.99901  1.0000
  H   H663      1.0  0.29726  0.57734  0.95635  1.0000
  C   C823      1.0  0.23002  0.61036  0.70516  1.0000
  C   C824      1.0  0.41880  0.66250  0.75930  1.0000
  C   C825      1.0  0.45720  0.67212  0.92012  1.0000
  C   C826      1.0  0.27977  0.58172  0.89492  1.0000
  C   C827      1.0  0.31926  0.60013  0.72608  1.0000
  C   C828      1.0  0.40690  0.63897  0.97160  1.0000
  H   H664      1.0  0.12494  0.53076  0.95021  1.0000
  H   H665      1.0  0.46145  0.51942  0.97151  1.0000
  C   C829      1.0  0.37636  0.80280  0.69193  1.0000
  S   S121      1.0  0.39341  0.51742  0.96275  1.0000
  H   H666      1.0  0.49741  0.71537  0.88663  1.0000
  H   H667      1.0  0.45378  0.66890  0.89150  1.0000
  C   C830      1.0  0.45960  0.62376  0.96029  1.0000
  C   C831      1.0  0.47143  0.60557  0.96528  1.0000
  H   H668      1.0  0.38733  0.52297  0.74058  1.0000
  S   S122      1.0  0.48395  0.83310  0.98773  1.0000
  H   H669      1.0  0.41905  0.63276  0.98085  1.0000
  P   P26       1.0  0.13514  0.73537  0.94199  1.0000
  Fe  Fe60      1.0  0.16781  0.69052  0.00250  1.0000
  C   C832      1.0  0.15499  0.66592  0.91617  1.0000
  C   C833      1.0  0.47658  0.75587  0.97787  1.0000
  C   C834      1.0  0.32414  0.65494  0.99630  1.0000
  H   H670      1.0  0.43845  0.61437  0.95416  1.0000
  H   H671      1.0  0.45908  0.58249  0.96333  1.0000
  H   H672      1.0  0.41299  0.76158  0.72663  1.0000
  C   C835      1.0  0.32412  0.72543  0.72744  1.0000
  C   C836      1.0  0.32849  0.72406  0.74576  1.0000
  C   C837      1.0  0.35201  0.74637  0.75425  1.0000
  C   C838      1.0  0.37121  0.77004  0.74443  1.0000
  C   C839      1.0  0.36692  0.77160  0.72601  1.0000
  C   C840      1.0  0.34330  0.74905  0.71759  1.0000
  H   H673      1.0  0.28204  0.61900  0.99755  1.0000
  C   C841      1.0  0.04343  0.68720  0.96469  1.0000
  C   C842      1.0  0.02837  0.58144  0.96399  1.0000
  C   C843      1.0  0.46974  0.73276  0.96617  1.0000
  S   S123      1.0  0.46091  0.89417  0.99069  1.0000
  C   C844      1.0  0.36090  0.63420  0.96146  1.0000
  C   C845      1.0  0.42143  0.87676  0.95078  1.0000
  H   H674      1.0  0.36216  0.66028  0.93886  1.0000
  C   C846      1.0  0.20114  0.78315  0.98697  1.0000
  H   H675      1.0  0.40257  0.88100  0.99834  1.0000
  C   C847      1.0  0.40492  0.88282  0.74567  1.0000
  C   C848      1.0  0.37781  0.85905  0.74437  1.0000
  C   C849      1.0  0.37411  0.83474  0.73456  1.0000
  C   C850      1.0  0.06719  0.69374  0.97577  1.0000
  C   C851      1.0  0.47220  0.68895  0.93488  1.0000
  C   C852      1.0  0.46618  0.68170  0.90279  1.0000
  C   C853      1.0  0.36422  0.85351  0.96166  1.0000
  C   C854      1.0  0.47483  0.65356  0.96347  1.0000
  C   C855      1.0  0.24308  0.56668  0.98511  1.0000
  H   H676      1.0  0.30618  0.70797  0.72076  1.0000
  H   H677      1.0  0.31407  0.70543  0.75334  1.0000
  H   H678      1.0  0.35581  0.74483  0.76836  1.0000
  H   H679      1.0  0.38969  0.78685  0.75112  1.0000
  C   C856      1.0  0.16399  0.52646  0.95217  1.0000
  C   C857      1.0  0.09933  0.71830  0.95126  1.0000
  H   H680      1.0  0.32536  0.60169  0.77126  1.0000
  C   C858      1.0  0.35816  0.56363  0.79645  1.0000
  C   C859      1.0  0.44020  0.69081  0.76175  1.0000
  H   H681      1.0  0.33856  0.61246  0.82671  1.0000
  H   H682      1.0  0.46954  0.72203  0.78036  1.0000
  C   C860      1.0  0.49071  0.70781  0.90008  1.0000
  H   H683      1.0  0.40779  0.90163  0.75332  1.0000
  H   H684      1.0  0.35965  0.85937  0.75106  1.0000
  H   H685      1.0  0.36333  0.55168  0.75040  1.0000
  H   H686      1.0  0.12379  0.76319  0.88051  1.0000
  C   C861      1.0  0.36779  0.93617  0.00513  1.0000
  C   C862      1.0  0.27968  0.64922  0.94555  1.0000
  C   C863      1.0  0.29866  0.76362  0.96874  1.0000
  P   P27       1.0  0.35151  0.79713  0.95240  1.0000
  C   C864      1.0  0.37108  0.77618  0.95320  1.0000
  C   C865      1.0  0.39610  0.78540  0.96367  1.0000
  C   C866      1.0  0.41156  0.76948  0.96391  1.0000
  C   C867      1.0  0.40189  0.74400  0.95400  1.0000
  C   C868      1.0  0.37654  0.73423  0.94399  1.0000
  C   C869      1.0  0.36103  0.75008  0.94371  1.0000
  C   C870      1.0  0.33341  0.79292  0.93116  1.0000
  C   C871      1.0  0.34538  0.78803  0.91559  1.0000
  C   C872      1.0  0.33095  0.78353  0.89924  1.0000
  C   C873      1.0  0.30487  0.78480  0.89818  1.0000
  C   C874      1.0  0.29351  0.79111  0.91345  1.0000
  C   C875      1.0  0.30788  0.79549  0.92986  1.0000
  C   C876      1.0  0.15451  0.76874  0.97318  1.0000
  H   H687      1.0  0.29075  0.75366  0.95583  1.0000
  H   H688      1.0  0.40398  0.80514  0.97140  1.0000
  C   C877      1.0  0.27890  0.55581  0.99901  1.0000
  H   H689      1.0  0.41428  0.73212  0.95382  1.0000
  H   H690      1.0  0.36937  0.71484  0.93599  1.0000
  H   H691      1.0  0.34165  0.74231  0.93567  1.0000
  H   H692      1.0  0.34208  0.84486  0.96589  1.0000
  H   H693      1.0  0.34001  0.77881  0.88743  1.0000
  H   H694      1.0  0.29354  0.78090  0.88553  1.0000
  H   H695      1.0  0.27335  0.79219  0.91262  1.0000
  H   H696      1.0  0.29879  0.80044  0.94152  1.0000
  C   C878      1.0  0.36561  0.60441  0.73500  1.0000
  C   C879      1.0  0.28004  0.75443  0.98328  1.0000
  C   C880      1.0  0.37479  0.83532  0.95451  1.0000
  H   H697      1.0  0.36573  0.78730  0.91603  1.0000
  P   P28       1.0  0.45959  0.67713  0.95719  1.0000
  H   H698      1.0  0.44338  0.85804  0.72127  1.0000
  C   C881      1.0  0.40331  0.84730  0.94861  1.0000
  C   C882      1.0  0.41102  0.89458  0.95841  1.0000
  C   C883      1.0  0.29472  0.56321  0.98326  1.0000
  H   H699      1.0  0.33781  0.62446  0.96263  1.0000
  H   H700      1.0  0.28640  0.52322  0.95289  1.0000
  H   H701      1.0  0.37431  0.89688  0.96958  1.0000
  H   H702      1.0  0.20608  0.52883  0.95338  1.0000
  C   C884      1.0  0.38232  0.88304  0.96364  1.0000
  H   H703      1.0  0.11540  0.57940  0.98482  1.0000
  H   H704      1.0  0.25244  0.65052  0.71952  1.0000
  H   H705      1.0  0.18052  0.73856  0.91790  1.0000
  H   H706      1.0  0.28553  0.64487  0.93253  1.0000
  H   H707      1.0  0.42540  0.91724  0.96055  1.0000
  H   H708      1.0  0.30528  0.61186  0.93539  1.0000
  H   H709      1.0  0.29127  0.59837  0.74750  1.0000
  C   C885      1.0  0.28969  0.59876  0.92546  1.0000
  H   H710      1.0  0.22325  0.56834  0.98629  1.0000
  C   C886      1.0  0.48279  0.75354  0.99574  1.0000
  H   H711      1.0  0.44277  0.61341  0.77489  1.0000
  C   C887      1.0  0.29093  0.67797  0.95102  1.0000
  C   C888      1.0  0.25161  0.63448  0.97246  1.0000
  H   H712      1.0  0.29045  0.70731  0.97105  1.0000
  C   C889      1.0  0.28228  0.68502  0.96708  1.0000
  C   C890      1.0  0.12885  0.75121  0.90731  1.0000
  H   H713      1.0  0.45685  0.75710  0.72126  1.0000
  H   H714      1.0  0.44379  0.88567  0.94697  1.0000
  C   C891      1.0  0.35839  0.60394  0.75307  1.0000
  C   C892      1.0  0.26041  0.62707  0.95649  1.0000
  C   C893      1.0  0.46989  0.70736  0.97218  1.0000
  H   H715      1.0  0.50765  0.60278  0.97712  1.0000
  H   H716      1.0  0.20331  0.60958  0.94700  1.0000
  C   C894      1.0  0.34607  0.60238  0.72160  1.0000
  H   H717      1.0  0.22207  0.59761  0.71712  1.0000
  P   P29       1.0  0.24732  0.58935  0.95089  1.0000
  C   C895      1.0  0.12967  0.77055  0.89416  1.0000
  C   C896      1.0  0.20852  0.57113  0.95085  1.0000
  C   C897      1.0  0.19259  0.58642  0.94856  1.0000
  C   C898      1.0  0.34423  0.55318  0.81269  1.0000
  H   H718      1.0  0.32665  0.56282  0.83626  1.0000
  C   C899      1.0  0.33726  0.57078  0.82363  1.0000
  H   H719      1.0  0.36333  0.54961  0.78823  1.0000
  H   H720      1.0  0.35175  0.60271  0.70768  1.0000
  C   C900      1.0  0.26232  0.66327  0.97771  1.0000
  C   C901      1.0  0.45352  0.69987  0.77840  1.0000
  H   H721      1.0  0.30433  0.59886  0.71559  1.0000
  C   C902      1.0  0.44379  0.57729  0.76187  1.0000
  C   C903      1.0  0.24704  0.64015  0.70653  1.0000
  H   H722      1.0  0.46624  0.58432  0.76508  1.0000
  H   H723      1.0  0.34179  0.80958  0.70307  1.0000
  C   C904      1.0  0.42455  0.65206  0.79012  1.0000
  C   C905      1.0  0.25695  0.65665  0.69110  1.0000
  C   C906      1.0  0.31191  0.59976  0.74402  1.0000
  C   C907      1.0  0.25907  0.57458  0.96924  1.0000
  C   C908      1.0  0.33138  0.60164  0.75749  1.0000
  S   S124      1.0  0.50778  0.81259  0.94363  1.0000
  H   H724      1.0  0.41895  0.63735  0.80127  1.0000
  C   C909      1.0  0.35794  0.60926  0.80208  1.0000
  P   P30       1.0  0.38368  0.60597  0.77027  1.0000
  C   C910      1.0  0.44570  0.68049  0.79258  1.0000
  H   H725      1.0  0.46455  0.73489  0.95242  1.0000
  C   C911      1.0  0.14242  0.70801  0.93157  1.0000
  C   C912      1.0  0.39751  0.83400  0.72586  1.0000
  C   C913      1.0  0.46691  0.77164  0.92185  1.0000
  C   C914      1.0  0.14823  0.54190  0.95027  1.0000
  C   C915      1.0  0.42563  0.79997  0.71060  1.0000
  H   H726      1.0  0.12211  0.72893  0.90363  1.0000
  C   C916      1.0  0.42475  0.85793  0.72740  1.0000
  C   C917      1.0  0.17273  0.69509  0.91292  1.0000
  C   C918      1.0  0.38585  0.55913  0.75361  1.0000
  C   C919      1.0  0.16155  0.75510  0.95921  1.0000
  H   H727      1.0  0.25478  0.66864  0.98989  1.0000
  H   H728      1.0  0.20896  0.57415  0.68753  1.0000
  H   H729      1.0  0.43830  0.65174  0.92195  1.0000
  C   C920      1.0  0.38454  0.76502  0.00993  1.0000
  C   C921      1.0  0.09499  0.70879  0.96905  1.0000
  C   C922      1.0  0.16635  0.71605  0.92043  1.0000
  H   H730      1.0  0.35298  0.81639  0.73396  1.0000
  Fe  Fe61      1.0  0.49495  0.87989  0.98775  1.0000
  H   H731      1.0  0.19533  0.74626  0.94868  1.0000
  C   C923      1.0  0.47508  0.79758  0.93128  1.0000
  C   C924      1.0  0.17415  0.78248  0.98705  1.0000
  H   H732      1.0  0.19190  0.70146  0.90496  1.0000
  H   H733      1.0  0.27384  0.53046  0.92213  1.0000
  H   H734      1.0  0.02899  0.69065  0.93829  1.0000
  C   C925      1.0  0.13647  0.76055  0.92505  1.0000
  C   C926      1.0  0.18907  0.75657  0.95906  1.0000
  H   H735      1.0  0.49933  0.89415  0.91816  1.0000
  H   H736      1.0  0.07787  0.71772  0.92631  1.0000
  H   H737      1.0  0.11296  0.71258  0.97776  1.0000
  S   S125      1.0  0.14167  0.64269  0.00559  1.0000
  C   C927      1.0  0.47585  0.70503  0.99022  1.0000
  H   H738      1.0  0.26980  0.67980  0.69214  1.0000
  H   H739      1.0  0.18092  0.52400  0.99997  1.0000
  C   C928      1.0  0.13071  0.65767  0.92682  1.0000
  H   H740      1.0  0.11704  0.63505  0.92952  1.0000
  C   C929      1.0  0.50652  0.72413  0.91473  1.0000
  H   H741      1.0  0.10570  0.67144  0.94296  1.0000
  H   H742      1.0  0.48018  0.76078  0.92267  1.0000
  C   C930      1.0  0.04747  0.69615  0.94693  1.0000
  Fe  Fe62      1.0  0.33708  0.69913  0.67814  1.0000
  P   P31       1.0  0.39222  0.80209  0.71342  1.0000
  C   C931      1.0  0.12432  0.67855  0.93443  1.0000
  C   C932      1.0  0.13799  0.79932  0.89862  1.0000
  C   C933      1.0  0.49873  0.61701  0.97311  1.0000
  C   C934      1.0  0.14464  0.78947  0.92943  1.0000
  H   H743      1.0  0.16030  0.64976  0.91061  1.0000
  C   C935      1.0  0.14543  0.80875  0.91624  1.0000
  C   C936      1.0  0.48225  0.72808  0.00196  1.0000
  C   C937      1.0  0.31830  0.78681  0.00273  1.0000
  H   H744      1.0  0.13859  0.81429  0.88842  1.0000
  H   H745      1.0  0.02188  0.67472  0.96981  1.0000
  S   S126      1.0  0.34161  0.52185  0.98534  1.0000
  H   H746      1.0  0.15179  0.83105  0.91971  1.0000
  H   H747      1.0  0.21606  0.79323  0.99795  1.0000
  H   H748      1.0  0.47741  0.77575  0.97301  1.0000
  H   H749      1.0  0.33978  0.74942  0.70339  1.0000
  H   H750      1.0  0.01832  0.63252  0.99744  1.0000
  C   C938      1.0  0.12057  0.55243  0.00481  1.0000
  C   C939      1.0  0.42837  0.88223  0.73722  1.0000
  C   C940      1.0  0.25293  0.55727  0.99988  1.0000
  H   H751      1.0  0.43876  0.53911  0.74787  1.0000
  C   C941      1.0  0.25737  0.51522  0.93077  1.0000
  C   C942      1.0  0.30109  0.63293  0.00499  1.0000
  H   H752      1.0  0.07747  0.58499  0.00110  1.0000
  C   C943      1.0  0.47586  0.52893  0.98279  1.0000
  C   C944      1.0  0.39935  0.54272  0.74808  1.0000
  C   C945      1.0  0.50267  0.66503  0.97079  1.0000
  C   C946      1.0  0.40898  0.86882  0.00734  1.0000
  H   H753      1.0  0.48828  0.77161  0.00471  1.0000
  H   H754      1.0  0.16828  0.79208  0.99812  1.0000
  H   H755      1.0  0.28657  0.54860  0.01048  1.0000
  H   H756      1.0  0.13772  0.55059  0.99779  1.0000
  H   H757      1.0  0.06405  0.68649  0.98949  1.0000
  C   C947      1.0  0.50136  0.52660  0.98410  1.0000
  C   C948      1.0  0.45457  0.77500  0.71550  1.0000
  H   H758      1.0  0.36957  0.77178  0.00422  1.0000
  C   C949      1.0  0.44756  0.81997  0.69982  1.0000
  H   H759      1.0  0.44486  0.83700  0.69317  1.0000
  H   H760      1.0  0.50655  0.51507  0.97385  1.0000
  C   C950      1.0  0.47620  0.79493  0.70475  1.0000
  H   H761      1.0  0.34747  0.92604  0.99799  1.0000
  H   H762      1.0  0.50993  0.72765  0.94326  1.0000
  H   H763      1.0  0.48945  0.83275  0.68848  1.0000
  C   C951      1.0  0.26441  0.51132  0.94819  1.0000
  S   S127      1.0  0.19903  0.61230  0.00688  1.0000
  C   C952      1.0  0.08697  0.57234  0.00697  1.0000
  C   C953      1.0  0.48679  0.55474  0.01093  1.0000
  C   C954      1.0  0.99584  0.46693  0.09524  1.0000
  S   S128      1.0  0.55871  0.11206  0.07656  1.0000
  C   C955      1.0  0.70537  0.40629  0.05257  1.0000
  C   C956      1.0  0.77644  0.29927  0.01145  1.0000
  S   S129      1.0  0.62614  0.42217  0.06553  1.0000
  S   S130      1.0  0.69912  0.48218  0.08004  1.0000
  Fe  Fe63      1.0  0.67108  0.29125  0.17652  1.0000
  S   S131      1.0  0.65446  0.30985  0.19774  1.0000
  S   S132      1.0  0.64714  0.24779  0.16285  1.0000
  Fe  Fe64      1.0  0.73125  0.34215  0.17818  1.0000
  S   S133      1.0  0.71925  0.36489  0.19993  1.0000
  S   S134      1.0  0.77267  0.36428  0.16253  1.0000
  Fe  Fe65      1.0  0.69569  0.32089  0.21262  1.0000
  S   S135      1.0  0.69249  0.30419  0.24134  1.0000
  Fe  Fe66      1.0  0.67892  0.35200  0.18358  1.0000
  S   S136      1.0  0.65450  0.37700  0.17647  1.0000
  S   S137      1.0  0.71107  0.29937  0.19197  1.0000
  S   S138      1.0  0.69244  0.33236  0.16132  1.0000
  H   H764      1.0  0.59914  0.18878  0.18751  1.0000
  S   S139      1.0  0.71415  0.49081  0.13001  1.0000
  H   H765      1.0  0.75294  0.48464  0.10267  1.0000
  S   S140      1.0  0.70204  0.35882  0.31937  1.0000
  H   H766      1.0  0.63921  0.21792  0.20816  1.0000
  Fe  Fe67      1.0  0.85720  0.31918  0.09226  1.0000
  S   S141      1.0  0.88917  0.30522  0.08129  1.0000
  S   S142      1.0  0.83881  0.30743  0.12015  1.0000
  Fe  Fe68      1.0  0.84966  0.34199  0.05668  1.0000
  S   S143      1.0  0.88050  0.33011  0.04283  1.0000
  S   S144      1.0  0.82404  0.36181  0.04389  1.0000
  Fe  Fe69      1.0  0.85858  0.28869  0.05780  1.0000
  S   S145      1.0  0.84485  0.24524  0.04460  1.0000
  Fe  Fe70      1.0  0.90890  0.34804  0.06713  1.0000
  S   S146      1.0  0.95546  0.37957  0.05996  1.0000
  S   S147      1.0  0.82586  0.29936  0.06979  1.0000
  S   S148      1.0  0.87894  0.36315  0.07993  1.0000
  C   C957      1.0  0.98989  0.38792  0.06918  1.0000
  C   C958      1.0  0.54814  0.44719  0.04825  1.0000
  C   C959      1.0  0.53776  0.26300  0.30509  1.0000
  H   H767      1.0  0.97532  0.35320  0.08805  1.0000
  H   H768      1.0  0.93928  0.35899  0.10980  1.0000
  C   C960      1.0  0.80856  0.22236  0.03879  1.0000
  C   C961      1.0  0.80038  0.19311  0.03591  1.0000
  H   H769      1.0  0.64052  0.46338  0.03684  1.0000
  C   C962      1.0  0.78792  0.23234  0.03682  1.0000
  H   H770      1.0  0.81611  0.18517  0.03744  1.0000
  H   H771      1.0  0.79402  0.25493  0.03892  1.0000
  C   C963      1.0  0.54308  0.25880  0.25448  1.0000
  C   C964      1.0  0.84360  0.38419  0.02644  1.0000
  C   C965      1.0  0.84237  0.41004  0.02363  1.0000
  Fe  Fe71      1.0  0.65251  0.46762  0.07493  1.0000
  C   C966      1.0  0.63558  0.03059  0.03736  1.0000
  H   H772      1.0  0.82885  0.41559  0.03197  1.0000
  C   C967      1.0  0.84473  0.42439  0.08895  1.0000
  C   C968      1.0  0.78754  0.34635  0.14927  1.0000
  C   C969      1.0  0.80545  0.36113  0.13496  1.0000
  C   C970      1.0  0.82012  0.34880  0.12527  1.0000
  C   C971      1.0  0.81780  0.32201  0.13028  1.0000
  C   C972      1.0  0.79922  0.30685  0.14422  1.0000
  C   C973      1.0  0.78381  0.31877  0.15353  1.0000
  H   H773      1.0  0.80844  0.38248  0.13161  1.0000
  H   H774      1.0  0.83419  0.36052  0.11447  1.0000
  H   H775      1.0  0.79717  0.28604  0.14809  1.0000
  H   H776      1.0  0.77018  0.30724  0.16455  1.0000
  C   C974      1.0  0.69453  0.31972  0.26289  1.0000
  C   C975      1.0  0.69849  0.34792  0.26525  1.0000
  C   C976      1.0  0.70042  0.35929  0.28261  1.0000
  C   C977      1.0  0.69836  0.34272  0.29786  1.0000
  C   C978      1.0  0.69412  0.31443  0.29550  1.0000
  C   C979      1.0  0.69214  0.30303  0.27814  1.0000
  H   H777      1.0  0.70031  0.36104  0.25371  1.0000
  H   H778      1.0  0.70374  0.38121  0.28424  1.0000
  H   H779      1.0  0.69267  0.30151  0.30706  1.0000
  H   H780      1.0  0.68896  0.28118  0.27648  1.0000
  C   C980      1.0  0.69709  0.45865  0.14240  1.0000
  C   C981      1.0  0.71387  0.45035  0.15332  1.0000
  C   C982      1.0  0.70109  0.42507  0.16354  1.0000
  C   C983      1.0  0.67126  0.40841  0.16339  1.0000
  C   C984      1.0  0.65435  0.41692  0.15267  1.0000
  C   C985      1.0  0.66724  0.44171  0.14197  1.0000
  S   S149      1.0  0.65834  0.50863  0.06190  1.0000
  H   H781      1.0  0.71424  0.41887  0.17192  1.0000
  H   H782      1.0  0.63125  0.40409  0.15247  1.0000
  H   H783      1.0  0.65406  0.44796  0.13368  1.0000
  C   C986      1.0  0.56872  0.12364  0.05467  1.0000
  C   C987      1.0  0.59394  0.12478  0.04769  1.0000
  C   C988      1.0  0.56585  0.47230  0.07629  1.0000
  C   C989      1.0  0.55159  0.13184  0.04412  1.0000
  H   H784      1.0  0.60754  0.11908  0.05599  1.0000
  H   H785      1.0  0.85894  0.27056  0.30191  1.0000
  H   H786      1.0  0.59686  0.06830  0.03959  1.0000
  C   C990      1.0  0.55672  0.21046  0.13804  1.0000
  C   C991      1.0  0.57063  0.23955  0.14341  1.0000
  C   C992      1.0  0.59849  0.25157  0.15096  1.0000
  C   C993      1.0  0.61228  0.23433  0.15348  1.0000
  C   C994      1.0  0.59815  0.20528  0.14834  1.0000
  C   C995      1.0  0.57068  0.19344  0.14045  1.0000
  H   H787      1.0  0.55981  0.25279  0.14173  1.0000
  H   H788      1.0  0.60920  0.27399  0.15491  1.0000
  H   H789      1.0  0.60829  0.19170  0.15091  1.0000
  H   H790      1.0  0.55989  0.17087  0.13679  1.0000
  C   C996      1.0  0.77190  0.17382  0.03148  1.0000
  C   C997      1.0  0.62311  0.44333  0.03250  1.0000
  C   C998      1.0  0.61206  0.41974  0.04400  1.0000
  C   C999      1.0  0.62532  0.25706  0.01759  1.0000
  C   C1000     1.0  0.76784  0.36403  0.27330  1.0000
  C   C1001     1.0  0.76471  0.34793  0.25779  1.0000
  C   C1002     1.0  0.76539  0.32153  0.25878  1.0000
  C   C1003     1.0  0.76939  0.31128  0.27525  1.0000
  C   C1004     1.0  0.77246  0.32727  0.29096  1.0000
  C   C1005     1.0  0.77154  0.35373  0.28983  1.0000
  P   P32       1.0  0.77752  0.31347  0.31215  1.0000
  H   H791      1.0  0.96544  0.40658  0.09585  1.0000
  H   H792      1.0  0.58228  0.04380  0.06853  1.0000
  C   C1006     1.0  0.76250  0.50921  0.04756  1.0000
  H   H793      1.0  0.54374  0.49301  0.02015  1.0000
  S   S150      1.0  0.64403  0.47988  0.10202  1.0000
  C   C1007     1.0  0.71168  0.25381  0.14306  1.0000
  H   H794      1.0  0.53238  0.13158  0.04948  1.0000
  H   H795      1.0  0.93526  0.50448  0.04550  1.0000
  H   H796      1.0  0.54593  0.14669  0.01831  1.0000
  H   H797      1.0  0.58713  0.45252  0.06129  1.0000
  C   C1008     1.0  0.78730  0.46074  0.12665  1.0000
  C   C1009     1.0  0.85054  0.45154  0.06187  1.0000
  C   C1010     1.0  0.80303  0.29951  0.30883  1.0000
  H   H798      1.0  0.69834  0.45453  0.03936  1.0000
  C   C1011     1.0  0.54255  0.47850  0.07695  1.0000
  C   C1012     1.0  0.61517  0.06387  0.03946  1.0000
  C   C1013     1.0  0.84664  0.30352  0.29502  1.0000
  C   C1014     1.0  0.82661  0.31399  0.29753  1.0000
  H   H799      1.0  0.76647  0.38411  0.27257  1.0000
  H   H800      1.0  0.76077  0.35543  0.24507  1.0000
  H   H801      1.0  0.76213  0.30876  0.24676  1.0000
  H   H802      1.0  0.76979  0.29072  0.27573  1.0000
  H   H803      1.0  0.77337  0.36652  0.30156  1.0000
  H   H804      1.0  0.72509  0.27053  0.29388  1.0000
  H   H805      1.0  0.60182  0.32581  0.01981  1.0000
  C   C1015     1.0  0.73200  0.40853  0.04762  1.0000
  C   C1016     1.0  0.61129  0.03539  0.03853  1.0000
  H   H806      1.0  0.52577  0.32262  0.10636  1.0000
  C   C1017     1.0  0.70197  0.46401  0.02620  1.0000
  C   C1018     1.0  0.92796  0.51066  0.12057  1.0000
  H   H807      1.0  0.76587  0.15115  0.02984  1.0000
  H   H808      1.0  0.55080  0.43523  0.03714  1.0000
  C   C1019     1.0  0.77183  0.49995  0.09579  1.0000
  H   H809      1.0  0.80518  0.44104  0.01696  1.0000
  H   H810      1.0  0.65701  0.26473  0.33566  1.0000
  C   C1020     1.0  0.56078  0.28210  0.09946  1.0000
  H   H811      1.0  0.55604  0.18934  0.03974  1.0000
  H   H812      1.0  0.67224  0.39915  0.32975  1.0000
  H   H813      1.0  0.87492  0.42889  0.06840  1.0000
  C   C1021     1.0  0.94547  0.48486  0.06801  1.0000
  C   C1022     1.0  0.79180  0.49168  0.08870  1.0000
  C   C1023     1.0  0.54045  0.25775  0.22202  1.0000
  H   H814      1.0  0.51476  0.28499  0.15065  1.0000
  C   C1024     1.0  0.85852  0.43462  0.07273  1.0000
  P   P33       1.0  0.59373  0.30395  0.31286  1.0000
  C   C1025     1.0  0.95530  0.48583  0.11113  1.0000
  C   C1026     1.0  0.60754  0.30842  0.29042  1.0000
  C   C1027     1.0  0.61287  0.28700  0.28234  1.0000
  C   C1028     1.0  0.62268  0.29027  0.26477  1.0000
  C   C1029     1.0  0.62693  0.31470  0.25506  1.0000
  C   C1030     1.0  0.62101  0.33576  0.26284  1.0000
  C   C1031     1.0  0.61113  0.33254  0.28041  1.0000
  H   H815      1.0  0.86111  0.35638  0.01726  1.0000
  C   C1032     1.0  0.78157  0.45071  0.14418  1.0000
  C   C1033     1.0  0.52724  0.26650  0.17267  1.0000
  C   C1034     1.0  0.93066  0.49006  0.10986  1.0000
  H   H816      1.0  0.81242  0.42242  0.10690  1.0000
  C   C1035     1.0  0.55573  0.29176  0.30992  1.0000
  H   H817      1.0  0.75218  0.34595  0.33025  1.0000
  H   H818      1.0  0.95543  0.50485  0.07548  1.0000
  H   H819      1.0  0.77613  0.42375  0.05468  1.0000
  C   C1036     1.0  0.51478  0.30181  0.30816  1.0000
  H   H820      1.0  0.56761  0.24116  0.01375  1.0000
  H   H821      1.0  0.58143  0.42202  0.12588  1.0000
  P   P34       1.0  0.78417  0.45407  0.08966  1.0000
  H   H822      1.0  0.69013  0.49682  0.03402  1.0000
  C   C1037     1.0  0.53821  0.25496  0.10296  1.0000
  H   H823      1.0  0.60976  0.26789  0.28958  1.0000
  H   H824      1.0  0.62791  0.27431  0.25880  1.0000
  H   H825      1.0  0.63549  0.31761  0.24165  1.0000
  H   H826      1.0  0.62459  0.35482  0.25532  1.0000
  H   H827      1.0  0.60664  0.34905  0.28625  1.0000
  C   C1038     1.0  0.93416  0.48480  0.05103  1.0000
  H   H828      1.0  0.91340  0.47729  0.10064  1.0000
  C   C1039     1.0  0.75321  0.43391  0.07539  1.0000
  C   C1040     1.0  0.63685  0.35896  0.32154  1.0000
  C   C1041     1.0  0.75599  0.41261  0.11565  1.0000
  C   C1042     1.0  0.53972  0.03267  0.07731  1.0000
  H   H829      1.0  0.81769  0.24506  0.32215  1.0000
  H   H830      1.0  0.68179  0.04993  0.03630  1.0000
  C   C1043     1.0  0.74410  0.28486  0.32010  1.0000
  H   H831      1.0  0.73674  0.38013  0.13589  1.0000
  H   H832      1.0  0.77977  0.47888  0.04615  1.0000
  Fe  Fe72      1.0  0.69141  0.49793  0.10623  1.0000
  C   C1044     1.0  0.98431  0.48453  0.02090  1.0000
  C   C1045     1.0  0.82277  0.43088  0.09430  1.0000
  H   H833      1.0  0.83336  0.50798  0.07573  1.0000
  H   H834      1.0  0.86122  0.45948  0.04923  1.0000
  C   C1046     1.0  0.67956  0.22958  0.03622  1.0000
  C   C1047     1.0  0.68352  0.20493  0.03727  1.0000
  C   C1048     1.0  0.67380  0.18694  0.05205  1.0000
  C   C1049     1.0  0.66043  0.19377  0.06602  1.0000
  C   C1050     1.0  0.65711  0.21899  0.06535  1.0000
  C   C1051     1.0  0.66645  0.23667  0.05024  1.0000
  P   P35       1.0  0.63770  0.22692  0.08245  1.0000
  C   C1052     1.0  0.60750  0.22755  0.07093  1.0000
  C   C1053     1.0  0.62718  0.19954  0.09948  1.0000
  C   C1054     1.0  0.60025  0.17527  0.09906  1.0000
  C   C1055     1.0  0.59318  0.15377  0.11196  1.0000
  C   C1056     1.0  0.61303  0.15617  0.12521  1.0000
  C   C1057     1.0  0.63982  0.18044  0.12583  1.0000
  C   C1058     1.0  0.64686  0.20202  0.11304  1.0000
  C   C1059     1.0  0.60142  0.25099  0.07284  1.0000
  C   C1060     1.0  0.57905  0.25196  0.06296  1.0000
  C   C1061     1.0  0.56263  0.22964  0.05119  1.0000
  C   C1062     1.0  0.56902  0.20667  0.04884  1.0000
  C   C1063     1.0  0.59144  0.20563  0.05859  1.0000
  C   C1064     1.0  0.65934  0.26054  0.09389  1.0000
  C   C1065     1.0  0.68714  0.27959  0.08818  1.0000
  C   C1066     1.0  0.70405  0.30440  0.09817  1.0000
  C   C1067     1.0  0.69363  0.30997  0.11407  1.0000
  C   C1068     1.0  0.66613  0.29090  0.11988  1.0000
  C   C1069     1.0  0.64897  0.26649  0.10978  1.0000
  H   H835      1.0  0.68638  0.24294  0.02445  1.0000
  H   H836      1.0  0.93086  0.41433  0.06994  1.0000
  H   H837      1.0  0.67645  0.16752  0.05250  1.0000
  H   H838      1.0  0.65223  0.17899  0.07706  1.0000
  H   H839      1.0  0.66311  0.25563  0.04921  1.0000
  H   H840      1.0  0.58477  0.17265  0.08875  1.0000
  H   H841      1.0  0.57219  0.13521  0.11169  1.0000
  H   H842      1.0  0.60730  0.13958  0.13525  1.0000
  H   H843      1.0  0.65492  0.18289  0.13646  1.0000
  H   H844      1.0  0.66771  0.22064  0.11376  1.0000
  H   H845      1.0  0.61394  0.26861  0.08181  1.0000
  H   H846      1.0  0.57414  0.26986  0.06446  1.0000
  H   H847      1.0  0.54483  0.23004  0.04392  1.0000
  H   H848      1.0  0.55825  0.19924  0.18396  1.0000
  H   H849      1.0  0.59608  0.18759  0.05659  1.0000
  H   H850      1.0  0.69617  0.27515  0.07636  1.0000
  H   H851      1.0  0.72555  0.31903  0.09386  1.0000
  H   H852      1.0  0.70705  0.32876  0.12205  1.0000
  H   H853      1.0  0.65821  0.29446  0.13246  1.0000
  H   H854      1.0  0.62789  0.25168  0.11473  1.0000
  C   C1070     1.0  0.74523  0.27049  0.05809  1.0000
  C   C1071     1.0  0.75944  0.29929  0.06359  1.0000
  C   C1072     1.0  0.76982  0.30608  0.08107  1.0000
  C   C1073     1.0  0.76633  0.28410  0.09294  1.0000
  C   C1074     1.0  0.75135  0.25507  0.08769  1.0000
  C   C1075     1.0  0.74096  0.24842  0.07010  1.0000
  P   P36       1.0  0.74814  0.22718  0.10313  1.0000
  C   C1076     1.0  0.78424  0.23149  0.10658  1.0000
  C   C1077     1.0  0.73231  0.23025  0.12405  1.0000
  C   C1078     1.0  0.72727  0.20984  0.13755  1.0000
  C   C1079     1.0  0.71500  0.21173  0.15372  1.0000
  C   C1080     1.0  0.72388  0.25198  0.12687  1.0000
  C   C1081     1.0  0.80192  0.23474  0.09183  1.0000
  C   C1082     1.0  0.82951  0.23733  0.09424  1.0000
  C   C1083     1.0  0.84015  0.23765  0.11140  1.0000
  C   C1084     1.0  0.82315  0.23532  0.12619  1.0000
  C   C1085     1.0  0.79539  0.23238  0.12383  1.0000
  C   C1086     1.0  0.72589  0.19165  0.09363  1.0000
  C   C1087     1.0  0.69760  0.17521  0.09957  1.0000
  C   C1088     1.0  0.68035  0.14773  0.09254  1.0000
  C   C1089     1.0  0.69111  0.13640  0.07937  1.0000
  C   C1090     1.0  0.71904  0.15263  0.07317  1.0000
  C   C1091     1.0  0.73634  0.18010  0.08019  1.0000
  H   H855      1.0  0.73825  0.26521  0.04438  1.0000
  H   H856      1.0  0.76350  0.31646  0.05418  1.0000
  H   H857      1.0  0.78204  0.32843  0.08516  1.0000
  H   H858      1.0  0.77585  0.28972  0.10614  1.0000
  H   H859      1.0  0.73034  0.22636  0.06543  1.0000
  H   H860      1.0  0.73303  0.19255  0.13557  1.0000
  H   H861      1.0  0.71150  0.19615  0.16416  1.0000
  H   H862      1.0  0.72617  0.26742  0.11670  1.0000
  H   H863      1.0  0.79475  0.23583  0.07841  1.0000
  H   H864      1.0  0.84291  0.23973  0.08277  1.0000
  H   H865      1.0  0.86186  0.24053  0.11322  1.0000
  H   H866      1.0  0.83185  0.23678  0.13951  1.0000
  H   H867      1.0  0.78340  0.23189  0.13557  1.0000
  H   H868      1.0  0.68871  0.18353  0.10962  1.0000
  H   H869      1.0  0.65852  0.13534  0.09720  1.0000
  H   H870      1.0  0.67775  0.11519  0.07382  1.0000
  H   H871      1.0  0.72729  0.14411  0.06271  1.0000
  H   H872      1.0  0.75760  0.19210  0.07482  1.0000
  H   H873      1.0  0.70538  0.27071  0.14521  1.0000
  H   H874      1.0  0.54984  0.42838  0.10341  1.0000
  H   H875      1.0  0.64403  0.35318  0.03941  1.0000
  S   S151      1.0  0.71499  0.15764  0.02569  1.0000
  C   C1092     1.0  0.55653  0.41173  0.10154  1.0000
  C   C1093     1.0  0.81892  0.35076  0.33646  1.0000
  C   C1094     1.0  0.82806  0.45738  0.06692  1.0000
  C   C1095     1.0  0.70733  0.23379  0.15650  1.0000
  H   H876      1.0  0.58068  0.37563  0.04718  1.0000
  C   C1096     1.0  0.55674  0.30682  0.10061  1.0000
  H   H877      1.0  0.78173  0.38797  0.01236  1.0000
  P   P37       1.0  0.58533  0.34096  0.09366  1.0000
  C   C1097     1.0  0.57434  0.36894  0.09653  1.0000
  C   C1098     1.0  0.61760  0.35106  0.10688  1.0000
  C   C1099     1.0  0.64133  0.37816  0.10436  1.0000
  C   C1100     1.0  0.66599  0.38688  0.11497  1.0000
  C   C1101     1.0  0.66684  0.36897  0.12851  1.0000
  C   C1102     1.0  0.64290  0.34258  0.13164  1.0000
  C   C1103     1.0  0.61844  0.33351  0.12084  1.0000
  H   H878      1.0  0.75897  0.41385  0.16104  1.0000
  C   C1104     1.0  0.82013  0.26428  0.31524  1.0000
  C   C1105     1.0  0.60165  0.13352  0.03001  1.0000
  C   C1106     1.0  0.57423  0.40809  0.11423  1.0000
  C   C1107     1.0  0.58290  0.38663  0.11185  1.0000
  C   C1108     1.0  0.59106  0.33638  0.07025  1.0000
  C   C1109     1.0  0.56738  0.32022  0.05906  1.0000
  C   C1110     1.0  0.57141  0.31623  0.04102  1.0000
  C   C1111     1.0  0.59898  0.32823  0.03392  1.0000
  C   C1112     1.0  0.62269  0.34384  0.04495  1.0000
  C   C1113     1.0  0.61884  0.34792  0.06302  1.0000
  C   C1114     1.0  0.56003  0.30874  0.15640  1.0000
  C   C1115     1.0  0.53232  0.28661  0.15909  1.0000
  H   H879      1.0  0.54615  0.22638  0.23823  1.0000
  H   H880      1.0  0.72334  0.43947  0.09295  1.0000
  H   H881      1.0  0.58143  0.28386  0.09576  1.0000
  H   H882      1.0  0.64042  0.39293  0.09452  1.0000
  H   H883      1.0  0.68391  0.40810  0.11332  1.0000
  H   H884      1.0  0.68549  0.37627  0.13721  1.0000
  H   H885      1.0  0.64287  0.32959  0.14287  1.0000
  H   H886      1.0  0.60009  0.31332  0.12397  1.0000
  C   C1116     1.0  0.75932  0.21300  0.03196  1.0000
  H   H887      1.0  0.85073  0.41095  0.09724  1.0000
  Fe  Fe73      1.0  0.52385  0.12338  0.08480  1.0000
  C   C1117     1.0  0.52974  0.30403  0.10560  1.0000
  H   H888      1.0  0.59638  0.38410  0.12200  1.0000
  H   H889      1.0  0.54564  0.31099  0.06412  1.0000
  H   H890      1.0  0.55303  0.30433  0.03245  1.0000
  H   H891      1.0  0.69776  0.23534  0.16900  1.0000
  C   C1118     1.0  0.99372  0.37168  0.08281  1.0000
  H   H892      1.0  0.63759  0.36036  0.07111  1.0000
  C   C1119     1.0  0.90013  0.39083  0.12604  1.0000
  C   C1120     1.0  0.90911  0.36971  0.12322  1.0000
  C   C1121     1.0  0.93267  0.37555  0.11232  1.0000
  C   C1122     1.0  0.94744  0.40258  0.10439  1.0000
  C   C1123     1.0  0.93895  0.42416  0.10739  1.0000
  C   C1124     1.0  0.91484  0.41791  0.11809  1.0000
  P   P38       1.0  0.95849  0.45914  0.09714  1.0000
  H   H893      1.0  0.69400  0.19955  0.02661  1.0000
  C   C1125     1.0  0.69698  0.48774  0.02319  1.0000
  H   H894      1.0  0.54143  0.23592  0.10176  1.0000
  C   C1126     1.0  0.75582  0.42216  0.05899  1.0000
  H   H895      1.0  0.56400  0.32441  0.14594  1.0000
  P   P39       1.0  0.54376  0.24222  0.20106  1.0000
  C   C1127     1.0  0.84339  0.27866  0.30386  1.0000
  H   H896      1.0  0.54092  0.49123  0.08794  1.0000
  C   C1128     1.0  0.63538  0.26240  0.33561  1.0000
  H   H897      1.0  0.74366  0.22090  0.03053  1.0000
  H   H898      1.0  0.64510  0.29648  0.31680  1.0000
  H   H899      1.0  0.54588  0.24968  0.26686  1.0000
  C   C1129     1.0  0.94389  0.45929  0.07519  1.0000
  C   C1130     1.0  0.81408  0.44740  0.08329  1.0000
  H   H900      1.0  0.99605  0.49936  0.12496  1.0000
  C   C1131     1.0  0.92165  0.45937  0.04098  1.0000
  C   C1132     1.0  0.92073  0.43407  0.04780  1.0000
  C   C1133     1.0  0.93176  0.43405  0.06485  1.0000
  H   H901      1.0  0.88157  0.38600  0.13432  1.0000
  H   H902      1.0  0.89751  0.34866  0.12925  1.0000
  H   H903      1.0  0.68714  0.39660  0.04358  1.0000
  C   C1134     1.0  0.72614  0.43094  0.08036  1.0000
  H   H904      1.0  0.90731  0.43375  0.12041  1.0000
  C   C1135     1.0  0.55921  0.14034  0.02644  1.0000
  H   H905      1.0  0.73442  0.40023  0.03483  1.0000
  H   H906      1.0  0.78227  0.26325  0.32671  1.0000
  C   C1136     1.0  0.76313  0.42172  0.14745  1.0000
  H   H907      1.0  0.54647  0.24783  0.30367  1.0000
  H   H908      1.0  0.62133  0.13485  0.02475  1.0000
  C   C1137     1.0  0.55633  0.37262  0.08392  1.0000
  C   C1138     1.0  0.80002  0.27466  0.31776  1.0000
  H   H909      1.0  0.68826  0.09988  0.03862  1.0000
  C   C1139     1.0  0.62854  0.28030  0.32489  1.0000
  C   C1140     1.0  0.70238  0.41728  0.06898  1.0000
  C   C1141     1.0  0.77450  0.44175  0.11226  1.0000
  H   H910      1.0  0.91313  0.45942  0.02776  1.0000
  H   H911      1.0  0.91135  0.41437  0.03994  1.0000
  C   C1142     1.0  0.56883  0.45697  0.06185  1.0000
  H   H912      1.0  0.79142  0.46536  0.15527  1.0000
  H   H913      1.0  0.52223  0.20873  0.16818  1.0000
  C   C1143     1.0  0.66684  0.08194  0.03878  1.0000
  H   H914      1.0  0.53487  0.29280  0.21016  1.0000
  C   C1144     1.0  0.61182  0.44078  0.01519  1.0000
  C   C1145     1.0  0.64287  0.08699  0.03984  1.0000
  H   H915      1.0  0.54902  0.35909  0.07215  1.0000
  C   C1146     1.0  0.55004  0.26799  0.18340  1.0000
  C   C1147     1.0  0.69722  0.24431  0.31440  1.0000
  H   H916      1.0  0.68058  0.23081  0.30506  1.0000
  H   H917      1.0  0.78402  0.31670  0.02113  1.0000
  S   S152      1.0  0.52869  0.16827  0.08307  1.0000
  H   H918      1.0  0.83298  0.34213  0.33183  1.0000
  H   H919      1.0  0.64589  0.10896  0.04040  1.0000
  C   C1148     1.0  0.57768  0.29053  0.18075  1.0000
  C   C1149     1.0  0.58263  0.31079  0.16731  1.0000
  C   C1150     1.0  0.75126  0.18358  0.02916  1.0000
  C   C1151     1.0  0.77367  0.35300  0.33563  1.0000
  H   H920      1.0  0.97720  0.46220  0.02453  1.0000
  C   C1152     1.0  0.57412  0.23454  0.20311  1.0000
  C   C1153     1.0  0.59713  0.25111  0.21467  1.0000
  C   C1154     1.0  0.62020  0.24472  0.21674  1.0000
  C   C1155     1.0  0.62082  0.22215  0.20705  1.0000
  C   C1156     1.0  0.59821  0.20572  0.19543  1.0000
  C   C1157     1.0  0.57501  0.21190  0.19340  1.0000
  H   H921      1.0  0.68179  0.41592  0.07269  1.0000
  H   H922      1.0  0.55775  0.33371  0.31441  1.0000
  C   C1158     1.0  0.60090  0.27833  0.32527  1.0000
  C   C1159     1.0  0.72257  0.26698  0.30809  1.0000
  C   C1160     1.0  0.66319  0.05377  0.03748  1.0000
  C   C1161     1.0  0.00971  0.46027  0.10929  1.0000
  H   H923      1.0  0.74498  0.49568  0.05602  1.0000
  H   H924      1.0  0.54696  0.04915  0.08764  1.0000
  C   C1162     1.0  0.54414  0.31123  0.31119  1.0000
  H   H925      1.0  0.64756  0.35796  0.30945  1.0000
  H   H926      1.0  0.59544  0.29250  0.18905  1.0000
  H   H927      1.0  0.60406  0.32814  0.16539  1.0000
  H   H928      1.0  0.74651  0.39742  0.10477  1.0000
  H   H929      1.0  0.86471  0.31472  0.28622  1.0000
  C   C1163     1.0  0.75037  0.40270  0.13320  1.0000
  H   H930      1.0  0.59764  0.26933  0.22190  1.0000
  H   H931      1.0  0.63812  0.25787  0.22545  1.0000
  C   C1164     1.0  0.58942  0.39378  0.03831  1.0000
  C   C1165     1.0  0.61010  0.33640  0.32618  1.0000
  C   C1166     1.0  0.79134  0.34151  0.32901  1.0000
  H   H932      1.0  0.73685  0.46366  0.15394  1.0000
  H   H933      1.0  0.82955  0.33343  0.29069  1.0000
  C   C1167     1.0  0.69325  0.23918  0.33272  1.0000
  H   H934      1.0  0.80194  0.48320  0.12437  1.0000
  H   H935      1.0  0.53436  0.31552  0.23890  1.0000
  C   C1168     1.0  0.86079  0.37674  0.01553  1.0000
  H   H936      1.0  0.61989  0.25960  0.03119  1.0000
  H   H937      1.0  0.82124  0.46922  0.05783  1.0000
  C   C1169     1.0  0.01123  0.47927  0.07965  1.0000
  H   H938      1.0  0.58186  0.47965  0.08686  1.0000
  C   C1170     1.0  0.73993  0.27945  0.33850  1.0000
  C   C1171     1.0  0.53991  0.28397  0.25474  1.0000
  C   C1172     1.0  0.54754  0.39397  0.08644  1.0000
  C   C1173     1.0  0.52169  0.46866  0.06338  1.0000
  H   H939      1.0  0.54709  0.06235  0.03043  1.0000
  C   C1174     1.0  0.65106  0.38240  0.33312  1.0000
  C   C1175     1.0  0.54322  0.24565  0.23822  1.0000
  S   S153      1.0  0.83165  0.50494  0.02625  1.0000
  C   C1176     1.0  0.57783  0.39126  0.02117  1.0000
  H   H940      1.0  0.67352  0.22177  0.33764  1.0000
  C   C1177     1.0  0.55969  0.03002  0.06610  1.0000
  H   H941      1.0  0.51675  0.06652  0.05436  1.0000
  H   H942      1.0  0.99817  0.45020  0.12133  1.0000
  H   H943      1.0  0.56032  0.37104  0.01695  1.0000
  C   C1178     1.0  0.52406  0.45242  0.04908  1.0000
  C   C1179     1.0  0.58389  0.14064  0.01926  1.0000
  H   H944      1.0  0.00095  0.48407  0.06852  1.0000
  C   C1180     1.0  0.78236  0.49968  0.04194  1.0000
  H   H945      1.0  0.53397  0.39693  0.07659  1.0000
  S   S154      1.0  0.52101  0.19516  0.12985  1.0000
  C   C1181     1.0  0.97696  0.50226  0.12350  1.0000
  C   C1182     1.0  0.52398  0.05269  0.02864  1.0000
  H   H946      1.0  0.89228  0.27293  0.01591  1.0000
  C   C1183     1.0  0.53669  0.29592  0.23872  1.0000
  C   C1184     1.0  0.58064  0.25924  0.33727  1.0000
  C   C1185     1.0  0.71298  0.45365  0.01257  1.0000
  H   H947      1.0  0.71795  0.43611  0.01540  1.0000
  H   H948      1.0  0.73186  0.28882  0.01445  1.0000
  H   H949      1.0  0.54014  0.29433  0.26734  1.0000
  H   H950      1.0  0.66601  0.50669  0.14356  1.0000
  H   H951      1.0  0.61825  0.21320  0.02143  1.0000
  C   C1186     1.0  0.53695  0.28290  0.22240  1.0000
  C   C1187     1.0  0.00789  0.50644  0.02963  1.0000
  C   C1188     1.0  0.59789  0.33753  0.34262  1.0000
  H   H952      1.0  0.55985  0.25868  0.33879  1.0000
  H   H953      1.0  0.01148  0.42455  0.05197  1.0000
  C   C1189     1.0  0.62437  0.23097  0.01215  1.0000
  C   C1190     1.0  0.93578  0.47745  0.38037  1.0000
  S   S155      1.0  0.55042  0.42385  0.57125  1.0000
  S   S156      1.0  0.53249  0.34151  0.57947  1.0000
  Fe  Fe74      1.0  0.70800  0.16972  0.60073  1.0000
  S   S157      1.0  0.72747  0.14486  0.58636  1.0000
  S   S158      1.0  0.73110  0.20109  0.62313  1.0000
  Fe  Fe75      1.0  0.65463  0.14428  0.57783  1.0000
  S   S159      1.0  0.66936  0.11759  0.56162  1.0000
  S   S160      1.0  0.61116  0.14091  0.57297  1.0000
  Fe  Fe76      1.0  0.68293  0.10708  0.58780  1.0000
  S   S161      1.0  0.67278  0.06171  0.59689  1.0000
  Fe  Fe77      1.0  0.71195  0.15769  0.56139  1.0000
  S   S162      1.0  0.73158  0.17267  0.53403  1.0000
  S   S163      1.0  0.66509  0.13130  0.60407  1.0000
  S   S164      1.0  0.69562  0.18508  0.57574  1.0000
  S   S165      1.0  0.56196  0.19234  0.48239  1.0000
  S   S166      1.0  0.59320  0.13986  0.48987  1.0000
  Fe  Fe78      1.0  0.67427  0.30017  0.37883  1.0000
  S   S167      1.0  0.65411  0.25350  0.38717  1.0000
  Fe  Fe79      1.0  0.73011  0.35505  0.38363  1.0000
  S   S168      1.0  0.77348  0.37812  0.39724  1.0000
  Fe  Fe80      1.0  0.67294  0.35708  0.38386  1.0000
  S   S169      1.0  0.64697  0.37490  0.39869  1.0000
  S   S170      1.0  0.69097  0.33349  0.40044  1.0000
  C   C1191     1.0  0.99377  0.37016  0.47004  1.0000
  Fe  Fe81      1.0  0.66008  0.47689  0.49730  1.0000
  S   S171      1.0  0.63197  0.43205  0.50734  1.0000
  C   C1192     1.0  0.61480  0.24269  0.34703  1.0000
  S   S172      1.0  0.69520  0.33544  0.65636  1.0000
  C   C1193     1.0  0.59307  0.04615  0.62363  1.0000
  S   S173      1.0  0.77739  0.37464  0.65670  1.0000
  S   S174      1.0  0.65874  0.25408  0.66250  1.0000
  C   C1194     1.0  0.61216  0.36101  0.35417  1.0000
  S   S175      1.0  0.91991  0.45420  0.57292  1.0000
  C   C1195     1.0  0.58034  0.20204  0.58325  1.0000
  Fe  Fe82      1.0  0.86517  0.30089  0.49709  1.0000
  S   S176      1.0  0.82752  0.30786  0.48916  1.0000
  S   S177      1.0  0.85939  0.26705  0.51765  1.0000
  Fe  Fe83      1.0  0.90914  0.35470  0.47749  1.0000
  S   S178      1.0  0.87406  0.36523  0.46812  1.0000
  S   S179      1.0  0.95373  0.39151  0.47191  1.0000
  Fe  Fe84      1.0  0.85644  0.35403  0.49563  1.0000
  S   S180      1.0  0.83983  0.38160  0.50938  1.0000
  Fe  Fe85      1.0  0.84829  0.31830  0.46225  1.0000
  S   S181      1.0  0.81990  0.30089  0.43779  1.0000
  S   S182      1.0  0.89293  0.34678  0.50560  1.0000
  S   S183      1.0  0.88447  0.30778  0.46952  1.0000
  C   C1196     1.0  0.98873  0.39406  0.47252  1.0000
  H   H954      1.0  0.60734  0.19887  0.65945  1.0000
  C   C1197     1.0  0.57770  0.18651  0.56755  1.0000
  C   C1198     1.0  0.55258  0.32508  0.44304  1.0000
  C   C1199     1.0  0.57374  0.36502  0.46395  1.0000
  C   C1200     1.0  0.86344  0.40200  0.52647  1.0000
  C   C1201     1.0  0.87920  0.39128  0.53634  1.0000
  C   C1202     1.0  0.89687  0.40742  0.55052  1.0000
  C   C1203     1.0  0.89901  0.43443  0.55473  1.0000
  C   C1204     1.0  0.88350  0.44524  0.54472  1.0000
  C   C1205     1.0  0.86560  0.42893  0.53074  1.0000
  H   H955      1.0  0.87683  0.37009  0.53360  1.0000
  H   H956      1.0  0.90827  0.39868  0.55850  1.0000
  H   H957      1.0  0.88521  0.46620  0.54770  1.0000
  H   H958      1.0  0.85303  0.43695  0.52345  1.0000
  C   C1206     1.0  0.79348  0.40949  0.64720  1.0000
  C   C1207     1.0  0.78243  0.42914  0.64966  1.0000
  C   C1208     1.0  0.79658  0.45690  0.64216  1.0000
  C   C1209     1.0  0.82149  0.46501  0.63188  1.0000
  C   C1210     1.0  0.83212  0.44514  0.62918  1.0000
  C   C1211     1.0  0.81836  0.41770  0.63700  1.0000
  H   H959      1.0  0.76330  0.42311  0.65756  1.0000
  H   H960      1.0  0.78822  0.47217  0.64432  1.0000
  H   H961      1.0  0.85130  0.45118  0.62136  1.0000
  C   C1212     1.0  0.78580  0.35650  0.40876  1.0000
  C   C1213     1.0  0.80669  0.36878  0.42223  1.0000
  C   C1214     1.0  0.81717  0.35195  0.43138  1.0000
  C   C1215     1.0  0.80723  0.32289  0.42682  1.0000
  C   C1216     1.0  0.78692  0.31096  0.41302  1.0000
  C   C1217     1.0  0.77582  0.32750  0.40422  1.0000
  H   H962      1.0  0.81459  0.39128  0.42570  1.0000
  H   H963      1.0  0.83318  0.36157  0.44173  1.0000
  H   H964      1.0  0.77979  0.28884  0.40908  1.0000
  H   H965      1.0  0.75992  0.31794  0.39372  1.0000
  C   C1218     1.0  0.66656  0.40738  0.41059  1.0000
  C   C1219     1.0  0.65415  0.41340  0.42552  1.0000
  C   C1220     1.0  0.66819  0.44003  0.43444  1.0000
  C   C1221     1.0  0.69477  0.46089  0.42837  1.0000
  C   C1222     1.0  0.70745  0.45473  0.41361  1.0000
  C   C1223     1.0  0.69354  0.42793  0.40483  1.0000
  H   H966      1.0  0.63377  0.39728  0.43027  1.0000
  H   H967      1.0  0.65835  0.44456  0.44587  1.0000
  H   H968      1.0  0.72794  0.47091  0.40883  1.0000
  H   H969      1.0  0.70327  0.42354  0.39331  1.0000
  C   C1224     1.0  0.57462  0.22201  0.42297  1.0000
  C   C1225     1.0  0.59223  0.20833  0.42341  1.0000
  C   C1226     1.0  0.61671  0.21823  0.41248  1.0000
  C   C1227     1.0  0.62406  0.24221  0.40137  1.0000
  C   C1228     1.0  0.60682  0.25627  0.40126  1.0000
  C   C1229     1.0  0.58200  0.24595  0.41182  1.0000
  H   H970      1.0  0.58674  0.18988  0.43194  1.0000
  H   H971      1.0  0.62996  0.20726  0.41264  1.0000
  H   H972      1.0  0.61226  0.27472  0.39274  1.0000
  H   H973      1.0  0.56852  0.25666  0.41143  1.0000
  H   H974      1.0  0.86314  0.46486  0.40968  1.0000
  S   S184      1.0  0.52883  0.13295  0.45848  1.0000
  H   H975      1.0  0.99616  0.30409  0.53834  1.0000
  H   H976      1.0  0.62959  0.05140  0.56917  1.0000
  H   H977      1.0  0.65728  0.33687  0.60599  1.0000
  C   C1230     1.0  0.76704  0.19972  0.53018  1.0000
  C   C1231     1.0  0.77454  0.21068  0.51284  1.0000
  C   C1232     1.0  0.80251  0.23198  0.50906  1.0000
  C   C1233     1.0  0.82356  0.24186  0.52248  1.0000
  C   C1234     1.0  0.81615  0.23091  0.53984  1.0000
  C   C1235     1.0  0.78787  0.21016  0.54375  1.0000
  H   H978      1.0  0.75873  0.20245  0.50221  1.0000
  H   H979      1.0  0.80802  0.24002  0.49561  1.0000
  H   H980      1.0  0.83233  0.23840  0.55029  1.0000
  H   H981      1.0  0.78238  0.20176  0.55713  1.0000
  C   C1236     1.0  0.71068  0.21475  0.63472  1.0000
  C   C1237     1.0  0.72357  0.23547  0.64827  1.0000
  C   C1238     1.0  0.70799  0.24792  0.65682  1.0000
  C   C1239     1.0  0.67915  0.23895  0.65230  1.0000
  C   C1240     1.0  0.66610  0.21753  0.63918  1.0000
  C   C1241     1.0  0.68191  0.20586  0.63020  1.0000
  H   H982      1.0  0.74589  0.24254  0.65177  1.0000
  C   C1242     1.0  0.51417  0.40595  0.42900  1.0000
  H   H983      1.0  0.64392  0.21052  0.63557  1.0000
  H   H984      1.0  0.67197  0.19018  0.61964  1.0000
  C   C1243     1.0  0.60579  0.13835  0.54988  1.0000
  C   C1244     1.0  0.57797  0.12671  0.54279  1.0000
  C   C1245     1.0  0.57384  0.12589  0.52426  1.0000
  C   C1246     1.0  0.59748  0.13691  0.51287  1.0000
  C   C1247     1.0  0.62511  0.14700  0.52000  1.0000
  C   C1248     1.0  0.62936  0.14803  0.53849  1.0000
  H   H985      1.0  0.55969  0.11835  0.55161  1.0000
  H   H986      1.0  0.55242  0.11636  0.51884  1.0000
  H   H987      1.0  0.64328  0.15487  0.51126  1.0000
  H   H988      1.0  0.65095  0.15707  0.54387  1.0000
  C   C1249     1.0  0.57382  0.42617  0.55393  1.0000
  C   C1250     1.0  0.57629  0.40192  0.54818  1.0000
  C   C1251     1.0  0.59401  0.40384  0.53377  1.0000
  C   C1252     1.0  0.60988  0.43022  0.52531  1.0000
  C   C1253     1.0  0.60791  0.45468  0.53127  1.0000
  C   C1254     1.0  0.58989  0.45263  0.54557  1.0000
  H   H989      1.0  0.56447  0.38165  0.55474  1.0000
  H   H990      1.0  0.59546  0.38487  0.52920  1.0000
  H   H991      1.0  0.62002  0.47507  0.52478  1.0000
  H   H992      1.0  0.58827  0.47147  0.55018  1.0000
  C   C1255     1.0  0.56755  0.33243  0.63764  1.0000
  C   C1256     1.0  0.58485  0.36174  0.63441  1.0000
  C   C1257     1.0  0.61185  0.37629  0.64291  1.0000
  C   C1258     1.0  0.62180  0.36155  0.65447  1.0000
  C   C1259     1.0  0.60444  0.33228  0.65769  1.0000
  C   C1260     1.0  0.57741  0.31781  0.64931  1.0000
  H   H993      1.0  0.57729  0.37319  0.62554  1.0000
  H   H994      1.0  0.62500  0.39902  0.64053  1.0000
  C   C1261     1.0  0.59772  0.09237  0.67147  1.0000
  H   H995      1.0  0.56401  0.29518  0.65193  1.0000
  S   S185      1.0  0.71533  0.31969  0.36306  1.0000
  H   H996      1.0  0.53999  0.32878  0.54316  1.0000
  H   H997      1.0  0.88119  0.40891  0.39944  1.0000
  C   C1262     1.0  0.59104  0.33079  0.58020  1.0000
  C   C1263     1.0  0.59020  0.32558  0.56186  1.0000
  C   C1264     1.0  0.61125  0.34562  0.55082  1.0000
  C   C1265     1.0  0.63320  0.37091  0.55811  1.0000
  C   C1266     1.0  0.63393  0.37643  0.57651  1.0000
  C   C1267     1.0  0.61291  0.35600  0.58752  1.0000
  H   H998      1.0  0.57468  0.31539  0.58887  1.0000
  H   H999      1.0  0.57310  0.30615  0.55620  1.0000
  H   H1000     1.0  0.61022  0.34178  0.53656  1.0000
  H   H1001     1.0  0.64918  0.38621  0.54932  1.0000
  H   H1002     1.0  0.61324  0.35963  0.60180  1.0000
  H   H1003     1.0  0.70368  0.39009  0.57495  1.0000
  C   C1268     1.0  0.71607  0.24554  0.49055  1.0000
  C   C1269     1.0  0.69781  0.24009  0.47566  1.0000
  C   C1270     1.0  0.67793  0.21153  0.47157  1.0000
  P   P40       1.0  0.70362  0.26828  0.45988  1.0000
  C   C1271     1.0  0.72993  0.30245  0.46892  1.0000
  C   C1272     1.0  0.71646  0.25766  0.44027  1.0000
  C   C1273     1.0  0.73799  0.24877  0.44210  1.0000
  C   C1274     1.0  0.74625  0.23772  0.42747  1.0000
  C   C1275     1.0  0.73293  0.23520  0.41089  1.0000
  C   C1276     1.0  0.71157  0.24404  0.40891  1.0000
  C   C1277     1.0  0.70324  0.25512  0.42353  1.0000
  C   C1278     1.0  0.75919  0.31373  0.46473  1.0000
  C   C1279     1.0  0.77931  0.33936  0.47271  1.0000
  C   C1280     1.0  0.77041  0.35407  0.48476  1.0000
  C   C1281     1.0  0.74131  0.34322  0.48886  1.0000
  C   C1282     1.0  0.72115  0.31739  0.48108  1.0000
  C   C1283     1.0  0.67173  0.27237  0.45507  1.0000
  C   C1284     1.0  0.64481  0.25366  0.46216  1.0000
  C   C1285     1.0  0.62071  0.25764  0.45812  1.0000
  C   C1286     1.0  0.62333  0.28053  0.44740  1.0000
  C   C1287     1.0  0.65005  0.29947  0.44052  1.0000
  C   C1288     1.0  0.67416  0.29540  0.44432  1.0000
  H   H1004     1.0  0.73246  0.26707  0.49362  1.0000
  H   H1005     1.0  0.66440  0.20661  0.45975  1.0000
  H   H1006     1.0  0.74836  0.25019  0.45489  1.0000
  H   H1007     1.0  0.76325  0.23146  0.42900  1.0000
  H   H1008     1.0  0.73936  0.22668  0.39954  1.0000
  H   H1009     1.0  0.70117  0.24204  0.39608  1.0000
  H   H1010     1.0  0.68608  0.26100  0.42168  1.0000
  H   H1011     1.0  0.76673  0.30284  0.45546  1.0000
  H   H1012     1.0  0.80193  0.34769  0.46967  1.0000
  H   H1013     1.0  0.78621  0.37374  0.49100  1.0000
  H   H1014     1.0  0.73443  0.35467  0.49820  1.0000
  H   H1015     1.0  0.69873  0.30894  0.48464  1.0000
  H   H1016     1.0  0.64207  0.23588  0.47065  1.0000
  H   H1017     1.0  0.59975  0.24271  0.46303  1.0000
  H   H1018     1.0  0.65183  0.31682  0.43187  1.0000
  H   H1019     1.0  0.69468  0.30984  0.43857  1.0000
  C   C1289     1.0  0.74953  0.25674  0.54823  1.0000
  C   C1290     1.0  0.76772  0.27252  0.53446  1.0000
  C   C1291     1.0  0.76317  0.29371  0.52568  1.0000
  C   C1292     1.0  0.73997  0.29868  0.53041  1.0000
  C   C1293     1.0  0.72173  0.28312  0.54440  1.0000
  C   C1294     1.0  0.72662  0.26198  0.55320  1.0000
  P   P41       1.0  0.69015  0.28738  0.54954  1.0000
  C   C1295     1.0  0.69491  0.32272  0.54286  1.0000
  C   C1296     1.0  0.65919  0.25936  0.53841  1.0000
  C   C1297     1.0  0.63144  0.25405  0.54353  1.0000
  C   C1298     1.0  0.60735  0.23178  0.53551  1.0000
  C   C1299     1.0  0.61069  0.21421  0.52261  1.0000
  C   C1300     1.0  0.63819  0.21951  0.51728  1.0000
  C   C1301     1.0  0.66240  0.24201  0.52514  1.0000
  C   C1302     1.0  0.67271  0.32597  0.53407  1.0000
  C   C1303     1.0  0.67664  0.35324  0.52880  1.0000
  C   C1304     1.0  0.70261  0.37757  0.53238  1.0000
  C   C1305     1.0  0.72481  0.37460  0.54104  1.0000
  C   C1306     1.0  0.72110  0.34735  0.54623  1.0000
  C   C1307     1.0  0.68438  0.28292  0.57336  1.0000
  C   C1308     1.0  0.69686  0.30664  0.58504  1.0000
  C   C1309     1.0  0.69193  0.30293  0.60340  1.0000
  C   C1310     1.0  0.67461  0.27559  0.61026  1.0000
  C   C1311     1.0  0.66279  0.25176  0.59882  1.0000
  C   C1312     1.0  0.66766  0.25533  0.58047  1.0000
  H   H1020     1.0  0.75280  0.23992  0.55479  1.0000
  H   H1021     1.0  0.78501  0.26788  0.53039  1.0000
  H   H1022     1.0  0.77731  0.30586  0.51493  1.0000
  H   H1023     1.0  0.73616  0.31432  0.52296  1.0000
  H   H1024     1.0  0.71246  0.24902  0.56364  1.0000
  H   H1025     1.0  0.62843  0.26700  0.55381  1.0000
  H   H1026     1.0  0.58597  0.22779  0.53949  1.0000
  H   H1027     1.0  0.59195  0.19630  0.51684  1.0000
  H   H1028     1.0  0.64064  0.20572  0.50729  1.0000
  H   H1029     1.0  0.68344  0.24533  0.52108  1.0000
  H   H1030     1.0  0.65230  0.30765  0.53117  1.0000
  H   H1031     1.0  0.65949  0.35557  0.52197  1.0000
  H   H1032     1.0  0.70552  0.39874  0.52842  1.0000
  H   H1033     1.0  0.74491  0.39352  0.54373  1.0000
  H   H1034     1.0  0.73869  0.34552  0.55285  1.0000
  H   H1035     1.0  0.71037  0.32798  0.58014  1.0000
  H   H1036     1.0  0.70141  0.32123  0.61241  1.0000
  H   H1037     1.0  0.67067  0.27291  0.62449  1.0000
  H   H1038     1.0  0.65007  0.23045  0.60423  1.0000
  H   H1039     1.0  0.65853  0.23642  0.57191  1.0000
  C   C1313     1.0  0.96821  0.42314  0.55182  1.0000
  C   C1314     1.0  0.95980  0.40391  0.53741  1.0000
  C   C1315     1.0  0.96266  0.41433  0.52002  1.0000
  H   H1040     1.0  0.70389  0.03246  0.46037  1.0000
  C   C1316     1.0  0.98282  0.46342  0.53135  1.0000
  C   C1317     1.0  0.97943  0.45275  0.54884  1.0000
  H   H1041     1.0  0.97584  0.34898  0.46825  1.0000
  H   H1042     1.0  0.64861  0.32936  0.48572  1.0000
  C   C1318     1.0  0.00448  0.43135  0.42813  1.0000
  S   S186      1.0  0.86108  0.48098  0.57735  1.0000
  C   C1319     1.0  0.58754  0.24129  0.34797  1.0000
  H   H1043     1.0  0.71528  0.36240  0.43704  1.0000
  C   C1320     1.0  0.61944  0.28796  0.49638  1.0000
  C   C1321     1.0  0.62693  0.30458  0.62312  1.0000
  C   C1322     1.0  0.87004  0.34058  0.40717  1.0000
  Fe  Fe86      1.0  0.73578  0.35619  0.67245  1.0000
  H   H1044     1.0  0.59610  0.18477  0.56234  1.0000
  C   C1323     1.0  0.60450  0.32122  0.48286  1.0000
  C   C1324     1.0  0.54062  0.50523  0.51585  1.0000
  H   H1045     1.0  0.61027  0.34179  0.47658  1.0000
  C   C1325     1.0  0.52693  0.50062  0.45016  1.0000
  H   H1046     1.0  0.95039  0.38090  0.53971  1.0000
  C   C1326     1.0  0.84137  0.46204  0.40999  1.0000
  C   C1327     1.0  0.96196  0.34260  0.50995  1.0000
  C   C1328     1.0  0.94544  0.31405  0.51518  1.0000
  S   S187      1.0  0.53003  0.20614  0.52354  1.0000
  H   H1047     1.0  0.67228  0.03686  0.48313  1.0000
  C   C1329     1.0  0.69620  0.38493  0.45160  1.0000
  C   C1330     1.0  0.59071  0.26854  0.49936  1.0000
  H   H1048     1.0  0.92190  0.37763  0.43793  1.0000
  H   H1049     1.0  0.51291  0.46404  0.40890  1.0000
  Fe  Fe87      1.0  0.90688  0.48879  0.57842  1.0000
  H   H1050     1.0  0.64970  0.07164  0.63372  1.0000
  H   H1051     1.0  0.67014  0.47110  0.53497  1.0000
  C   C1331     1.0  0.51580  0.42784  0.48785  1.0000
  H   H1052     1.0  0.70215  0.09587  0.63194  1.0000
  H   H1053     1.0  0.54148  0.30228  0.44006  1.0000
  C   C1332     1.0  0.54000  0.42999  0.49710  1.0000
  C   C1333     1.0  0.56650  0.44114  0.48855  1.0000
  C   C1334     1.0  0.56915  0.45096  0.47102  1.0000
  H   H1054     1.0  0.83341  0.45089  0.38207  1.0000
  P   P42       1.0  0.60809  0.08996  0.64883  1.0000
  H   H1055     1.0  0.83716  0.51050  0.46232  1.0000
  C   C1335     1.0  0.54662  0.50599  0.49762  1.0000
  H   H1056     1.0  0.59002  0.45975  0.46491  1.0000
  C   C1336     1.0  0.69023  0.09654  0.51690  1.0000
  C   C1337     1.0  0.66706  0.10290  0.51723  1.0000
  Fe  Fe88      1.0  0.67743  0.35481  0.67638  1.0000
  H   H1057     1.0  0.89817  0.48198  0.51081  1.0000
  H   H1058     1.0  0.51509  0.07202  0.53750  1.0000
  H   H1059     1.0  0.72318  0.49613  0.53552  1.0000
  C   C1338     1.0  0.52776  0.17595  0.56502  1.0000
  C   C1339     1.0  0.98229  0.46824  0.43939  1.0000
  H   H1060     1.0  0.95560  0.39944  0.50889  1.0000
  C   C1340     1.0  0.93450  0.45712  0.39294  1.0000
  C   C1341     1.0  0.79633  0.45004  0.39480  1.0000
  C   C1342     1.0  0.54059  0.05541  0.49869  1.0000
  H   H1061     1.0  0.84952  0.37771  0.35628  1.0000
  C   C1343     1.0  0.55767  0.06538  0.48353  1.0000
  C   C1344     1.0  0.55152  0.17376  0.55831  1.0000
  Fe  Fe89      1.0  0.87256  0.50991  0.60126  1.0000
  H   H1062     1.0  0.77593  0.49619  0.47634  1.0000
  C   C1345     1.0  0.82467  0.45425  0.39440  1.0000
  C   C1346     1.0  0.51547  0.27736  0.47331  1.0000
  H   H1063     1.0  0.53218  0.24836  0.58566  1.0000
  S   S188      1.0  0.71225  0.49518  0.43845  1.0000
  H   H1064     1.0  0.58149  0.03451  0.66830  1.0000
  C   C1347     1.0  0.82845  0.37098  0.35039  1.0000
  H   H1065     1.0  0.57795  0.31973  0.34687  1.0000
  C   C1348     1.0  0.95785  0.30039  0.52554  1.0000
  H   H1066     1.0  0.71199  0.11396  0.51668  1.0000
  H   H1067     1.0  0.67096  0.12518  0.51726  1.0000
  H   H1068     1.0  0.52128  0.45463  0.53393  1.0000
  H   H1069     1.0  0.61041  0.46317  0.62913  1.0000
  C   C1349     1.0  0.68537  0.06787  0.51711  1.0000
  C   C1350     1.0  0.82974  0.46563  0.42602  1.0000
  H   H1070     1.0  0.56160  0.10000  0.66418  1.0000
  H   H1071     1.0  0.76228  0.44920  0.41098  1.0000
  C   C1351     1.0  0.99076  0.35774  0.51527  1.0000
  H   H1072     1.0  0.60705  0.23036  0.63526  1.0000
  C   C1352     1.0  0.63407  0.05191  0.51870  1.0000
  C   C1353     1.0  0.97553  0.42393  0.42503  1.0000
  H   H1073     1.0  0.69805  0.02722  0.57715  1.0000
  C   C1354     1.0  0.56581  0.09280  0.62720  1.0000
  C   C1355     1.0  0.55687  0.20529  0.58970  1.0000
  C   C1356     1.0  0.59322  0.05271  0.64183  1.0000
  H   H1074     1.0  0.55756  0.08299  0.47592  1.0000
  C   C1357     1.0  0.57166  0.13492  0.61065  1.0000
  C   C1358     1.0  0.54437  0.32180  0.51535  1.0000
  C   C1359     1.0  0.70718  0.13366  0.64643  1.0000
  C   C1360     1.0  0.69131  0.10622  0.63902  1.0000
  C   C1361     1.0  0.66131  0.09256  0.64000  1.0000
  C   C1362     1.0  0.64693  0.10641  0.64832  1.0000
  C   C1363     1.0  0.66314  0.13367  0.65618  1.0000
  H   H1075     1.0  0.57211  0.22688  0.35745  1.0000
  C   C1364     1.0  0.58804  0.19265  0.65143  1.0000
  H   H1076     1.0  0.59541  0.26028  0.57980  1.0000
  C   C1365     1.0  0.88463  0.39170  0.40514  1.0000
  C   C1366     1.0  0.94102  0.49034  0.51828  1.0000
  H   H1077     1.0  0.57979  0.05672  0.53441  1.0000
  C   C1367     1.0  0.98675  0.31530  0.53071  1.0000
  S   S189      1.0  0.54311  0.20994  0.43592  1.0000
  H   H1078     1.0  0.64343  0.43333  0.55704  1.0000
  H   H1079     1.0  0.85576  0.31857  0.40322  1.0000
  C   C1368     1.0  0.61623  0.45788  0.41439  1.0000
  C   C1369     1.0  0.63526  0.50390  0.42965  1.0000
  H   H1080     1.0  0.94503  0.27809  0.52935  1.0000
  C   C1370     1.0  0.80716  0.46551  0.46612  1.0000
  C   C1371     1.0  0.80119  0.46126  0.42653  1.0000
  H   H1081     1.0  0.51966  0.27721  0.56173  1.0000
  S   S190      1.0  0.53337  0.31320  0.62762  1.0000
  H   H1082     1.0  0.78303  0.44309  0.38287  1.0000
  H   H1083     1.0  0.51718  0.44999  0.59702  1.0000
  C   C1372     1.0  0.88997  0.34586  0.42093  1.0000
  H   H1084     1.0  0.55244  0.07054  0.63080  1.0000
  C   C1373     1.0  0.90736  0.37406  0.42677  1.0000
  H   H1085     1.0  0.55434  0.30806  0.51811  1.0000
  C   C1374     1.0  0.66670  0.44363  0.55722  1.0000
  P   P43       1.0  0.99721  0.50163  0.52722  1.0000
  Fe  Fe90      1.0  0.53286  0.17786  0.45857  1.0000
  H   H1086     1.0  0.84905  0.47317  0.51034  1.0000
  C   C1375     1.0  0.59400  0.10787  0.63395  1.0000
  C   C1376     1.0  0.52424  0.34378  0.49483  1.0000
  C   C1377     1.0  0.51830  0.43733  0.47016  1.0000
  H   H1087     1.0  0.52489  0.40019  0.43952  1.0000
  H   H1088     1.0  0.75622  0.29274  0.34810  1.0000
  C   C1378     1.0  0.51425  0.22864  0.52923  1.0000
  C   C1379     1.0  0.53897  0.03600  0.54791  1.0000
  S   S191      1.0  0.65579  0.38031  0.66488  1.0000
  P   P44       1.0  0.92686  0.43350  0.42690  1.0000
  C   C1380     1.0  0.56205  0.50881  0.52841  1.0000
  S   S192      1.0  0.51692  0.13304  0.50208  1.0000
  C   C1381     1.0  0.90870  0.43554  0.44683  1.0000
  C   C1382     1.0  0.92145  0.43856  0.46377  1.0000
  C   C1383     1.0  0.90631  0.43853  0.47908  1.0000
  C   C1384     1.0  0.87851  0.43567  0.47761  1.0000
  C   C1385     1.0  0.86556  0.43239  0.46083  1.0000
  C   C1386     1.0  0.56247  0.20324  0.62770  1.0000
  H   H1089     1.0  0.78796  0.50595  0.41935  1.0000
  C   C1387     1.0  0.77839  0.50828  0.46420  1.0000
  C   C1388     1.0  0.59952  0.15016  0.61748  1.0000
  H   H1090     1.0  0.96242  0.40408  0.41798  1.0000
  H   H1091     1.0  0.80563  0.49664  0.51067  1.0000
  S   S193      1.0  0.65316  0.32206  0.36311  1.0000
  Fe  Fe91      1.0  0.55465  0.14678  0.48390  1.0000
  H   H1092     1.0  0.76275  0.40425  0.43507  1.0000
  C   C1389     1.0  0.54011  0.03223  0.50844  1.0000
  H   H1093     1.0  0.91563  0.43939  0.49214  1.0000
  H   H1094     1.0  0.86664  0.43489  0.48954  1.0000
  S   S194      1.0  0.70542  0.48706  0.49068  1.0000
  C   C1390     1.0  0.00332  0.34427  0.52583  1.0000
  C   C1391     1.0  0.71170  0.47932  0.54510  1.0000
  H   H1095     1.0  0.63236  0.14897  0.63399  1.0000
  H   H1096     1.0  0.84360  0.42907  0.45978  1.0000
  C   C1392     1.0  0.78226  0.49753  0.44776  1.0000
  C   C1393     1.0  0.54078  0.04767  0.57948  1.0000
  C   C1394     1.0  0.83108  0.49166  0.47062  1.0000
  H   H1097     1.0  0.78128  0.42108  0.47403  1.0000
  C   C1395     1.0  0.84252  0.31516  0.54807  1.0000
  C   C1396     1.0  0.87001  0.31938  0.55282  1.0000
  C   C1397     1.0  0.88340  0.33523  0.56811  1.0000
  C   C1398     1.0  0.86930  0.34683  0.57871  1.0000
  C   C1399     1.0  0.84153  0.34269  0.57411  1.0000
  C   C1400     1.0  0.82824  0.32662  0.55868  1.0000
  P   P45       1.0  0.82287  0.35666  0.58848  1.0000
  C   C1401     1.0  0.84745  0.37722  0.60612  1.0000
  C   C1402     1.0  0.81163  0.38081  0.57746  1.0000
  C   C1403     1.0  0.81121  0.38291  0.55880  1.0000
  C   C1404     1.0  0.80380  0.40282  0.55077  1.0000
  C   C1405     1.0  0.79734  0.42124  0.56127  1.0000
  C   C1406     1.0  0.79718  0.41898  0.57982  1.0000
  C   C1407     1.0  0.80413  0.39881  0.58786  1.0000
  C   C1408     1.0  0.86712  0.40615  0.60326  1.0000
  C   C1409     1.0  0.88704  0.42196  0.61652  1.0000
  C   C1410     1.0  0.88745  0.40902  0.63276  1.0000
  C   C1411     1.0  0.86819  0.38007  0.63562  1.0000
  C   C1412     1.0  0.84840  0.36411  0.62230  1.0000
  C   C1413     1.0  0.79140  0.32817  0.59853  1.0000
  C   C1414     1.0  0.78008  0.29948  0.59247  1.0000
  C   C1415     1.0  0.75559  0.27793  0.60039  1.0000
  C   C1416     1.0  0.74245  0.28476  0.61447  1.0000
  C   C1417     1.0  0.75394  0.31297  0.62093  1.0000
  C   C1418     1.0  0.77817  0.33463  0.61293  1.0000
  H   H1098     1.0  0.83253  0.30311  0.53604  1.0000
  H   H1099     1.0  0.88098  0.31045  0.54460  1.0000
  H   H1100     1.0  0.90476  0.33856  0.57174  1.0000
  H   H1101     1.0  0.88037  0.35904  0.59044  1.0000
  H   H1102     1.0  0.80675  0.32270  0.55494  1.0000
  H   H1103     1.0  0.81752  0.37012  0.55030  1.0000
  H   H1104     1.0  0.80424  0.40470  0.53637  1.0000
  H   H1105     1.0  0.79315  0.43773  0.55507  1.0000
  H   H1106     1.0  0.79279  0.43363  0.58808  1.0000
  H   H1107     1.0  0.80478  0.39817  0.60225  1.0000
  H   H1108     1.0  0.86719  0.41651  0.59073  1.0000
  H   H1109     1.0  0.90207  0.44434  0.61415  1.0000
  H   H1110     1.0  0.90262  0.42146  0.64311  1.0000
  H   H1111     1.0  0.86840  0.37004  0.64823  1.0000
  H   H1112     1.0  0.83385  0.34164  0.62470  1.0000
  H   H1113     1.0  0.79012  0.29332  0.58192  1.0000
  H   H1114     1.0  0.74705  0.25572  0.59591  1.0000
  H   H1115     1.0  0.72341  0.26813  0.62046  1.0000
  H   H1116     1.0  0.74424  0.31801  0.63231  1.0000
  H   H1117     1.0  0.78690  0.35621  0.61841  1.0000
  H   H1118     1.0  0.58524  0.44267  0.49560  1.0000
  C   C1419     1.0  0.71872  0.38261  0.44305  1.0000
  H   H1119     1.0  0.82707  0.40272  0.63518  1.0000
  H   H1120     1.0  0.71825  0.26433  0.66696  1.0000
  H   H1121     1.0  0.58248  0.07790  0.58971  1.0000
  C   C1420     1.0  0.54522  0.44976  0.46176  1.0000
  S   S195      1.0  0.65055  0.48974  0.47065  1.0000
  H   H1122     1.0  0.54972  0.16257  0.54580  1.0000
  C   C1421     1.0  0.74566  0.40661  0.44182  1.0000
  S   S196      1.0  0.71338  0.38137  0.36842  1.0000
  C   C1422     1.0  0.67598  0.18892  0.48239  1.0000
  H   H1123     1.0  0.60445  0.28314  0.44411  1.0000
  C   C1423     1.0  0.81508  0.44406  0.49298  1.0000
  H   H1124     1.0  0.89114  0.32795  0.42753  1.0000
  C   C1424     1.0  0.56372  0.16669  0.65479  1.0000
  C   C1425     1.0  0.79954  0.44151  0.47723  1.0000
  C   C1426     1.0  0.97409  0.44390  0.51695  1.0000
  C   C1427     1.0  0.53859  0.32701  0.49781  1.0000
  H   H1125     1.0  0.53004  0.04553  0.59209  1.0000
  C   C1428     1.0  0.78457  0.45336  0.41080  1.0000
  C   C1429     1.0  0.62636  0.31437  0.48818  1.0000
  H   H1126     1.0  0.81761  0.39725  0.36803  1.0000
  C   C1430     1.0  0.92797  0.45961  0.41080  1.0000
  C   C1431     1.0  0.71409  0.22285  0.50130  1.0000
  H   H1127     1.0  0.66043  0.16694  0.47921  1.0000
  H   H1128     1.0  0.54674  0.25989  0.49664  1.0000
  C   C1432     1.0  0.63912  0.31568  0.60664  1.0000
  C   C1433     1.0  0.57031  0.06556  0.57826  1.0000
  H   H1129     1.0  0.73034  0.14475  0.64504  1.0000
  H   H1130     1.0  0.58152  0.42778  0.60579  1.0000
  C   C1434     1.0  0.57498  0.05287  0.47821  1.0000
  C   C1435     1.0  0.61636  0.41951  0.59741  1.0000
  H   H1131     1.0  0.60332  0.40456  0.58712  1.0000
  C   C1436     1.0  0.60438  0.27208  0.59204  1.0000
  H   H1132     1.0  0.51487  0.48489  0.46007  1.0000
  C   C1437     1.0  0.69427  0.19459  0.49716  1.0000
  H   H1133     1.0  0.72826  0.22693  0.51271  1.0000
  H   H1134     1.0  0.63581  0.31720  0.63514  1.0000
  C   C1438     1.0  0.58219  0.38441  0.44974  1.0000
  H   H1135     1.0  0.73841  0.37880  0.59154  1.0000
  C   C1439     1.0  0.62436  0.03119  0.57570  1.0000
  H   H1136     1.0  0.56349  0.14514  0.60119  1.0000
  P   P46       1.0  0.54872  0.46296  0.43910  1.0000
  C   C1440     1.0  0.58413  0.47110  0.43097  1.0000
  H   H1137     1.0  0.57936  0.37341  0.47745  1.0000
  H   H1138     1.0  0.92310  0.30235  0.51101  1.0000
  Fe  Fe92      1.0  0.52223  0.17804  0.49880  1.0000
  C   C1441     1.0  0.59216  0.26059  0.60863  1.0000
  P   P47       1.0  0.66170  0.40890  0.58642  1.0000
  C   C1442     1.0  0.88051  0.43213  0.44549  1.0000
  C   C1443     1.0  0.70391  0.39055  0.58940  1.0000
  C   C1444     1.0  0.60389  0.43290  0.60791  1.0000
  C   C1445     1.0  0.72352  0.38408  0.59872  1.0000
  H   H1139     1.0  0.69335  0.17710  0.50537  1.0000
  C   C1446     1.0  0.69311  0.14724  0.65515  1.0000
  H   H1140     1.0  0.63732  0.30828  0.57833  1.0000
  H   H1141     1.0  0.60076  0.21171  0.59025  1.0000
  C   C1447     1.0  0.58856  0.45138  0.42024  1.0000
  C   C1448     1.0  0.61063  0.13677  0.62913  1.0000
  H   H1142     1.0  0.61179  0.32080  0.66670  1.0000
  C   C1449     1.0  0.96398  0.44196  0.43110  1.0000
  H   H1143     1.0  0.93861  0.43943  0.38877  1.0000
  P   P48       1.0  0.56099  0.22580  0.60988  1.0000
  C   C1450     1.0  0.68529  0.39843  0.59871  1.0000
  C   C1451     1.0  0.64525  0.42575  0.60012  1.0000
  C   C1452     1.0  0.57594  0.37415  0.43219  1.0000
  H   H1144     1.0  0.55738  0.33659  0.41522  1.0000
  H   H1145     1.0  0.73964  0.38021  0.62467  1.0000
  H   H1146     1.0  0.85040  0.35902  0.38953  1.0000
  C   C1453     1.0  0.53619  0.33348  0.52966  1.0000
  C   C1454     1.0  0.62021  0.45295  0.62097  1.0000
  C   C1455     1.0  0.68531  0.39788  0.61744  1.0000
  H   H1147     1.0  0.80895  0.42577  0.50179  1.0000
  H   H1148     1.0  0.61983  0.44252  0.40636  1.0000
  H   H1149     1.0  0.97588  0.45142  0.50333  1.0000
  H   H1150     1.0  0.59346  0.26955  0.63699  1.0000
  H   H1151     1.0  0.67025  0.40229  0.62507  1.0000
  C   C1456     1.0  0.68161  0.43587  0.56999  1.0000
  H   H1152     1.0  0.72396  0.44693  0.58099  1.0000
  C   C1457     1.0  0.66180  0.44676  0.61279  1.0000
  H   H1153     1.0  0.57087  0.43098  0.41643  1.0000
  C   C1458     1.0  0.58145  0.03014  0.65419  1.0000
  H   H1154     1.0  0.58510  0.24796  0.50559  1.0000
  C   C1459     1.0  0.58763  0.21073  0.63778  1.0000
  C   C1460     1.0  0.57554  0.30149  0.48552  1.0000
  C   C1461     1.0  0.71182  0.45098  0.57063  1.0000
  Fe  Fe93      1.0  0.69671  0.50341  0.46489  1.0000
  C   C1462     1.0  0.56867  0.05363  0.54690  1.0000
  C   C1463     1.0  0.55850  0.33516  0.46073  1.0000
  H   H1155     1.0  0.61282  0.17213  0.61329  1.0000
  C   C1464     1.0  0.56138  0.34453  0.42885  1.0000
  H   H1156     1.0  0.66103  0.48911  0.41471  1.0000
  C   C1465     1.0  0.90542  0.39729  0.41859  1.0000
  C   C1466     1.0  0.56887  0.27528  0.49406  1.0000
  C   C1467     1.0  0.62798  0.29941  0.59111  1.0000
  C   C1468     1.0  0.55474  0.10630  0.61557  1.0000
  C   C1469     1.0  0.70076  0.41123  0.45912  1.0000
  C   C1470     1.0  0.68172  0.46513  0.54478  1.0000
  C   C1471     1.0  0.64921  0.46002  0.62334  1.0000
  C   C1472     1.0  0.60320  0.27737  0.62412  1.0000
  C   C1473     1.0  0.86712  0.36344  0.39941  1.0000
  H   H1157     1.0  0.70548  0.16875  0.66059  1.0000
  H   H1158     1.0  0.59427  0.40737  0.45233  1.0000
  H   H1159     1.0  0.95254  0.35283  0.50146  1.0000
  C   C1474     1.0  0.84639  0.49413  0.48639  1.0000
  P   P49       1.0  0.54709  0.31031  0.47925  1.0000
  H   H1160     1.0  0.58333  0.38907  0.42114  1.0000
  H   H1161     1.0  0.67511  0.36654  0.45210  1.0000
  H   H1162     1.0  0.55813  0.50911  0.54258  1.0000
  H   H1163     1.0  0.60291  0.06322  0.61393  1.0000
  H   H1164     1.0  0.96506  0.41510  0.56536  1.0000
  C   C1475     1.0  0.64177  0.03035  0.58969  1.0000
  C   C1476     1.0  0.72427  0.38488  0.61736  1.0000
  C   C1477     1.0  0.52508  0.03303  0.56432  1.0000
  H   H1165     1.0  0.52767  0.06578  0.50252  1.0000
  C   C1478     1.0  0.58421  0.06831  0.56202  1.0000
  H   H1166     1.0  0.73024  0.45573  0.46312  1.0000
  P   P50       1.0  0.78513  0.46423  0.44719  1.0000
  C   C1479     1.0  0.75015  0.43339  0.44883  1.0000
  H   H1167     1.0  0.53855  0.26028  0.45713  1.0000
  H   H1168     1.0  0.63621  0.28226  0.50017  1.0000
  C   C1480     1.0  0.65722  0.04529  0.51780  1.0000
  C   C1481     1.0  0.70505  0.39160  0.62668  1.0000
  H   H1169     1.0  0.68627  0.04181  0.54846  1.0000
  H   H1170     1.0  0.58835  0.06091  0.46652  1.0000
  C   C1482     1.0  0.72758  0.43541  0.45771  1.0000
  C   C1483     1.0  0.72677  0.47240  0.55808  1.0000
  H   H1171     1.0  0.68441  0.45281  0.61459  1.0000
  H   H1172     1.0  0.86984  0.42855  0.43262  1.0000
  H   H1173     1.0  0.60697  0.08261  0.56104  1.0000
  H   H1174     1.0  0.70363  0.06335  0.51684  1.0000
  H   H1175     1.0  0.68324  0.41325  0.46554  1.0000
  H   H1176     1.0  0.94251  0.43971  0.46532  1.0000
  C   C1484     1.0  0.83811  0.47051  0.49767  1.0000
  H   H1177     1.0  0.53326  0.09448  0.61009  1.0000
  H   H1178     1.0  0.70547  0.39208  0.64116  1.0000
  C   C1485     1.0  0.91960  0.49836  0.51407  1.0000
  H   H1179     1.0  0.93561  0.46770  0.51835  1.0000
  H   H1180     1.0  0.60330  0.36134  0.36716  1.0000
  H   H1181     1.0  0.54168  0.24590  0.55232  1.0000
  C   C1486     1.0  0.60777  0.49731  0.43575  1.0000
  H   H1182     1.0  0.84293  0.47138  0.43796  1.0000
  H   H1183     1.0  0.75004  0.48418  0.55860  1.0000
  H   H1184     1.0  0.00321  0.37973  0.51080  1.0000
  C   C1487     1.0  0.63878  0.38339  0.34945  1.0000
  H   H1185     1.0  0.62029  0.22923  0.35565  1.0000
  H   H1186     1.0  0.53112  0.50492  0.48777  1.0000
  H   H1187     1.0  0.56427  0.15284  0.66537  1.0000
  H   H1188     1.0  0.71117  0.25318  0.35900  1.0000
  C   C1488     1.0  0.63901  0.08065  0.51811  1.0000
  C   C1489     1.0  0.53024  0.19129  0.58079  1.0000
  H   H1189     1.0  0.65266  0.14482  0.66273  1.0000
  Fe  Fe94      1.0  0.68162  0.29851  0.67526  1.0000
  H   H1190     1.0  0.94068  0.47533  0.36657  1.0000
  H   H1191     1.0  0.62123  0.08591  0.51845  1.0000
  S   S197      1.0  0.83946  0.50031  0.62310  1.0000
  C   C1490     1.0  0.51789  0.25672  0.46231  1.0000
  C   C1491     1.0  0.53099  0.23357  0.61276  1.0000
  C   C1492     1.0  0.92380  0.48328  0.41606  1.0000
  C   C1493     1.0  0.52146  0.43497  0.42568  1.0000
  Fe  Fe95      1.0  0.69554  0.34430  0.34868  1.0000
  H   H1192     1.0  0.91967  0.48621  0.42986  1.0000
  H   H1193     1.0  0.65033  0.40097  0.35875  1.0000
  C   C1494     1.0  0.52435  0.24622  0.54452  1.0000
  H   H1194     1.0  0.53838  0.42301  0.51086  1.0000
  H   H1195     1.0  0.61231  0.03499  0.51985  1.0000
  Fe  Fe96      1.0  0.52226  0.37886  0.58091  1.0000
  H   H1196     1.0  0.66195  0.47580  0.63333  1.0000
  C   C1495     1.0  0.63953  0.48416  0.41905  1.0000
  C   C1496     1.0  0.54460  0.49563  0.43808  1.0000
  H   H1197     1.0  0.98482  0.46700  0.56026  1.0000
  C   C1497     1.0  0.53820  0.17692  0.63102  1.0000
  C   C1498     1.0  0.53883  0.15874  0.64453  1.0000
  C   C1499     1.0  0.69886  0.01935  0.47228  1.0000
  H   H1198     1.0  0.57810  0.51031  0.47790  1.0000
  C   C1500     1.0  0.57320  0.50901  0.49199  1.0000
  C   C1501     1.0  0.51759  0.22993  0.62939  1.0000
  C   C1502     1.0  0.58078  0.01751  0.61784  1.0000
  C   C1503     1.0  0.57420  0.09767  0.67497  1.0000
  H   H1199     1.0  0.97404  0.48281  0.44378  1.0000
  C   C1504     1.0  0.52141  0.24426  0.59839  1.0000
  C   C1505     1.0  0.78337  0.37336  0.34945  1.0000
  H   H1200     1.0  0.51493  0.35841  0.53784  1.0000
  C   C1506     1.0  0.52185  0.35004  0.52664  1.0000
  H   H1201     1.0  0.51999  0.13855  0.64706  1.0000
  H   H1202     1.0  0.51882  0.34737  0.48141  1.0000
  H   H1203     1.0  0.52553  0.22330  0.64095  1.0000
  H   H1204     1.0  0.00675  0.34576  0.56498  1.0000
  H   H1205     1.0  0.00865  0.44004  0.47666  1.0000
  C   C1507     1.0  0.01132  0.47579  0.44222  1.0000
  Fe  Fe97      1.0  0.51495  0.33224  0.60719  1.0000
  H   H1206     1.0  0.51877  0.17052  0.62315  1.0000
  C   C1508     1.0  0.51589  0.35522  0.50922  1.0000
  H   H1207     1.0  0.76948  0.38187  0.35466  1.0000
  C   C1509     1.0  0.68103  0.02186  0.48526  1.0000
  P   P51       1.0  0.51823  0.01908  0.52813  1.0000
  C   C1510     1.0  0.81062  0.38214  0.35694  1.0000
  C   C1511     1.0  0.57505  0.03015  0.48800  1.0000
  C   C1512     1.0  0.55773  0.01988  0.50308  1.0000
  C   C1513     1.0  0.92513  0.50361  0.40346  1.0000
  H   H1208     1.0  0.58852  0.02052  0.48388  1.0000
  C   C1514     1.0  0.67765  0.01907  0.55126  1.0000
  C   C1515     1.0  0.93097  0.50062  0.38561  1.0000
  H   H1209     1.0  0.58061  0.01262  0.60378  1.0000
  H   H1210     1.0  0.76652  0.50997  0.50508  1.0000
  C   C1516     1.0  0.68456  0.01086  0.56762  1.0000
  C   C1517     1.0  0.54058  0.51001  0.67692  1.0000
  C   C1518     1.0  0.71453  0.25682  0.34476  1.0000
  H   H1211     1.0  0.67595  0.34773  0.99802  1.0000
  S   S198      1.0  0.57560  0.41089  0.98783  1.0000
  C   C1519     1.0  0.58914  0.41469  0.00955  1.0000
  S   S199      1.0  0.84532  0.47963  0.98093  1.0000
  H   H1212     1.0  0.77820  0.50897  0.99669  1.0000
  S   S200      1.0  0.89743  0.44519  0.98289  1.0000
  Fe  Fe98      1.0  0.63122  0.14620  0.98822  1.0000
  Fe  Fe99      1.0  0.68924  0.15131  0.99997  1.0000
  C   C1520     1.0  0.53887  0.47770  0.00930  1.0000
  Fe  Fe100     1.0  0.68303  0.17560  0.96409  1.0000
  S   S201      1.0  0.70075  0.14490  0.97197  1.0000
  S   S202      1.0  0.70753  0.21886  0.95057  1.0000
  Fe  Fe101     1.0  0.65461  0.10984  0.96976  1.0000
  S   S203      1.0  0.63587  0.06568  0.95609  1.0000
  H   H1213     1.0  0.82130  0.48132  0.73303  1.0000
  C   C1521     1.0  0.55441  0.23737  0.00196  1.0000
  S   S204      1.0  0.63825  0.14046  0.95941  1.0000
  S   S205      1.0  0.67433  0.18361  0.99221  1.0000
  C   C1522     1.0  0.52557  0.25103  0.98266  1.0000
  Fe  Fe102     1.0  0.70314  0.33776  0.70854  1.0000
  S   S206      1.0  0.72350  0.31760  0.69022  1.0000
  S   S207      1.0  0.71216  0.33544  0.73875  1.0000
  C   C1523     1.0  0.56263  0.02013  0.98542  1.0000
  Fe  Fe103     1.0  0.88982  0.48409  0.98262  1.0000
  S   S208      1.0  0.71926  0.37813  0.69163  1.0000
  S   S209      1.0  0.66004  0.31600  0.69436  1.0000
  Fe  Fe104     1.0  0.65408  0.35051  0.88286  1.0000
  S   S210      1.0  0.67925  0.33487  0.89991  1.0000
  S   S211      1.0  0.62316  0.36438  0.89570  1.0000
  Fe  Fe105     1.0  0.68580  0.34971  0.84832  1.0000
  S   S212      1.0  0.71404  0.33428  0.86319  1.0000
  S   S213      1.0  0.68200  0.35938  0.81849  1.0000
  Fe  Fe106     1.0  0.67370  0.30440  0.87749  1.0000
  S   S214      1.0  0.66038  0.25727  0.88279  1.0000
  Fe  Fe107     1.0  0.71791  0.36620  0.88491  1.0000
  S   S215      1.0  0.75643  0.38587  0.90386  1.0000
  S   S216      1.0  0.64498  0.31737  0.86140  1.0000
  S   S217      1.0  0.69312  0.38423  0.86916  1.0000
  C   C1524     1.0  0.55529  0.48620  0.99377  1.0000
  C   C1525     1.0  0.70185  0.34016  0.76091  1.0000
  C   C1526     1.0  0.71689  0.33681  0.77570  1.0000
  C   C1527     1.0  0.71033  0.34124  0.79342  1.0000
  C   C1528     1.0  0.68886  0.34963  0.79667  1.0000
  C   C1529     1.0  0.67363  0.35267  0.78190  1.0000
  C   C1530     1.0  0.67971  0.34757  0.76424  1.0000
  H   H1214     1.0  0.73393  0.33093  0.77343  1.0000
  H   H1215     1.0  0.72246  0.33897  0.80450  1.0000
  H   H1216     1.0  0.65697  0.35912  0.78414  1.0000
  H   H1217     1.0  0.66735  0.34955  0.75321  1.0000
  C   C1531     1.0  0.62392  0.03152  0.96650  1.0000
  C   C1532     1.0  0.71858  0.46682  0.99574  1.0000
  H   H1218     1.0  0.55271  0.44503  0.88986  1.0000
  H   H1219     1.0  0.65078  0.04712  0.98991  1.0000
  H   H1220     1.0  0.83542  0.45782  0.88707  1.0000
  C   C1533     1.0  0.69307  0.22935  0.93231  1.0000
  C   C1534     1.0  0.67160  0.20895  0.92145  1.0000
  C   C1535     1.0  0.66178  0.21787  0.90632  1.0000
  C   C1536     1.0  0.67296  0.24721  0.90213  1.0000
  C   C1537     1.0  0.69405  0.26770  0.91323  1.0000
  C   C1538     1.0  0.70427  0.25874  0.92817  1.0000
  H   H1221     1.0  0.66320  0.18626  0.92439  1.0000
  H   H1222     1.0  0.64570  0.20198  0.89765  1.0000
  H   H1223     1.0  0.70282  0.29036  0.91010  1.0000
  H   H1224     1.0  0.72104  0.27463  0.93645  1.0000
  H   H1225     1.0  0.70981  0.41717  0.79410  1.0000
  H   H1226     1.0  0.79841  0.49219  0.90545  1.0000
  C   C1539     1.0  0.74987  0.41508  0.79504  1.0000
  C   C1540     1.0  0.67190  0.02578  0.94071  1.0000
  C   C1541     1.0  0.73189  0.42907  0.76890  1.0000
  H   H1227     1.0  0.74686  0.40748  0.80871  1.0000
  C   C1542     1.0  0.57730  0.19430  0.95433  1.0000
  C   C1543     1.0  0.81319  0.47574  0.92746  1.0000
  C   C1544     1.0  0.79622  0.47301  0.91222  1.0000
  C   C1545     1.0  0.77729  0.44556  0.90527  1.0000
  C   C1546     1.0  0.77551  0.42070  0.91343  1.0000
  C   C1547     1.0  0.79149  0.42349  0.92907  1.0000
  C   C1548     1.0  0.81008  0.45079  0.93608  1.0000
  H   H1228     1.0  0.92200  0.32509  0.01021  1.0000
  H   H1229     1.0  0.76517  0.44372  0.89316  1.0000
  H   H1230     1.0  0.79023  0.40442  0.93546  1.0000
  H   H1231     1.0  0.82297  0.45254  0.94771  1.0000
  H   H1232     1.0  0.56212  0.32324  0.87219  1.0000
  C   C1549     1.0  0.71149  0.43612  0.96119  1.0000
  C   C1550     1.0  0.79880  0.39663  0.70120  1.0000
  C   C1551     1.0  0.80169  0.42361  0.69620  1.0000
  H   H1233     1.0  0.66884  0.38868  0.00931  1.0000
  C   C1552     1.0  0.73814  0.40482  0.98612  1.0000
  C   C1553     1.0  0.54335  0.25639  0.99761  1.0000
  H   H1234     1.0  0.73900  0.36490  0.99232  1.0000
  C   C1554     1.0  0.54743  0.30871  0.93130  1.0000
  C   C1555     1.0  0.55496  0.29604  0.91706  1.0000
  C   C1556     1.0  0.57970  0.31234  0.90693  1.0000
  C   C1557     1.0  0.59641  0.34170  0.91059  1.0000
  C   C1558     1.0  0.58905  0.35417  0.92501  1.0000
  C   C1559     1.0  0.56480  0.33776  0.93540  1.0000
  H   H1235     1.0  0.54144  0.27366  0.91371  1.0000
  H   H1236     1.0  0.58500  0.30259  0.89573  1.0000
  H   H1237     1.0  0.60173  0.37681  0.92788  1.0000
  H   H1238     1.0  0.55915  0.34782  0.94627  1.0000
  C   C1560     1.0  0.72117  0.42590  0.94667  1.0000
  C   C1561     1.0  0.54209  0.15605  0.93593  1.0000
  C   C1562     1.0  0.54777  0.21300  0.99137  1.0000
  H   H1239     1.0  0.57172  0.03794  0.97612  1.0000
  H   H1240     1.0  0.79164  0.45811  0.70243  1.0000
  C   C1563     1.0  0.79047  0.43792  0.70697  1.0000
  C   C1564     1.0  0.63524  0.02828  0.98284  1.0000
  C   C1565     1.0  0.77318  0.40091  0.00575  1.0000
  C   C1566     1.0  0.65899  0.02028  0.92383  1.0000
  C   C1567     1.0  0.72120  0.44670  0.71141  1.0000
  H   H1241     1.0  0.79036  0.41428  0.79202  1.0000
  C   C1568     1.0  0.61356  0.08940  0.68581  1.0000
  C   C1569     1.0  0.80818  0.18719  0.96056  1.0000
  H   H1242     1.0  0.69183  0.44844  0.69162  1.0000
  H   H1243     1.0  0.75984  0.16160  0.99423  1.0000
  H   H1244     1.0  0.52156  0.47856  0.69767  1.0000
  H   H1245     1.0  0.55609  0.19813  0.99514  1.0000
  C   C1570     1.0  0.84867  0.45432  0.89699  1.0000
  C   C1571     1.0  0.66312  0.41258  0.94883  1.0000
  C   C1572     1.0  0.67305  0.40295  0.93431  1.0000
  C   C1573     1.0  0.70207  0.40977  0.93314  1.0000
  C   C1574     1.0  0.68226  0.42923  0.96223  1.0000
  H   H1246     1.0  0.61873  0.09006  0.71439  1.0000
  C   C1575     1.0  0.96996  0.49139  0.00739  1.0000
  C   C1576     1.0  0.69462  0.43649  0.70263  1.0000
  S   S218      1.0  0.59187  0.14956  0.99679  1.0000
  H   H1247     1.0  0.64054  0.40709  0.94969  1.0000
  H   H1248     1.0  0.65829  0.39016  0.92394  1.0000
  H   H1249     1.0  0.67407  0.43645  0.97335  1.0000
  H   H1250     1.0  0.90366  0.35091  0.99026  1.0000
  H   H1251     1.0  0.63176  0.08525  0.68341  1.0000
  C   C1577     1.0  0.63223  0.27946  0.00532  1.0000
  C   C1578     1.0  0.60514  0.42659  0.91208  1.0000
  C   C1579     1.0  0.60380  0.43345  0.92998  1.0000
  C   C1580     1.0  0.57714  0.42482  0.93805  1.0000
  C   C1581     1.0  0.55179  0.40925  0.92827  1.0000
  C   C1582     1.0  0.55291  0.40179  0.91038  1.0000
  C   C1583     1.0  0.57983  0.41101  0.90227  1.0000
  H   H1252     1.0  0.78184  0.14461  0.97084  1.0000
  C   C1584     1.0  0.52085  0.34666  0.84890  1.0000
  C   C1585     1.0  0.70171  0.50041  0.00637  1.0000
  C   C1586     1.0  0.57313  0.02380  0.00293  1.0000
  H   H1253     1.0  0.81780  0.17976  0.95033  1.0000
  C   C1587     1.0  0.72497  0.43068  0.72530  1.0000
  C   C1588     1.0  0.54854  0.33349  0.86954  1.0000
  S   S219      1.0  0.51591  0.28819  0.94353  1.0000
  H   H1254     1.0  0.54290  0.32188  0.84170  1.0000
  C   C1589     1.0  0.78330  0.20630  0.98696  1.0000
  H   H1255     1.0  0.71524  0.43297  0.76273  1.0000
  H   H1256     1.0  0.62577  0.43273  0.90586  1.0000
  H   H1257     1.0  0.62340  0.44523  0.93764  1.0000
  H   H1258     1.0  0.57610  0.43002  0.95194  1.0000
  H   H1259     1.0  0.71472  0.24796  0.99275  1.0000
  H   H1260     1.0  0.58145  0.40599  0.88842  1.0000
  H   H1261     1.0  0.85888  0.44946  0.00873  1.0000
  C   C1590     1.0  0.87728  0.39552  0.00208  1.0000
  C   C1591     1.0  0.85792  0.26895  0.99834  1.0000
  C   C1592     1.0  0.89107  0.32793  0.99220  1.0000
  H   H1262     1.0  0.70972  0.40242  0.92173  1.0000
  C   C1593     1.0  0.56414  0.15584  0.92561  1.0000
  C   C1594     1.0  0.88783  0.47338  0.91838  1.0000
  H   H1263     1.0  0.80653  0.38509  0.69249  1.0000
  C   C1595     1.0  0.80723  0.36553  0.97827  1.0000
  C   C1596     1.0  0.80558  0.34328  0.96717  1.0000
  C   C1597     1.0  0.81782  0.34951  0.95023  1.0000
  C   C1598     1.0  0.83237  0.37807  0.94433  1.0000
  C   C1599     1.0  0.83424  0.40034  0.95564  1.0000
  P   P52       1.0  0.84970  0.38556  0.92283  1.0000
  C   C1600     1.0  0.88296  0.38299  0.92435  1.0000
  C   C1601     1.0  0.82578  0.36027  0.90646  1.0000
  C   C1602     1.0  0.83668  0.35327  0.89113  1.0000
  C   C1603     1.0  0.81792  0.33522  0.87797  1.0000
  C   C1604     1.0  0.78821  0.32400  0.88003  1.0000
  C   C1605     1.0  0.77724  0.33087  0.89522  1.0000
  C   C1606     1.0  0.79591  0.34903  0.90832  1.0000
  C   C1607     1.0  0.88808  0.36815  0.93845  1.0000
  C   C1608     1.0  0.91405  0.36663  0.93957  1.0000
  C   C1609     1.0  0.93517  0.38001  0.92668  1.0000
  C   C1610     1.0  0.93034  0.39495  0.91267  1.0000
  C   C1611     1.0  0.90439  0.39651  0.91152  1.0000
  C   C1612     1.0  0.85819  0.42161  0.91571  1.0000
  C   C1613     1.0  0.63275  0.37980  0.99209  1.0000
  C   C1614     1.0  0.88131  0.44539  0.92367  1.0000
  H   H1264     1.0  0.79809  0.36080  0.99150  1.0000
  H   H1265     1.0  0.79469  0.32121  0.97159  1.0000
  H   H1266     1.0  0.81631  0.33216  0.94173  1.0000
  H   H1267     1.0  0.85955  0.36215  0.88909  1.0000
  H   H1268     1.0  0.82638  0.33025  0.86601  1.0000
  H   H1269     1.0  0.77361  0.31045  0.86971  1.0000
  H   H1270     1.0  0.75422  0.32301  0.89655  1.0000
  H   H1271     1.0  0.78692  0.35518  0.91952  1.0000
  H   H1272     1.0  0.87238  0.35811  0.94878  1.0000
  H   H1273     1.0  0.91796  0.35543  0.95059  1.0000
  H   H1274     1.0  0.95541  0.37908  0.92766  1.0000
  H   H1275     1.0  0.94684  0.40563  0.90279  1.0000
  H   H1276     1.0  0.90112  0.40848  0.90070  1.0000
  H   H1277     1.0  0.71651  0.50041  0.97977  1.0000
  H   H1278     1.0  0.89388  0.44236  0.93426  1.0000
  C   C1615     1.0  0.78481  0.38400  0.71703  1.0000
  C   C1616     1.0  0.54235  0.34792  0.88328  1.0000
  C   C1617     1.0  0.56690  0.10030  0.69257  1.0000
  C   C1618     1.0  0.59272  0.17477  0.92964  1.0000
  C   C1619     1.0  0.75719  0.25383  0.98690  1.0000
  C   C1620     1.0  0.78682  0.27035  0.98989  1.0000
  H   H1279     1.0  0.58290  0.20924  0.96539  1.0000
  P   P53       1.0  0.81238  0.26413  0.97661  1.0000
  C   C1621     1.0  0.84755  0.28326  0.98678  1.0000
  C   C1622     1.0  0.80311  0.22628  0.97521  1.0000
  H   H1280     1.0  0.57274  0.50781  0.99273  1.0000
  C   C1623     1.0  0.67183  0.41019  0.70754  1.0000
  C   C1624     1.0  0.81576  0.21653  0.96211  1.0000
  C   C1625     1.0  0.86409  0.31302  0.98403  1.0000
  C   C1626     1.0  0.77396  0.39845  0.72794  1.0000
  C   C1627     1.0  0.81278  0.27573  0.95377  1.0000
  C   C1628     1.0  0.78697  0.27028  0.94497  1.0000
  C   C1629     1.0  0.78678  0.27633  0.92682  1.0000
  C   C1630     1.0  0.81237  0.28794  0.91725  1.0000
  C   C1631     1.0  0.83824  0.29374  0.92584  1.0000
  C   C1632     1.0  0.83845  0.28738  0.94397  1.0000
  C   C1633     1.0  0.79625  0.29280  0.00259  1.0000
  C   C1634     1.0  0.51490  0.36141  0.86259  1.0000
  H   H1281     1.0  0.74928  0.23570  0.97775  1.0000
  C   C1635     1.0  0.73746  0.26055  0.99562  1.0000
  H   H1282     1.0  0.62161  0.20858  0.94692  1.0000
  C   C1636     1.0  0.75585  0.43188  0.75912  1.0000
  H   H1283     1.0  0.83137  0.23151  0.95300  1.0000
  H   H1284     1.0  0.85588  0.32479  0.97588  1.0000
  H   H1285     1.0  0.77363  0.21323  0.99731  1.0000
  H   H1286     1.0  0.76672  0.26064  0.95181  1.0000
  H   H1287     1.0  0.76660  0.27148  0.92012  1.0000
  H   H1288     1.0  0.81201  0.29207  0.90313  1.0000
  H   H1289     1.0  0.85805  0.30258  0.91834  1.0000
  H   H1290     1.0  0.85853  0.29075  0.95010  1.0000
  C   C1637     1.0  0.57558  0.25625  0.94007  1.0000
  C   C1638     1.0  0.58735  0.25371  0.92389  1.0000
  C   C1639     1.0  0.61710  0.26675  0.92185  1.0000
  C   C1640     1.0  0.63519  0.28236  0.93594  1.0000
  C   C1641     1.0  0.62349  0.28523  0.95222  1.0000
  C   C1642     1.0  0.59354  0.27161  0.95426  1.0000
  P   P54       1.0  0.64631  0.30358  0.97105  1.0000
  C   C1643     1.0  0.63877  0.27598  0.98760  1.0000
  C   C1644     1.0  0.68344  0.31906  0.96436  1.0000
  C   C1645     1.0  0.70139  0.30686  0.96951  1.0000
  C   C1646     1.0  0.72974  0.31874  0.96354  1.0000
  C   C1647     1.0  0.74041  0.34293  0.95252  1.0000
  C   C1648     1.0  0.72275  0.35520  0.94743  1.0000
  C   C1649     1.0  0.69435  0.34331  0.95327  1.0000
  H   H1291     1.0  0.84503  0.24636  0.00147  1.0000
  C   C1650     1.0  0.76623  0.49830  0.73912  1.0000
  C   C1651     1.0  0.63110  0.22756  0.99460  1.0000
  C   C1652     1.0  0.63820  0.24988  0.98238  1.0000
  C   C1653     1.0  0.64042  0.33314  0.97923  1.0000
  C   C1654     1.0  0.61882  0.33906  0.97198  1.0000
  C   C1655     1.0  0.61492  0.36216  0.97853  1.0000
  H   H1292     1.0  0.62971  0.39777  0.99702  1.0000
  H   H1293     1.0  0.54892  0.10467  0.69522  1.0000
  C   C1656     1.0  0.65865  0.35139  0.99262  1.0000
  H   H1294     1.0  0.55251  0.24695  0.94146  1.0000
  H   H1295     1.0  0.57349  0.24209  0.91279  1.0000
  H   H1296     1.0  0.62618  0.26498  0.90924  1.0000
  H   H1297     1.0  0.65816  0.29190  0.93395  1.0000
  H   H1298     1.0  0.58404  0.27317  0.96675  1.0000
  H   H1299     1.0  0.69365  0.28794  0.97780  1.0000
  H   H1300     1.0  0.74315  0.30870  0.96710  1.0000
  H   H1301     1.0  0.76220  0.35203  0.94763  1.0000
  H   H1302     1.0  0.73094  0.37358  0.93860  1.0000
  H   H1303     1.0  0.68068  0.35262  0.94879  1.0000
  C   C1657     1.0  0.58293  0.09757  0.70677  1.0000
  H   H1304     1.0  0.63044  0.20741  0.99033  1.0000
  H   H1305     1.0  0.64318  0.24673  0.96878  1.0000
  H   H1306     1.0  0.60515  0.32635  0.96112  1.0000
  H   H1307     1.0  0.59821  0.36667  0.97294  1.0000
  H   H1308     1.0  0.54795  0.27495  0.00598  1.0000
  C   C1658     1.0  0.59933  0.19402  0.94394  1.0000
  C   C1659     1.0  0.52583  0.36233  0.87990  1.0000
  C   C1660     1.0  0.81009  0.49423  0.73462  1.0000
  S   S220      1.0  0.53849  0.32688  0.98899  1.0000
  H   H1309     1.0  0.65146  0.40196  0.70044  1.0000
  P   P55       1.0  0.75955  0.44240  0.73594  1.0000
  C   C1661     1.0  0.78798  0.16738  0.97211  1.0000
  H   H1310     1.0  0.59004  0.04467  0.00682  1.0000
  H   H1311     1.0  0.53140  0.40303  0.93474  1.0000
  C   C1662     1.0  0.82108  0.39398  0.97234  1.0000
  H   H1312     1.0  0.89054  0.38983  0.99359  1.0000
  P   P56       1.0  0.73644  0.45667  0.97865  1.0000
  C   C1663     1.0  0.52743  0.43851  0.98124  1.0000
  C   C1664     1.0  0.77707  0.42570  0.72315  1.0000
  C   C1665     1.0  0.84200  0.42628  0.90224  1.0000
  C   C1666     1.0  0.77561  0.17696  0.98532  1.0000
  H   H1313     1.0  0.53298  0.12574  0.96842  1.0000
  C   C1667     1.0  0.75153  0.43491  0.98857  1.0000
  H   H1314     1.0  0.55916  0.14091  0.91452  1.0000
  H   H1315     1.0  0.90520  0.49171  0.92484  1.0000
  H   H1316     1.0  0.74360  0.43068  0.94573  1.0000
  H   H1317     1.0  0.65844  0.37284  0.72431  1.0000
  P   P57       1.0  0.52014  0.38296  0.89751  1.0000
  C   C1668     1.0  0.87670  0.42180  0.99963  1.0000
  H   H1318     1.0  0.70549  0.39041  0.73949  1.0000
  H   H1319     1.0  0.75396  0.48105  0.94209  1.0000
  H   H1320     1.0  0.84589  0.42266  0.95177  1.0000
  C   C1669     1.0  0.74911  0.38796  0.99455  1.0000
  H   H1321     1.0  0.55094  0.34832  0.89649  1.0000
  H   H1322     1.0  0.71920  0.39428  0.97776  1.0000
  C   C1670     1.0  0.53781  0.33286  0.85235  1.0000
  H   H1323     1.0  0.78143  0.36254  0.72059  1.0000
  H   H1324     1.0  0.73890  0.46661  0.70703  1.0000
  S   S221      1.0  0.64470  0.11381  0.99831  1.0000
  C   C1671     1.0  0.51864  0.48542  0.68451  1.0000
  H   H1325     1.0  0.82361  0.40853  0.89612  1.0000
  H   H1326     1.0  0.82242  0.41138  0.98084  1.0000
  C   C1672     1.0  0.78006  0.48109  0.73621  1.0000
  H   H1327     1.0  0.56274  0.47282  0.96789  1.0000
  H   H1328     1.0  0.81882  0.30561  0.00568  1.0000
  H   H1329     1.0  0.60977  0.17441  0.92170  1.0000
  P   P58       1.0  0.51947  0.17473  0.96361  1.0000
  C   C1673     1.0  0.54965  0.46654  0.97977  1.0000
  C   C1674     1.0  0.88482  0.28398  0.00657  1.0000
  C   C1675     1.0  0.90148  0.31338  0.00342  1.0000
  H   H1330     1.0  0.76233  0.38784  0.73982  1.0000
  H   H1331     1.0  0.79637  0.43010  0.76059  1.0000
  C   C1676     1.0  0.70227  0.40389  0.72972  1.0000
  H   H1332     1.0  0.53834  0.48005  0.87714  1.0000
  C   C1677     1.0  0.65477  0.37458  0.99903  1.0000
  C   C1678     1.0  0.60620  0.09204  0.70338  1.0000
  C   C1679     1.0  0.52996  0.20754  0.97627  1.0000
  C   C1680     1.0  0.77422  0.41871  0.78558  1.0000
  C   C1681     1.0  0.72888  0.42052  0.78676  1.0000
  H   H1333     1.0  0.57742  0.09988  0.72040  1.0000
  C   C1682     1.0  0.54847  0.17533  0.95035  1.0000
  C   C1683     1.0  0.67570  0.39382  0.72102  1.0000
  Fe  Fe108     1.0  0.53612  0.36842  0.98623  1.0000
  C   C1684     1.0  0.77739  0.42740  0.76773  1.0000
  C   C1685     1.0  0.87141  0.47786  0.90514  1.0000
  H   H1334     1.0  0.62066  0.45893  0.00621  1.0000
  H   H1335     1.0  0.66066  0.03810  0.91566  1.0000
  C   C1686     1.0  0.76392  0.49065  0.97031  1.0000
  H   H1336     1.0  0.74319  0.48848  0.74100  1.0000
  H   H1337     1.0  0.95172  0.47445  0.00058  1.0000
  H   H1338     1.0  0.81177  0.43290  0.68363  1.0000
  C   C1687     1.0  0.52248  0.45775  0.87863  1.0000
  H   H1339     1.0  0.68326  0.04776  0.94563  1.0000
  C   C1688     1.0  0.71223  0.48986  0.99263  1.0000
  C   C1689     1.0  0.53054  0.43778  0.88588  1.0000
  C   C1690     1.0  0.78640  0.43071  0.00838  1.0000
  H   H1340     1.0  0.51918  0.08850  0.99138  1.0000
  H   H1341     1.0  0.51797  0.19917  0.92889  1.0000
  H   H1342     1.0  0.52431  0.03556  0.00256  1.0000
  H   H1343     1.0  0.87574  0.49960  0.90161  1.0000
  C   C1691     1.0  0.77568  0.44759  0.99981  1.0000
  S   S222      1.0  0.83928  0.51035  0.93477  1.0000
  C   C1692     1.0  0.76684  0.49680  0.95196  1.0000
  H   H1344     1.0  0.52343  0.42309  0.97055  1.0000
  H   H1345     1.0  0.52005  0.14098  0.93273  1.0000
  C   C1693     1.0  0.51878  0.22671  0.97205  1.0000
  C   C1694     1.0  0.51834  0.12510  0.97874  1.0000
  C   C1695     1.0  0.74709  0.28346  0.00776  1.0000
  H   H1346     1.0  0.63186  0.29906  0.00965  1.0000
  H   H1347     1.0  0.78633  0.47055  0.00210  1.0000
  H   H1348     1.0  0.51651  0.26543  0.97939  1.0000
  C   C1696     1.0  0.85926  0.42909  0.01044  1.0000
  H   H1349     1.0  0.51262  0.34622  0.83554  1.0000
  C   C1697     1.0  0.51675  0.44942  0.01094  1.0000
  C   C1698     1.0  0.64232  0.64985  0.16415  1.0000
  H   H1350     1.0  0.51514  0.92409  0.04969  1.0000
  H   H1351     1.0  0.83940  0.55690  0.07202  1.0000
  C   C1699     1.0  0.67110  0.52924  0.14236  1.0000
  S   S223      1.0  0.74166  0.54957  0.04991  1.0000
  H   H1352     1.0  0.60193  0.62933  0.12617  1.0000
  S   S224      1.0  0.61897  0.53617  0.09704  1.0000
  H   H1353     1.0  0.00332  0.54367  0.06107  1.0000
  C   C1700     1.0  0.56434  0.91070  0.12204  1.0000
  C   C1701     1.0  0.54691  0.76390  0.02590  1.0000
  Fe  Fe109     1.0  0.56165  0.65506  0.08889  1.0000
  S   S225      1.0  0.70088  0.54189  0.09593  1.0000
  S   S226      1.0  0.60166  0.64824  0.08559  1.0000
  C   C1702     1.0  0.71195  0.64584  0.07514  1.0000
  H   H1354     1.0  0.62740  0.52067  0.13702  1.0000
  S   S227      1.0  0.56610  0.70012  0.09182  1.0000
  H   H1355     1.0  0.79175  0.57461  0.02753  1.0000
  H   H1356     1.0  0.63338  0.00903  0.03602  1.0000
  C   C1703     1.0  0.53693  0.74623  0.04100  1.0000
  H   H1357     1.0  0.59013  0.91893  0.02856  1.0000
  H   H1358     1.0  0.53629  0.95745  0.12742  1.0000
  H   H1359     1.0  0.71595  0.65047  0.06105  1.0000
  C   C1704     1.0  0.54035  0.78698  0.02324  1.0000
  C   C1705     1.0  0.61346  0.56651  0.09203  1.0000
  C   C1706     1.0  0.58887  0.56741  0.09880  1.0000
  C   C1707     1.0  0.58427  0.59174  0.09625  1.0000
  C   C1708     1.0  0.60429  0.61554  0.08691  1.0000
  C   C1709     1.0  0.62841  0.61425  0.07962  1.0000
  C   C1710     1.0  0.63300  0.58985  0.08213  1.0000
  H   H1360     1.0  0.57362  0.54948  0.10649  1.0000
  H   H1361     1.0  0.56595  0.59262  0.10221  1.0000
  H   H1362     1.0  0.64393  0.63249  0.07230  1.0000
  H   H1363     1.0  0.65192  0.58938  0.07677  1.0000
  C   C1711     1.0  0.71625  0.62371  0.08282  1.0000
  C   C1712     1.0  0.69672  0.65558  0.10374  1.0000
  C   C1713     1.0  0.64131  0.62639  0.13044  1.0000
  H   H1364     1.0  0.71433  0.60037  0.10664  1.0000
  S   S228      1.0  0.51401  0.82065  0.03266  1.0000
  C   C1714     1.0  0.52324  0.79221  0.03553  1.0000
  C   C1715     1.0  0.56780  0.54333  0.04659  1.0000
  H   H1365     1.0  0.68190  0.64804  0.16847  1.0000
  C   C1716     1.0  0.59286  0.65512  0.03782  1.0000
  C   C1717     1.0  0.71074  0.61746  0.10095  1.0000
  Fe  Fe110     1.0  0.52578  0.67949  0.10835  1.0000
  C   C1718     1.0  0.59102  0.53699  0.04764  1.0000
  C   C1719     1.0  0.60949  0.56202  0.01990  1.0000
  H   H1366     1.0  0.75998  0.53410  0.09924  1.0000
  H   H1367     1.0  0.54993  0.82805  0.08050  1.0000
  C   C1720     1.0  0.54075  0.88767  0.11412  1.0000
  H   H1368     1.0  0.60266  0.64988  0.15607  1.0000
  C   C1721     1.0  0.55347  0.60851  0.02969  1.0000
  C   C1722     1.0  0.58652  0.56876  0.01890  1.0000
  C   C1723     1.0  0.68464  0.58765  0.13860  1.0000
  C   C1724     1.0  0.75386  0.65675  0.17514  1.0000
  H   H1369     1.0  0.54227  0.86839  0.11016  1.0000
  C   C1725     1.0  0.70644  0.57947  0.14175  1.0000
  H   H1370     1.0  0.58304  0.90460  0.06041  1.0000
  C   C1726     1.0  0.57465  0.96560  0.06308  1.0000
  C   C1727     1.0  0.58184  0.92391  0.05621  1.0000
  C   C1728     1.0  0.57785  0.97330  0.04498  1.0000
  S   S229      1.0  0.52404  0.63560  0.10767  1.0000
  C   C1729     1.0  0.94974  0.52709  0.13271  1.0000
  C   C1730     1.0  0.53980  0.62280  0.02092  1.0000
  C   C1731     1.0  0.72930  0.63940  0.16513  1.0000
  C   C1732     1.0  0.51233  0.80066  0.09558  1.0000
  C   C1733     1.0  0.80902  0.54409  0.02599  1.0000
  C   C1734     1.0  0.64939  0.53712  0.13881  1.0000
  P   P59       1.0  0.69371  0.62510  0.13498  1.0000
  H   H1371     1.0  0.72878  0.59540  0.14229  1.0000
  C   C1735     1.0  0.61976  0.64471  0.15228  1.0000
  C   C1736     1.0  0.80012  0.54869  0.08536  1.0000
  C   C1737     1.0  0.72552  0.64763  0.14786  1.0000
  C   C1738     1.0  0.57909  0.66909  0.02911  1.0000
  P   P60       1.0  0.57561  0.00520  0.03768  1.0000
  C   C1739     1.0  0.78896  0.55357  0.03152  1.0000
  C   C1740     1.0  0.66440  0.63202  0.14210  1.0000
  H   H1372     1.0  0.80269  0.57031  0.08343  1.0000
  C   C1741     1.0  0.53694  0.93760  0.12400  1.0000
  C   C1742     1.0  0.53973  0.80885  0.08860  1.0000
  C   C1743     1.0  0.69960  0.55041  0.14380  1.0000
  Fe  Fe111     1.0  0.53596  0.68950  0.06836  1.0000
  C   C1744     1.0  0.77111  0.69091  0.15090  1.0000
  H   H1373     1.0  0.59072  0.61477  0.04564  1.0000
  H   H1374     1.0  0.54829  0.80050  0.01160  1.0000
  C   C1745     1.0  0.58573  0.93187  0.03826  1.0000
  C   C1746     1.0  0.52578  0.57492  0.06697  1.0000
  C   C1747     1.0  0.65610  0.56619  0.13687  1.0000
  H   H1375     1.0  0.51288  0.97497  0.03977  1.0000
  C   C1748     1.0  0.66460  0.64359  0.15910  1.0000
  H   H1376     1.0  0.62982  0.54138  0.03531  1.0000
  H   H1377     1.0  0.64264  0.65892  0.17722  1.0000
  H   H1378     1.0  0.71320  0.61958  0.17088  1.0000
  H   H1379     1.0  0.69870  0.67883  0.07964  1.0000
  H   H1380     1.0  0.01196  0.63446  0.03394  1.0000
  H   H1381     1.0  0.72365  0.61119  0.07470  1.0000
  C   C1749     1.0  0.57655  0.94091  0.06865  1.0000
  C   C1750     1.0  0.74657  0.67360  0.14084  1.0000
  C   C1751     1.0  0.70064  0.63312  0.11152  1.0000
  H   H1382     1.0  0.63901  0.57164  0.13357  1.0000
  C   C1752     1.0  0.58381  0.95648  0.03268  1.0000
  H   H1383     1.0  0.61279  0.66759  0.04505  1.0000
  H   H1384     1.0  0.57063  0.97858  0.07289  1.0000
  H   H1385     1.0  0.78731  0.71089  0.14539  1.0000
  H   H1386     1.0  0.55021  0.75258  0.10327  1.0000
  H   H1387     1.0  0.74417  0.68059  0.12763  1.0000
  C   C1753     1.0  0.61927  0.63300  0.13545  1.0000
  H   H1388     1.0  0.64049  0.61721  0.11737  1.0000
  C   C1754     1.0  0.82074  0.54109  0.07893  1.0000
  S   S230      1.0  0.54464  0.71671  0.04329  1.0000
  P   P61       1.0  0.53667  0.56954  0.03110  1.0000
  H   H1389     1.0  0.79382  0.69592  0.17579  1.0000
  H   H1390     1.0  0.68917  0.66817  0.11161  1.0000
  Fe  Fe112     1.0  0.65339  0.52262  0.08953  1.0000
  C   C1755     1.0  0.58013  0.62502  0.03816  1.0000
  C   C1756     1.0  0.56527  0.55916  0.03212  1.0000
  H   H1391     1.0  0.75668  0.65022  0.18844  1.0000
  C   C1757     1.0  0.70232  0.66185  0.08562  1.0000
  H   H1392     1.0  0.54578  0.59465  0.06715  1.0000
  C   C1758     1.0  0.77478  0.68249  0.16803  1.0000
  H   H1393     1.0  0.58412  0.90923  0.12433  1.0000
  C   C1759     1.0  0.76574  0.53633  0.04251  1.0000
  C   C1760     1.0  0.52023  0.75179  0.05343  1.0000
  H   H1394     1.0  0.55241  0.53641  0.05733  1.0000
  S   S231      1.0  0.51765  0.70036  0.13273  1.0000
  C   C1761     1.0  0.61174  0.54615  0.03429  1.0000
  S   S232      1.0  0.53397  0.64594  0.06450  1.0000
  C   C1762     1.0  0.80586  0.51710  0.03130  1.0000
  H   H1395     1.0  0.71646  0.54413  0.14609  1.0000
  H   H1396     1.0  0.82730  0.55795  0.01805  1.0000
  C   C1763     1.0  0.55340  0.79155  0.09133  1.0000
  C   C1764     1.0  0.53980  0.76618  0.10116  1.0000
  C   C1765     1.0  0.77592  0.52823  0.09407  1.0000
  C   C1766     1.0  0.56249  0.93570  0.12686  1.0000
  Fe  Fe113     1.0  0.70519  0.52437  0.06913  1.0000
  H   H1397     1.0  0.57426  0.79745  0.08553  1.0000
  H   H1398     1.0  0.58093  0.95370  0.13279  1.0000
  H   H1399     1.0  0.58831  0.69240  0.02957  1.0000
  H   H1400     1.0  0.57386  0.93487  0.08259  1.0000
  H   H1401     1.0  0.52098  0.92885  0.08234  1.0000
  H   H1402     1.0  0.54138  0.66392  0.01476  1.0000
  C   C1767     1.0  0.56223  0.00064  0.01494  1.0000
  H   H1403     1.0  0.59341  0.52558  0.05908  1.0000
  C   C1768     1.0  0.51599  0.55827  0.05135  1.0000
  H   H1404     1.0  0.55978  0.75971  0.01619  1.0000
  H   H1405     1.0  0.51284  0.73867  0.06525  1.0000
  C   C1769     1.0  0.55258  0.65294  0.02070  1.0000
  H   H1406     1.0  0.58709  0.96242  0.01876  1.0000
  H   H1407     1.0  0.53216  0.95534  0.01783  1.0000
  C   C1770     1.0  0.51284  0.91420  0.11656  1.0000
  H   H1408     1.0  0.51895  0.61103  0.01474  1.0000
  C   C1771     1.0  0.51521  0.88950  0.11123  1.0000
  C   C1772     1.0  0.52080  0.99126  0.05012  1.0000
  H   H1409     1.0  0.94759  0.54300  0.14106  1.0000
  H   H1410     1.0  0.00691  0.58521  0.03549  1.0000
  C   C1773     1.0  0.97419  0.52287  0.13419  1.0000
  H   H1411     1.0  0.90888  0.51377  0.11951  1.0000
  H   H1412     1.0  0.00279  0.53937  0.09390  1.0000
  H   H1413     1.0  0.51669  0.57965  0.09442  1.0000
  C   C1774     1.0  0.81687  0.51285  0.08080  1.0000
  C   C1775     1.0  0.51300  0.77435  0.05051  1.0000
  H   H1414     1.0  0.99098  0.53548  0.14371  1.0000
  C   C1776     1.0  0.51291  0.55324  0.01217  1.0000
  C   C1777     1.0  0.51244  0.75794  0.10807  1.0000
  C   C1778     1.0  0.55032  0.00984  0.05203  1.0000
  H   H1415     1.0  0.97352  0.67489  0.61312  1.0000
  C   C1779     1.0  0.00166  0.52474  0.56127  1.0000
  H   H1416     1.0  0.90859  0.53330  0.51196  1.0000
  H   H1417     1.0  0.53673  0.77339  0.58931  1.0000
  S   S233      1.0  0.63906  0.55617  0.47102  1.0000
  H   H1418     1.0  0.56030  0.97295  0.62560  1.0000
  H   H1419     1.0  0.72405  0.99807  0.46459  1.0000
  S   S234      1.0  0.71133  0.54858  0.47507  1.0000
  C   C1780     1.0  0.57805  0.95829  0.48867  1.0000
  H   H1420     1.0  0.01005  0.54316  0.49749  1.0000
  Fe  Fe114     1.0  0.93135  0.55239  0.58569  1.0000
  C   C1781     1.0  0.92674  0.61279  0.61346  1.0000
  S   S235      1.0  0.97417  0.59122  0.59304  1.0000
  C   C1782     1.0  0.56961  0.00144  0.64835  1.0000
  C   C1783     1.0  0.55870  0.51619  0.42477  1.0000
  H   H1421     1.0  0.54680  0.72249  0.41828  1.0000
  S   S236      1.0  0.88710  0.55053  0.58506  1.0000
  Fe  Fe115     1.0  0.53735  0.63606  0.48783  1.0000
  C   C1784     1.0  0.92417  0.60695  0.55798  1.0000
  S   S237      1.0  0.56648  0.61874  0.50069  1.0000
  H   H1422     1.0  0.56083  0.98403  0.65790  1.0000
  H   H1423     1.0  0.84388  0.58234  0.61515  1.0000
  C   C1785     1.0  0.88319  0.61642  0.53887  1.0000
  H   H1424     1.0  0.94960  0.61991  0.61280  1.0000
  S   S238      1.0  0.55007  0.67851  0.47359  1.0000
  Fe  Fe116     1.0  0.54778  0.90059  0.57826  1.0000
  C   C1786     1.0  0.91735  0.62881  0.56351  1.0000
  S   S239      1.0  0.56369  0.94763  0.56988  1.0000
  Fe  Fe117     1.0  0.55054  0.84326  0.57445  1.0000
  S   S240      1.0  0.57398  0.81874  0.56419  1.0000
  P   P62       1.0  0.93243  0.64826  0.58404  1.0000
  C   C1787     1.0  0.51974  0.76739  0.52529  1.0000
  C   C1788     1.0  0.52954  0.74011  0.60880  1.0000
  S   S241      1.0  0.53389  0.86673  0.55646  1.0000
  S   S242      1.0  0.56769  0.87876  0.59542  1.0000
  C   C1789     1.0  0.53255  0.75004  0.52003  1.0000
  Fe  Fe118     1.0  0.66494  0.53403  0.48254  1.0000
  C   C1790     1.0  0.53227  0.78847  0.53874  1.0000
  C   C1791     1.0  0.55764  0.79226  0.54725  1.0000
  C   C1792     1.0  0.57037  0.77479  0.54210  1.0000
  C   C1793     1.0  0.55799  0.75388  0.52848  1.0000
  C   C1794     1.0  0.60645  0.97752  0.49326  1.0000
  H   H1425     1.0  0.87175  0.61958  0.59302  1.0000
  H   H1426     1.0  0.59008  0.77767  0.54854  1.0000
  H   H1427     1.0  0.56840  0.74114  0.52431  1.0000
  H   H1428     1.0  0.00463  0.54364  0.58727  1.0000
  H   H1429     1.0  0.52242  0.80194  0.54248  1.0000
  S   S243      1.0  0.85369  0.51809  0.53508  1.0000
  H   H1430     1.0  0.99317  0.58665  0.55688  1.0000
  C   C1795     1.0  0.88297  0.61244  0.60241  1.0000
  C   C1796     1.0  0.61931  0.57384  0.47964  1.0000
  C   C1797     1.0  0.61977  0.58085  0.49773  1.0000
  C   C1798     1.0  0.60341  0.59441  0.50386  1.0000
  C   C1799     1.0  0.58650  0.60141  0.49204  1.0000
  C   C1800     1.0  0.58594  0.59432  0.47396  1.0000
  C   C1801     1.0  0.60224  0.58067  0.46784  1.0000
  H   H1431     1.0  0.63279  0.57590  0.50701  1.0000
  H   H1432     1.0  0.60409  0.59974  0.51787  1.0000
  H   H1433     1.0  0.57316  0.59958  0.46468  1.0000
  H   H1434     1.0  0.60172  0.57546  0.45383  1.0000
  Fe  Fe119     1.0  0.87785  0.52142  0.56115  1.0000
  H   H1435     1.0  0.56637  0.75265  0.64826  1.0000
  C   C1802     1.0  0.79943  0.55439  0.54015  1.0000
  C   C1803     1.0  0.67302  0.98174  0.57208  1.0000
  H   H1436     1.0  0.77397  0.54253  0.47781  1.0000
  H   H1437     1.0  0.71247  0.96801  0.49183  1.0000
  C   C1804     1.0  0.63491  0.00376  0.59788  1.0000
  C   C1805     1.0  0.54082  0.58166  0.54558  1.0000
  H   H1438     1.0  0.56819  0.55810  0.41437  1.0000
  H   H1439     1.0  0.52992  0.71284  0.63053  1.0000
  H   H1440     1.0  0.56010  0.86490  0.48845  1.0000
  C   C1806     1.0  0.59388  0.97904  0.57791  1.0000
  C   C1807     1.0  0.61119  0.97819  0.59197  1.0000
  C   C1808     1.0  0.53392  0.81892  0.48824  1.0000
  H   H1441     1.0  0.60638  0.95785  0.59825  1.0000
  H   H1442     1.0  0.60546  0.51523  0.53236  1.0000
  H   H1443     1.0  0.86851  0.56369  0.63580  1.0000
  C   C1809     1.0  0.65948  0.99810  0.53905  1.0000
  P   P63       1.0  0.65130  0.00830  0.51749  1.0000
  C   C1810     1.0  0.64813  0.96881  0.54361  1.0000
  C   C1811     1.0  0.65471  0.96073  0.56011  1.0000
  H   H1444     1.0  0.54964  0.94249  0.53031  1.0000
  H   H1445     1.0  0.99568  0.55697  0.52752  1.0000
  H   H1446     1.0  0.63399  0.95215  0.53450  1.0000
  C   C1812     1.0  0.91079  0.59165  0.62591  1.0000
  H   H1447     1.0  0.91842  0.75016  0.58781  1.0000
  S   S244      1.0  0.75372  0.55367  0.52117  1.0000
  H   H1448     1.0  0.97835  0.51468  0.56112  1.0000
  C   C1813     1.0  0.82124  0.54626  0.54375  1.0000
  C   C1814     1.0  0.51341  0.79517  0.47883  1.0000
  H   H1449     1.0  0.91559  0.57290  0.53895  1.0000
  C   C1815     1.0  0.92555  0.52732  0.51464  1.0000
  C   C1816     1.0  0.67451  0.00507  0.50080  1.0000
  C   C1817     1.0  0.54448  0.84651  0.48102  1.0000
  C   C1818     1.0  0.71022  0.99999  0.47465  1.0000
  S   S245      1.0  0.67106  0.51980  0.51009  1.0000
  H   H1450     1.0  0.51609  0.97806  0.55635  1.0000
  H   H1451     1.0  0.59904  0.97692  0.53842  1.0000
  H   H1452     1.0  0.90877  0.67170  0.61179  1.0000
  C   C1819     1.0  0.89048  0.59504  0.53330  1.0000
  C   C1820     1.0  0.53392  0.73158  0.42428  1.0000
  Fe  Fe120     1.0  0.71636  0.53089  0.50163  1.0000
  H   H1453     1.0  0.94679  0.69608  0.55967  1.0000
  H   H1454     1.0  0.52888  0.75053  0.39988  1.0000
  C   C1821     1.0  0.86709  0.59138  0.61492  1.0000
  C   C1822     1.0  0.95306  0.54839  0.51942  1.0000
  C   C1823     1.0  0.55754  0.94562  0.50199  1.0000
  C   C1824     1.0  0.78438  0.54006  0.43319  1.0000
  H   H1455     1.0  0.79792  0.57083  0.54826  1.0000
  H   H1456     1.0  0.67770  0.97554  0.58501  1.0000
  C   C1825     1.0  0.52691  0.57706  0.56199  1.0000
  C   C1826     1.0  0.53507  0.85028  0.46418  1.0000
  H   H1457     1.0  0.88969  0.64887  0.55839  1.0000
  H   H1458     1.0  0.65343  0.52405  0.43359  1.0000
  H   H1459     1.0  0.57193  0.95300  0.47479  1.0000
  C   C1827     1.0  0.91297  0.62337  0.60159  1.0000
  C   C1828     1.0  0.80400  0.51269  0.51902  1.0000
  C   C1829     1.0  0.78039  0.55047  0.44960  1.0000
  H   H1460     1.0  0.78584  0.55202  0.42113  1.0000
  C   C1830     1.0  0.52506  0.52653  0.44977  1.0000
  C   C1831     1.0  0.00865  0.60345  0.58314  1.0000
  H   H1461     1.0  0.77882  0.57045  0.45026  1.0000
  H   H1462     1.0  0.97672  0.65206  0.55805  1.0000
  H   H1463     1.0  0.54348  0.87162  0.45850  1.0000
  C   C1832     1.0  0.91547  0.68622  0.60054  1.0000
  H   H1464     1.0  0.86657  0.61932  0.53178  1.0000
  H   H1465     1.0  0.87948  0.58139  0.52197  1.0000
  H   H1466     1.0  0.53886  0.56752  0.43683  1.0000
  C   C1833     1.0  0.55891  0.70117  0.56304  1.0000
  C   C1834     1.0  0.54314  0.69112  0.54720  1.0000
  C   C1835     1.0  0.68592  0.98555  0.50303  1.0000
  C   C1836     1.0  0.60043  0.00575  0.56996  1.0000
  C   C1837     1.0  0.91212  0.71132  0.60136  1.0000
  C   C1838     1.0  0.54664  0.70782  0.57775  1.0000
  C   C1839     1.0  0.88097  0.58088  0.62661  1.0000
  C   C1840     1.0  0.77748  0.53462  0.46512  1.0000
  H   H1467     1.0  0.60512  0.51263  0.44438  1.0000
  C   C1841     1.0  0.93692  0.70009  0.57131  1.0000
  H   H1468     1.0  0.64828  0.00286  0.60868  1.0000
  C   C1842     1.0  0.59352  0.97200  0.52448  1.0000
  H   H1469     1.0  0.94064  0.74030  0.56121  1.0000
  C   C1843     1.0  0.53874  0.73448  0.62533  1.0000
  C   C1844     1.0  0.82406  0.52583  0.53290  1.0000
  H   H1470     1.0  0.83646  0.55654  0.55450  1.0000
  C   C1845     1.0  0.92755  0.68027  0.58538  1.0000
  H   H1471     1.0  0.55399  0.53767  0.65393  1.0000
  H   H1472     1.0  0.92145  0.58284  0.63458  1.0000
  C   C1846     1.0  0.61446  0.98436  0.51126  1.0000
  C   C1847     1.0  0.54258  0.76838  0.60221  1.0000
  C   C1848     1.0  0.56363  0.79078  0.61222  1.0000
  C   C1849     1.0  0.57200  0.78517  0.62888  1.0000
  C   C1850     1.0  0.55969  0.75700  0.63539  1.0000
  H   H1473     1.0  0.86383  0.51472  0.49034  1.0000
  H   H1474     1.0  0.58083  0.70427  0.56378  1.0000
  H   H1475     1.0  0.55289  0.68668  0.53565  1.0000
  C   C1851     1.0  0.56533  0.95248  0.51989  1.0000
  C   C1852     1.0  0.92106  0.73073  0.58716  1.0000
  H   H1476     1.0  0.55920  0.71575  0.58989  1.0000
  H   H1477     1.0  0.53448  0.71440  0.45023  1.0000
  H   H1478     1.0  0.54579  0.56249  0.52138  1.0000
  C   C1853     1.0  0.91090  0.59028  0.54286  1.0000
  C   C1854     1.0  0.53998  0.54725  0.43692  1.0000
  S   S246      1.0  0.92325  0.52690  0.56040  1.0000
  C   C1855     1.0  0.77980  0.54169  0.52600  1.0000
  C   C1856     1.0  0.52677  0.72678  0.44230  1.0000
  H   H1479     1.0  0.93915  0.60224  0.56565  1.0000
  C   C1857     1.0  0.89646  0.63318  0.55396  1.0000
  H   H1480     1.0  0.54161  0.81589  0.50114  1.0000
  H   H1481     1.0  0.58813  0.80267  0.63668  1.0000
  H   H1482     1.0  0.57336  0.81252  0.60696  1.0000
  H   H1483     1.0  0.68119  0.97219  0.51477  1.0000
  Fe  Fe121     1.0  0.52362  0.85488  0.60764  1.0000
  C   C1858     1.0  0.70371  0.98308  0.49000  1.0000
  H   H1484     1.0  0.62199  0.98685  0.48274  1.0000
  C   C1859     1.0  0.55656  0.54195  0.42431  1.0000
  H   H1485     1.0  0.90264  0.71576  0.61303  1.0000
  C   C1860     1.0  0.98535  0.67353  0.60165  1.0000
  H   H1486     1.0  0.64527  0.93816  0.56372  1.0000
  H   H1487     1.0  0.95757  0.57079  0.52028  1.0000
  H   H1488     1.0  0.53564  0.93042  0.49848  1.0000
  C   C1861     1.0  0.97456  0.54044  0.52362  1.0000
  H   H1489     1.0  0.51240  0.53084  0.45959  1.0000
  H   H1490     1.0  0.55640  0.60317  0.54168  1.0000
  Fe  Fe122     1.0  0.51966  0.68519  0.49219  1.0000
  C   C1862     1.0  0.53464  0.55849  0.53401  1.0000
  C   C1863     1.0  0.56923  0.99514  0.63017  1.0000
  C   C1864     1.0  0.97089  0.66110  0.58562  1.0000
  C   C1865     1.0  0.51485  0.82649  0.45463  1.0000
  C   C1866     1.0  0.96880  0.51137  0.52280  1.0000
  H   H1491     1.0  0.58702  0.00677  0.55922  1.0000
  C   C1867     1.0  0.98693  0.66052  0.57077  1.0000
  C   C1868     1.0  0.51850  0.70450  0.57664  1.0000
  S   S247      1.0  0.51648  0.72507  0.50227  1.0000
  H   H1492     1.0  0.93204  0.51640  0.37586  1.0000
  H   H1493     1.0  0.53177  0.59505  0.57095  1.0000
  C   C1869     1.0  0.93354  0.72516  0.57217  1.0000
  C   C1870     1.0  0.78179  0.52026  0.51575  1.0000
  C   C1871     1.0  0.01197  0.59886  0.56508  1.0000
  H   H1494     1.0  0.55808  0.00234  0.51058  1.0000
  C   C1872     1.0  0.52371  0.74723  0.41392  1.0000
  H   H1495     1.0  0.92174  0.52177  0.40755  1.0000
  C   C1873     1.0  0.51403  0.53057  0.53857  1.0000
  C   C1874     1.0  0.51509  0.68772  0.54607  1.0000
  H   H1496     1.0  0.61478  0.51433  0.50006  1.0000
  C   C1875     1.0  0.53692  0.51869  0.65987  1.0000
  C   C1876     1.0  0.78531  0.51369  0.43223  1.0000
  C   C1877     1.0  0.58873  0.51202  0.52272  1.0000
  S   S248      1.0  0.91720  0.51409  0.60392  1.0000
  H   H1497     1.0  0.57182  0.51265  0.41491  1.0000
  C   C1878     1.0  0.59407  0.51157  0.50453  1.0000
  C   C1879     1.0  0.65295  0.87911  0.93901  1.0000
  Fe  Fe123     1.0  0.86393  0.51468  0.96071  1.0000
  Fe  Fe124     1.0  0.91872  0.54926  0.98319  1.0000
  C   C1880     1.0  0.54072  0.97376  0.00903  1.0000
  S   S249      1.0  0.96190  0.58932  0.98779  1.0000
  C   C1881     1.0  0.78213  0.52833  0.73972  1.0000
  C   C1882     1.0  0.51988  0.53874  0.99870  1.0000
  S   S250      1.0  0.87587  0.55042  0.98122  1.0000
  C   C1883     1.0  0.57090  0.94044  0.92051  1.0000
  Fe  Fe125     1.0  0.55871  0.90064  0.98535  1.0000
  H   H1498     1.0  0.65629  0.90256  0.91502  1.0000
  S   S251      1.0  0.60175  0.94106  0.98797  1.0000
  C   C1884     1.0  0.53036  0.97016  0.99149  1.0000
  C   C1885     1.0  0.80122  0.53938  0.97640  1.0000
  H   H1499     1.0  0.78969  0.52814  0.93178  1.0000
  H   H1500     1.0  0.53930  0.53639  0.99942  1.0000
  S   S252      1.0  0.55353  0.85508  0.98522  1.0000
  C   C1886     1.0  0.81196  0.54132  0.73769  1.0000
  H   H1501     1.0  0.58546  0.58178  0.00795  1.0000
  H   H1502     1.0  0.64611  0.85821  0.96459  1.0000
  H   H1503     1.0  0.51847  0.85863  0.91834  1.0000
  C   C1887     1.0  0.64099  0.87196  0.95602  1.0000
  C   C1888     1.0  0.60781  0.97565  0.98038  1.0000
  C   C1889     1.0  0.59549  0.97896  0.96450  1.0000
  C   C1890     1.0  0.64654  0.89711  0.92804  1.0000
  H   H1504     1.0  0.58045  0.96008  0.95727  1.0000
  C   C1891     1.0  0.99657  0.59463  0.98105  1.0000
  C   C1892     1.0  0.00330  0.54196  0.01097  1.0000
  H   H1505     1.0  0.60124  0.90842  0.95585  1.0000
  C   C1893     1.0  0.78684  0.52391  0.94597  1.0000
  H   H1506     1.0  0.98185  0.55833  0.96312  1.0000
  C   C1894     1.0  0.62249  0.88268  0.96202  1.0000
  H   H1507     1.0  0.84908  0.53430  0.73384  1.0000
  C   C1895     1.0  0.63150  0.93145  0.89772  1.0000
  H   H1508     1.0  0.82426  0.56458  0.73818  1.0000
  H   H1509     1.0  0.69807  0.51902  0.00421  1.0000
  C   C1896     1.0  0.64331  0.99190  0.91775  1.0000
  S   S253      1.0  0.52911  0.89194  0.00860  1.0000
  H   H1510     1.0  0.53590  0.65571  0.98141  1.0000
  C   C1897     1.0  0.66949  0.94781  0.87562  1.0000
  C   C1898     1.0  0.61184  0.91413  0.88460  1.0000
  H   H1511     1.0  0.81463  0.55584  0.98586  1.0000
  Fe  Fe126     1.0  0.51654  0.84509  0.96606  1.0000
  H   H1512     1.0  0.67605  0.96151  0.90302  1.0000
  C   C1899     1.0  0.62098  0.91378  0.86714  1.0000
  H   H1513     1.0  0.65679  0.93035  0.84909  1.0000
  H   H1514     1.0  0.53283  0.94653  0.91987  1.0000
  H   H1515     1.0  0.65063  0.95728  0.95458  1.0000
  C   C1900     1.0  0.61561  0.90024  0.95097  1.0000
  C   C1901     1.0  0.65307  0.97449  0.94565  1.0000
  H   H1516     1.0  0.61364  0.87760  0.97532  1.0000
  C   C1902     1.0  0.58192  0.92041  0.92053  1.0000
  C   C1903     1.0  0.64010  0.96873  0.92865  1.0000
  H   H1517     1.0  0.58945  0.90086  0.88772  1.0000
  H   H1518     1.0  0.60569  0.90041  0.85708  1.0000
  C   C1904     1.0  0.54130  0.99332  0.97968  1.0000
  C   C1905     1.0  0.52233  0.90154  0.91875  1.0000
  C   C1906     1.0  0.56274  0.89082  0.91995  1.0000
  C   C1907     1.0  0.80434  0.54503  0.95814  1.0000
  C   C1908     1.0  0.60393  0.00669  0.95743  1.0000
  C   C1909     1.0  0.54121  0.93099  0.91970  1.0000
  C   C1910     1.0  0.62761  0.00046  0.98955  1.0000
  C   C1911     1.0  0.53312  0.88149  0.91888  1.0000
  H   H1519     1.0  0.96850  0.52537  0.99181  1.0000
  S   S254      1.0  0.52462  0.89141  0.96438  1.0000
  C   C1912     1.0  0.66044  0.94819  0.89309  1.0000
  S   S255      1.0  0.90796  0.51686  0.96097  1.0000
  C   C1913     1.0  0.82593  0.52427  0.73521  1.0000
  H   H1520     1.0  0.63339  0.98802  0.90464  1.0000
  C   C1914     1.0  0.62775  0.90778  0.93395  1.0000
  C   C1915     1.0  0.00041  0.57628  0.96890  1.0000
  H   H1521     1.0  0.82057  0.56560  0.95338  1.0000
  C   C1916     1.0  0.78093  0.51248  0.98247  1.0000
  H   H1522     1.0  0.57059  0.87486  0.92014  1.0000
  H   H1523     1.0  0.66734  0.87082  0.93439  1.0000
  H   H1524     1.0  0.77132  0.54151  0.74187  1.0000
  H   H1525     1.0  0.52556  0.74439  0.91265  1.0000
  C   C1917     1.0  0.64977  0.93063  0.86264  1.0000
  P   P64       1.0  0.62023  0.93219  0.92040  1.0000
  H   H1526     1.0  0.69182  0.96085  0.87213  1.0000
  H   H1527     1.0  0.58502  0.96333  0.92125  1.0000
  H   H1528     1.0  0.63752  0.99814  0.00173  1.0000
  Fe  Fe127     1.0  0.52104  0.84582  0.00683  1.0000
  S   S256      1.0  0.90342  0.51610  0.00500  1.0000
  C   C1918     1.0  0.66899  0.00291  0.95159  1.0000
  H   H1529     1.0  0.67820  0.00719  0.96491  1.0000
  C   C1919     1.0  0.97942  0.52008  0.00245  1.0000
  H   H1530     1.0  0.51525  0.68806  0.97274  1.0000
  H   H1531     1.0  0.62589  0.56960  0.00973  1.0000
  H   H1532     1.0  0.53377  0.99034  0.96597  1.0000
  Fe  Fe128     1.0  0.86002  0.51486  0.00159  1.0000
  H   H1533     1.0  0.51414  0.94921  0.98697  1.0000
  H   H1534     1.0  0.01111  0.56387  0.00637  1.0000
  C   C1920     1.0  0.51450  0.64677  0.97567  1.0000
  H   H1535     1.0  0.59523  0.00892  0.94474  1.0000
  H   H1536     1.0  0.56049  0.52225  0.68422  1.0000
