data_image0
_chemical_formula_structural       H2FeHSHS3C6H6CHCH2C2HCHC3PC10HC8H8SC3H5C6PC13SC4H6CH10SHSC2HCHC4H5CH2SCHCHC3FeHFeHC2HCHC3SHCH4C2HC2HPC4FeH3FeCH2SCHSH2C4HCHFeS2FeS2C6H4C2H5SCHCH4CHCHC3HCHC4H2CSCHCH2FeSH3FeC2HC3H2CHC3HCPC2H3CSHC2H6C6PC3H2C11HC3H2C2PC2H2C2H5CFeC2SC6H3C2HCH5CS2HCSC2FeS2C6H4CFeC2HPCH3C2H2C2H6C5HC3HCHSCH2CHCH2C4SC3HSH2C3HCHCHCH4C3HCHC3H2CH3CHCHCH2C8H2CHCHCFeCPHCHC2HFeCHCH2C2FeHSCSFeCH3C5S2PC2H3FeS2H2C7H5CH3C5H2FeHCH2CHCH2CHCHC2HC2HCHC4HCHCS2HC3HCHCHCHCHSC5H2CH2CH4CH3CHCHCHCHC2H3C2HCPH2C2H5SCHC2FeCH2C3HC2SFeSC2HCHCHC2HC2HCHSC4H2C3FeC4H3SHFeS2CHCH2SFeS2CS2HS2C2HC7H4C6H5C2HC3H5PC2HCHCHCSCHC2HSC2HSCHC2HC3HC9H5PCH7SCH5C2HSHCFeC2HC3HCH3C2HC8H2C2HSC3HCSCH2C12HC5H4SC3HC2HC2H7C2HC2FeHSH2C2HCHC2H2CPC5H3C2HC3FeHC3H3C2H3CHCH2CH3CH2FeCH2C5H3CHCHPCFeH2CHCHSHC4H2FeC2SHCHCSCHC5HCHFeHCH2C4HC5SC2HPHC2H3C2HC2HCH2C2HCHCPH3CH3C2HC3HCSHCFeH2CHPC4HCH2FeC2HCFeCHC2HCH3C3HC2PC4H3C2HSCH2C3H2CHC4H2SHS2CFeS2FeS2FeS2CSH2S2FeCSHCFe2S2C4H5C7H8C6H4CHCFeC2HCHCHCH2CFeH7CH3C3H3C2HCHC2HC3HC2SCSC2H2SC3FeHCH2SC8HCHCH4C5HPCFeH2CS2CHC3HPH4C4H3CHC9PC3SC6H5CH2FeC3SCHC3H4SHCHC6PC8SHCHC7H3CSH5CHC4SCH7C4HCHC2FeCH2CHC5HCHC2H3CH2PHC3H3CHC4H4FeH2C3HC2HCH3CHCFeC9HSC2HC2H6CH2C2PC3H2CH2CHC2HCSHCFeH2SH2FePHCHFeH2CSC5HC3HCFeHCHSFeS2FeSHC3FeS2FeS2H3C2HFeS2C4H2C6H4PHC8H5CHS2C3H3CH4CHC2FeSHSCHSC3HCH2C3HC4H2C2HC2HCFePC2H2C2H3CH2C2SC3SHC4HC3FeHC3HC2H5SHC5PC16H14CHCHCFeC2H4CHSHC2HC4FeHC3H4SH2CH2FeH2C2HCH3C2H2CHPC2HC2HC6H4SCSCFeCH2CH3PCHC2SFeCHC5HCH3C5H3CHC4H2C3PCSH2SCHCHSHSC3HC3H3CHSH3C6HSC2S2HSH4SFeHSFeC2FeS2FeCHFeHSFeS2FeS2CSCHC2H3CH2FeS3H2CH2C6H4C6H4C2HPC2H2C2HCHCH2C4HC3H2C2HC7H2CHCH3C5HC4SHCH2C2HC6H5SH4CHC6H2C2HC2HC7PC18H20SFeC3HPHC4PC10H5CH5CH3C2PC3SH3C11H4C2HCH7CH2CHCH3CHC5FeH2C5PCSCHCSH2C2HC8H3CHC2SHCHC2HCH2CPH4C2H2C4HC2H3C4HC2PHC2H4C4H2SC2HCHC2HCHC3HCH3CH2CH2FeH2CSHC2HC2H2SFeCHCSC3HC2SH2S2FeS2FeS2CHSH3C7H4C6H4CHSH4CHFeH2CHFeH2C5HC2H4CSH2CH5CH2C2HC6H2CHCH2CSHSHFeC8H4CH2C6PC3HPHSC11H2CH2CH10CFeH2C6PC4HC13H7CH12CH4CPC2HC4HSFeH2C2HCFe2CSCHC2H4PHC6HC3SCHCH6CHCHC3HC2H2C3H2C5SHC2HC2H5CHC2H3CPC3HC2HCHC6SH2C4H2C2HCHCHCH2CHFeHC3PC15H7C4H2CHSHCSFeHCSC2HSCH3CH2CHPHFeS2H2SFeSCH2CH2CSFeS2H2C2H2C6H4C6H5C3H3CH3CHC3HCH8CSC5HC4HC4H2FeCH3FeC2HC2SH3CHCFeH2C5PC18H17CH2CHC4H2CFeC5FeCHCHCH2CH3C2H5C2SC4H3C2HPHCHCH2C2HCHSC5H2C2H3SH3C2H4C6PC9H2C2HCSCHC4SH6FeHCH2C2HCHSC2PH3C2H2C3H2CPC15H4C3H2CSHCSC2HC3H2C2S2FeC4H3C2HCH2CHCPC5HC2HSH3C2H3C3H2FeS2HSC2SH2CHCHCHFeS2CSCHCHC6H4SC2HC6H6CFeC5HCHCHSC2HCH2C2H2C2H3CHC2HC8PC3HPHC9FeC2H7CH8C3HC3SH6C3H2C3HC4FeSH2C2HC2H2CFeHSCHC5H3C3PCH2CHC2H3CHCH3C3SHCFeC3HC3H2CH3CHS3CHSH2CSC6PHC9H2CH3C6H2C2H2CHCH3C2SCHC2SH3CHCFeH4C2HC2HCH2CH2SCH2CH2C4HCHCH5FeCHCFeCHCHC2FeHC2HCSCH5C2S2CSHCSHS3HPH2C6H6CHC6H4C4H3CHC2FeH3C3HC2HCSCHC5HC2SC5HCHFeH3C2FeHC4PC2H2FeHC6H5C2H5C2HCSC4HC2HC2HC4HFeHCHC6HC3HCH2CHCH8CH5CHCSHCHCFeC2HCH2CH4CHC7PC16H16CH2SCPH2C6H3CH2C4HCH2CH2CSC5SCH2PHC5HC6PC2SH2CHC3SC2HCH2CH2SFeHCH3SFeC2HCFeHSFeSH2C6H4C3SHC3HSH11C2HC4SCHCHC2SC3HSFeH2CFeC2FeSCH3CH3C2HCSH2C4HC3HC3HCH2CHC2FeH2PC2H2SC2FeC2HC2H3CHSHCH2CHCH2SHCHC2PCHCHC3H2C2H3CHPCSHC2FeS2C4FeHSH2SH2C6H7PHSC2HSC2HC2H2SH2CHCHC3H6C7PC14H2CFeSFeHCH2C2FeH2C4HCHC3HC2FeCH4C3H2SC2HC2H2CH2CH2CHC2HC2HCHCH2FeS2FeHCSC4SH2FeS2CSH2FeSFeC2H2SC2HC3H2CFeC3HCSC2SH3CH2SCHC3HPC3HCH2C9HC4H4SCSH8C7PC3H2C13H6C2H9CH3C2H2SHCHFeC2H2C4HSHFeS2HSHC3HC2H2CH2C2HSH2FeHCHCFeCHC3HCH3C2H3PH3CHSC2SH3CFeCH3FeHC2SHCFeC5HCHCH2C11PC3HCSCSH3C7H6CS2FeHC3SH2SFeC2SC2
_chemical_formula_sum              "H1728 Fe144 S288 C2160 P72"
_cell_length_a       63.6108
_cell_length_b       63.486
_cell_length_c       63.1867
_cell_angle_alpha    88.1417
_cell_angle_beta     88.3019
_cell_angle_gamma    88.2356

_space_group_name_H-M_alt    "P 1"
_space_group_IT_number       1

loop_
  _space_group_symop_operation_xyz
  'x, y, z'

loop_
  _atom_site_type_symbol
  _atom_site_label
  _atom_site_symmetry_multiplicity
  _atom_site_fract_x
  _atom_site_fract_y
  _atom_site_fract_z
  _atom_site_occupancy
  H   H1        1.0  0.04569  0.37046  0.26829  1.0000
  H   H2        1.0  0.02953  0.47651  0.42210  1.0000
  Fe  Fe1       1.0  0.18453  0.46246  0.37411  1.0000
  H   H3        1.0  0.23893  0.44748  0.05890  1.0000
  S   S1        1.0  0.18334  0.42704  0.37939  1.0000
  H   H4        1.0  0.20498  0.26679  0.45384  1.0000
  S   S2        1.0  0.21059  0.38757  0.46823  1.0000
  S   S3        1.0  0.19254  0.32678  0.48052  1.0000
  S   S4        1.0  0.01177  0.36645  0.48705  1.0000
  C   C1        1.0  0.19041  0.41657  0.40443  1.0000
  C   C2        1.0  0.18769  0.39507  0.40912  1.0000
  C   C3        1.0  0.19306  0.38619  0.42899  1.0000
  C   C4        1.0  0.20199  0.39864  0.44395  1.0000
  C   C5        1.0  0.20534  0.42002  0.43900  1.0000
  C   C6        1.0  0.19918  0.42909  0.41947  1.0000
  H   H5        1.0  0.18185  0.38526  0.39711  1.0000
  H   H6        1.0  0.19113  0.36960  0.43253  1.0000
  H   H7        1.0  0.23086  0.28315  0.48591  1.0000
  H   H8        1.0  0.19609  0.47475  0.47929  1.0000
  H   H9        1.0  0.17132  0.28270  0.44114  1.0000
  H   H10       1.0  0.08139  0.38172  0.27675  1.0000
  C   C7        1.0  0.23226  0.40387  0.11096  1.0000
  H   H11       1.0  0.22284  0.47532  0.03604  1.0000
  C   C8        1.0  0.09663  0.48055  0.36258  1.0000
  H   H12       1.0  0.21280  0.42962  0.45023  1.0000
  H   H13       1.0  0.00800  0.41344  0.42992  1.0000
  C   C9        1.0  0.01519  0.38721  0.39139  1.0000
  C   C10       1.0  0.20455  0.32105  0.42366  1.0000
  H   H14       1.0  0.14502  0.42079  0.43131  1.0000
  C   C11       1.0  0.22364  0.29240  0.44152  1.0000
  H   H15       1.0  0.01694  0.44449  0.40677  1.0000
  C   C12       1.0  0.05018  0.37122  0.28466  1.0000
  C   C13       1.0  0.18697  0.48724  0.48680  1.0000
  C   C14       1.0  0.06976  0.38539  0.48865  1.0000
  P   P1        1.0  0.08726  0.38672  0.44779  1.0000
  C   C15       1.0  0.08171  0.41297  0.43709  1.0000
  C   C16       1.0  0.11213  0.37738  0.43660  1.0000
  C   C17       1.0  0.11920  0.38502  0.41662  1.0000
  C   C18       1.0  0.13770  0.37671  0.40733  1.0000
  C   C19       1.0  0.14926  0.36075  0.41785  1.0000
  C   C20       1.0  0.14269  0.35352  0.43796  1.0000
  C   C21       1.0  0.12414  0.36170  0.44727  1.0000
  C   C22       1.0  0.07008  0.41616  0.41864  1.0000
  C   C23       1.0  0.06719  0.43646  0.40974  1.0000
  C   C24       1.0  0.22363  0.31216  0.43087  1.0000
  H   H16       1.0  0.09517  0.46385  0.44403  1.0000
  C   C25       1.0  0.09066  0.43035  0.44621  1.0000
  C   C26       1.0  0.06768  0.36778  0.44202  1.0000
  C   C27       1.0  0.04647  0.37412  0.44015  1.0000
  C   C28       1.0  0.03119  0.35912  0.43755  1.0000
  C   C29       1.0  0.03682  0.33776  0.43686  1.0000
  C   C30       1.0  0.05783  0.33130  0.43873  1.0000
  C   C31       1.0  0.07316  0.34617  0.44157  1.0000
  C   C32       1.0  0.18583  0.31020  0.42700  1.0000
  H   H17       1.0  0.20165  0.44562  0.41586  1.0000
  H   H18       1.0  0.23429  0.34627  0.46700  1.0000
  H   H19       1.0  0.11043  0.39724  0.40808  1.0000
  H   H20       1.0  0.14329  0.38280  0.39207  1.0000
  H   H21       1.0  0.16356  0.35431  0.41057  1.0000
  H   H22       1.0  0.15188  0.34149  0.44641  1.0000
  H   H23       1.0  0.11905  0.35545  0.46266  1.0000
  H   H24       1.0  0.06347  0.40302  0.41092  1.0000
  S   S5        1.0  0.13279  0.31241  0.47666  1.0000
  C   C33       1.0  0.08798  0.45058  0.43707  1.0000
  C   C34       1.0  0.08823  0.38768  0.47625  1.0000
  C   C35       1.0  0.10521  0.31243  0.48258  1.0000
  H   H25       1.0  0.04154  0.39046  0.44166  1.0000
  H   H26       1.0  0.01480  0.36391  0.43702  1.0000
  H   H27       1.0  0.02479  0.32613  0.43576  1.0000
  H   H28       1.0  0.06209  0.31464  0.43901  1.0000
  H   H29       1.0  0.08906  0.34048  0.44422  1.0000
  C   C36       1.0  0.09030  0.32832  0.39432  1.0000
  C   C37       1.0  0.08144  0.31037  0.38656  1.0000
  C   C38       1.0  0.06855  0.31215  0.36902  1.0000
  C   C39       1.0  0.06461  0.33186  0.35912  1.0000
  C   C40       1.0  0.07354  0.34998  0.36679  1.0000
  C   C41       1.0  0.08608  0.34809  0.38473  1.0000
  P   P2        1.0  0.06834  0.37572  0.35463  1.0000
  C   C42       1.0  0.09202  0.39051  0.35670  1.0000
  C   C43       1.0  0.06174  0.37350  0.32712  1.0000
  C   C44       1.0  0.07607  0.37875  0.31055  1.0000
  C   C45       1.0  0.07030  0.37752  0.28944  1.0000
  C   C46       1.0  0.15563  0.41404  0.46292  1.0000
  C   C47       1.0  0.03575  0.36621  0.30100  1.0000
  C   C48       1.0  0.04145  0.36741  0.32213  1.0000
  C   C49       1.0  0.09139  0.41044  0.36565  1.0000
  C   C50       1.0  0.10989  0.42148  0.36760  1.0000
  C   C51       1.0  0.12908  0.41298  0.36012  1.0000
  C   C52       1.0  0.12992  0.39305  0.35133  1.0000
  C   C53       1.0  0.11154  0.38167  0.34999  1.0000
  C   C54       1.0  0.04556  0.38840  0.36711  1.0000
  S   S6        1.0  0.03377  0.47000  0.36791  1.0000
  C   C55       1.0  0.02743  0.46440  0.45466  1.0000
  C   C56       1.0  0.00768  0.40652  0.38300  1.0000
  C   C57       1.0  0.14859  0.45699  0.46954  1.0000
  C   C58       1.0  0.03779  0.40778  0.35870  1.0000
  H   H30       1.0  0.10027  0.32693  0.40796  1.0000
  H   H31       1.0  0.08447  0.29509  0.39423  1.0000
  H   H32       1.0  0.06158  0.29821  0.36309  1.0000
  H   H33       1.0  0.05462  0.33280  0.34557  1.0000
  H   H34       1.0  0.09266  0.36187  0.39131  1.0000
  H   H35       1.0  0.09157  0.38415  0.31367  1.0000
  C   C59       1.0  0.01900  0.41680  0.36669  1.0000
  H   H36       1.0  0.02125  0.44808  0.48479  1.0000
  H   H37       1.0  0.02004  0.36159  0.29731  1.0000
  H   H38       1.0  0.02992  0.36375  0.33458  1.0000
  H   H39       1.0  0.07672  0.41751  0.37114  1.0000
  H   H40       1.0  0.10938  0.43672  0.37485  1.0000
  H   H41       1.0  0.14332  0.42181  0.36124  1.0000
  H   H42       1.0  0.14491  0.38644  0.34573  1.0000
  H   H43       1.0  0.11248  0.36610  0.34341  1.0000
  H   H44       1.0  0.01063  0.41524  0.46882  1.0000
  H   H45       1.0  0.12159  0.39305  0.47705  1.0000
  S   S7        1.0  0.03303  0.30811  0.49115  1.0000
  H   H46       1.0  0.04608  0.41584  0.34572  1.0000
  S   S8        1.0  0.17226  0.47747  0.34377  1.0000
  C   C60       1.0  0.07684  0.47106  0.36315  1.0000
  C   C61       1.0  0.09387  0.32902  0.49242  1.0000
  H   H47       1.0  0.13832  0.45882  0.43726  1.0000
  C   C62       1.0  0.14773  0.42715  0.44668  1.0000
  H   H48       1.0  0.10011  0.42827  0.46013  1.0000
  C   C63       1.0  0.01516  0.42857  0.45871  1.0000
  C   C64       1.0  0.06598  0.46525  0.48782  1.0000
  C   C65       1.0  0.24003  0.39288  0.39768  1.0000
  C   C66       1.0  0.01866  0.44499  0.42376  1.0000
  H   H49       1.0  0.00600  0.37912  0.40367  1.0000
  H   H50       1.0  0.17108  0.31703  0.42162  1.0000
  H   H51       1.0  0.05483  0.38314  0.48145  1.0000
  H   H52       1.0  0.11088  0.47127  0.35959  1.0000
  H   H53       1.0  0.05780  0.43903  0.39578  1.0000
  C   C67       1.0  0.01364  0.42755  0.43676  1.0000
  H   H54       1.0  0.14605  0.47375  0.47156  1.0000
  H   H55       1.0  0.07593  0.45442  0.36056  1.0000
  S   S9        1.0  0.21402  0.48114  0.37339  1.0000
  C   C68       1.0  0.14402  0.44859  0.45005  1.0000
  H   H56       1.0  0.03942  0.36303  0.39016  1.0000
  C   C69       1.0  0.07160  0.32837  0.49499  1.0000
  H   H57       1.0  0.06424  0.28074  0.47382  1.0000
  C   C70       1.0  0.02578  0.46326  0.43260  1.0000
  C   C71       1.0  0.15733  0.44402  0.48570  1.0000
  C   C72       1.0  0.18596  0.29069  0.43790  1.0000
  Fe  Fe2       1.0  0.15871  0.32920  0.49290  1.0000
  H   H58       1.0  0.23337  0.34148  0.38690  1.0000
  Fe  Fe3       1.0  0.19318  0.36160  0.48616  1.0000
  H   H59       1.0  0.23043  0.46928  0.29948  1.0000
  C   C73       1.0  0.09417  0.29531  0.47576  1.0000
  C   C74       1.0  0.16033  0.42236  0.48240  1.0000
  H   H60       1.0  0.15889  0.39749  0.46012  1.0000
  C   C75       1.0  0.07627  0.45363  0.41880  1.0000
  H   H61       1.0  0.07416  0.46925  0.41155  1.0000
  C   C76       1.0  0.10722  0.39095  0.48624  1.0000
  C   C77       1.0  0.02143  0.44711  0.46768  1.0000
  C   C78       1.0  0.23542  0.47909  0.04633  1.0000
  S   S10       1.0  0.16629  0.48408  0.39585  1.0000
  H   H62       1.0  0.01303  0.43171  0.36006  1.0000
  C   C79       1.0  0.03412  0.37817  0.38360  1.0000
  H   H63       1.0  0.10262  0.28244  0.46814  1.0000
  H   H64       1.0  0.23816  0.28539  0.44738  1.0000
  H   H65       1.0  0.23429  0.41794  0.49462  1.0000
  H   H66       1.0  0.05913  0.45112  0.48242  1.0000
  C   C80       1.0  0.20488  0.28176  0.44510  1.0000
  C   C81       1.0  0.23730  0.35503  0.39581  1.0000
  H   H67       1.0  0.20393  0.33647  0.41591  1.0000
  C   C82       1.0  0.05721  0.48535  0.48284  1.0000
  C   C83       1.0  0.23487  0.37522  0.38651  1.0000
  H   H68       1.0  0.20219  0.43791  0.48489  1.0000
  P   P3        1.0  0.03428  0.48869  0.46652  1.0000
  C   C84       1.0  0.05816  0.48303  0.36664  1.0000
  C   C85       1.0  0.06076  0.31090  0.48827  1.0000
  C   C86       1.0  0.07232  0.29436  0.47894  1.0000
  C   C87       1.0  0.23304  0.38918  0.09493  1.0000
  Fe  Fe4       1.0  0.00657  0.33263  0.49576  1.0000
  H   H69       1.0  0.22873  0.37730  0.37074  1.0000
  H   H70       1.0  0.22206  0.40144  0.12482  1.0000
  H   H71       1.0  0.16714  0.41201  0.49454  1.0000
  Fe  Fe5       1.0  0.00143  0.48617  0.37305  1.0000
  C   C88       1.0  0.24043  0.48039  0.29104  1.0000
  H   H72       1.0  0.23760  0.40857  0.39069  1.0000
  H   H73       1.0  0.22344  0.37536  0.09635  1.0000
  S   S11       1.0  0.15893  0.36426  0.49527  1.0000
  C   C89       1.0  0.24355  0.27639  0.49512  1.0000
  H   H74       1.0  0.24374  0.43290  0.12176  1.0000
  S   S12       1.0  0.21604  0.48361  0.62030  1.0000
  H   H75       1.0  0.06695  0.43930  0.60295  1.0000
  H   H76       1.0  0.10537  0.37240  0.58637  1.0000
  C   C90       1.0  0.20520  0.43492  0.50147  1.0000
  C   C91       1.0  0.20164  0.14811  0.56107  1.0000
  C   C92       1.0  0.14690  0.45295  0.53087  1.0000
  C   C93       1.0  0.11039  0.40696  0.64679  1.0000
  H   H77       1.0  0.09088  0.44756  0.50330  1.0000
  C   C94       1.0  0.13404  0.46170  0.56623  1.0000
  H   H78       1.0  0.08275  0.44511  0.63609  1.0000
  Fe  Fe6       1.0  0.16927  0.35750  0.52851  1.0000
  S   S13       1.0  0.15181  0.37845  0.55189  1.0000
  S   S14       1.0  0.16708  0.32226  0.52677  1.0000
  Fe  Fe7       1.0  0.19175  0.45955  0.62840  1.0000
  S   S15       1.0  0.20151  0.42597  0.62081  1.0000
  S   S16       1.0  0.18464  0.47142  0.66129  1.0000
  C   C95       1.0  0.16650  0.39195  0.57012  1.0000
  C   C96       1.0  0.18659  0.38483  0.57600  1.0000
  C   C97       1.0  0.19721  0.39534  0.59162  1.0000
  C   C98       1.0  0.18812  0.41340  0.60087  1.0000
  C   C99       1.0  0.16829  0.42078  0.59453  1.0000
  C   C100      1.0  0.15740  0.40983  0.57954  1.0000
  H   H79       1.0  0.19369  0.37093  0.56895  1.0000
  H   H80       1.0  0.21251  0.38947  0.59650  1.0000
  H   H81       1.0  0.16108  0.43454  0.60164  1.0000
  H   H82       1.0  0.14182  0.41511  0.57523  1.0000
  C   C101      1.0  0.08357  0.46192  0.63788  1.0000
  C   C102      1.0  0.10300  0.47069  0.64222  1.0000
  H   H83       1.0  0.01732  0.42221  0.57084  1.0000
  H   H84       1.0  0.12130  0.41012  0.65908  1.0000
  H   H85       1.0  0.10188  0.42727  0.54426  1.0000
  H   H86       1.0  0.13597  0.46972  0.58088  1.0000
  H   H87       1.0  0.08448  0.42378  0.70313  1.0000
  S   S17       1.0  0.16552  0.47823  0.61317  1.0000
  C   C103      1.0  0.12976  0.43979  0.52902  1.0000
  H   H88       1.0  0.05478  0.40234  0.54919  1.0000
  C   C104      1.0  0.22624  0.22993  0.55410  1.0000
  H   H89       1.0  0.19652  0.26357  0.52346  1.0000
  H   H90       1.0  0.24163  0.40981  0.53242  1.0000
  H   H91       1.0  0.05230  0.43449  0.52673  1.0000
  H   H92       1.0  0.01299  0.46469  0.79874  1.0000
  C   C105      1.0  0.21340  0.42570  0.54399  1.0000
  H   H93       1.0  0.16246  0.47353  0.55186  1.0000
  C   C106      1.0  0.11686  0.44892  0.56410  1.0000
  H   H94       1.0  0.10572  0.44701  0.57721  1.0000
  C   C107      1.0  0.00027  0.43786  0.66595  1.0000
  C   C108      1.0  0.05863  0.45520  0.55199  1.0000
  C   C109      1.0  0.10400  0.49218  0.64618  1.0000
  H   H95       1.0  0.99872  0.44714  0.73592  1.0000
  C   C110      1.0  0.19493  0.43682  0.53856  1.0000
  H   H96       1.0  0.06134  0.38883  0.64070  1.0000
  C   C111      1.0  0.24066  0.48637  0.70945  1.0000
  C   C112      1.0  0.06774  0.48304  0.69965  1.0000
  C   C113      1.0  0.05643  0.43554  0.54317  1.0000
  C   C114      1.0  0.01146  0.36548  0.61835  1.0000
  H   H97       1.0  0.02861  0.42296  0.60711  1.0000
  H   H98       1.0  0.09035  0.38696  0.53761  1.0000
  C   C115      1.0  0.14902  0.46376  0.54973  1.0000
  S   S18       1.0  0.22692  0.30019  0.52851  1.0000
  C   C116      1.0  0.00146  0.42005  0.54165  1.0000
  H   H99       1.0  0.12282  0.39205  0.51605  1.0000
  C   C117      1.0  0.21387  0.24766  0.54830  1.0000
  H   H100      1.0  0.05618  0.38229  0.52000  1.0000
  H   H101      1.0  0.21650  0.42203  0.56049  1.0000
  Fe  Fe8       1.0  0.16017  0.49237  0.64491  1.0000
  S   S19       1.0  0.20360  0.35718  0.51969  1.0000
  H   H102      1.0  0.08616  0.39594  0.66857  1.0000
  H   H103      1.0  0.12809  0.43079  0.51497  1.0000
  H   H104      1.0  0.18414  0.44125  0.55123  1.0000
  Fe  Fe9       1.0  0.20103  0.32229  0.51472  1.0000
  C   C118      1.0  0.08877  0.47679  0.69609  1.0000
  C   C119      1.0  0.00714  0.45708  0.74615  1.0000
  H   H105      1.0  0.04733  0.43467  0.71016  1.0000
  C   C120      1.0  0.22917  0.17380  0.56131  1.0000
  C   C121      1.0  0.23096  0.21419  0.53944  1.0000
  C   C122      1.0  0.09416  0.48103  0.50619  1.0000
  H   H106      1.0  0.21097  0.26026  0.55929  1.0000
  H   H107      1.0  0.00615  0.42817  0.65319  1.0000
  C   C123      1.0  0.01525  0.46676  0.78173  1.0000
  H   H108      1.0  0.22480  0.20362  0.50798  1.0000
  C   C124      1.0  0.22211  0.21589  0.51932  1.0000
  C   C125      1.0  0.05875  0.44653  0.70601  1.0000
  C   C126      1.0  0.21279  0.16120  0.59438  1.0000
  H   H109      1.0  0.11641  0.34394  0.56289  1.0000
  C   C127      1.0  0.00355  0.40300  0.61737  1.0000
  P   P4        1.0  0.16645  0.45540  0.50961  1.0000
  C   C128      1.0  0.20010  0.14812  0.58319  1.0000
  C   C129      1.0  0.11477  0.43784  0.54557  1.0000
  H   H110      1.0  0.04141  0.36803  0.56568  1.0000
  H   H111      1.0  0.04262  0.35590  0.60801  1.0000
  H   H112      1.0  0.20337  0.23517  0.49789  1.0000
  C   C130      1.0  0.08958  0.38765  0.52054  1.0000
  S   S20       1.0  0.04086  0.46257  0.63232  1.0000
  H   H113      1.0  0.23230  0.22869  0.56993  1.0000
  C   C131      1.0  0.02930  0.48160  0.77342  1.0000
  C   C132      1.0  0.05245  0.46789  0.70415  1.0000
  H   H114      1.0  0.13149  0.41702  0.62149  1.0000
  H   H115      1.0  0.09031  0.32684  0.54113  1.0000
  H   H116      1.0  0.05283  0.33883  0.54284  1.0000
  H   H117      1.0  0.10678  0.41017  0.59326  1.0000
  H   H118      1.0  0.23656  0.18452  0.59236  1.0000
  H   H119      1.0  0.11695  0.46063  0.64369  1.0000
  C   C133      1.0  0.11612  0.41093  0.62557  1.0000
  C   C134      1.0  0.05808  0.41718  0.55591  1.0000
  C   C135      1.0  0.09063  0.39896  0.65211  1.0000
  C   C136      1.0  0.07658  0.39491  0.63620  1.0000
  C   C137      1.0  0.08221  0.39895  0.61482  1.0000
  C   C138      1.0  0.10209  0.40702  0.60963  1.0000
  P   P5        1.0  0.06400  0.39454  0.59409  1.0000
  C   C139      1.0  0.07239  0.37241  0.57811  1.0000
  C   C140      1.0  0.03815  0.38988  0.60572  1.0000
  C   C141      1.0  0.03187  0.36920  0.61055  1.0000
  H   H120      1.0  0.00657  0.34947  0.62157  1.0000
  H   H121      1.0  0.22714  0.47752  0.70545  1.0000
  C   C142      1.0  0.06244  0.45646  0.57360  1.0000
  C   C143      1.0  0.02407  0.40680  0.60999  1.0000
  C   C144      1.0  0.05777  0.36267  0.56561  1.0000
  C   C145      1.0  0.06419  0.34618  0.55251  1.0000
  C   C146      1.0  0.08529  0.33940  0.55156  1.0000
  C   C147      1.0  0.09995  0.34897  0.56388  1.0000
  C   C148      1.0  0.09356  0.36530  0.57720  1.0000
  C   C149      1.0  0.06236  0.41823  0.57747  1.0000
  C   C150      1.0  0.06437  0.43805  0.58623  1.0000
  C   C151      1.0  0.10793  0.39063  0.50833  1.0000
  C   C152      1.0  0.22761  0.41892  0.52820  1.0000
  H   H122      1.0  0.19160  0.13819  0.55237  1.0000
  C   C153      1.0  0.06514  0.47463  0.63649  1.0000
  C   C154      1.0  0.08429  0.46314  0.49954  1.0000
  C   C155      1.0  0.20567  0.24954  0.52804  1.0000
  H   H123      1.0  0.18893  0.13814  0.59164  1.0000
  H   H124      1.0  0.01028  0.46020  0.57409  1.0000
  C   C156      1.0  0.03222  0.48426  0.75148  1.0000
  C   C157      1.0  0.02094  0.47224  0.73770  1.0000
  P   P6        1.0  0.02529  0.47570  0.70950  1.0000
  C   C158      1.0  0.21597  0.16106  0.55014  1.0000
  C   C159      1.0  0.07046  0.38513  0.51070  1.0000
  H   H125      1.0  0.21137  0.16144  0.61150  1.0000
  H   H126      1.0  0.10841  0.47938  0.51515  1.0000
  C   C160      1.0  0.00838  0.43066  0.55897  1.0000
  C   C161      1.0  0.01450  0.44785  0.67840  1.0000
  H   H127      1.0  0.03111  0.44581  0.67466  1.0000
  H   H128      1.0  0.05663  0.46938  0.54218  1.0000
  H   H129      1.0  0.11104  0.45074  0.69382  1.0000
  H   H130      1.0  0.23607  0.42523  0.76411  1.0000
  H   H131      1.0  0.10045  0.48853  0.69228  1.0000
  C   C162      1.0  0.22716  0.17416  0.58348  1.0000
  Fe  Fe10      1.0  0.01012  0.48064  0.62562  1.0000
  C   C163      1.0  0.00720  0.46110  0.69456  1.0000
  C   C164      1.0  0.24147  0.41920  0.73097  1.0000
  S   S21       1.0  0.00842  0.39316  0.54023  1.0000
  C   C165      1.0  0.17197  0.48267  0.50293  1.0000
  C   C166      1.0  0.09476  0.45545  0.69705  1.0000
  C   C167      1.0  0.19055  0.44146  0.51718  1.0000
  C   C168      1.0  0.07978  0.44031  0.70216  1.0000
  C   C169      1.0  0.00395  0.45213  0.56105  1.0000
  C   C170      1.0  0.22353  0.42358  0.50695  1.0000
  H   H132      1.0  0.06351  0.47160  0.58085  1.0000
  H   H133      1.0  0.22540  0.41487  0.72849  1.0000
  H   H134      1.0  0.21673  0.16118  0.53298  1.0000
  C   C171      1.0  0.20969  0.23362  0.51360  1.0000
  C   C172      1.0  0.99723  0.38237  0.62152  1.0000
  H   H135      1.0  0.03797  0.49100  0.78398  1.0000
  C   C173      1.0  0.00423  0.45447  0.76811  1.0000
  H   H136      1.0  0.06284  0.34116  0.50234  1.0000
  H   H137      1.0  0.10214  0.34240  0.49776  1.0000
  H   H138      1.0  0.21656  0.75426  0.39592  1.0000
  H   H139      1.0  0.21954  0.67684  0.38116  1.0000
  H   H140      1.0  0.15638  0.74042  0.42589  1.0000
  C   C174      1.0  0.21272  0.68894  0.44076  1.0000
  S   S22       1.0  0.18315  0.52217  0.36406  1.0000
  S   S23       1.0  0.20960  0.52012  0.42025  1.0000
  H   H141      1.0  0.00964  0.52369  0.44604  1.0000
  C   C175      1.0  0.02718  0.56791  0.47073  1.0000
  S   S24       1.0  0.12242  0.51504  0.36408  1.0000
  C   C176      1.0  0.17786  0.59499  0.38492  1.0000
  C   C177      1.0  0.16033  0.63171  0.35173  1.0000
  Fe  Fe11      1.0  0.17680  0.62439  0.48366  1.0000
  S   S25       1.0  0.16565  0.60186  0.45949  1.0000
  S   S26       1.0  0.17529  0.65942  0.47637  1.0000
  C   C178      1.0  0.19714  0.54240  0.43182  1.0000
  C   C179      1.0  0.17667  0.54874  0.42666  1.0000
  C   C180      1.0  0.16723  0.56677  0.43568  1.0000
  C   C181      1.0  0.17810  0.57864  0.44992  1.0000
  C   C182      1.0  0.19843  0.57206  0.45556  1.0000
  C   C183      1.0  0.20791  0.55395  0.44652  1.0000
  H   H142      1.0  0.16823  0.53985  0.41553  1.0000
  H   H143      1.0  0.15151  0.57180  0.43137  1.0000
  H   H144      1.0  0.20692  0.58109  0.46655  1.0000
  H   H145      1.0  0.22374  0.54905  0.45063  1.0000
  C   C184      1.0  0.18448  0.72895  0.45723  1.0000
  Fe  Fe12      1.0  0.15572  0.50033  0.36570  1.0000
  C   C185      1.0  0.07922  0.51431  0.36816  1.0000
  C   C186      1.0  0.11853  0.63609  0.33928  1.0000
  H   H146      1.0  0.08002  0.53117  0.36981  1.0000
  P   P7        1.0  0.15550  0.59096  0.36875  1.0000
  C   C187      1.0  0.01113  0.49775  0.48120  1.0000
  H   H147      1.0  0.13917  0.53524  0.31929  1.0000
  H   H148      1.0  0.04519  0.51421  0.37165  1.0000
  H   H149      1.0  0.07262  0.49648  0.44125  1.0000
  C   C188      1.0  0.15324  0.65035  0.34148  1.0000
  C   C189      1.0  0.04060  0.50822  0.44604  1.0000
  H   H150      1.0  0.16400  0.66302  0.33817  1.0000
  H   H151      1.0  0.09039  0.55728  0.48983  1.0000
  C   C190      1.0  0.16582  0.74763  0.41330  1.0000
  C   C191      1.0  0.17080  0.54592  0.31408  1.0000
  H   H152      1.0  0.19290  0.58463  0.34098  1.0000
  H   H153      1.0  0.13043  0.55997  0.34754  1.0000
  H   H154      1.0  0.22395  0.60228  0.42285  1.0000
  H   H155      1.0  0.17666  0.63007  0.35603  1.0000
  H   H156      1.0  0.19831  0.77455  0.36762  1.0000
  H   H157      1.0  0.11405  0.64753  0.48095  1.0000
  C   C192      1.0  0.08004  0.64751  0.47995  1.0000
  C   C193      1.0  0.19472  0.58021  0.38568  1.0000
  C   C194      1.0  0.09940  0.65374  0.48771  1.0000
  C   C195      1.0  0.16853  0.71409  0.45806  1.0000
  C   C196      1.0  0.14643  0.61527  0.35611  1.0000
  H   H158      1.0  0.22299  0.52991  0.49386  1.0000
  C   C197      1.0  0.13233  0.65257  0.33534  1.0000
  C   C198      1.0  0.03053  0.53808  0.42309  1.0000
  C   C199      1.0  0.24268  0.49966  0.04631  1.0000
  H   H159      1.0  0.16415  0.62303  0.39908  1.0000
  C   C200      1.0  0.20843  0.70490  0.42548  1.0000
  H   H160      1.0  0.20940  0.77578  0.43941  1.0000
  S   S27       1.0  0.03681  0.64788  0.47741  1.0000
  C   C201      1.0  0.17759  0.61217  0.39839  1.0000
  H   H161      1.0  0.16632  0.70399  0.44486  1.0000
  H   H162      1.0  0.19938  0.75298  0.47472  1.0000
  C   C202      1.0  0.14600  0.56014  0.34015  1.0000
  H   H163      1.0  0.12358  0.61205  0.39588  1.0000
  C   C203      1.0  0.12220  0.59518  0.39825  1.0000
  H   H164      1.0  0.14298  0.70059  0.47655  1.0000
  H   H165      1.0  0.05432  0.54890  0.40072  1.0000
  C   C204      1.0  0.15528  0.71207  0.47600  1.0000
  C   C205      1.0  0.18105  0.57390  0.33647  1.0000
  C   C206      1.0  0.19430  0.61493  0.41180  1.0000
  C   C207      1.0  0.02548  0.52336  0.43926  1.0000
  S   S28       1.0  0.23549  0.67655  0.49174  1.0000
  C   C208      1.0  0.06078  0.65541  0.48846  1.0000
  C   C209      1.0  0.05063  0.53779  0.41358  1.0000
  C   C210      1.0  0.21155  0.58318  0.39889  1.0000
  H   H166      1.0  0.14486  0.54834  0.38367  1.0000
  S   S29       1.0  0.22203  0.51152  0.31709  1.0000
  H   H167      1.0  0.20812  0.71250  0.39179  1.0000
  H   H168      1.0  0.05677  0.60858  0.45236  1.0000
  C   C211      1.0  0.16728  0.76879  0.38069  1.0000
  C   C212      1.0  0.22177  0.66442  0.41316  1.0000
  C   C213      1.0  0.17770  0.52446  0.48829  1.0000
  H   H169      1.0  0.20083  0.51122  0.46650  1.0000
  C   C214      1.0  0.13533  0.58111  0.38684  1.0000
  H   H170      1.0  0.24150  0.56330  0.48762  1.0000
  C   C215      1.0  0.12558  0.61744  0.34951  1.0000
  H   H171      1.0  0.22420  0.57136  0.39980  1.0000
  C   C216      1.0  0.18963  0.50798  0.47938  1.0000
  H   H172      1.0  0.19462  0.56597  0.37674  1.0000
  H   H173      1.0  0.09433  0.55995  0.42862  1.0000
  H   H174      1.0  0.12868  0.55939  0.48242  1.0000
  H   H175      1.0  0.02820  0.58596  0.44130  1.0000
  C   C217      1.0  0.03494  0.58347  0.45677  1.0000
  C   C218      1.0  0.10737  0.58754  0.41317  1.0000
  C   C219      1.0  0.23963  0.50158  0.29668  1.0000
  H   H176      1.0  0.23584  0.51180  0.03597  1.0000
  C   C220      1.0  0.18704  0.74164  0.47472  1.0000
  H   H177      1.0  0.17980  0.54054  0.48252  1.0000
  C   C221      1.0  0.09793  0.50224  0.36511  1.0000
  C   C222      1.0  0.21100  0.70044  0.40391  1.0000
  C   C223      1.0  0.18584  0.55991  0.32023  1.0000
  H   H178      1.0  0.15932  0.77776  0.36826  1.0000
  H   H179      1.0  0.09734  0.59848  0.42196  1.0000
  C   C224      1.0  0.05109  0.59610  0.46295  1.0000
  H   H180      1.0  0.08003  0.63666  0.46712  1.0000
  H   H181      1.0  0.10238  0.63769  0.33430  1.0000
  H   H182      1.0  0.13856  0.76058  0.39747  1.0000
  C   C225      1.0  0.15081  0.54622  0.32386  1.0000
  H   H183      1.0  0.11834  0.53495  0.40922  1.0000
  C   C226      1.0  0.06078  0.50808  0.43643  1.0000
  H   H184      1.0  0.08117  0.52226  0.41253  1.0000
  C   C227      1.0  0.06735  0.50325  0.48950  1.0000
  H   H185      1.0  0.11480  0.60465  0.35218  1.0000
  H   H186      1.0  0.12685  0.66699  0.32734  1.0000
  C   C228      1.0  0.13413  0.55942  0.39139  1.0000
  C   C229      1.0  0.18790  0.74575  0.41309  1.0000
  C   C230      1.0  0.05944  0.50475  0.36915  1.0000
  C   C231      1.0  0.21932  0.66879  0.43463  1.0000
  C   C232      1.0  0.16134  0.57355  0.34712  1.0000
  C   C233      1.0  0.06575  0.52279  0.42026  1.0000
  C   C234      1.0  0.10576  0.56583  0.41702  1.0000
  C   C235      1.0  0.05941  0.59322  0.48311  1.0000
  H   H187      1.0  0.21123  0.69218  0.45746  1.0000
  H   H188      1.0  0.19346  0.62762  0.42289  1.0000
  C   C236      1.0  0.22511  0.74501  0.43923  1.0000
  H   H189      1.0  0.01447  0.55826  0.46611  1.0000
  C   C237      1.0  0.18923  0.76697  0.38033  1.0000
  H   H190      1.0  0.06123  0.51894  0.48539  1.0000
  C   C238      1.0  0.11921  0.55179  0.40617  1.0000
  Fe  Fe13      1.0  0.20085  0.49784  0.34440  1.0000
  C   C239      1.0  0.21138  0.60056  0.41191  1.0000
  P   P8        1.0  0.20151  0.73120  0.43390  1.0000
  H   H191      1.0  0.07205  0.60309  0.48747  1.0000
  C   C240      1.0  0.15559  0.75911  0.39715  1.0000
  H   H192      1.0  0.01867  0.54943  0.41757  1.0000
  C   C241      1.0  0.21754  0.68022  0.39780  1.0000
  C   C242      1.0  0.22423  0.76706  0.44073  1.0000
  H   H193      1.0  0.17481  0.53463  0.30198  1.0000
  Fe  Fe14      1.0  0.19467  0.50433  0.39273  1.0000
  C   C243      1.0  0.19951  0.75550  0.39644  1.0000
  H   H194      1.0  0.20140  0.55943  0.31273  1.0000
  C   C244      1.0  0.03526  0.56516  0.49097  1.0000
  H   H195      1.0  0.22709  0.64885  0.40843  1.0000
  H   H196      1.0  0.22278  0.65669  0.44667  1.0000
  C   C245      1.0  0.15802  0.72460  0.49340  1.0000
  C   C246      1.0  0.17388  0.73940  0.49275  1.0000
  Fe  Fe15      1.0  0.00585  0.64026  0.49515  1.0000
  H   H197      1.0  0.24177  0.79495  0.44581  1.0000
  S   S30       1.0  0.99444  0.50410  0.40246  1.0000
  C   C247      1.0  0.24251  0.77800  0.44415  1.0000
  S   S31       1.0  0.12379  0.67832  0.51248  1.0000
  Fe  Fe16      1.0  0.15511  0.66094  0.50632  1.0000
  C   C248      1.0  0.22800  0.52858  0.52745  1.0000
  H   H198      1.0  0.12931  0.50459  0.56062  1.0000
  H   H199      1.0  0.03431  0.56045  0.60786  1.0000
  H   H200      1.0  0.02502  0.53383  0.65609  1.0000
  C   C249      1.0  0.08578  0.50107  0.50103  1.0000
  C   C250      1.0  0.11130  0.60220  0.59041  1.0000
  C   C251      1.0  0.13218  0.62747  0.56979  1.0000
  C   C252      1.0  0.04577  0.59136  0.56088  1.0000
  C   C253      1.0  0.23162  0.69063  0.55145  1.0000
  S   S32       1.0  0.18918  0.51765  0.57413  1.0000
  S   S33       1.0  0.18270  0.51871  0.63847  1.0000
  P   P9        1.0  0.10966  0.57844  0.60707  1.0000
  C   C254      1.0  0.11539  0.55515  0.59183  1.0000
  C   C255      1.0  0.16290  0.52014  0.50447  1.0000
  H   H201      1.0  0.21820  0.58801  0.62630  1.0000
  H   H202      1.0  0.11495  0.65270  0.55379  1.0000
  H   H203      1.0  0.03057  0.60426  0.58877  1.0000
  Fe  Fe17      1.0  0.18448  0.63062  0.53037  1.0000
  S   S34       1.0  0.18898  0.61693  0.56330  1.0000
  S   S35       1.0  0.18291  0.66585  0.52683  1.0000
  H   H204      1.0  0.08611  0.52150  0.64808  1.0000
  H   H205      1.0  0.14787  0.72266  0.50740  1.0000
  C   C256      1.0  0.05139  0.57789  0.49747  1.0000
  C   C257      1.0  0.18727  0.54531  0.57134  1.0000
  C   C258      1.0  0.18693  0.55483  0.55098  1.0000
  C   C259      1.0  0.18687  0.57688  0.54832  1.0000
  C   C260      1.0  0.18699  0.58945  0.56606  1.0000
  C   C261      1.0  0.18620  0.58000  0.58638  1.0000
  C   C262      1.0  0.18642  0.55796  0.58904  1.0000
  H   H206      1.0  0.18721  0.54513  0.53723  1.0000
  H   H207      1.0  0.18733  0.58409  0.53256  1.0000
  H   H208      1.0  0.18592  0.58972  0.60014  1.0000
  H   H209      1.0  0.18640  0.55081  0.60476  1.0000
  H   H210      1.0  0.14732  0.63287  0.56393  1.0000
  C   C263      1.0  0.05399  0.59559  0.54030  1.0000
  H   H211      1.0  0.12758  0.54504  0.63475  1.0000
  H   H212      1.0  0.22159  0.69095  0.53785  1.0000
  H   H213      1.0  0.21639  0.66424  0.56700  1.0000
  C   C264      1.0  0.05833  0.58454  0.64747  1.0000
  C   C265      1.0  0.11393  0.63875  0.56415  1.0000
  C   C266      1.0  0.09441  0.63217  0.57202  1.0000
  C   C267      1.0  0.03401  0.54605  0.54140  1.0000
  C   C268      1.0  0.13443  0.57597  0.51071  1.0000
  H   H214      1.0  0.16754  0.57881  0.67418  1.0000
  H   H215      1.0  0.21573  0.71798  0.50120  1.0000
  Fe  Fe18      1.0  0.18918  0.50330  0.60744  1.0000
  H   H216      1.0  0.01164  0.52460  0.55555  1.0000
  C   C269      1.0  0.12521  0.51859  0.56924  1.0000
  H   H217      1.0  0.13216  0.61260  0.62657  1.0000
  H   H218      1.0  0.14536  0.60102  0.58728  1.0000
  C   C270      1.0  0.02809  0.52724  0.55160  1.0000
  H   H219      1.0  0.13818  0.56980  0.57034  1.0000
  C   C271      1.0  0.10658  0.53580  0.59810  1.0000
  H   H220      1.0  0.00480  0.51272  0.73001  1.0000
  H   H221      1.0  0.07769  0.60931  0.59091  1.0000
  C   C272      1.0  0.15656  0.57886  0.66138  1.0000
  H   H222      1.0  0.08038  0.64131  0.56800  1.0000
  C   C273      1.0  0.22724  0.57572  0.61836  1.0000
  H   H223      1.0  0.04524  0.64888  0.53870  1.0000
  C   C274      1.0  0.04235  0.57565  0.63630  1.0000
  C   C275      1.0  0.13094  0.60935  0.58293  1.0000
  H   H224      1.0  0.02988  0.64091  0.57430  1.0000
  C   C276      1.0  0.06721  0.56813  0.60757  1.0000
  C   C277      1.0  0.05527  0.54952  0.53612  1.0000
  H   H225      1.0  0.15201  0.54533  0.66402  1.0000
  C   C278      1.0  0.12834  0.57873  0.62803  1.0000
  H   H226      1.0  0.22194  0.77726  0.56703  1.0000
  C   C279      1.0  0.11141  0.51762  0.58682  1.0000
  C   C280      1.0  0.04680  0.56735  0.61641  1.0000
  C   C281      1.0  0.15090  0.59774  0.65074  1.0000
  C   C282      1.0  0.06456  0.51535  0.55227  1.0000
  H   H227      1.0  0.15746  0.61241  0.65533  1.0000
  C   C283      1.0  0.07878  0.58523  0.63873  1.0000
  H   H228      1.0  0.13535  0.59312  0.53943  1.0000
  C   C284      1.0  0.10377  0.58436  0.53295  1.0000
  S   S36       1.0  0.01048  0.50812  0.60260  1.0000
  S   S37       1.0  0.00579  0.61058  0.51561  1.0000
  H   H229      1.0  0.09367  0.51496  0.50580  1.0000
  C   C285      1.0  0.02126  0.52937  0.67244  1.0000
  C   C286      1.0  0.00530  0.53778  0.70648  1.0000
  C   C287      1.0  0.07058  0.53420  0.54206  1.0000
  H   H230      1.0  0.22238  0.55245  0.64361  1.0000
  C   C288      1.0  0.04575  0.63283  0.54496  1.0000
  H   H231      1.0  0.99558  0.53100  0.52039  1.0000
  C   C289      1.0  0.03743  0.60768  0.57318  1.0000
  H   H232      1.0  0.10484  0.50273  0.59212  1.0000
  C   C290      1.0  0.09303  0.61399  0.58507  1.0000
  H   H233      1.0  0.05481  0.59097  0.66289  1.0000
  C   C291      1.0  0.01269  0.51104  0.49835  1.0000
  H   H234      1.0  0.05245  0.50640  0.63783  1.0000
  S   S38       1.0  0.23473  0.50975  0.67143  1.0000
  C   C292      1.0  0.09975  0.66859  0.50358  1.0000
  C   C293      1.0  0.14794  0.55999  0.65560  1.0000
  C   C294      1.0  0.13667  0.59774  0.63427  1.0000
  C   C295      1.0  0.08559  0.50493  0.64470  1.0000
  C   C296      1.0  0.24112  0.74012  0.50004  1.0000
  H   H235      1.0  0.14597  0.53806  0.55026  1.0000
  H   H236      1.0  0.04522  0.57552  0.56745  1.0000
  C   C297      1.0  0.04329  0.51181  0.55684  1.0000
  H   H237      1.0  0.14753  0.49651  0.52336  1.0000
  H   H238      1.0  0.22971  0.60052  0.54779  1.0000
  C   C298      1.0  0.01095  0.54382  0.68566  1.0000
  H   H239      1.0  0.09708  0.59186  0.54681  1.0000
  H   H240      1.0  0.02199  0.55806  0.53785  1.0000
  H   H241      1.0  0.08715  0.53681  0.53908  1.0000
  H   H242      1.0  0.23091  0.75359  0.50345  1.0000
  C   C299      1.0  0.08339  0.57696  0.61872  1.0000
  H   H243      1.0  0.07640  0.50356  0.55679  1.0000
  H   H244      1.0  0.02778  0.51474  0.50435  1.0000
  H   H245      1.0  0.09631  0.53460  0.61201  1.0000
  C   C300      1.0  0.99452  0.52020  0.50762  1.0000
  H   H246      1.0  0.06077  0.62053  0.51710  1.0000
  C   C301      1.0  0.05445  0.61661  0.53272  1.0000
  H   H247      1.0  0.02648  0.57524  0.64301  1.0000
  C   C302      1.0  0.13399  0.55989  0.63893  1.0000
  H   H248      1.0  0.09091  0.59231  0.64757  1.0000
  C   C303      1.0  0.13451  0.53756  0.56326  1.0000
  H   H249      1.0  0.23781  0.74239  0.57618  1.0000
  C   C304      1.0  0.03715  0.62837  0.56511  1.0000
  C   C305      1.0  0.12991  0.55567  0.57469  1.0000
  H   H250      1.0  0.07036  0.56184  0.59204  1.0000
  H   H251      1.0  0.00678  0.55949  0.67950  1.0000
  H   H252      1.0  0.04652  0.67680  0.51073  1.0000
  C   C306      1.0  0.22947  0.55571  0.62806  1.0000
  C   C307      1.0  0.24025  0.55635  0.50349  1.0000
  H   H253      1.0  0.04327  0.49571  0.74522  1.0000
  C   C308      1.0  0.06116  0.67005  0.50451  1.0000
  P   P10       1.0  0.06270  0.57425  0.52341  1.0000
  H   H254      1.0  0.08060  0.68834  0.52404  1.0000
  H   H255      1.0  0.23174  0.63838  0.53810  1.0000
  C   C309      1.0  0.22877  0.67556  0.56781  1.0000
  C   C310      1.0  0.00992  0.51726  0.71409  1.0000
  H   H256      1.0  0.02854  0.55325  0.50129  1.0000
  H   H257      1.0  0.06361  0.49969  0.69879  1.0000
  H   H258      1.0  0.15367  0.53294  0.51132  1.0000
  H   H259      1.0  0.17609  0.74900  0.50633  1.0000
  H   H260      1.0  0.24249  0.52425  0.62529  1.0000
  S   S39       1.0  0.15536  0.62620  0.51241  1.0000
  C   C311      1.0  0.08053  0.67666  0.51195  1.0000
  H   H261      1.0  0.21947  0.51417  0.53031  1.0000
  C   C312      1.0  0.02578  0.50884  0.67996  1.0000
  C   C313      1.0  0.12547  0.58504  0.52884  1.0000
  Fe  Fe19      1.0  0.20775  0.49672  0.65239  1.0000
  C   C314      1.0  0.09087  0.57447  0.51891  1.0000
  H   H262      1.0  0.23993  0.66307  0.59761  1.0000
  H   H263      1.0  0.15116  0.57722  0.50718  1.0000
  C   C315      1.0  0.23243  0.71996  0.49866  1.0000
  C   C316      1.0  0.10005  0.56493  0.50095  1.0000
  C   C317      1.0  0.15977  0.49934  0.51155  1.0000
  H   H264      1.0  0.03842  0.49727  0.56471  1.0000
  C   C318      1.0  0.02042  0.50272  0.70088  1.0000
  C   C319      1.0  0.22974  0.53753  0.50701  1.0000
  S   S40       1.0  0.12714  0.50308  0.65561  1.0000
  Fe  Fe20      1.0  0.20331  0.66131  0.49759  1.0000
  S   S41       1.0  0.20625  0.62578  0.50227  1.0000
  C   C320      1.0  0.24079  0.53975  0.61768  1.0000
  C   C321      1.0  0.23625  0.57977  0.59820  1.0000
  H   H265      1.0  0.23399  0.59530  0.59090  1.0000
  C   C322      1.0  0.23682  0.53843  0.54443  1.0000
  H   H266      1.0  0.23498  0.53127  0.56010  1.0000
  C   C323      1.0  0.06639  0.49634  0.63922  1.0000
  H   H267      1.0  0.03292  0.49748  0.66932  1.0000
  C   C324      1.0  0.23853  0.77414  0.56372  1.0000
  C   C325      1.0  0.24207  0.67491  0.58506  1.0000
  H   H268      1.0  0.99688  0.54890  0.71653  1.0000
  C   C326      1.0  0.12173  0.56589  0.49677  1.0000
  C   C327      1.0  0.26475  0.47938  0.14407  1.0000
  H   H269      1.0  0.35061  0.12908  0.44168  1.0000
  C   C328      1.0  0.39816  0.47372  0.07473  1.0000
  H   H270      1.0  0.43178  0.22644  0.47034  1.0000
  S   S42       1.0  0.46947  0.35888  0.23684  1.0000
  C   C329      1.0  0.30419  0.10611  0.42080  1.0000
  C   C330      1.0  0.40235  0.38675  0.07833  1.0000
  C   C331      1.0  0.44888  0.25527  0.47110  1.0000
  C   C332      1.0  0.46204  0.22277  0.23812  1.0000
  H   H271      1.0  0.41407  0.42558  0.05730  1.0000
  H   H272      1.0  0.28384  0.30245  0.44739  1.0000
  C   C333      1.0  0.40525  0.45817  0.06091  1.0000
  C   C334      1.0  0.32750  0.41423  0.07139  1.0000
  C   C335      1.0  0.27270  0.32197  0.49587  1.0000
  Fe  Fe21      1.0  0.33228  0.02085  0.48727  1.0000
  C   C336      1.0  0.35286  0.40665  0.13693  1.0000
  C   C337      1.0  0.37858  0.12466  0.42157  1.0000
  C   C338      1.0  0.39290  0.07816  0.40184  1.0000
  C   C339      1.0  0.42810  0.24507  0.44162  1.0000
  H   H273      1.0  0.41433  0.21379  0.12055  1.0000
  H   H274      1.0  0.42821  0.22221  0.23954  1.0000
  H   H275      1.0  0.42759  0.26650  0.41455  1.0000
  S   S43       1.0  0.47408  0.21943  0.37974  1.0000
  H   H276      1.0  0.41409  0.10207  0.46622  1.0000
  Fe  Fe22      1.0  0.45707  0.19025  0.37218  1.0000
  S   S44       1.0  0.42240  0.18627  0.38024  1.0000
  S   S45       1.0  0.47061  0.18893  0.33877  1.0000
  C   C340      1.0  0.43191  0.42140  0.00913  1.0000
  H   H277      1.0  0.45034  0.29229  0.43065  1.0000
  C   C341      1.0  0.29615  0.48004  0.32462  1.0000
  H   H278      1.0  0.34840  0.41967  0.04425  1.0000
  H   H279      1.0  0.44926  0.11122  0.43265  1.0000
  S   S46       1.0  0.31960  0.05166  0.47249  1.0000
  Fe  Fe23      1.0  0.45917  0.36637  0.20359  1.0000
  S   S47       1.0  0.42872  0.38053  0.19078  1.0000
  S   S48       1.0  0.46889  0.33437  0.19213  1.0000
  C   C342      1.0  0.36160  0.44961  0.27898  1.0000
  S   S49       1.0  0.38742  0.46126  0.23370  1.0000
  S   S50       1.0  0.33171  0.46381  0.20529  1.0000
  H   H280      1.0  0.33567  0.39985  0.07661  1.0000
  S   S51       1.0  0.39794  0.19648  0.47755  1.0000
  S   S52       1.0  0.33354  0.18644  0.48215  1.0000
  C   C343      1.0  0.40221  0.44558  0.00409  1.0000
  C   C344      1.0  0.42430  0.00250  0.40697  1.0000
  H   H281      1.0  0.39503  0.48965  0.06871  1.0000
  C   C345      1.0  0.39633  0.35965  0.04494  1.0000
  C   C346      1.0  0.41679  0.40235  0.20341  1.0000
  C   C347      1.0  0.42514  0.41024  0.22166  1.0000
  C   C348      1.0  0.41570  0.42809  0.23101  1.0000
  C   C349      1.0  0.39800  0.43824  0.22212  1.0000
  C   C350      1.0  0.38947  0.43018  0.20403  1.0000
  C   C351      1.0  0.39883  0.41224  0.19474  1.0000
  H   H282      1.0  0.43888  0.40260  0.22856  1.0000
  H   H283      1.0  0.42211  0.43404  0.24519  1.0000
  H   H284      1.0  0.37580  0.43790  0.19707  1.0000
  H   H285      1.0  0.39230  0.40621  0.18063  1.0000
  C   C352      1.0  0.41548  0.18944  0.40722  1.0000
  C   C353      1.0  0.39424  0.19211  0.41361  1.0000
  C   C354      1.0  0.38852  0.19432  0.43514  1.0000
  C   C355      1.0  0.40406  0.19381  0.45036  1.0000
  C   C356      1.0  0.42525  0.19088  0.44397  1.0000
  C   C357      1.0  0.43097  0.18893  0.42248  1.0000
  H   H286      1.0  0.38219  0.19280  0.40189  1.0000
  H   H287      1.0  0.37215  0.19650  0.43995  1.0000
  H   H288      1.0  0.43736  0.19032  0.45566  1.0000
  H   H289      1.0  0.44737  0.18698  0.41773  1.0000
  H   H290      1.0  0.46372  0.28551  0.46642  1.0000
  C   C358      1.0  0.44860  0.09692  0.49223  1.0000
  C   C359      1.0  0.25834  0.26195  0.48606  1.0000
  H   H291      1.0  0.39598  0.46154  0.00328  1.0000
  C   C360      1.0  0.32198  0.46985  0.27975  1.0000
  C   C361      1.0  0.41896  0.09729  0.24745  1.0000
  C   C362      1.0  0.40307  0.00276  0.41347  1.0000
  H   H292      1.0  0.40952  0.08376  0.24471  1.0000
  H   H293      1.0  0.45937  0.39426  0.15506  1.0000
  H   H294      1.0  0.40904  0.12399  0.40530  1.0000
  H   H295      1.0  0.39101  0.00613  0.40201  1.0000
  H   H296      1.0  0.45689  0.09095  0.36876  1.0000
  P   P11       1.0  0.44849  0.07140  0.45699  1.0000
  C   C363      1.0  0.45163  0.09858  0.42171  1.0000
  C   C364      1.0  0.41052  0.13807  0.43558  1.0000
  H   H297      1.0  0.40995  0.14562  0.36248  1.0000
  C   C365      1.0  0.44978  0.39731  0.09466  1.0000
  H   H298      1.0  0.34560  0.38794  0.16511  1.0000
  C   C366      1.0  0.34395  0.13035  0.36546  1.0000
  H   H299      1.0  0.39423  0.44413  0.12026  1.0000
  C   C367      1.0  0.43107  0.09763  0.26554  1.0000
  S   S53       1.0  0.46720  0.32735  0.06822  1.0000
  C   C368      1.0  0.27606  0.31216  0.45918  1.0000
  H   H300      1.0  0.48873  0.38640  0.12958  1.0000
  C   C369      1.0  0.46645  0.01553  0.48633  1.0000
  C   C370      1.0  0.42021  0.32176  0.17147  1.0000
  H   H301      1.0  0.41666  0.33295  0.15868  1.0000
  S   S54       1.0  0.47334  0.29543  0.24024  1.0000
  C   C371      1.0  0.48527  0.11732  0.47886  1.0000
  C   C372      1.0  0.32598  0.45277  0.26665  1.0000
  H   H302      1.0  0.43369  0.45522  0.00936  1.0000
  S   S55       1.0  0.29352  0.23526  0.48548  1.0000
  C   C373      1.0  0.47750  0.10134  0.46681  1.0000
  H   H303      1.0  0.37767  0.10315  0.35596  1.0000
  C   C374      1.0  0.35769  0.46677  0.29201  1.0000
  C   C375      1.0  0.32409  0.44368  0.04642  1.0000
  H   H304      1.0  0.48239  0.38791  0.09087  1.0000
  C   C376      1.0  0.39939  0.14401  0.45390  1.0000
  C   C377      1.0  0.38901  0.42863  0.00192  1.0000
  C   C378      1.0  0.41114  0.04985  0.45623  1.0000
  H   H305      1.0  0.40742  0.15184  0.46614  1.0000
  C   C379      1.0  0.41131  0.35439  0.06011  1.0000
  C   C380      1.0  0.41888  0.40440  0.00642  1.0000
  C   C381      1.0  0.26613  0.31263  0.41000  1.0000
  C   C382      1.0  0.28586  0.32126  0.40541  1.0000
  C   C383      1.0  0.30030  0.31111  0.39175  1.0000
  C   C384      1.0  0.29509  0.29233  0.38251  1.0000
  C   C385      1.0  0.41908  0.11431  0.23287  1.0000
  C   C386      1.0  0.43843  0.49218  0.22771  1.0000
  C   C387      1.0  0.36751  0.41043  0.12041  1.0000
  H   H306      1.0  0.36398  0.42277  0.10872  1.0000
  H   H307      1.0  0.43077  0.08431  0.27671  1.0000
  H   H308      1.0  0.32775  0.14330  0.33828  1.0000
  H   H309      1.0  0.46029  0.41684  0.18972  1.0000
  H   H310      1.0  0.24673  0.38099  0.06458  1.0000
  P   P12       1.0  0.40653  0.40475  0.09927  1.0000
  C   C388      1.0  0.48431  0.42752  0.28580  1.0000
  H   H311      1.0  0.29012  0.33577  0.41256  1.0000
  H   H312      1.0  0.31557  0.31777  0.38840  1.0000
  H   H313      1.0  0.30633  0.28443  0.37201  1.0000
  H   H314      1.0  0.46579  0.43560  0.15518  1.0000
  H   H315      1.0  0.30489  0.43787  0.12207  1.0000
  H   H316      1.0  0.40404  0.37195  0.13311  1.0000
  H   H317      1.0  0.25607  0.36882  0.44332  1.0000
  S   S56       1.0  0.48116  0.16767  0.38609  1.0000
  C   C389      1.0  0.32068  0.07127  0.42101  1.0000
  H   H318      1.0  0.28306  0.18995  0.47695  1.0000
  H   H319      1.0  0.33536  0.11585  0.36585  1.0000
  H   H320      1.0  0.42415  0.40386  0.14237  1.0000
  H   H321      1.0  0.34915  0.42992  0.25553  1.0000
  H   H322      1.0  0.38217  0.03317  0.45532  1.0000
  C   C390      1.0  0.32670  0.11293  0.48766  1.0000
  C   C391      1.0  0.43591  0.24088  0.46185  1.0000
  H   H323      1.0  0.40799  0.46230  0.04432  1.0000
  S   S57       1.0  0.45853  0.41749  0.01456  1.0000
  H   H324      1.0  0.49135  0.24912  0.20089  1.0000
  C   C392      1.0  0.46072  0.46291  0.07552  1.0000
  Fe  Fe24      1.0  0.35960  0.47856  0.21885  1.0000
  C   C393      1.0  0.41383  0.32630  0.19223  1.0000
  C   C394      1.0  0.37656  0.06574  0.46226  1.0000
  H   H325      1.0  0.39396  0.24350  0.13656  1.0000
  C   C395      1.0  0.38557  0.08507  0.46550  1.0000
  C   C396      1.0  0.46982  0.39208  0.10205  1.0000
  C   C397      1.0  0.48143  0.45888  0.04312  1.0000
  H   H326      1.0  0.37487  0.18221  0.36300  1.0000
  C   C398      1.0  0.25876  0.32552  0.45411  1.0000
  H   H327      1.0  0.45147  0.20664  0.13020  1.0000
  H   H328      1.0  0.37719  0.44228  0.27793  1.0000
  H   H329      1.0  0.43583  0.28395  0.21822  1.0000
  C   C399      1.0  0.41972  0.25341  0.15489  1.0000
  C   C400      1.0  0.40772  0.06063  0.37112  1.0000
  H   H330      1.0  0.35294  0.06918  0.41105  1.0000
  C   C401      1.0  0.45658  0.06622  0.39289  1.0000
  C   C402      1.0  0.45492  0.06134  0.41462  1.0000
  C   C403      1.0  0.46295  0.04766  0.46463  1.0000
  C   C404      1.0  0.39743  0.40803  0.00269  1.0000
  C   C405      1.0  0.45680  0.39553  0.13817  1.0000
  C   C406      1.0  0.46905  0.08859  0.29763  1.0000
  C   C407      1.0  0.39468  0.46861  0.09617  1.0000
  C   C408      1.0  0.48317  0.04375  0.45588  1.0000
  H   H331      1.0  0.45793  0.05360  0.38170  1.0000
  H   H332      1.0  0.45479  0.04490  0.41990  1.0000
  C   C409      1.0  0.46688  0.07881  0.31780  1.0000
  C   C410      1.0  0.36936  0.48223  0.35884  1.0000
  H   H333      1.0  0.38892  0.48061  0.10687  1.0000
  S   S58       1.0  0.45266  0.35386  0.01385  1.0000
  C   C411      1.0  0.45385  0.27400  0.45977  1.0000
  C   C412      1.0  0.39760  0.44780  0.10366  1.0000
  C   C413      1.0  0.47392  0.05792  0.32122  1.0000
  H   H334      1.0  0.40531  0.34095  0.19549  1.0000
  C   C414      1.0  0.30304  0.08439  0.42478  1.0000
  S   S59       1.0  0.48150  0.99675  0.34411  1.0000
  C   C415      1.0  0.44090  0.24978  0.15999  1.0000
  H   H335      1.0  0.37744  0.40599  0.06439  1.0000
  H   H336      1.0  0.27136  0.26918  0.37968  1.0000
  C   C416      1.0  0.47772  0.27600  0.16712  1.0000
  C   C417      1.0  0.47527  0.46408  0.20732  1.0000
  C   C418      1.0  0.44314  0.12381  0.31498  1.0000
  C   C419      1.0  0.42105  0.12413  0.31458  1.0000
  C   C420      1.0  0.40907  0.13183  0.33176  1.0000
  C   C421      1.0  0.41905  0.13912  0.34939  1.0000
  C   C422      1.0  0.44095  0.13865  0.34995  1.0000
  C   C423      1.0  0.45297  0.13092  0.33290  1.0000
  C   C424      1.0  0.29866  0.44004  0.07574  1.0000
  C   C425      1.0  0.25370  0.47366  0.27399  1.0000
  C   C426      1.0  0.47334  0.39110  0.12380  1.0000
  C   C427      1.0  0.44193  0.22799  0.23090  1.0000
  H   H337      1.0  0.45281  0.14574  0.25682  1.0000
  C   C428      1.0  0.25530  0.33499  0.49104  1.0000
  C   C429      1.0  0.43129  0.13172  0.23639  1.0000
  C   C430      1.0  0.26669  0.48782  0.26244  1.0000
  C   C431      1.0  0.43284  0.40070  0.10904  1.0000
  C   C432      1.0  0.32585  0.09417  0.47641  1.0000
  H   H338      1.0  0.37290  0.46793  0.36806  1.0000
  H   H339      1.0  0.41305  0.11881  0.30097  1.0000
  H   H340      1.0  0.39206  0.13257  0.33126  1.0000
  H   H341      1.0  0.46995  0.13089  0.33349  1.0000
  S   S60       1.0  0.36507  0.48544  0.02780  1.0000
  C   C433      1.0  0.30942  0.42144  0.08247  1.0000
  C   C434      1.0  0.43340  0.26351  0.43036  1.0000
  C   C435      1.0  0.24775  0.39035  0.41809  1.0000
  H   H342      1.0  0.34315  0.47639  0.06716  1.0000
  C   C436      1.0  0.45215  0.23259  0.15131  1.0000
  C   C437      1.0  0.49167  0.28612  0.17995  1.0000
  H   H343      1.0  0.29595  0.29968  0.48395  1.0000
  C   C438      1.0  0.32304  0.11472  0.41318  1.0000
  C   C439      1.0  0.35078  0.16451  0.34885  1.0000
  H   H344      1.0  0.42569  0.36309  0.08857  1.0000
  H   H345      1.0  0.43985  0.48228  0.11648  1.0000
  H   H346      1.0  0.31985  0.05446  0.42459  1.0000
  H   H347      1.0  0.45660  0.25912  0.26235  1.0000
  H   H348      1.0  0.44564  0.46233  0.08388  1.0000
  H   H349      1.0  0.48239  0.45508  0.02650  1.0000
  H   H350      1.0  0.42382  0.24518  0.20755  1.0000
  C   C440      1.0  0.24616  0.39235  0.07704  1.0000
  C   C441      1.0  0.33967  0.14581  0.34976  1.0000
  H   H351      1.0  0.33867  0.41650  0.13820  1.0000
  C   C442      1.0  0.44622  0.27801  0.43945  1.0000
  C   C443      1.0  0.46915  0.44301  0.20792  1.0000
  Fe  Fe25      1.0  0.47021  0.38397  0.01260  1.0000
  H   H352      1.0  0.43936  0.03637  0.48747  1.0000
  S   S61       1.0  0.36200  0.43327  0.99873  1.0000
  H   H353      1.0  0.46394  0.21313  0.25245  1.0000
  H   H354      1.0  0.30279  0.46537  0.31880  1.0000
  C   C444      1.0  0.44344  0.13212  0.25446  1.0000
  C   C445      1.0  0.39741  0.99832  0.43475  1.0000
  H   H355      1.0  0.35970  0.06432  0.46322  1.0000
  C   C446      1.0  0.40742  0.08685  0.46416  1.0000
  H   H356      1.0  0.48815  0.28773  0.19673  1.0000
  C   C447      1.0  0.27709  0.18046  0.49025  1.0000
  C   C448      1.0  0.37512  0.37800  0.15045  1.0000
  H   H357      1.0  0.26856  0.41246  0.06117  1.0000
  H   H358      1.0  0.45621  0.32232  0.11262  1.0000
  C   C449      1.0  0.45577  0.08723  0.38559  1.0000
  P   P13       1.0  0.45907  0.11521  0.29257  1.0000
  C   C450      1.0  0.45285  0.07755  0.42920  1.0000
  C   C451      1.0  0.47756  0.47492  0.18771  1.0000
  C   C452      1.0  0.47736  0.24355  0.20908  1.0000
  C   C453      1.0  0.43106  0.29393  0.20491  1.0000
  C   C454      1.0  0.41023  0.24049  0.14064  1.0000
  H   H359      1.0  0.42075  0.03618  0.45206  1.0000
  H   H360      1.0  0.39095  0.07872  0.41888  1.0000
  H   H361      1.0  0.44862  0.14489  0.36337  1.0000
  C   C455      1.0  0.48016  0.28246  0.26480  1.0000
  C   C456      1.0  0.37779  0.14084  0.45594  1.0000
  H   H362      1.0  0.42695  0.14184  0.43354  1.0000
  C   C457      1.0  0.47466  0.25294  0.29047  1.0000
  C   C458      1.0  0.40406  0.43189  0.08974  1.0000
  C   C459      1.0  0.45331  0.10341  0.39999  1.0000
  Fe  Fe26      1.0  0.36496  0.19749  0.49230  1.0000
  H   H363      1.0  0.35163  0.46142  0.10251  1.0000
  C   C460      1.0  0.45872  0.09153  0.47303  1.0000
  C   C461      1.0  0.41456  0.47109  0.17207  1.0000
  C   C462      1.0  0.28304  0.31051  0.47997  1.0000
  H   H364      1.0  0.47688  0.22108  0.46437  1.0000
  H   H365      1.0  0.45257  0.11970  0.39431  1.0000
  H   H366      1.0  0.30675  0.47793  0.27938  1.0000
  C   C463      1.0  0.27539  0.28375  0.38684  1.0000
  C   C464      1.0  0.42040  0.06907  0.46001  1.0000
  H   H367      1.0  0.48683  0.12615  0.42384  1.0000
  H   H368      1.0  0.42100  0.34009  0.05871  1.0000
  H   H369      1.0  0.44734  0.39769  0.07773  1.0000
  C   C465      1.0  0.36736  0.13124  0.43980  1.0000
  H   H370      1.0  0.48607  0.09663  0.45261  1.0000
  C   C466      1.0  0.40025  0.12820  0.41956  1.0000
  H   H371      1.0  0.32973  0.45217  0.03233  1.0000
  H   H372      1.0  0.37227  0.38217  0.03501  1.0000
  C   C467      1.0  0.35934  0.13352  0.38043  1.0000
  H   H373      1.0  0.49366  0.11013  0.36741  1.0000
  H   H374      1.0  0.41710  0.04784  0.36437  1.0000
  H   H375      1.0  0.41046  0.26612  0.16186  1.0000
  C   C468      1.0  0.38931  0.04815  0.45767  1.0000
  H   H376      1.0  0.32874  0.09457  0.45949  1.0000
  H   H377      1.0  0.46836  0.22928  0.15546  1.0000
  Fe  Fe27      1.0  0.31205  0.48944  0.22146  1.0000
  C   C469      1.0  0.39807  0.07582  0.35788  1.0000
  H   H378      1.0  0.47498  0.33035  0.14520  1.0000
  H   H379      1.0  0.26783  0.46547  0.33666  1.0000
  C   C470      1.0  0.29457  0.45541  0.14892  1.0000
  C   C471      1.0  0.38987  0.38184  0.13404  1.0000
  C   C472      1.0  0.43201  0.30329  0.16740  1.0000
  C   C473      1.0  0.48198  0.27546  0.14518  1.0000
  C   C474      1.0  0.40848  0.43735  0.06837  1.0000
  H   H380      1.0  0.32374  0.13162  0.41042  1.0000
  H   H381      1.0  0.45992  0.08718  0.33097  1.0000
  H   H382      1.0  0.45050  0.42780  0.28490  1.0000
  C   C475      1.0  0.47825  0.07708  0.28095  1.0000
  H   H383      1.0  0.33016  0.12767  0.47943  1.0000
  C   C476      1.0  0.38660  0.39868  0.11940  1.0000
  H   H384      1.0  0.41515  0.31638  0.22510  1.0000
  P   P14       1.0  0.36531  0.11309  0.40014  1.0000
  C   C477      1.0  0.34093  0.10164  0.40955  1.0000
  Fe  Fe28      1.0  0.47739  0.34232  0.03657  1.0000
  H   H385      1.0  0.38225  0.15542  0.39072  1.0000
  H   H386      1.0  0.41874  0.43835  0.16480  1.0000
  C   C478      1.0  0.37026  0.15243  0.37951  1.0000
  H   H387      1.0  0.41800  0.23398  0.43456  1.0000
  C   C479      1.0  0.42363  0.44198  0.00763  1.0000
  H   H388      1.0  0.46068  0.16100  0.29588  1.0000
  S   S62       1.0  0.48943  0.38101  0.19300  1.0000
  H   H389      1.0  0.36908  0.14616  0.46989  1.0000
  C   C480      1.0  0.24821  0.33661  0.47031  1.0000
  C   C481      1.0  0.41931  0.31243  0.20892  1.0000
  C   C482      1.0  0.48035  0.33422  0.09119  1.0000
  C   C483      1.0  0.38269  0.09321  0.38864  1.0000
  H   H390      1.0  0.41224  0.04963  0.40327  1.0000
  H   H391      1.0  0.44852  0.45257  0.04621  1.0000
  Fe  Fe29      1.0  0.35619  0.46821  0.99922  1.0000
  C   C484      1.0  0.40504  0.06173  0.39308  1.0000
  C   C485      1.0  0.42095  0.45446  0.15923  1.0000
  S   S63       1.0  0.48944  0.01820  0.39018  1.0000
  H   H392      1.0  0.25373  0.45735  0.26957  1.0000
  C   C486      1.0  0.33460  0.48551  0.11971  1.0000
  H   H393      1.0  0.40011  0.07480  0.34086  1.0000
  C   C487      1.0  0.33768  0.47675  0.29280  1.0000
  S   S64       1.0  0.28225  0.47852  0.24021  1.0000
  C   C488      1.0  0.47136  0.32961  0.11132  1.0000
  H   H394      1.0  0.29850  0.46551  0.05182  1.0000
  C   C489      1.0  0.33957  0.07980  0.41349  1.0000
  C   C490      1.0  0.36609  0.16778  0.36370  1.0000
  C   C491      1.0  0.45718  0.24929  0.20200  1.0000
  C   C492      1.0  0.38540  0.09193  0.36656  1.0000
  C   C493      1.0  0.43669  0.40064  0.13085  1.0000
  H   H395      1.0  0.47618  0.47305  0.15385  1.0000
  C   C494      1.0  0.46372  0.45038  0.26249  1.0000
  H   H396      1.0  0.43539  0.44577  0.12940  1.0000
  Fe  Fe30      1.0  0.48176  0.32762  0.22479  1.0000
  H   H397      1.0  0.29054  0.11627  0.42398  1.0000
  C   C495      1.0  0.43735  0.28912  0.18408  1.0000
  H   H398      1.0  0.48989  0.05443  0.44403  1.0000
  H   H399      1.0  0.48524  0.41493  0.29777  1.0000
  C   C496      1.0  0.47424  0.46467  0.16893  1.0000
  C   C497      1.0  0.38690  0.39159  0.06339  1.0000
  C   C498      1.0  0.43950  0.24112  0.21287  1.0000
  C   C499      1.0  0.34579  0.44266  0.26625  1.0000
  H   H400      1.0  0.47095  0.26895  0.13464  1.0000
  C   C500      1.0  0.46222  0.45758  0.05424  1.0000
  C   C501      1.0  0.30624  0.45114  0.05760  1.0000
  C   C502      1.0  0.47811  0.21313  0.47976  1.0000
  C   C503      1.0  0.43041  0.45866  0.13935  1.0000
  C   C504      1.0  0.35676  0.39058  0.15207  1.0000
  S   S65       1.0  0.34211  0.47424  0.14452  1.0000
  C   C505      1.0  0.46934  0.26430  0.27164  1.0000
  C   C506      1.0  0.41411  0.36770  0.07693  1.0000
  H   H401      1.0  0.43740  0.30029  0.15131  1.0000
  P   P15       1.0  0.45351  0.26595  0.17854  1.0000
  H   H402      1.0  0.37820  0.36556  0.16223  1.0000
  C   C507      1.0  0.43313  0.47946  0.13215  1.0000
  C   C508      1.0  0.38391  0.37809  0.04676  1.0000
  H   H403      1.0  0.34753  0.17649  0.33668  1.0000
  H   H404      1.0  0.39443  0.34947  0.03172  1.0000
  H   H405      1.0  0.31385  0.44778  0.25637  1.0000
  C   C509      1.0  0.48195  0.33422  0.12981  1.0000
  C   C510      1.0  0.28044  0.47062  0.15692  1.0000
  H   H406      1.0  0.40973  0.11399  0.21882  1.0000
  C   C511      1.0  0.27767  0.45793  0.11486  1.0000
  C   C512      1.0  0.26804  0.48887  0.07262  1.0000
  H   H407      1.0  0.48202  0.49127  0.18694  1.0000
  C   C513      1.0  0.47860  0.46912  0.08580  1.0000
  H   H408      1.0  0.47710  0.47375  0.10212  1.0000
  H   H409      1.0  0.42522  0.38849  0.00727  1.0000
  C   C514      1.0  0.46838  0.44362  0.16967  1.0000
  C   C515      1.0  0.35549  0.48178  0.34210  1.0000
  H   H410      1.0  0.45627  0.99776  0.41694  1.0000
  C   C516      1.0  0.47622  0.15515  0.29110  1.0000
  H   H411      1.0  0.30359  0.41223  0.09599  1.0000
  C   C517      1.0  0.46548  0.43294  0.18912  1.0000
  P   P16       1.0  0.27400  0.44791  0.08875  1.0000
  H   H412      1.0  0.25693  0.25770  0.46975  1.0000
  H   H413      1.0  0.30686  0.44881  0.15888  1.0000
  H   H414      1.0  0.37549  0.09856  0.46919  1.0000
  C   C518      1.0  0.42169  0.22372  0.13166  1.0000
  H   H415      1.0  0.40717  0.46791  0.18748  1.0000
  H   H416      1.0  0.28866  0.07768  0.43127  1.0000
  H   H417      1.0  0.46719  0.43420  0.22276  1.0000
  C   C519      1.0  0.48843  0.19338  0.48097  1.0000
  C   C520      1.0  0.48345  0.04676  0.30466  1.0000
  H   H418      1.0  0.44846  0.45553  0.25682  1.0000
  C   C521      1.0  0.48558  0.05631  0.28452  1.0000
  C   C522      1.0  0.44261  0.21972  0.13707  1.0000
  C   C523      1.0  0.48026  0.13346  0.28858  1.0000
  H   H419      1.0  0.46615  0.23907  0.29545  1.0000
  C   C524      1.0  0.46479  0.43470  0.27849  1.0000
  S   S66       1.0  0.43150  0.00803  0.38047  1.0000
  H   H420      1.0  0.37045  0.47248  0.30095  1.0000
  C   C525      1.0  0.33472  0.42531  0.05327  1.0000
  Fe  Fe31      1.0  0.33633  0.48691  0.17773  1.0000
  H   H421      1.0  0.48954  0.03081  0.30758  1.0000
  H   H422      1.0  0.43680  0.48078  0.21554  1.0000
  C   C526      1.0  0.29340  0.44925  0.12793  1.0000
  H   H423      1.0  0.47264  0.05048  0.33688  1.0000
  P   P17       1.0  0.48014  0.47753  0.23128  1.0000
  C   C527      1.0  0.44347  0.11503  0.26915  1.0000
  C   C528      1.0  0.26106  0.46813  0.07259  1.0000
  C   C529      1.0  0.48647  0.01161  0.47732  1.0000
  C   C530      1.0  0.34206  0.47572  0.10125  1.0000
  H   H424      1.0  0.34825  0.46709  0.33862  1.0000
  C   C531      1.0  0.33716  0.48417  0.08109  1.0000
  H   H425      1.0  0.49310  0.04760  0.27176  1.0000
  H   H426      1.0  0.43141  0.14491  0.22506  1.0000
  Fe  Fe32      1.0  0.48959  0.21672  0.34719  1.0000
  C   C532      1.0  0.49093  0.25966  0.30287  1.0000
  C   C533      1.0  0.32153  0.07487  0.48702  1.0000
  H   H427      1.0  0.47992  0.08422  0.26521  1.0000
  C   C534      1.0  0.26090  0.29387  0.40049  1.0000
  Fe  Fe33      1.0  0.46538  0.99831  0.37604  1.0000
  C   C535      1.0  0.48220  0.45884  0.25341  1.0000
  H   H428      1.0  0.28086  0.49282  0.08249  1.0000
  C   C536      1.0  0.45478  0.03361  0.48019  1.0000
  C   C537      1.0  0.47972  0.23054  0.22721  1.0000
  H   H429      1.0  0.28938  0.15106  0.47813  1.0000
  C   C538      1.0  0.27646  0.47991  0.33506  1.0000
  H   H430      1.0  0.25135  0.40408  0.42690  1.0000
  H   H431      1.0  0.38737  0.39489  0.00052  1.0000
  H   H432      1.0  0.48933  0.18612  0.29067  1.0000
  C   C539      1.0  0.25856  0.41017  0.07520  1.0000
  C   C540      1.0  0.25794  0.42495  0.09130  1.0000
  C   C541      1.0  0.25009  0.37019  0.42750  1.0000
  H   H433      1.0  0.38101  0.99833  0.43968  1.0000
  C   C542      1.0  0.49236  0.16949  0.28800  1.0000
  C   C543      1.0  0.43985  0.99796  0.42177  1.0000
  P   P18       1.0  0.24799  0.32600  0.42793  1.0000
  C   C544      1.0  0.26318  0.47288  0.12324  1.0000
  C   C545      1.0  0.28061  0.15862  0.49089  1.0000
  C   C546      1.0  0.24455  0.35236  0.41655  1.0000
  C   C547      1.0  0.24460  0.46333  0.05937  1.0000
  H   H434      1.0  0.24574  0.28695  0.40351  1.0000
  H   H435      1.0  0.25052  0.47946  0.11379  1.0000
  H   H436      1.0  0.28172  0.47565  0.17307  1.0000
  C   C548      1.0  0.41721  0.49189  0.16491  1.0000
  C   C549      1.0  0.24463  0.42172  0.10917  1.0000
  H   H437      1.0  0.25375  0.49114  0.15033  1.0000
  S   S67       1.0  0.49313  0.37319  0.03701  1.0000
  C   C550      1.0  0.45766  0.49444  0.23768  1.0000
  H   H438      1.0  0.46084  0.25584  0.54285  1.0000
  H   H439      1.0  0.44052  0.10458  0.61687  1.0000
  C   C551      1.0  0.43195  0.40932  0.91239  1.0000
  C   C552      1.0  0.48318  0.19235  0.51906  1.0000
  C   C553      1.0  0.38966  0.43851  0.87289  1.0000
  H   H440      1.0  0.29537  0.46651  0.71452  1.0000
  H   H441      1.0  0.44798  0.44444  0.89149  1.0000
  C   C554      1.0  0.44496  0.14696  0.61776  1.0000
  H   H442      1.0  0.37563  0.38717  0.75722  1.0000
  C   C555      1.0  0.37957  0.04249  0.62876  1.0000
  C   C556      1.0  0.27298  0.36843  0.79041  1.0000
  C   C557      1.0  0.31808  0.09333  0.52004  1.0000
  C   C558      1.0  0.48666  0.28830  0.74919  1.0000
  H   H443      1.0  0.46648  0.32544  0.88073  1.0000
  H   H444      1.0  0.34738  0.31228  0.74653  1.0000
  S   S68       1.0  0.31702  0.00014  0.51251  1.0000
  H   H445      1.0  0.48543  0.18451  0.53436  1.0000
  S   S69       1.0  0.35331  0.00225  0.56215  1.0000
  S   S70       1.0  0.36429  0.17755  0.52219  1.0000
  C   C559      1.0  0.48114  0.26678  0.50027  1.0000
  Fe  Fe34      1.0  0.34918  0.20549  0.53737  1.0000
  S   S71       1.0  0.35872  0.21345  0.57040  1.0000
  S   S72       1.0  0.31643  0.19559  0.53089  1.0000
  Fe  Fe35      1.0  0.35945  0.48188  0.78275  1.0000
  S   S73       1.0  0.32910  0.46811  0.79470  1.0000
  S   S74       1.0  0.38915  0.46499  0.77073  1.0000
  Fe  Fe36      1.0  0.45182  0.36344  0.80354  1.0000
  S   S75       1.0  0.46285  0.33262  0.81889  1.0000
  S   S76       1.0  0.41752  0.37383  0.80501  1.0000
  C   C560      1.0  0.47859  0.15720  0.57770  1.0000
  S   S77       1.0  0.47939  0.03069  0.61990  1.0000
  H   H446      1.0  0.27416  0.16481  0.57379  1.0000
  H   H447      1.0  0.34518  0.39919  0.86834  1.0000
  S   S78       1.0  0.47473  0.38281  0.81982  1.0000
  S   S79       1.0  0.47196  0.35976  0.77405  1.0000
  Fe  Fe37      1.0  0.47824  0.22904  0.66707  1.0000
  C   C561      1.0  0.42901  0.25740  0.55453  1.0000
  S   S80       1.0  0.46747  0.25771  0.68688  1.0000
  H   H448      1.0  0.38232  0.40005  0.91116  1.0000
  C   C562      1.0  0.26294  0.15637  0.52534  1.0000
  Fe  Fe38      1.0  0.31987  0.21443  0.50029  1.0000
  Fe  Fe39      1.0  0.46932  0.21103  0.62325  1.0000
  S   S81       1.0  0.45607  0.21275  0.59012  1.0000
  S   S82       1.0  0.45542  0.20496  0.65609  1.0000
  C   C563      1.0  0.40977  0.00452  0.58928  1.0000
  C   C564      1.0  0.47141  0.29787  0.73621  1.0000
  C   C565      1.0  0.46593  0.28837  0.71723  1.0000
  C   C566      1.0  0.47562  0.26922  0.71080  1.0000
  H   H449      1.0  0.48376  0.08059  0.60545  1.0000
  H   H450      1.0  0.37722  0.36458  0.79294  1.0000
  H   H451      1.0  0.46357  0.31236  0.74100  1.0000
  H   H452      1.0  0.45395  0.29582  0.70750  1.0000
  H   H453      1.0  0.31339  0.03355  0.55874  1.0000
  C   C567      1.0  0.26522  0.37152  0.77004  1.0000
  C   C568      1.0  0.39759  0.44044  0.78194  1.0000
  C   C569      1.0  0.41726  0.43171  0.77563  1.0000
  C   C570      1.0  0.42390  0.41161  0.78327  1.0000
  C   C571      1.0  0.41070  0.39993  0.79692  1.0000
  C   C572      1.0  0.39125  0.40882  0.80358  1.0000
  C   C573      1.0  0.38475  0.42908  0.79625  1.0000
  H   H454      1.0  0.42734  0.44049  0.76469  1.0000
  H   H455      1.0  0.43907  0.40498  0.77832  1.0000
  H   H456      1.0  0.38119  0.39996  0.81441  1.0000
  H   H457      1.0  0.36967  0.43578  0.80129  1.0000
  H   H458      1.0  0.36666  0.12661  0.55766  1.0000
  H   H459      1.0  0.36174  0.16398  0.56577  1.0000
  H   H460      1.0  0.26250  0.36371  0.80343  1.0000
  H   H461      1.0  0.45525  0.45887  0.96908  1.0000
  C   C574      1.0  0.38576  0.21163  0.57619  1.0000
  C   C575      1.0  0.39220  0.21660  0.59646  1.0000
  C   C576      1.0  0.41370  0.21623  0.60123  1.0000
  C   C577      1.0  0.42890  0.21112  0.58565  1.0000
  C   C578      1.0  0.42244  0.20592  0.56546  1.0000
  C   C579      1.0  0.40096  0.20598  0.56078  1.0000
  H   H462      1.0  0.38054  0.22102  0.60845  1.0000
  H   H463      1.0  0.41853  0.22039  0.61679  1.0000
  H   H464      1.0  0.43409  0.20240  0.55320  1.0000
  H   H465      1.0  0.39624  0.20239  0.54503  1.0000
  C   C580      1.0  0.39464  0.00061  0.54862  1.0000
  H   H466      1.0  0.45359  0.31483  0.91712  1.0000
  C   C581      1.0  0.47265  0.33266  0.89443  1.0000
  Fe  Fe40      1.0  0.47550  0.34378  0.98781  1.0000
  C   C582      1.0  0.27658  0.25867  0.51900  1.0000
  C   C583      1.0  0.26171  0.27299  0.52809  1.0000
  H   H467      1.0  0.28942  0.25217  0.52824  1.0000
  C   C584      1.0  0.26772  0.44840  0.67027  1.0000
  H   H468      1.0  0.35927  0.04351  0.60231  1.0000
  C   C585      1.0  0.36044  0.43611  0.73973  1.0000
  H   H469      1.0  0.42718  0.00002  0.53822  1.0000
  C   C586      1.0  0.33437  0.44348  0.68465  1.0000
  H   H470      1.0  0.39723  0.39256  0.85175  1.0000
  H   H471      1.0  0.46709  0.21900  0.53250  1.0000
  C   C587      1.0  0.24747  0.42495  0.75103  1.0000
  Fe  Fe41      1.0  0.48494  0.33029  0.79016  1.0000
  H   H472      1.0  0.40217  0.15675  0.50238  1.0000
  H   H473      1.0  0.34775  0.04815  0.56504  1.0000
  H   H474      1.0  0.31774  0.42246  0.77002  1.0000
  H   H475      1.0  0.47656  0.07961  0.53565  1.0000
  H   H476      1.0  0.34751  0.10956  0.62195  1.0000
  H   H477      1.0  0.34903  0.36238  0.85683  1.0000
  H   H478      1.0  0.45978  0.00449  0.49792  1.0000
  C   C588      1.0  0.45565  0.08321  0.66372  1.0000
  H   H479      1.0  0.38968  0.12604  0.52376  1.0000
  H   H480      1.0  0.33681  0.42813  0.84227  1.0000
  H   H481      1.0  0.33143  0.45232  0.74826  1.0000
  C   C589      1.0  0.48239  0.38998  0.72640  1.0000
  C   C590      1.0  0.46083  0.39983  0.93552  1.0000
  C   C591      1.0  0.44968  0.40861  0.95261  1.0000
  H   H482      1.0  0.46734  0.16939  0.58259  1.0000
  H   H483      1.0  0.42720  0.09684  0.67747  1.0000
  H   H484      1.0  0.40406  0.15394  0.58421  1.0000
  C   C592      1.0  0.37279  0.41771  0.74232  1.0000
  C   C593      1.0  0.46539  0.32669  0.91502  1.0000
  H   H485      1.0  0.43905  0.06635  0.62326  1.0000
  C   C594      1.0  0.30525  0.36126  0.69365  1.0000
  H   H486      1.0  0.27263  0.43605  0.76947  1.0000
  C   C595      1.0  0.36954  0.05255  0.61162  1.0000
  C   C596      1.0  0.41771  0.25150  0.51275  1.0000
  H   H487      1.0  0.40108  0.04578  0.65414  1.0000
  C   C597      1.0  0.25906  0.17828  0.52466  1.0000
  C   C598      1.0  0.33300  0.42078  0.76209  1.0000
  C   C599      1.0  0.34544  0.37495  0.84537  1.0000
  H   H488      1.0  0.38330  0.30646  0.76035  1.0000
  C   C600      1.0  0.40219  0.25351  0.52877  1.0000
  C   C601      1.0  0.46982  0.46015  0.93775  1.0000
  S   S83       1.0  0.48343  0.14771  0.67425  1.0000
  C   C602      1.0  0.46168  0.44779  0.83916  1.0000
  S   S84       1.0  0.35169  0.22647  0.50813  1.0000
  C   C603      1.0  0.35019  0.35673  0.77519  1.0000
  C   C604      1.0  0.31665  0.48284  0.89731  1.0000
  H   H489      1.0  0.48050  0.13561  0.50688  1.0000
  H   H490      1.0  0.25836  0.14685  0.53913  1.0000
  S   S85       1.0  0.44011  0.00320  0.63915  1.0000
  C   C605      1.0  0.40781  0.25647  0.54963  1.0000
  C   C606      1.0  0.39677  0.07480  0.63600  1.0000
  C   C607      1.0  0.33857  0.41197  0.83720  1.0000
  Fe  Fe42      1.0  0.34850  0.99956  0.52743  1.0000
  H   H491      1.0  0.27696  0.12975  0.50925  1.0000
  C   C608      1.0  0.32537  0.35818  0.70174  1.0000
  H   H492      1.0  0.47518  0.04055  0.53493  1.0000
  H   H493      1.0  0.38575  0.25229  0.52513  1.0000
  S   S86       1.0  0.28321  0.48396  0.75711  1.0000
  C   C609      1.0  0.26856  0.19727  0.56332  1.0000
  C   C610      1.0  0.30000  0.38064  0.75688  1.0000
  C   C611      1.0  0.29392  0.22191  0.57513  1.0000
  C   C612      1.0  0.30424  0.20560  0.58644  1.0000
  C   C613      1.0  0.29693  0.18509  0.58607  1.0000
  C   C614      1.0  0.27921  0.18090  0.57449  1.0000
  C   C615      1.0  0.44293  0.09990  0.67140  1.0000
  C   C616      1.0  0.35380  0.32377  0.75667  1.0000
  H   H494      1.0  0.46276  0.41384  0.74125  1.0000
  C   C617      1.0  0.48839  0.34748  0.89172  1.0000
  H   H495      1.0  0.27278  0.37988  0.73746  1.0000
  C   C618      1.0  0.38047  0.00222  0.56590  1.0000
  H   H496      1.0  0.44125  0.13252  0.68008  1.0000
  H   H497      1.0  0.33782  0.42981  0.67520  1.0000
  H   H498      1.0  0.31832  0.20878  0.59491  1.0000
  H   H499      1.0  0.30537  0.17234  0.59424  1.0000
  C   C619      1.0  0.34932  0.45914  0.68545  1.0000
  C   C620      1.0  0.34495  0.47714  0.69719  1.0000
  C   C621      1.0  0.32547  0.47967  0.70770  1.0000
  C   C622      1.0  0.31053  0.46406  0.70682  1.0000
  C   C623      1.0  0.31517  0.44546  0.69609  1.0000
  H   H500      1.0  0.36427  0.45738  0.67694  1.0000
  P   P19       1.0  0.29582  0.42529  0.69502  1.0000
  C   C624      1.0  0.48411  0.10780  0.65779  1.0000
  Fe  Fe43      1.0  0.33205  0.16863  0.51360  1.0000
  H   H501      1.0  0.29999  0.36867  0.80988  1.0000
  H   H502      1.0  0.36669  0.44956  0.73091  1.0000
  C   C625      1.0  0.25138  0.48139  0.72836  1.0000
  S   S87       1.0  0.45115  0.00382  0.57537  1.0000
  S   S88       1.0  0.32119  0.47981  0.85407  1.0000
  C   C626      1.0  0.42388  0.36469  0.89005  1.0000
  H   H503      1.0  0.34452  0.35413  0.81945  1.0000
  C   C627      1.0  0.44876  0.44034  0.87499  1.0000
  C   C628      1.0  0.43338  0.14512  0.59935  1.0000
  C   C629      1.0  0.37889  0.41342  0.90058  1.0000
  H   H504      1.0  0.40529  0.32565  0.86069  1.0000
  P   P20       1.0  0.33560  0.38070  0.78155  1.0000
  H   H505      1.0  0.29644  0.34783  0.68919  1.0000
  H   H506      1.0  0.32183  0.49375  0.71654  1.0000
  H   H507      1.0  0.44824  0.11743  0.51866  1.0000
  H   H508      1.0  0.47097  0.45717  0.82795  1.0000
  C   C630      1.0  0.27624  0.21776  0.56347  1.0000
  C   C631      1.0  0.38236  0.33518  0.77759  1.0000
  C   C632      1.0  0.27499  0.25303  0.49790  1.0000
  C   C633      1.0  0.41633  0.00112  0.55167  1.0000
  H   H509      1.0  0.32637  0.34421  0.75564  1.0000
  H   H510      1.0  0.26906  0.23042  0.55411  1.0000
  H   H511      1.0  0.34297  0.14731  0.62964  1.0000
  C   C634      1.0  0.37403  0.32044  0.76447  1.0000
  H   H512      1.0  0.26313  0.27721  0.54442  1.0000
  C   C635      1.0  0.41655  0.16788  0.63356  1.0000
  C   C636      1.0  0.41039  0.15156  0.51645  1.0000
  C   C637      1.0  0.45639  0.11292  0.50421  1.0000
  C   C638      1.0  0.44259  0.06693  0.56970  1.0000
  C   C639      1.0  0.44071  0.05900  0.59046  1.0000
  C   C640      1.0  0.44001  0.07271  0.60722  1.0000
  C   C641      1.0  0.44078  0.09447  0.60340  1.0000
  C   C642      1.0  0.44207  0.10270  0.58253  1.0000
  C   C643      1.0  0.44307  0.08871  0.56570  1.0000
  P   P21       1.0  0.44454  0.13070  0.57733  1.0000
  C   C644      1.0  0.43098  0.13898  0.55362  1.0000
  C   C645      1.0  0.43764  0.15663  0.54151  1.0000
  C   C646      1.0  0.42737  0.16287  0.52299  1.0000
  S   S89       1.0  0.32430  0.48410  0.99623  1.0000
  C   C647      1.0  0.40333  0.13427  0.52860  1.0000
  C   C648      1.0  0.41343  0.12810  0.54726  1.0000
  C   C649      1.0  0.47202  0.13679  0.57401  1.0000
  C   C650      1.0  0.25607  0.41947  0.71396  1.0000
  C   C651      1.0  0.46929  0.45532  0.95951  1.0000
  C   C652      1.0  0.30791  0.37773  0.77729  1.0000
  H   H513      1.0  0.44350  0.05605  0.55683  1.0000
  H   H514      1.0  0.43988  0.04220  0.59371  1.0000
  H   H515      1.0  0.44429  0.09460  0.54951  1.0000
  H   H516      1.0  0.45046  0.16589  0.54651  1.0000
  H   H517      1.0  0.45630  0.40791  0.96824  1.0000
  C   C653      1.0  0.47460  0.12322  0.49750  1.0000
  H   H518      1.0  0.45131  0.42717  0.81543  1.0000
  H   H519      1.0  0.40743  0.11500  0.55677  1.0000
  Fe  Fe44      1.0  0.48237  0.18110  0.65964  1.0000
  C   C654      1.0  0.34060  0.43768  0.74965  1.0000
  C   C655      1.0  0.47613  0.08737  0.65628  1.0000
  C   C656      1.0  0.26808  0.43092  0.75409  1.0000
  S   S90       1.0  0.44552  0.05737  0.66507  1.0000
  C   C657      1.0  0.34532  0.40223  0.76489  1.0000
  H   H520      1.0  0.43338  0.25885  0.57087  1.0000
  C   C658      1.0  0.33617  0.40746  0.81591  1.0000
  C   C659      1.0  0.36534  0.40085  0.75489  1.0000
  C   C660      1.0  0.27350  0.14658  0.50842  1.0000
  H   H521      1.0  0.30009  0.23765  0.57481  1.0000
  H   H522      1.0  0.43219  0.17680  0.51390  1.0000
  H   H523      1.0  0.26598  0.45881  0.68351  1.0000
  H   H524      1.0  0.44562  0.15980  0.64882  1.0000
  S   S91       1.0  0.48334  0.00410  0.66555  1.0000
  H   H525      1.0  0.33657  0.40891  0.71091  1.0000
  C   C661      1.0  0.40489  0.16604  0.61536  1.0000
  H   H526      1.0  0.46091  0.39316  0.90240  1.0000
  C   C662      1.0  0.31413  0.04848  0.56654  1.0000
  C   C663      1.0  0.29569  0.05938  0.57275  1.0000
  C   C664      1.0  0.29683  0.07861  0.58275  1.0000
  C   C665      1.0  0.31642  0.08700  0.58654  1.0000
  C   C666      1.0  0.33506  0.07618  0.58027  1.0000
  C   C667      1.0  0.33370  0.05684  0.57023  1.0000
  P   P22       1.0  0.36063  0.08701  0.58410  1.0000
  C   C668      1.0  0.37315  0.07387  0.60647  1.0000
  C   C669      1.0  0.37508  0.08110  0.55984  1.0000
  C   C670      1.0  0.36715  0.08864  0.54047  1.0000
  C   C671      1.0  0.37539  0.08113  0.52134  1.0000
  C   C672      1.0  0.39165  0.06586  0.52132  1.0000
  C   C673      1.0  0.39963  0.05812  0.54049  1.0000
  C   C674      1.0  0.39142  0.06567  0.55970  1.0000
  C   C675      1.0  0.38717  0.08480  0.61860  1.0000
  S   S92       1.0  0.32351  0.13544  0.52468  1.0000
  H   H527      1.0  0.37696  0.02599  0.63253  1.0000
  C   C676      1.0  0.29428  0.37135  0.79402  1.0000
  H   H528      1.0  0.33219  0.34238  0.70349  1.0000
  C   C677      1.0  0.35758  0.11497  0.58921  1.0000
  C   C678      1.0  0.35080  0.12125  0.60952  1.0000
  C   C679      1.0  0.34809  0.14264  0.61393  1.0000
  C   C680      1.0  0.35197  0.15798  0.59809  1.0000
  C   C681      1.0  0.35873  0.15195  0.57793  1.0000
  C   C682      1.0  0.36155  0.13059  0.57345  1.0000
  C   C683      1.0  0.47158  0.12436  0.66621  1.0000
  H   H529      1.0  0.28055  0.05292  0.56969  1.0000
  H   H530      1.0  0.28251  0.08712  0.58741  1.0000
  H   H531      1.0  0.31683  0.10205  0.59399  1.0000
  C   C684      1.0  0.46518  0.35779  0.71835  1.0000
  S   S93       1.0  0.36264  0.02249  0.50397  1.0000
  H   H532      1.0  0.29532  0.40489  0.65332  1.0000
  H   H533      1.0  0.27313  0.41191  0.62225  1.0000
  H   H534      1.0  0.41137  0.04539  0.54053  1.0000
  H   H535      1.0  0.39705  0.05849  0.57432  1.0000
  H   H536      1.0  0.39087  0.10101  0.61462  1.0000
  C   C685      1.0  0.46088  0.45245  0.86064  1.0000
  H   H537      1.0  0.40126  0.44477  0.86171  1.0000
  C   C686      1.0  0.44457  0.25546  0.53856  1.0000
  C   C687      1.0  0.37048  0.35320  0.78295  1.0000
  C   C688      1.0  0.43871  0.41852  0.84641  1.0000
  C   C689      1.0  0.45213  0.40031  0.91543  1.0000
  S   S94       1.0  0.46473  0.32745  0.95866  1.0000
  C   C690      1.0  0.27877  0.37750  0.75326  1.0000
  H   H538      1.0  0.43044  0.40546  0.84040  1.0000
  H   H539      1.0  0.38860  0.41695  0.73546  1.0000
  H   H540      1.0  0.26470  0.20729  0.50678  1.0000
  H   H541      1.0  0.24872  0.36927  0.76726  1.0000
  H   H542      1.0  0.36539  0.46057  0.86224  1.0000
  H   H543      1.0  0.33257  0.42033  0.80492  1.0000
  H   H544      1.0  0.46961  0.46548  0.86613  1.0000
  C   C691      1.0  0.47354  0.33575  0.93294  1.0000
  C   C692      1.0  0.44606  0.36631  0.72621  1.0000
  C   C693      1.0  0.43005  0.41846  0.94952  1.0000
  C   C694      1.0  0.43753  0.42327  0.86799  1.0000
  H   H545      1.0  0.43039  0.39303  0.74065  1.0000
  C   C695      1.0  0.45062  0.43084  0.83209  1.0000
  H   H546      1.0  0.46304  0.28981  0.51839  1.0000
  C   C696      1.0  0.34191  0.34189  0.76195  1.0000
  C   C697      1.0  0.36930  0.44751  0.87307  1.0000
  Fe  Fe45      1.0  0.46110  0.02819  0.65055  1.0000
  C   C698      1.0  0.33663  0.37547  0.70771  1.0000
  H   H547      1.0  0.39097  0.35668  0.84039  1.0000
  H   H548      1.0  0.43467  0.08885  0.49793  1.0000
  C   C699      1.0  0.41325  0.15475  0.59827  1.0000
  H   H549      1.0  0.38960  0.17387  0.61430  1.0000
  C   C700      1.0  0.40372  0.37925  0.86083  1.0000
  C   C701      1.0  0.33873  0.38667  0.80908  1.0000
  C   C702      1.0  0.43654  0.15830  0.63474  1.0000
  C   C703      1.0  0.44507  0.38667  0.73404  1.0000
  C   C704      1.0  0.34303  0.37038  0.82409  1.0000
  H   H550      1.0  0.40616  0.42699  0.92764  1.0000
  C   C705      1.0  0.42127  0.41901  0.92949  1.0000
  H   H551      1.0  0.46054  0.13970  0.61907  1.0000
  C   C706      1.0  0.35389  0.43967  0.88716  1.0000
  C   C707      1.0  0.39464  0.42149  0.88682  1.0000
  H   H552      1.0  0.41025  0.17696  0.64665  1.0000
  H   H553      1.0  0.34989  0.17461  0.60135  1.0000
  H   H554      1.0  0.31454  0.05980  0.51727  1.0000
  C   C708      1.0  0.39985  0.35888  0.85448  1.0000
  H   H555      1.0  0.36823  0.08634  0.50668  1.0000
  H   H556      1.0  0.33813  0.44655  0.88715  1.0000
  P   P23       1.0  0.42053  0.40899  0.88648  1.0000
  H   H557      1.0  0.47605  0.39229  0.93799  1.0000
  C   C709      1.0  0.28172  0.43089  0.67107  1.0000
  C   C710      1.0  0.35871  0.42277  0.90104  1.0000
  C   C711      1.0  0.26655  0.19027  0.50715  1.0000
  H   H558      1.0  0.31025  0.38534  0.74379  1.0000
  H   H559      1.0  0.29835  0.43628  0.73969  1.0000
  H   H560      1.0  0.43298  0.36628  0.90404  1.0000
  C   C712      1.0  0.30787  0.39917  0.69676  1.0000
  H   H561      1.0  0.39812  0.33280  0.78357  1.0000
  C   C713      1.0  0.32271  0.11255  0.50955  1.0000
  C   C714      1.0  0.28412  0.41805  0.65343  1.0000
  C   C715      1.0  0.41617  0.38239  0.87841  1.0000
  C   C716      1.0  0.28267  0.43120  0.73711  1.0000
  H   H562      1.0  0.43216  0.35685  0.72684  1.0000
  H   H563      1.0  0.42151  0.42551  0.96274  1.0000
  H   H564      1.0  0.31483  0.09291  0.53695  1.0000
  H   H565      1.0  0.39576  0.25731  0.56210  1.0000
  Fe  Fe46      1.0  0.48737  0.35209  0.83330  1.0000
  H   H566      1.0  0.45615  0.46749  0.93043  1.0000
  H   H567      1.0  0.34674  0.41682  0.91204  1.0000
  C   C717      1.0  0.40799  0.34142  0.86583  1.0000
  C   C718      1.0  0.41976  0.34433  0.88375  1.0000
  C   C719      1.0  0.34329  0.39572  0.85189  1.0000
  H   H568      1.0  0.42585  0.33078  0.89270  1.0000
  C   C720      1.0  0.27678  0.42572  0.71687  1.0000
  C   C721      1.0  0.38806  0.00402  0.58625  1.0000
  H   H569      1.0  0.48250  0.10549  0.56492  1.0000
  C   C722      1.0  0.45082  0.12028  0.67269  1.0000
  H   H570      1.0  0.27761  0.32009  0.51213  1.0000
  H   H571      1.0  0.35208  0.37307  0.71436  1.0000
  H   H572      1.0  0.40753  0.08325  0.64539  1.0000
  C   C723      1.0  0.31796  0.07451  0.50894  1.0000
  H   H573      1.0  0.35373  0.09949  0.54022  1.0000
  C   C724      1.0  0.26914  0.49253  0.73398  1.0000
  Fe  Fe47      1.0  0.46042  0.00400  0.60947  1.0000
  C   C725      1.0  0.42394  0.00301  0.57201  1.0000
  C   C726      1.0  0.29645  0.38165  0.69133  1.0000
  C   C727      1.0  0.25547  0.45241  0.65255  1.0000
  C   C728      1.0  0.43912  0.25257  0.51747  1.0000
  C   C729      1.0  0.48803  0.31490  0.66795  1.0000
  C   C730      1.0  0.39313  0.05361  0.64096  1.0000
  C   C731      1.0  0.24518  0.28208  0.51620  1.0000
  C   C732      1.0  0.32722  0.49041  0.87886  1.0000
  C   C733      1.0  0.47012  0.22267  0.49823  1.0000
  H   H574      1.0  0.28068  0.38374  0.68539  1.0000
  S   S95       1.0  0.49081  0.37504  0.98491  1.0000
  C   C734      1.0  0.32788  0.39588  0.70540  1.0000
  C   C735      1.0  0.47274  0.21206  0.51791  1.0000
  H   H575      1.0  0.39734  0.05924  0.50654  1.0000
  C   C736      1.0  0.49116  0.25990  0.72359  1.0000
  C   C737      1.0  0.27174  0.42208  0.63569  1.0000
  H   H576      1.0  0.48636  0.44175  0.98581  1.0000
  H   H577      1.0  0.24588  0.46873  0.73869  1.0000
  H   H578      1.0  0.30533  0.47059  0.89618  1.0000
  H   H579      1.0  0.37715  0.00498  0.59964  1.0000
  H   H580      1.0  0.41540  0.00621  0.60495  1.0000
  H   H581      1.0  0.24688  0.34327  0.50356  1.0000
  C   C738      1.0  0.48704  0.12137  0.56776  1.0000
  H   H582      1.0  0.24732  0.44197  0.62182  1.0000
  H   H583      1.0  0.35654  0.48924  0.69799  1.0000
  C   C739      1.0  0.47818  0.28565  0.51114  1.0000
  C   C740      1.0  0.25726  0.43912  0.63536  1.0000
  P   P24       1.0  0.24681  0.19123  0.54706  1.0000
  C   C741      1.0  0.48681  0.44562  0.96896  1.0000
  C   C742      1.0  0.46327  0.39843  0.73430  1.0000
  C   C743      1.0  0.48902  0.35077  0.93009  1.0000
  H   H584      1.0  0.48620  0.07462  0.65056  1.0000
  H   H585      1.0  0.48806  0.45920  0.90864  1.0000
  C   C744      1.0  0.48787  0.45526  0.92544  1.0000
  H   H586      1.0  0.38900  0.99894  0.53287  1.0000
  H   H587      1.0  0.25107  0.41496  0.69855  1.0000
  C   C745      1.0  0.49110  0.18307  0.50061  1.0000
  H   H588      1.0  0.46572  0.34169  0.71323  1.0000
  C   C746      1.0  0.48928  0.07070  0.52822  1.0000
  C   C747      1.0  0.48842  0.04875  0.52771  1.0000
  H   H589      1.0  0.31111  0.48608  0.93102  1.0000
  C   C748      1.0  0.49016  0.33358  0.67875  1.0000
  S   S96       1.0  0.37283  0.48993  0.97619  1.0000
  H   H590      1.0  0.48999  0.05546  0.57641  1.0000
  C   C749      1.0  0.32000  0.49150  0.91715  1.0000
  Fe  Fe48      1.0  0.33015  0.49178  0.82052  1.0000
  H   H591      1.0  0.49174  0.39638  0.68323  1.0000
  H   H592      1.0  0.47548  0.31349  0.65692  1.0000
  S   S97       1.0  0.48997  0.23664  0.63367  1.0000
  H   H593      1.0  0.49224  0.31415  0.52070  1.0000
  H   H594      1.0  0.47944  0.34679  0.67552  1.0000
  Fe  Fe49      1.0  0.31265  0.49357  0.77476  1.0000
  P   P25       1.0  0.45950  0.24946  0.49699  1.0000
  H   H595      1.0  0.41277  0.24883  0.49688  1.0000
  C   C750      1.0  0.48340  0.36978  0.71791  1.0000
  H   H596      1.0  0.24442  0.46574  0.65235  1.0000
  Fe  Fe50      1.0  0.33048  0.97254  0.49425  1.0000
  H   H597      1.0  0.38710  0.66973  0.02777  1.0000
  H   H598      1.0  0.38638  0.65156  0.14070  1.0000
  C   C751      1.0  0.42649  0.49627  0.14485  1.0000
  S   S98       1.0  0.47127  0.61963  0.03080  1.0000
  C   C752      1.0  0.41619  0.74698  0.47995  1.0000
  C   C753      1.0  0.40096  0.55472  0.15161  1.0000
  C   C754      1.0  0.45844  0.55353  0.13658  1.0000
  C   C755      1.0  0.45678  0.86122  0.20645  1.0000
  C   C756      1.0  0.45290  0.53241  0.16880  1.0000
  H   H599      1.0  0.30652  0.86591  0.49426  1.0000
  C   C757      1.0  0.47794  0.56043  0.16785  1.0000
  C   C758      1.0  0.47629  0.80749  0.27322  1.0000
  C   C759      1.0  0.43408  0.57951  0.00859  1.0000
  H   H600      1.0  0.38038  0.55489  0.99970  1.0000
  C   C760      1.0  0.41738  0.63492  0.05643  1.0000
  Fe  Fe51      1.0  0.45286  0.62793  0.00206  1.0000
  H   H601      1.0  0.42585  0.59916  0.16064  1.0000
  C   C761      1.0  0.44786  0.87021  0.32532  1.0000
  H   H602      1.0  0.39449  0.58261  0.04635  1.0000
  S   S99       1.0  0.41890  0.61987  0.00110  1.0000
  Fe  Fe52      1.0  0.34353  0.52289  0.20717  1.0000
  S   S100      1.0  0.35048  0.55772  0.20750  1.0000
  S   S101      1.0  0.31427  0.51131  0.19234  1.0000
  Fe  Fe53      1.0  0.35105  0.77279  0.47467  1.0000
  S   S102      1.0  0.37036  0.75356  0.45103  1.0000
  H   H603      1.0  0.36714  0.89074  0.47812  1.0000
  C   C762      1.0  0.43533  0.85250  0.32581  1.0000
  C   C763      1.0  0.40744  0.85540  0.48062  1.0000
  C   C764      1.0  0.48239  0.66470  0.11690  1.0000
  Fe  Fe54      1.0  0.47601  0.76790  0.33318  1.0000
  S   S103      1.0  0.46956  0.76053  0.36787  1.0000
  S   S104      1.0  0.46121  0.74835  0.30756  1.0000
  Fe  Fe55      1.0  0.45878  0.79415  0.37082  1.0000
  S   S105      1.0  0.43006  0.80713  0.38881  1.0000
  S   S106      1.0  0.46294  0.80123  0.33590  1.0000
  H   H604      1.0  0.27587  0.52009  0.25958  1.0000
  H   H605      1.0  0.35409  0.54988  0.10641  1.0000
  H   H606      1.0  0.47044  0.84604  0.49372  1.0000
  C   C765      1.0  0.38343  0.67453  0.31498  1.0000
  C   C766      1.0  0.40560  0.62584  0.15303  1.0000
  H   H607      1.0  0.43447  0.82230  0.43640  1.0000
  Fe  Fe56      1.0  0.45940  0.61414  0.20631  1.0000
  S   S107      1.0  0.44539  0.58305  0.21711  1.0000
  S   S108      1.0  0.44800  0.64814  0.20536  1.0000
  C   C767      1.0  0.47025  0.72828  0.29000  1.0000
  C   C768      1.0  0.47869  0.82510  0.44387  1.0000
  C   C769      1.0  0.46279  0.70570  0.26034  1.0000
  C   C770      1.0  0.45663  0.72174  0.27446  1.0000
  H   H608      1.0  0.45215  0.70096  0.24846  1.0000
  H   H609      1.0  0.44123  0.72930  0.27318  1.0000
  C   C771      1.0  0.38672  0.76829  0.43336  1.0000
  C   C772      1.0  0.38400  0.79015  0.43114  1.0000
  C   C773      1.0  0.39702  0.80163  0.41692  1.0000
  C   C774      1.0  0.41345  0.79157  0.40548  1.0000
  C   C775      1.0  0.41621  0.76967  0.40764  1.0000
  C   C776      1.0  0.40259  0.75803  0.42124  1.0000
  H   H610      1.0  0.37171  0.79824  0.44020  1.0000
  H   H611      1.0  0.39436  0.81843  0.41489  1.0000
  H   H612      1.0  0.42883  0.76179  0.39891  1.0000
  H   H613      1.0  0.40460  0.74109  0.42279  1.0000
  P   P26       1.0  0.40826  0.60161  0.08483  1.0000
  H   H614      1.0  0.38658  0.63845  0.10452  1.0000
  C   C777      1.0  0.43343  0.82864  0.46997  1.0000
  C   C778      1.0  0.38991  0.58111  0.08048  1.0000
  C   C779      1.0  0.37700  0.56486  0.20913  1.0000
  C   C780      1.0  0.38204  0.58626  0.20925  1.0000
  C   C781      1.0  0.40310  0.59222  0.21069  1.0000
  C   C782      1.0  0.41917  0.57675  0.21230  1.0000
  C   C783      1.0  0.41416  0.55545  0.21158  1.0000
  C   C784      1.0  0.39318  0.54950  0.21000  1.0000
  H   H615      1.0  0.36961  0.59824  0.20837  1.0000
  H   H616      1.0  0.40682  0.60870  0.21125  1.0000
  H   H617      1.0  0.42662  0.54352  0.21240  1.0000
  H   H618      1.0  0.38949  0.53306  0.20959  1.0000
  H   H619      1.0  0.47271  0.51653  0.07009  1.0000
  C   C785      1.0  0.32399  0.50210  0.07906  1.0000
  H   H620      1.0  0.44917  0.58627  0.01088  1.0000
  S   S109      1.0  0.47245  0.61489  0.17311  1.0000
  S   S110      1.0  0.34305  0.99336  0.46731  1.0000
  C   C786      1.0  0.49275  0.94664  0.47884  1.0000
  C   C787      1.0  0.37832  0.57182  0.09738  1.0000
  C   C788      1.0  0.39475  0.62928  0.11659  1.0000
  H   H621      1.0  0.35301  0.74114  0.40882  1.0000
  H   H622      1.0  0.35883  0.64918  0.04587  1.0000
  H   H623      1.0  0.38441  0.50873  0.13224  1.0000
  C   C789      1.0  0.46114  0.57253  0.05907  1.0000
  H   H624      1.0  0.36791  0.61964  0.07065  1.0000
  H   H625      1.0  0.49342  0.58015  0.06285  1.0000
  H   H626      1.0  0.30133  0.52731  0.28753  1.0000
  H   H627      1.0  0.43350  0.86404  0.25543  1.0000
  C   C790      1.0  0.36430  0.53286  0.14541  1.0000
  H   H628      1.0  0.43378  0.63092  0.05875  1.0000
  C   C791      1.0  0.36303  0.55267  0.15440  1.0000
  C   C792      1.0  0.42747  0.83183  0.44886  1.0000
  Fe  Fe57      1.0  0.33450  0.50305  0.02374  1.0000
  S   S111      1.0  0.32356  0.79419  0.46623  1.0000
  H   H629      1.0  0.36897  0.55517  0.03992  1.0000
  S   S112      1.0  0.34010  0.50258  0.23682  1.0000
  C   C793      1.0  0.37165  0.55979  0.05596  1.0000
  H   H630      1.0  0.25217  0.49850  0.35076  1.0000
  S   S113      1.0  0.36585  0.79590  0.49528  1.0000
  C   C794      1.0  0.44328  0.85782  0.24262  1.0000
  C   C795      1.0  0.36249  0.72839  0.40206  1.0000
  C   C796      1.0  0.26717  0.70533  0.49096  1.0000
  H   H631      1.0  0.45460  0.55796  0.12041  1.0000
  C   C797      1.0  0.41217  0.84723  0.44363  1.0000
  H   H632      1.0  0.27772  0.73671  0.44633  1.0000
  H   H633      1.0  0.34870  0.53891  0.06983  1.0000
  C   C798      1.0  0.33780  0.87571  0.48575  1.0000
  C   C799      1.0  0.45171  0.60291  0.08918  1.0000
  C   C800      1.0  0.41213  0.65179  0.04263  1.0000
  H   H634      1.0  0.48713  0.90489  0.36453  1.0000
  C   C801      1.0  0.39283  0.67948  0.29524  1.0000
  C   C802      1.0  0.43523  0.59287  0.07957  1.0000
  C   C803      1.0  0.40157  0.62323  0.06677  1.0000
  C   C804      1.0  0.44441  0.86908  0.22323  1.0000
  H   H635      1.0  0.44472  0.52040  0.17798  1.0000
  H   H636      1.0  0.45160  0.77246  0.44799  1.0000
  C   C805      1.0  0.27846  0.51727  0.34078  1.0000
  C   C806      1.0  0.45684  0.51920  0.07638  1.0000
  H   H637      1.0  0.35541  0.70660  0.42782  1.0000
  C   C807      1.0  0.24541  0.70241  0.49401  1.0000
  C   C808      1.0  0.30866  0.89992  0.49452  1.0000
  H   H638      1.0  0.42515  0.84921  0.33951  1.0000
  C   C809      1.0  0.43053  0.75069  0.46316  1.0000
  Fe  Fe58      1.0  0.37839  0.50905  0.00453  1.0000
  P   P27       1.0  0.33261  0.49946  0.30882  1.0000
  C   C810      1.0  0.39720  0.58353  0.00063  1.0000
  C   C811      1.0  0.35488  0.52805  0.28313  1.0000
  H   H639      1.0  0.38056  0.53433  0.35609  1.0000
  H   H640      1.0  0.38494  0.76761  0.26873  1.0000
  C   C812      1.0  0.44090  0.52070  0.26031  1.0000
  C   C813      1.0  0.25282  0.51569  0.28529  1.0000
  H   H641      1.0  0.41146  0.50456  0.17485  1.0000
  H   H642      1.0  0.48621  0.77693  0.46839  1.0000
  H   H643      1.0  0.35018  0.52401  0.14384  1.0000
  C   C814      1.0  0.46138  0.87421  0.30793  1.0000
  H   H644      1.0  0.46487  0.56151  0.04667  1.0000
  H   H645      1.0  0.42596  0.58536  0.12439  1.0000
  C   C815      1.0  0.30689  0.49898  0.32168  1.0000
  C   C816      1.0  0.45476  0.83873  0.24542  1.0000
  S   S114      1.0  0.47884  0.96725  0.38809  1.0000
  C   C817      1.0  0.46690  0.83078  0.22838  1.0000
  C   C818      1.0  0.29814  0.51748  0.33034  1.0000
  C   C819      1.0  0.41297  0.76194  0.49552  1.0000
  S   S115      1.0  0.46586  0.66032  0.99734  1.0000
  H   H646      1.0  0.48141  0.89566  0.47057  1.0000
  C   C820      1.0  0.35675  0.54517  0.26875  1.0000
  C   C821      1.0  0.33873  0.55601  0.26161  1.0000
  C   C822      1.0  0.31883  0.54952  0.26851  1.0000
  C   C823      1.0  0.31690  0.53244  0.28289  1.0000
  H   H647      1.0  0.43258  0.73935  0.45079  1.0000
  C   C824      1.0  0.39526  0.56161  0.00250  1.0000
  C   C825      1.0  0.43246  0.52344  0.10649  1.0000
  C   C826      1.0  0.46268  0.86031  0.29119  1.0000
  Fe  Fe59      1.0  0.37250  0.99379  0.48613  1.0000
  H   H648      1.0  0.38041  0.57649  0.11346  1.0000
  C   C827      1.0  0.36024  0.55058  0.07283  1.0000
  C   C828      1.0  0.40608  0.61063  0.11174  1.0000
  C   C829      1.0  0.45301  0.51988  0.09827  1.0000
  H   H649      1.0  0.44305  0.52125  0.04554  1.0000
  C   C830      1.0  0.46766  0.54417  0.17890  1.0000
  C   C831      1.0  0.43038  0.80711  0.27040  1.0000
  H   H650      1.0  0.36893  0.51941  0.28807  1.0000
  H   H651      1.0  0.45983  0.71550  0.40598  1.0000
  H   H652      1.0  0.47372  0.86339  0.27816  1.0000
  H   H653      1.0  0.37208  0.54979  0.26262  1.0000
  H   H654      1.0  0.34019  0.56905  0.25020  1.0000
  S   S116      1.0  0.49176  0.67572  0.24404  1.0000
  H   H655      1.0  0.47134  0.88779  0.30777  1.0000
  C   C832      1.0  0.36395  0.70890  0.41285  1.0000
  C   C833      1.0  0.37697  0.69277  0.40475  1.0000
  C   C834      1.0  0.38869  0.69622  0.38593  1.0000
  C   C835      1.0  0.38728  0.71579  0.37492  1.0000
  C   C836      1.0  0.37414  0.73191  0.38325  1.0000
  P   P28       1.0  0.40463  0.72094  0.35223  1.0000
  C   C837      1.0  0.39970  0.70456  0.33009  1.0000
  C   C838      1.0  0.39988  0.74781  0.34294  1.0000
  C   C839      1.0  0.41271  0.76403  0.34889  1.0000
  C   C840      1.0  0.40788  0.78495  0.34276  1.0000
  C   C841      1.0  0.39016  0.78985  0.33084  1.0000
  C   C842      1.0  0.37723  0.77379  0.32491  1.0000
  C   C843      1.0  0.38206  0.75284  0.33092  1.0000
  C   C844      1.0  0.40864  0.70971  0.31004  1.0000
  C   C845      1.0  0.40538  0.69711  0.29277  1.0000
  C   C846      1.0  0.38679  0.68702  0.33235  1.0000
  C   C847      1.0  0.43137  0.71643  0.36092  1.0000
  C   C848      1.0  0.44767  0.71059  0.34659  1.0000
  C   C849      1.0  0.46808  0.70651  0.35362  1.0000
  C   C850      1.0  0.47241  0.70797  0.37506  1.0000
  C   C851      1.0  0.45633  0.71372  0.38947  1.0000
  C   C852      1.0  0.43595  0.71809  0.38243  1.0000
  H   H656      1.0  0.37839  0.67780  0.41337  1.0000
  H   H657      1.0  0.39939  0.68389  0.38030  1.0000
  H   H658      1.0  0.37340  0.74753  0.37589  1.0000
  H   H659      1.0  0.42615  0.76065  0.35860  1.0000
  H   H660      1.0  0.41768  0.79746  0.34764  1.0000
  H   H661      1.0  0.38642  0.80613  0.32638  1.0000
  H   H662      1.0  0.36339  0.77762  0.31581  1.0000
  H   H663      1.0  0.37169  0.74059  0.32654  1.0000
  H   H664      1.0  0.41843  0.72334  0.30782  1.0000
  H   H665      1.0  0.41277  0.70091  0.27749  1.0000
  H   H666      1.0  0.37920  0.68294  0.34737  1.0000
  H   H667      1.0  0.44498  0.70949  0.32990  1.0000
  H   H668      1.0  0.48064  0.70271  0.34228  1.0000
  H   H669      1.0  0.41485  0.82333  0.24420  1.0000
  C   C853      1.0  0.47727  0.78700  0.26532  1.0000
  H   H670      1.0  0.42390  0.72297  0.39382  1.0000
  C   C854      1.0  0.38135  0.56364  0.15735  1.0000
  H   H671      1.0  0.35297  0.92711  0.48298  1.0000
  C   C855      1.0  0.40207  0.85891  0.45948  1.0000
  Fe  Fe60      1.0  0.33740  0.81685  0.48862  1.0000
  C   C856      1.0  0.44020  0.52193  0.06253  1.0000
  C   C857      1.0  0.46796  0.84205  0.20901  1.0000
  H   H672      1.0  0.30640  0.53213  0.32879  1.0000
  H   H673      1.0  0.48510  0.60627  0.09068  1.0000
  H   H674      1.0  0.38587  0.79846  0.24353  1.0000
  H   H675      1.0  0.44544  0.54768  0.01490  1.0000
  C   C858      1.0  0.32160  0.91737  0.49111  1.0000
  H   H676      1.0  0.46882  0.83926  0.44421  1.0000
  S   S117      1.0  0.34860  0.85019  0.48061  1.0000
  H   H677      1.0  0.27137  0.53167  0.34685  1.0000
  C   C859      1.0  0.36342  0.55672  0.09349  1.0000
  C   C860      1.0  0.44970  0.66024  0.09926  1.0000
  H   H678      1.0  0.46604  0.51751  0.10880  1.0000
  C   C861      1.0  0.31620  0.51177  0.09756  1.0000
  C   C862      1.0  0.41587  0.52642  0.09241  1.0000
  C   C863      1.0  0.46030  0.66193  0.07939  1.0000
  C   C864      1.0  0.45863  0.50847  0.25434  1.0000
  Fe  Fe61      1.0  0.46361  0.64919  0.17255  1.0000
  H   H679      1.0  0.44139  0.78739  0.29656  1.0000
  C   C865      1.0  0.48660  0.60191  0.27378  1.0000
  C   C866      1.0  0.43199  0.55763  0.01085  1.0000
  C   C867      1.0  0.42190  0.51845  0.25021  1.0000
  H   H680      1.0  0.40812  0.52788  0.25479  1.0000
  H   H681      1.0  0.44739  0.88069  0.33855  1.0000
  H   H682      1.0  0.40606  0.63211  0.16876  1.0000
  H   H683      1.0  0.47561  0.81592  0.22999  1.0000
  S   S118      1.0  0.49059  0.80562  0.37863  1.0000
  H   H684      1.0  0.35589  0.53379  0.32678  1.0000
  H   H685      1.0  0.39907  0.86415  0.49284  1.0000
  C   C868      1.0  0.42418  0.78055  0.49437  1.0000
  H   H686      1.0  0.42800  0.56979  0.05649  1.0000
  H   H687      1.0  0.41496  0.56286  0.15535  1.0000
  Fe  Fe62      1.0  0.48025  0.65581  0.21693  1.0000
  H   H688      1.0  0.40580  0.50209  0.22650  1.0000
  H   H689      1.0  0.38036  0.57877  0.16486  1.0000
  C   C869      1.0  0.24454  0.73411  0.44126  1.0000
  C   C870      1.0  0.37368  0.51962  0.35209  1.0000
  H   H690      1.0  0.39989  0.52915  0.09816  1.0000
  C   C871      1.0  0.44149  0.76945  0.46177  1.0000
  H   H691      1.0  0.27590  0.77549  0.44906  1.0000
  H   H692      1.0  0.40779  0.84979  0.42728  1.0000
  H   H693      1.0  0.42448  0.66048  0.03443  1.0000
  C   C872      1.0  0.37516  0.64529  0.04895  1.0000
  C   C873      1.0  0.39451  0.63680  0.13718  1.0000
  H   H694      1.0  0.43289  0.65809  0.10002  1.0000
  H   H695      1.0  0.43569  0.88391  0.22125  1.0000
  C   C874      1.0  0.38382  0.52423  0.13892  1.0000
  H   H696      1.0  0.41309  0.76216  0.29507  1.0000
  P   P29       1.0  0.45274  0.82397  0.27026  1.0000
  C   C875      1.0  0.26629  0.50889  0.26842  1.0000
  C   C876      1.0  0.45034  0.84229  0.29165  1.0000
  H   H697      1.0  0.48901  0.56985  0.17592  1.0000
  C   C877      1.0  0.25900  0.50452  0.05945  1.0000
  C   C878      1.0  0.42298  0.84020  0.48590  1.0000
  H   H698      1.0  0.42677  0.82495  0.30990  1.0000
  C   C879      1.0  0.43640  0.83869  0.30896  1.0000
  C   C880      1.0  0.39746  0.77875  0.26930  1.0000
  C   C881      1.0  0.40233  0.53519  0.14183  1.0000
  C   C882      1.0  0.46072  0.66149  0.11812  1.0000
  C   C883      1.0  0.33492  0.52187  0.29067  1.0000
  C   C884      1.0  0.47456  0.80771  0.45751  1.0000
  H   H699      1.0  0.49099  0.66606  0.13128  1.0000
  H   H700      1.0  0.45172  0.66149  0.06496  1.0000
  H   H701      1.0  0.30488  0.55743  0.26229  1.0000
  H   H702      1.0  0.31531  0.51106  0.13191  1.0000
  S   S119      1.0  0.44677  0.66024  0.14282  1.0000
  C   C885      1.0  0.41318  0.77568  0.28415  1.0000
  S   S120      1.0  0.31603  0.51204  0.05379  1.0000
  C   C886      1.0  0.35081  0.89316  0.48281  1.0000
  Fe  Fe63      1.0  0.30739  0.77922  0.49521  1.0000
  C   C887      1.0  0.41257  0.54863  0.00784  1.0000
  H   H703      1.0  0.44634  0.99050  0.45441  1.0000
  H   H704      1.0  0.47636  0.63462  0.27393  1.0000
  C   C888      1.0  0.34282  0.91385  0.48558  1.0000
  H   H705      1.0  0.38964  0.87024  0.45540  1.0000
  H   H706      1.0  0.47051  0.54131  0.19559  1.0000
  H   H707      1.0  0.47080  0.59611  0.27299  1.0000
  P   P30       1.0  0.42761  0.52321  0.13492  1.0000
  C   C889      1.0  0.47329  0.56516  0.14672  1.0000
  H   H708      1.0  0.25241  0.53211  0.28937  1.0000
  C   C890      1.0  0.39105  0.65693  0.03882  1.0000
  C   C891      1.0  0.26281  0.74516  0.44436  1.0000
  S   S121      1.0  0.41035  0.52120  0.01102  1.0000
  Fe  Fe64      1.0  0.48650  0.65049  0.02470  1.0000
  C   C892      1.0  0.47264  0.59779  0.08376  1.0000
  H   H709      1.0  0.44848  0.61541  0.10021  1.0000
  C   C893      1.0  0.41683  0.60726  0.14838  1.0000
  C   C894      1.0  0.39802  0.79611  0.25511  1.0000
  C   C895      1.0  0.41979  0.52574  0.07053  1.0000
  C   C896      1.0  0.38624  0.57516  0.05971  1.0000
  C   C897      1.0  0.44016  0.57745  0.06461  1.0000
  H   H710      1.0  0.30586  0.52558  0.09622  1.0000
  C   C898      1.0  0.41693  0.59958  0.12786  1.0000
  H   H711      1.0  0.34793  0.55924  0.15975  1.0000
  H   H712      1.0  0.40698  0.52810  0.05963  1.0000
  H   H713      1.0  0.39041  0.66968  0.28184  1.0000
  C   C899      1.0  0.31673  0.87916  0.49201  1.0000
  C   C900      1.0  0.44831  0.53683  0.14745  1.0000
  C   C901      1.0  0.48188  0.66546  0.07815  1.0000
  C   C902      1.0  0.32154  0.50359  0.11781  1.0000
  C   C903      1.0  0.38038  0.62850  0.06290  1.0000
  H   H714      1.0  0.37358  0.66093  0.31683  1.0000
  H   H715      1.0  0.45769  0.86996  0.19145  1.0000
  H   H716      1.0  0.48960  0.86551  0.36144  1.0000
  C   C904      1.0  0.48281  0.69599  0.26148  1.0000
  H   H717      1.0  0.46406  0.78076  0.25740  1.0000
  C   C905      1.0  0.26180  0.76707  0.44586  1.0000
  C   C906      1.0  0.35982  0.51922  0.33534  1.0000
  C   C907      1.0  0.49027  0.71860  0.29115  1.0000
  C   C908      1.0  0.47734  0.58285  0.06844  1.0000
  H   H718      1.0  0.47749  0.83590  0.19597  1.0000
  H   H719      1.0  0.27740  0.69194  0.48731  1.0000
  C   C909      1.0  0.48974  0.90895  0.47613  1.0000
  C   C910      1.0  0.42935  0.78997  0.28491  1.0000
  C   C911      1.0  0.41447  0.81023  0.25557  1.0000
  P   P31       1.0  0.45294  0.80849  0.47663  1.0000
  C   C912      1.0  0.48197  0.92944  0.47192  1.0000
  S   S122      1.0  0.34831  0.52809  0.00195  1.0000
  H   H720      1.0  0.44184  0.53186  0.27282  1.0000
  H   H721      1.0  0.26507  0.52032  0.05917  1.0000
  S   S123      1.0  0.49025  0.62143  0.22030  1.0000
  C   C913      1.0  0.43883  0.78426  0.47774  1.0000
  H   H722      1.0  0.40702  0.73286  0.48047  1.0000
  C   C914      1.0  0.48969  0.62356  0.27436  1.0000
  H   H723      1.0  0.29262  0.72734  0.49008  1.0000
  S   S124      1.0  0.31062  0.94327  0.49356  1.0000
  H   H724      1.0  0.24573  0.71710  0.44071  1.0000
  S   S125      1.0  0.36540  0.50008  0.19075  1.0000
  C   C915      1.0  0.26762  0.49851  0.34309  1.0000
  C   C916      1.0  0.35096  0.50018  0.32997  1.0000
  C   C917      1.0  0.27588  0.72541  0.49257  1.0000
  H   H725      1.0  0.46772  0.93205  0.46304  1.0000
  C   C918      1.0  0.43422  0.99379  0.44302  1.0000
  C   C919      1.0  0.41662  0.59250  0.00367  1.0000
  C   C920      1.0  0.48923  0.52347  0.00741  1.0000
  H   H726      1.0  0.48913  0.52327  0.22838  1.0000
  H   H727      1.0  0.48836  0.70541  0.38041  1.0000
  H   H728      1.0  0.48077  0.57831  0.13844  1.0000
  C   C921      1.0  0.42066  0.50412  0.23403  1.0000
  H   H729      1.0  0.48693  0.96247  0.47499  1.0000
  S   S126      1.0  0.40676  0.99086  0.47661  1.0000
  H   H730      1.0  0.48709  0.53153  0.02221  1.0000
  H   H731      1.0  0.38924  0.50147  0.37678  1.0000
  H   H732      1.0  0.47309  0.50988  0.26275  1.0000
  C   C922      1.0  0.41302  0.99410  0.44957  1.0000
  C   C923      1.0  0.49280  0.66717  0.09701  1.0000
  C   C924      1.0  0.37853  0.50112  0.36378  1.0000
  C   C925      1.0  0.48855  0.79018  0.45742  1.0000
  C   C926      1.0  0.27233  0.63331  0.84929  1.0000
  C   C927      1.0  0.32242  0.72658  0.55675  1.0000
  H   H733      1.0  0.35055  0.86765  0.64292  1.0000
  S   S127      1.0  0.47555  0.61224  0.97947  1.0000
  C   C928      1.0  0.24758  0.75430  0.56866  1.0000
  C   C929      1.0  0.46252  0.95171  0.54644  1.0000
  S   S128      1.0  0.49357  0.65901  0.81089  1.0000
  S   S129      1.0  0.47972  0.73995  0.67339  1.0000
  H   H734      1.0  0.34178  0.64549  0.84317  1.0000
  S   S130      1.0  0.45392  0.94982  0.67024  1.0000
  H   H735      1.0  0.39168  0.86912  0.61566  1.0000
  H   H736      1.0  0.36515  0.80761  0.62447  1.0000
  H   H737      1.0  0.38573  0.90435  0.60488  1.0000
  H   H738      1.0  0.38526  0.91147  0.64321  1.0000
  S   S131      1.0  0.36092  0.97088  0.51112  1.0000
  Fe  Fe65      1.0  0.46803  0.82095  0.65357  1.0000
  H   H739      1.0  0.48202  0.78725  0.54621  1.0000
  S   S132      1.0  0.45399  0.84893  0.67149  1.0000
  Fe  Fe66      1.0  0.47791  0.77289  0.65641  1.0000
  C   C930      1.0  0.31770  0.69927  0.52352  1.0000
  C   C931      1.0  0.49220  0.71026  0.83176  1.0000
  Fe  Fe67      1.0  0.46265  0.79494  0.61473  1.0000
  S   S133      1.0  0.44838  0.79642  0.58221  1.0000
  S   S134      1.0  0.44873  0.79236  0.64781  1.0000
  Fe  Fe68      1.0  0.47355  0.66313  0.78191  1.0000
  C   C932      1.0  0.41746  0.55945  0.95342  1.0000
  H   H740      1.0  0.39241  0.79797  0.65032  1.0000
  Fe  Fe69      1.0  0.46709  0.64089  0.82591  1.0000
  H   H741      1.0  0.29022  0.57766  0.89192  1.0000
  S   S135      1.0  0.45330  0.64262  0.85952  1.0000
  Fe  Fe70      1.0  0.46030  0.61704  0.78558  1.0000
  S   S136      1.0  0.44531  0.58853  0.77244  1.0000
  S   S137      1.0  0.44590  0.64699  0.79823  1.0000
  Fe  Fe71      1.0  0.34334  0.52644  0.78873  1.0000
  S   S138      1.0  0.31159  0.51624  0.80160  1.0000
  S   S139      1.0  0.35065  0.56111  0.78514  1.0000
  C   C933      1.0  0.37600  0.83938  0.61856  1.0000
  S   S140      1.0  0.27297  0.76895  0.49812  1.0000
  C   C934      1.0  0.34636  0.87947  0.63088  1.0000
  H   H742      1.0  0.26806  0.68880  0.59967  1.0000
  C   C935      1.0  0.48742  0.81987  0.53814  1.0000
  C   C936      1.0  0.45549  0.96117  0.52758  1.0000
  H   H743      1.0  0.27998  0.55098  0.91900  1.0000
  H   H744      1.0  0.49106  0.63377  0.70340  1.0000
  H   H745      1.0  0.43151  0.66485  0.75659  1.0000
  C   C937      1.0  0.29082  0.74239  0.63183  1.0000
  H   H746      1.0  0.42972  0.69399  0.72977  1.0000
  H   H747      1.0  0.28159  0.79804  0.54243  1.0000
  Fe  Fe72      1.0  0.34651  0.78169  0.52194  1.0000
  S   S141      1.0  0.35617  0.77430  0.55579  1.0000
  S   S142      1.0  0.31891  0.80398  0.51685  1.0000
  S   S143      1.0  0.48272  0.97834  0.62071  1.0000
  H   H748      1.0  0.37038  0.53632  0.84345  1.0000
  H   H749      1.0  0.44131  0.62858  0.74597  1.0000
  C   C938      1.0  0.28129  0.76598  0.55466  1.0000
  H   H750      1.0  0.45863  0.60650  0.61522  1.0000
  H   H751      1.0  0.28938  0.51782  0.72432  1.0000
  C   C939      1.0  0.41926  0.58112  0.77847  1.0000
  C   C940      1.0  0.40312  0.59613  0.78216  1.0000
  C   C941      1.0  0.38212  0.58980  0.78423  1.0000
  C   C942      1.0  0.37721  0.56842  0.78328  1.0000
  C   C943      1.0  0.39344  0.55337  0.78035  1.0000
  C   C944      1.0  0.41435  0.55975  0.77767  1.0000
  H   H752      1.0  0.40674  0.61264  0.78250  1.0000
  H   H753      1.0  0.36960  0.60152  0.78635  1.0000
  H   H754      1.0  0.38983  0.53688  0.77950  1.0000
  H   H755      1.0  0.42674  0.54810  0.77458  1.0000
  C   C945      1.0  0.42237  0.79072  0.57584  1.0000
  C   C946      1.0  0.40748  0.78371  0.59101  1.0000
  C   C947      1.0  0.38713  0.77883  0.58478  1.0000
  C   C948      1.0  0.38155  0.78112  0.56343  1.0000
  C   C949      1.0  0.39633  0.78856  0.54846  1.0000
  C   C950      1.0  0.41665  0.79324  0.55463  1.0000
  H   H756      1.0  0.41176  0.78175  0.60742  1.0000
  H   H757      1.0  0.37576  0.77310  0.59648  1.0000
  H   H758      1.0  0.39209  0.79063  0.53212  1.0000
  H   H759      1.0  0.42808  0.79881  0.54292  1.0000
  C   C951      1.0  0.47753  0.72850  0.69967  1.0000
  C   C952      1.0  0.47296  0.70824  0.74056  1.0000
  H   H760      1.0  0.35480  0.72812  0.54602  1.0000
  P   P32       1.0  0.28066  0.72456  0.57124  1.0000
  C   C953      1.0  0.32813  0.53980  0.56595  1.0000
  C   C954      1.0  0.30642  0.72790  0.63852  1.0000
  H   H761      1.0  0.29420  0.52943  0.84508  1.0000
  H   H762      1.0  0.42451  0.61601  0.63303  1.0000
  C   C955      1.0  0.26080  0.70489  0.56985  1.0000
  C   C956      1.0  0.43943  0.55840  0.95145  1.0000
  H   H763      1.0  0.46320  0.78092  0.51367  1.0000
  C   C957      1.0  0.26146  0.55490  0.80154  1.0000
  H   H764      1.0  0.38555  0.89031  0.54565  1.0000
  C   C958      1.0  0.33385  0.50803  0.91876  1.0000
  H   H765      1.0  0.34722  0.80722  0.58437  1.0000
  H   H766      1.0  0.31740  0.78348  0.58708  1.0000
  C   C959      1.0  0.45482  0.92182  0.66842  1.0000
  C   C960      1.0  0.45502  0.87696  0.66905  1.0000
  C   C961      1.0  0.44840  0.88820  0.68683  1.0000
  C   C962      1.0  0.44835  0.91026  0.68655  1.0000
  H   H767      1.0  0.48445  0.68021  0.72526  1.0000
  C   C963      1.0  0.26992  0.56005  0.82084  1.0000
  C   C964      1.0  0.40676  0.82824  0.64809  1.0000
  C   C965      1.0  0.30582  0.71102  0.60471  1.0000
  H   H768      1.0  0.31745  0.60240  0.87763  1.0000
  H   H769      1.0  0.41827  0.82424  0.65998  1.0000
  C   C966      1.0  0.48401  0.57685  0.92617  1.0000
  C   C967      1.0  0.37243  0.93976  0.56232  1.0000
  H   H770      1.0  0.42641  0.83710  0.50239  1.0000
  C   C968      1.0  0.37660  0.90479  0.54814  1.0000
  C   C969      1.0  0.47034  0.73997  0.71715  1.0000
  C   C970      1.0  0.39196  0.81358  0.64285  1.0000
  C   C971      1.0  0.46493  0.81322  0.50149  1.0000
  C   C972      1.0  0.46782  0.64597  0.88268  1.0000
  C   C973      1.0  0.45746  0.64371  0.90251  1.0000
  C   C974      1.0  0.46814  0.64648  0.92137  1.0000
  H   H771      1.0  0.44104  0.63992  0.90328  1.0000
  H   H772      1.0  0.46007  0.64480  0.93656  1.0000
  C   C975      1.0  0.46122  0.88834  0.65047  1.0000
  H   H773      1.0  0.27048  0.52680  0.69114  1.0000
  C   C976      1.0  0.47808  0.71709  0.81608  1.0000
  H   H774      1.0  0.29781  0.76320  0.55075  1.0000
  H   H775      1.0  0.49073  0.91568  0.56382  1.0000
  H   H776      1.0  0.49005  0.84899  0.57773  1.0000
  C   C977      1.0  0.26505  0.51406  0.70149  1.0000
  C   C978      1.0  0.31861  0.54911  0.58370  1.0000
  C   C979      1.0  0.48790  0.52403  0.92169  1.0000
  C   C980      1.0  0.31388  0.71219  0.62498  1.0000
  C   C981      1.0  0.48906  0.65119  0.88186  1.0000
  H   H777      1.0  0.35075  0.51149  0.86677  1.0000
  C   C982      1.0  0.28974  0.56920  0.82124  1.0000
  C   C983      1.0  0.27759  0.61265  0.84359  1.0000
  C   C984      1.0  0.27220  0.78587  0.55000  1.0000
  C   C985      1.0  0.24748  0.55735  0.54106  1.0000
  S   S144      1.0  0.47925  0.60971  0.81430  1.0000
  H   H778      1.0  0.43252  0.69910  0.83856  1.0000
  C   C986      1.0  0.28273  0.74128  0.61156  1.0000
  H   H779      1.0  0.28252  0.50344  0.87216  1.0000
  H   H780      1.0  0.46628  0.75656  0.71503  1.0000
  C   C987      1.0  0.42293  0.89368  0.56726  1.0000
  C   C988      1.0  0.42117  0.94634  0.53418  1.0000
  H   H781      1.0  0.40146  0.75929  0.50825  1.0000
  C   C989      1.0  0.29828  0.55801  0.58255  1.0000
  C   C990      1.0  0.42772  0.88568  0.54715  1.0000
  C   C991      1.0  0.43686  0.86549  0.54520  1.0000
  C   C992      1.0  0.44138  0.85313  0.56329  1.0000
  C   C993      1.0  0.43722  0.86115  0.58336  1.0000
  C   C994      1.0  0.42825  0.88142  0.58539  1.0000
  H   H782      1.0  0.40521  0.94466  0.52909  1.0000
  H   H783      1.0  0.33184  0.53896  0.84856  1.0000
  H   H784      1.0  0.37210  0.60264  0.82891  1.0000
  H   H785      1.0  0.42421  0.89504  0.53296  1.0000
  H   H786      1.0  0.44029  0.85935  0.52967  1.0000
  S   S145      1.0  0.34322  0.50544  0.76077  1.0000
  H   H787      1.0  0.44102  0.85157  0.59737  1.0000
  H   H788      1.0  0.42577  0.88738  0.60113  1.0000
  H   H789      1.0  0.34071  0.90373  0.65364  1.0000
  H   H790      1.0  0.39058  0.56806  0.83364  1.0000
  C   C995      1.0  0.29697  0.54830  0.54583  1.0000
  H   H791      1.0  0.31187  0.69884  0.59434  1.0000
  C   C996      1.0  0.46853  0.79663  0.51631  1.0000
  C   C997      1.0  0.43814  0.52111  0.94474  1.0000
  C   C998      1.0  0.34505  0.51505  0.90046  1.0000
  C   C999      1.0  0.39506  0.92055  0.63225  1.0000
  C   C1000     1.0  0.47465  0.52090  0.90473  1.0000
  C   C1001     1.0  0.27581  0.50903  0.72039  1.0000
  H   H792      1.0  0.28890  0.54781  0.53103  1.0000
  H   H793      1.0  0.29114  0.56522  0.59644  1.0000
  C   C1002     1.0  0.42005  0.94809  0.62569  1.0000
  C   C1003     1.0  0.33970  0.72117  0.54364  1.0000
  H   H794      1.0  0.29672  0.63739  0.55463  1.0000
  C   C1004     1.0  0.30492  0.61096  0.86955  1.0000
  C   C1005     1.0  0.29029  0.72565  0.59779  1.0000
  H   H795      1.0  0.34300  0.95616  0.55612  1.0000
  C   C1006     1.0  0.35226  0.94168  0.55415  1.0000
  C   C1007     1.0  0.35701  0.64549  0.85042  1.0000
  C   C1008     1.0  0.37173  0.66035  0.84367  1.0000
  C   C1009     1.0  0.39136  0.66037  0.85302  1.0000
  C   C1010     1.0  0.39629  0.64551  0.86904  1.0000
  C   C1011     1.0  0.38179  0.63023  0.87561  1.0000
  C   C1012     1.0  0.36203  0.63045  0.86630  1.0000
  P   P33       1.0  0.38904  0.61030  0.89537  1.0000
  C   C1013     1.0  0.40128  0.62294  0.91675  1.0000
  C   C1014     1.0  0.36608  0.59715  0.90613  1.0000
  C   C1015     1.0  0.35779  0.60157  0.92644  1.0000
  C   C1016     1.0  0.34074  0.59039  0.93494  1.0000
  C   C1017     1.0  0.33175  0.57489  0.92322  1.0000
  C   C1018     1.0  0.33974  0.57060  0.90295  1.0000
  C   C1019     1.0  0.35688  0.58159  0.89448  1.0000
  C   C1020     1.0  0.41619  0.61184  0.92904  1.0000
  C   C1021     1.0  0.42458  0.62120  0.94648  1.0000
  C   C1022     1.0  0.41848  0.64180  0.95153  1.0000
  C   C1023     1.0  0.40376  0.65301  0.93930  1.0000
  C   C1024     1.0  0.39502  0.64357  0.92206  1.0000
  C   C1025     1.0  0.40693  0.59070  0.88401  1.0000
  C   C1026     1.0  0.40826  0.57025  0.89321  1.0000
  C   C1027     1.0  0.42176  0.55488  0.88436  1.0000
  C   C1028     1.0  0.43418  0.55984  0.86636  1.0000
  C   C1029     1.0  0.43315  0.58018  0.85727  1.0000
  C   C1030     1.0  0.41960  0.59555  0.86602  1.0000
  H   H796      1.0  0.45824  0.52582  0.90561  1.0000
  H   H797      1.0  0.36801  0.67182  0.83115  1.0000
  H   H798      1.0  0.40295  0.67170  0.84774  1.0000
  H   H799      1.0  0.41157  0.64575  0.87613  1.0000
  H   H800      1.0  0.35058  0.61895  0.87113  1.0000
  H   H801      1.0  0.36467  0.61323  0.93602  1.0000
  H   H802      1.0  0.33480  0.59336  0.95085  1.0000
  H   H803      1.0  0.31899  0.56574  0.93009  1.0000
  H   H804      1.0  0.33301  0.55828  0.89407  1.0000
  H   H805      1.0  0.36326  0.57766  0.87903  1.0000
  H   H806      1.0  0.42136  0.59602  0.92525  1.0000
  H   H807      1.0  0.43588  0.61255  0.95616  1.0000
  H   H808      1.0  0.42520  0.64905  0.96500  1.0000
  H   H809      1.0  0.39906  0.66896  0.94334  1.0000
  H   H810      1.0  0.38329  0.65235  0.91305  1.0000
  H   H811      1.0  0.39884  0.56612  0.90722  1.0000
  H   H812      1.0  0.42240  0.53910  0.89141  1.0000
  H   H813      1.0  0.49006  0.59817  0.63663  1.0000
  H   H814      1.0  0.44279  0.58412  0.84331  1.0000
  H   H815      1.0  0.41922  0.61113  0.85861  1.0000
  S   S146      1.0  0.33405  0.75643  0.50199  1.0000
  Fe  Fe73      1.0  0.46402  0.97913  0.65121  1.0000
  C   C1031     1.0  0.28867  0.56162  0.88723  1.0000
  C   C1032     1.0  0.39555  0.91642  0.61062  1.0000
  C   C1033     1.0  0.40904  0.92747  0.59653  1.0000
  H   H816      1.0  0.45689  0.68851  0.86714  1.0000
  P   P34       1.0  0.30140  0.57486  0.84610  1.0000
  H   H817      1.0  0.45478  0.93172  0.57343  1.0000
  C   C1034     1.0  0.29894  0.80326  0.60826  1.0000
  C   C1035     1.0  0.29823  0.82202  0.61931  1.0000
  C   C1036     1.0  0.31517  0.83563  0.61771  1.0000
  C   C1037     1.0  0.33291  0.83053  0.60492  1.0000
  P   P35       1.0  0.35473  0.84803  0.60178  1.0000
  C   C1038     1.0  0.36268  0.84751  0.57414  1.0000
  C   C1039     1.0  0.38362  0.84281  0.56788  1.0000
  C   C1040     1.0  0.38896  0.84042  0.54643  1.0000
  C   C1041     1.0  0.37352  0.84256  0.53120  1.0000
  C   C1042     1.0  0.35272  0.84731  0.53733  1.0000
  C   C1043     1.0  0.34727  0.84966  0.55868  1.0000
  C   C1044     1.0  0.34669  0.87439  0.60937  1.0000
  C   C1045     1.0  0.33534  0.91539  0.62182  1.0000
  C   C1046     1.0  0.33536  0.91043  0.60046  1.0000
  C   C1047     1.0  0.34105  0.89005  0.59420  1.0000
  H   H818      1.0  0.28574  0.79287  0.60925  1.0000
  H   H819      1.0  0.28446  0.82614  0.62899  1.0000
  H   H820      1.0  0.31422  0.85015  0.62623  1.0000
  H   H821      1.0  0.39570  0.84013  0.57944  1.0000
  H   H822      1.0  0.40491  0.83598  0.54170  1.0000
  C   C1048     1.0  0.45747  0.60706  0.63234  1.0000
  H   H823      1.0  0.34068  0.84864  0.52554  1.0000
  H   H824      1.0  0.33090  0.85261  0.56316  1.0000
  H   H825      1.0  0.33110  0.93127  0.62655  1.0000
  H   H826      1.0  0.33095  0.92244  0.58871  1.0000
  H   H827      1.0  0.34107  0.88675  0.57756  1.0000
  C   C1049     1.0  0.43826  0.61243  0.64237  1.0000
  H   H828      1.0  0.49038  0.85176  0.52612  1.0000
  H   H829      1.0  0.27922  0.65878  0.86948  1.0000
  H   H830      1.0  0.47674  0.88057  0.55735  1.0000
  C   C1050     1.0  0.45461  0.60906  0.67666  1.0000
  C   C1051     1.0  0.43679  0.61332  0.66446  1.0000
  P   P36       1.0  0.45225  0.61057  0.70511  1.0000
  C   C1052     1.0  0.43296  0.59138  0.71337  1.0000
  C   C1053     1.0  0.44904  0.70257  0.83683  1.0000
  C   C1054     1.0  0.24750  0.70526  0.55250  1.0000
  S   S147      1.0  0.33459  0.52247  0.94235  1.0000
  H   H831      1.0  0.47247  0.50972  0.87301  1.0000
  H   H832      1.0  0.35065  0.70391  0.51650  1.0000
  H   H833      1.0  0.44598  0.50600  0.94216  1.0000
  C   C1055     1.0  0.41365  0.59756  0.72302  1.0000
  C   C1056     1.0  0.39879  0.58249  0.72888  1.0000
  C   C1057     1.0  0.40302  0.56121  0.72514  1.0000
  C   C1058     1.0  0.42195  0.55498  0.71509  1.0000
  C   C1059     1.0  0.43675  0.57003  0.70896  1.0000
  C   C1060     1.0  0.44443  0.63698  0.71256  1.0000
  C   C1061     1.0  0.44379  0.65374  0.69746  1.0000
  C   C1062     1.0  0.43818  0.67416  0.70364  1.0000
  C   C1063     1.0  0.43339  0.67804  0.72489  1.0000
  C   C1064     1.0  0.43448  0.66157  0.74005  1.0000
  C   C1065     1.0  0.44014  0.64114  0.73397  1.0000
  H   H834      1.0  0.35609  0.52754  0.90159  1.0000
  H   H835      1.0  0.37750  0.83997  0.51468  1.0000
  H   H836      1.0  0.42182  0.61753  0.67207  1.0000
  H   H837      1.0  0.24652  0.54717  0.80131  1.0000
  C   C1066     1.0  0.29068  0.53459  0.86100  1.0000
  C   C1067     1.0  0.48401  0.83648  0.52345  1.0000
  H   H838      1.0  0.38882  0.54213  0.95312  1.0000
  C   C1068     1.0  0.28211  0.62928  0.55329  1.0000
  H   H839      1.0  0.40997  0.61387  0.72627  1.0000
  H   H840      1.0  0.38420  0.58723  0.73693  1.0000
  H   H841      1.0  0.39175  0.54954  0.73040  1.0000
  H   H842      1.0  0.42528  0.53844  0.71235  1.0000
  H   H843      1.0  0.45134  0.56498  0.70116  1.0000
  H   H844      1.0  0.44805  0.65133  0.68101  1.0000
  H   H845      1.0  0.43822  0.68718  0.69208  1.0000
  C   C1069     1.0  0.40681  0.84810  0.63798  1.0000
  H   H846      1.0  0.32456  0.73756  0.56924  1.0000
  H   H847      1.0  0.30813  0.63889  0.88754  1.0000
  C   C1070     1.0  0.42814  0.93673  0.55316  1.0000
  H   H848      1.0  0.42935  0.96583  0.50684  1.0000
  C   C1071     1.0  0.31669  0.79796  0.59577  1.0000
  H   H849      1.0  0.33348  0.60565  0.83363  1.0000
  H   H850      1.0  0.40713  0.50816  0.94546  1.0000
  H   H851      1.0  0.26887  0.60563  0.83130  1.0000
  C   C1072     1.0  0.34076  0.89989  0.63705  1.0000
  H   H852      1.0  0.34386  0.53284  0.56687  1.0000
  C   C1073     1.0  0.43489  0.95836  0.52139  1.0000
  C   C1074     1.0  0.25805  0.68951  0.58611  1.0000
  C   C1075     1.0  0.33361  0.81149  0.59420  1.0000
  C   C1076     1.0  0.39158  0.85361  0.62317  1.0000
  C   C1077     1.0  0.37658  0.81911  0.62812  1.0000
  Fe  Fe74      1.0  0.49025  0.64390  0.97644  1.0000
  H   H853      1.0  0.44332  0.91845  0.70066  1.0000
  H   H854      1.0  0.43014  0.95383  0.59360  1.0000
  C   C1078     1.0  0.46280  0.69651  0.85287  1.0000
  C   C1079     1.0  0.44906  0.93916  0.55896  1.0000
  C   C1080     1.0  0.36324  0.58894  0.83390  1.0000
  C   C1081     1.0  0.47951  0.80005  0.53465  1.0000
  C   C1082     1.0  0.26896  0.74993  0.56380  1.0000
  P   P37       1.0  0.41119  0.91993  0.56920  1.0000
  C   C1083     1.0  0.28107  0.60781  0.55891  1.0000
  S   S148      1.0  0.47990  0.82453  0.62019  1.0000
  C   C1084     1.0  0.42064  0.94398  0.60410  1.0000
  H   H855      1.0  0.29506  0.59960  0.56454  1.0000
  C   C1085     1.0  0.44990  0.53927  0.94668  1.0000
  S   S149      1.0  0.46872  0.69630  0.76638  1.0000
  H   H856      1.0  0.46219  0.73896  0.75062  1.0000
  H   H857      1.0  0.42958  0.96029  0.63162  1.0000
  C   C1086     1.0  0.38478  0.92132  0.55936  1.0000
  C   C1087     1.0  0.37371  0.56943  0.83657  1.0000
  H   H858      1.0  0.32905  0.92726  0.53561  1.0000
  C   C1088     1.0  0.40756  0.93620  0.63982  1.0000
  C   C1089     1.0  0.30017  0.57449  0.80204  1.0000
  C   C1090     1.0  0.36229  0.55153  0.84207  1.0000
  C   C1091     1.0  0.29964  0.63160  0.87522  1.0000
  C   C1092     1.0  0.28725  0.55757  0.56363  1.0000
  C   C1093     1.0  0.26222  0.59716  0.55688  1.0000
  C   C1094     1.0  0.33735  0.70755  0.52701  1.0000
  C   C1095     1.0  0.48253  0.53335  0.98862  1.0000
  H   H859      1.0  0.40769  0.93918  0.65663  1.0000
  H   H860      1.0  0.46891  0.57650  0.73409  1.0000
  H   H861      1.0  0.35048  0.89450  0.53042  1.0000
  C   C1096     1.0  0.35656  0.90696  0.53963  1.0000
  H   H862      1.0  0.37852  0.95291  0.57056  1.0000
  C   C1097     1.0  0.34441  0.92540  0.54261  1.0000
  C   C1098     1.0  0.49001  0.56280  0.94266  1.0000
  S   S150      1.0  0.36165  0.50382  0.80972  1.0000
  H   H863      1.0  0.48977  0.60663  0.90993  1.0000
  C   C1099     1.0  0.41617  0.52225  0.94665  1.0000
  H   H864      1.0  0.28508  0.75457  0.64234  1.0000
  C   C1100     1.0  0.34040  0.55312  0.84500  1.0000
  C   C1101     1.0  0.34135  0.59057  0.83668  1.0000
  H   H865      1.0  0.31509  0.58222  0.80188  1.0000
  C   C1102     1.0  0.32976  0.57272  0.84265  1.0000
  H   H866      1.0  0.47138  0.57312  0.91593  1.0000
  H   H867      1.0  0.26116  0.55649  0.83540  1.0000
  C   C1103     1.0  0.46803  0.72989  0.73737  1.0000
  P   P38       1.0  0.26096  0.56906  0.56237  1.0000
  H   H868      1.0  0.32607  0.70103  0.63012  1.0000
  H   H869      1.0  0.44453  0.54794  0.85934  1.0000
  H   H870      1.0  0.27601  0.51387  0.90931  1.0000
  H   H871      1.0  0.32469  0.53219  0.53327  1.0000
  C   C1104     1.0  0.29398  0.60133  0.85367  1.0000
  C   C1105     1.0  0.30264  0.71815  0.55352  1.0000
  H   H872      1.0  0.44338  0.87974  0.70116  1.0000
  H   H873      1.0  0.24944  0.71693  0.53974  1.0000
  C   C1106     1.0  0.24552  0.62984  0.54392  1.0000
  C   C1107     1.0  0.28264  0.54654  0.90270  1.0000
  C   C1108     1.0  0.24745  0.50274  0.69577  1.0000
  C   C1109     1.0  0.26438  0.64024  0.54563  1.0000
  H   H874      1.0  0.41858  0.85925  0.64191  1.0000
  C   C1110     1.0  0.46107  0.91081  0.65016  1.0000
  C   C1111     1.0  0.29295  0.55573  0.86624  1.0000
  H   H875      1.0  0.48343  0.72534  0.80177  1.0000
  H   H876      1.0  0.28539  0.69795  0.53354  1.0000
  H   H877      1.0  0.31281  0.72888  0.65416  1.0000
  C   C1112     1.0  0.28335  0.64279  0.86507  1.0000
  C   C1113     1.0  0.29175  0.56926  0.78278  1.0000
  C   C1114     1.0  0.30042  0.70446  0.53674  1.0000
  C   C1115     1.0  0.24926  0.56613  0.52037  1.0000
  H   H878      1.0  0.30048  0.57252  0.76810  1.0000
  C   C1116     1.0  0.48865  0.88213  0.56901  1.0000
  C   C1117     1.0  0.31732  0.53942  0.54703  1.0000
  P   P39       1.0  0.47827  0.53729  0.94512  1.0000
  H   H879      1.0  0.44610  0.71751  0.80588  1.0000
  C   C1118     1.0  0.28032  0.52563  0.89727  1.0000
  C   C1119     1.0  0.49374  0.61957  0.71306  1.0000
  H   H880      1.0  0.44815  0.57236  0.95436  1.0000
  H   H881      1.0  0.29222  0.90251  0.49882  1.0000
  H   H882      1.0  0.27073  0.75271  0.60668  1.0000
  H   H883      1.0  0.44820  0.83736  0.56180  1.0000
  C   C1120     1.0  0.47518  0.60241  0.64440  1.0000
  C   C1121     1.0  0.48124  0.58737  0.73002  1.0000
  C   C1122     1.0  0.48617  0.52359  0.96918  1.0000
  C   C1123     1.0  0.28405  0.51974  0.87637  1.0000
  H   H884      1.0  0.48767  0.59946  0.67548  1.0000
  H   H885      1.0  0.26521  0.65679  0.54093  1.0000
  S   S151      1.0  0.49036  0.77346  0.62235  1.0000
  C   C1124     1.0  0.47753  0.60525  0.71685  1.0000
  C   C1125     1.0  0.48271  0.51191  0.88613  1.0000
  H   H886      1.0  0.40945  0.57408  0.95770  1.0000
  C   C1126     1.0  0.40582  0.54142  0.95097  1.0000
  H   H887      1.0  0.46556  0.91957  0.63586  1.0000
  C   C1127     1.0  0.48061  0.69685  0.72319  1.0000
  C   C1128     1.0  0.24992  0.54374  0.59761  1.0000
  H   H888      1.0  0.48283  0.57170  0.87735  1.0000
  C   C1129     1.0  0.27250  0.55926  0.78252  1.0000
  H   H889      1.0  0.25967  0.64197  0.84145  1.0000
  C   C1130     1.0  0.25084  0.78989  0.55431  1.0000
  C   C1131     1.0  0.45667  0.71296  0.81850  1.0000
  C   C1132     1.0  0.24772  0.56380  0.58766  1.0000
  H   H890      1.0  0.32696  0.54937  0.59839  1.0000
  C   C1133     1.0  0.47273  0.83319  0.50520  1.0000
  H   H891      1.0  0.26624  0.55474  0.76761  1.0000
  H   H892      1.0  0.46581  0.87991  0.63640  1.0000
  H   H893      1.0  0.47826  0.95448  0.55155  1.0000
  C   C1134     1.0  0.34191  0.50615  0.88065  1.0000
  H   H894      1.0  0.31575  0.68912  0.51030  1.0000
  H   H895      1.0  0.48827  0.69778  0.68960  1.0000
  C   C1135     1.0  0.47378  0.60330  0.66650  1.0000
  H   H896      1.0  0.25777  0.58044  0.51717  1.0000
  H   H897      1.0  0.25877  0.53116  0.58991  1.0000
  Fe  Fe75      1.0  0.34171  0.50727  0.97471  1.0000
  H   H898      1.0  0.42126  0.79221  0.50628  1.0000
  H   H899      1.0  0.47516  0.54897  0.98916  1.0000
  C   C1136     1.0  0.48428  0.70026  0.85035  1.0000
  S   S152      1.0  0.48653  0.63335  0.76735  1.0000
  H   H900      1.0  0.48299  0.60786  0.86170  1.0000
  C   C1137     1.0  0.48271  0.70688  0.70293  1.0000
  C   C1138     1.0  0.48924  0.65191  0.92064  1.0000
  H   H901      1.0  0.46592  0.97090  0.51791  1.0000
  C   C1139     1.0  0.24441  0.60841  0.54950  1.0000
  C   C1140     1.0  0.26291  0.74303  0.49697  1.0000
  H   H902      1.0  0.38371  0.59352  0.99666  1.0000
  H   H903      1.0  0.24382  0.80517  0.55010  1.0000
  S   S153      1.0  0.64095  0.47020  0.05480  1.0000
  Fe  Fe76      1.0  0.58655  0.47912  0.99966  1.0000
  C   C1141     1.0  0.59173  0.34880  0.09634  1.0000
  H   H904      1.0  0.71708  0.45396  0.46683  1.0000
  C   C1142     1.0  0.58652  0.33940  0.03846  1.0000
  S   S154      1.0  0.61129  0.99945  0.44742  1.0000
  C   C1143     1.0  0.57087  0.24668  0.47574  1.0000
  C   C1144     1.0  0.65469  0.41651  0.17796  1.0000
  C   C1145     1.0  0.57295  0.06084  0.47017  1.0000
  H   H905      1.0  0.53122  0.44377  0.17204  1.0000
  C   C1146     1.0  0.69461  0.46823  0.36862  1.0000
  C   C1147     1.0  0.72869  0.49093  0.22337  1.0000
  S   S155      1.0  0.51256  0.19888  0.42420  1.0000
  H   H906      1.0  0.50696  0.34731  0.07431  1.0000
  H   H907      1.0  0.60809  0.41193  0.01706  1.0000
  S   S156      1.0  0.51910  0.39322  0.24449  1.0000
  S   S157      1.0  0.51386  0.33939  0.21475  1.0000
  Fe  Fe77      1.0  0.60487  0.47572  0.20244  1.0000
  S   S158      1.0  0.58275  0.45093  0.19207  1.0000
  S   S159      1.0  0.63875  0.47518  0.19097  1.0000
  Fe  Fe78      1.0  0.62100  0.19623  0.47252  1.0000
  S   S160      1.0  0.61070  0.20111  0.43871  1.0000
  S   S161      1.0  0.65475  0.18973  0.48093  1.0000
  C   C1148     1.0  0.70494  0.33948  0.46449  1.0000
  H   H908      1.0  0.58950  0.32110  0.01032  1.0000
  S   S162      1.0  0.51244  0.14143  0.33666  1.0000
  H   H909      1.0  0.51628  0.45816  0.25496  1.0000
  H   H910      1.0  0.62640  0.06978  0.43706  1.0000
  H   H911      1.0  0.56452  0.03978  0.42235  1.0000
  C   C1149     1.0  0.54492  0.12055  0.47541  1.0000
  C   C1150     1.0  0.53765  0.40870  0.23037  1.0000
  C   C1151     1.0  0.54887  0.42383  0.24081  1.0000
  C   C1152     1.0  0.56310  0.43686  0.22947  1.0000
  C   C1153     1.0  0.56622  0.43458  0.20767  1.0000
  C   C1154     1.0  0.55546  0.41911  0.19744  1.0000
  C   C1155     1.0  0.54118  0.40626  0.20867  1.0000
  H   H912      1.0  0.54654  0.42551  0.25768  1.0000
  H   H913      1.0  0.57146  0.44868  0.23751  1.0000
  H   H914      1.0  0.55795  0.41727  0.18064  1.0000
  H   H915      1.0  0.53294  0.39444  0.20054  1.0000
  C   C1156     1.0  0.54001  0.19809  0.42758  1.0000
  C   C1157     1.0  0.55430  0.19933  0.41036  1.0000
  C   C1158     1.0  0.57604  0.19981  0.41385  1.0000
  C   C1159     1.0  0.58359  0.19866  0.43452  1.0000
  C   C1160     1.0  0.56934  0.19642  0.45164  1.0000
  C   C1161     1.0  0.54761  0.19654  0.44819  1.0000
  H   H916      1.0  0.54862  0.20055  0.39439  1.0000
  H   H917      1.0  0.58700  0.20144  0.40051  1.0000
  H   H918      1.0  0.57510  0.19522  0.46756  1.0000
  H   H919      1.0  0.53659  0.19572  0.46152  1.0000
  C   C1162     1.0  0.51739  0.13952  0.42154  1.0000
  H   H920      1.0  0.54787  0.15024  0.45804  1.0000
  S   S163      1.0  0.60868  0.16872  0.49127  1.0000
  H   H921      1.0  0.65647  0.09361  0.43178  1.0000
  H   H922      1.0  0.70348  0.03569  0.43341  1.0000
  H   H923      1.0  0.55618  0.21923  0.48987  1.0000
  H   H924      1.0  0.62318  0.34564  0.08256  1.0000
  C   C1163     1.0  0.69791  0.24972  0.49200  1.0000
  H   H925      1.0  0.61514  0.32892  0.49637  1.0000
  Fe  Fe79      1.0  0.49936  0.19673  0.39139  1.0000
  H   H926      1.0  0.57444  0.00175  0.47503  1.0000
  H   H927      1.0  0.59855  0.40879  0.11517  1.0000
  C   C1164     1.0  0.49824  0.46937  0.07502  1.0000
  H   H928      1.0  0.67602  0.40919  0.09836  1.0000
  Fe  Fe80      1.0  0.64561  0.49150  0.22139  1.0000
  H   H929      1.0  0.68103  0.44665  0.45584  1.0000
  H   H930      1.0  0.61437  0.46533  0.38277  1.0000
  C   C1165     1.0  0.64325  0.04770  0.45726  1.0000
  C   C1166     1.0  0.54748  0.32065  0.04487  1.0000
  C   C1167     1.0  0.56142  0.04860  0.43659  1.0000
  C   C1168     1.0  0.65810  0.07937  0.44159  1.0000
  C   C1169     1.0  0.52243  0.48112  0.21936  1.0000
  H   H931      1.0  0.60168  0.34643  0.03575  1.0000
  C   C1170     1.0  0.57717  0.05028  0.45135  1.0000
  C   C1171     1.0  0.65174  0.40619  0.12266  1.0000
  H   H932      1.0  0.55509  0.48357  0.20971  1.0000
  H   H933      1.0  0.50320  0.24838  0.48098  1.0000
  H   H934      1.0  0.72753  0.49081  0.40978  1.0000
  H   H935      1.0  0.73988  0.47704  0.44403  1.0000
  C   C1172     1.0  0.64468  0.47331  0.09811  1.0000
  S   S164      1.0  0.55314  0.46834  0.00237  1.0000
  H   H936      1.0  0.65010  0.45702  0.09778  1.0000
  H   H937      1.0  0.69264  0.23727  0.48234  1.0000
  C   C1173     1.0  0.73083  0.47117  0.23358  1.0000
  H   H938      1.0  0.58791  0.47585  0.11102  1.0000
  H   H939      1.0  0.59827  0.45143  0.04761  1.0000
  H   H940      1.0  0.49796  0.07053  0.36946  1.0000
  H   H941      1.0  0.66413  0.41580  0.16348  1.0000
  H   H942      1.0  0.61320  0.31279  0.14235  1.0000
  C   C1174     1.0  0.57352  0.34500  0.05585  1.0000
  H   H943      1.0  0.58410  0.44023  0.09627  1.0000
  H   H944      1.0  0.51196  0.15452  0.42769  1.0000
  C   C1175     1.0  0.55422  0.33511  0.05925  1.0000
  C   C1176     1.0  0.69642  0.47811  0.41372  1.0000
  H   H945      1.0  0.73046  0.03456  0.40459  1.0000
  C   C1177     1.0  0.60005  0.38237  0.06252  1.0000
  C   C1178     1.0  0.68349  0.46533  0.42678  1.0000
  C   C1179     1.0  0.51446  0.29358  0.14943  1.0000
  C   C1180     1.0  0.49932  0.46501  0.05335  1.0000
  C   C1181     1.0  0.72410  0.47373  0.43934  1.0000
  C   C1182     1.0  0.58614  0.32957  0.12986  1.0000
  H   H946      1.0  0.71802  0.46030  0.23337  1.0000
  H   H947      1.0  0.67987  0.42899  0.19551  1.0000
  C   C1183     1.0  0.57976  0.32488  0.02411  1.0000
  H   H948      1.0  0.52834  0.30090  0.14256  1.0000
  C   C1184     1.0  0.64355  0.48375  0.11756  1.0000
  H   H949      1.0  0.68436  0.37077  0.09785  1.0000
  H   H950      1.0  0.63667  0.32278  0.11182  1.0000
  C   C1185     1.0  0.61023  0.40595  0.03314  1.0000
  S   S165      1.0  0.67172  0.47730  0.24282  1.0000
  H   H951      1.0  0.58615  0.27542  0.46649  1.0000
  S   S166      1.0  0.51649  0.34765  0.15102  1.0000
  H   H952      1.0  0.64866  0.42309  0.12287  1.0000
  Fe  Fe81      1.0  0.50089  0.37098  0.22507  1.0000
  C   C1186     1.0  0.50186  0.34302  0.12829  1.0000
  C   C1187     1.0  0.67208  0.37677  0.10851  1.0000
  C   C1188     1.0  0.55896  0.38053  0.08163  1.0000
  C   C1189     1.0  0.55691  0.38861  0.10201  1.0000
  C   C1190     1.0  0.53914  0.40083  0.10776  1.0000
  C   C1191     1.0  0.52367  0.40551  0.09296  1.0000
  C   C1192     1.0  0.52615  0.39845  0.07234  1.0000
  C   C1193     1.0  0.54375  0.38601  0.06663  1.0000
  H   H953      1.0  0.54424  0.33878  0.07287  1.0000
  H   H954      1.0  0.61922  0.44805  0.16422  1.0000
  H   H955      1.0  0.56880  0.38514  0.11355  1.0000
  H   H956      1.0  0.53731  0.40644  0.12374  1.0000
  C   C1194     1.0  0.67712  0.07446  0.45143  1.0000
  H   H957      1.0  0.51875  0.44156  0.01248  1.0000
  H   H958      1.0  0.54539  0.38064  0.05053  1.0000
  C   C1195     1.0  0.64448  0.24709  0.45417  1.0000
  C   C1196     1.0  0.66356  0.24289  0.44344  1.0000
  C   C1197     1.0  0.67892  0.25817  0.44207  1.0000
  C   C1198     1.0  0.67524  0.27764  0.45150  1.0000
  C   C1199     1.0  0.65607  0.28198  0.46235  1.0000
  C   C1200     1.0  0.64073  0.26648  0.46361  1.0000
  P   P40       1.0  0.65046  0.30739  0.47377  1.0000
  C   C1201     1.0  0.62421  0.31558  0.46619  1.0000
  C   C1202     1.0  0.71120  0.46095  0.45222  1.0000
  C   C1203     1.0  0.51426  0.11362  0.33994  1.0000
  H   H959      1.0  0.69522  0.45720  0.27650  1.0000
  P   P41       1.0  0.58144  0.36420  0.07424  1.0000
  H   H960      1.0  0.51783  0.43046  0.28291  1.0000
  S   S167      1.0  0.49871  0.24601  0.32679  1.0000
  C   C1204     1.0  0.61734  0.31138  0.44587  1.0000
  C   C1205     1.0  0.59673  0.31677  0.44020  1.0000
  C   C1206     1.0  0.58286  0.32643  0.45473  1.0000
  C   C1207     1.0  0.58961  0.33079  0.47494  1.0000
  C   C1208     1.0  0.61023  0.32544  0.48065  1.0000
  C   C1209     1.0  0.66952  0.32615  0.46393  1.0000
  C   C1210     1.0  0.68990  0.32524  0.47194  1.0000
  C   C1211     1.0  0.71693  0.48182  0.41997  1.0000
  C   C1212     1.0  0.51431  0.44184  0.14319  1.0000
  C   C1213     1.0  0.67948  0.35597  0.44104  1.0000
  C   C1214     1.0  0.66440  0.34162  0.44837  1.0000
  H   H961      1.0  0.63260  0.23523  0.45518  1.0000
  H   H962      1.0  0.66644  0.22771  0.43633  1.0000
  C   C1215     1.0  0.66210  0.04295  0.46745  1.0000
  H   H963      1.0  0.68755  0.28903  0.45039  1.0000
  H   H964      1.0  0.62585  0.26935  0.47189  1.0000
  C   C1216     1.0  0.61527  0.39122  0.07493  1.0000
  H   H965      1.0  0.65847  0.43249  0.22866  1.0000
  H   H966      1.0  0.68909  0.09392  0.48544  1.0000
  H   H967      1.0  0.52525  0.17338  0.28044  1.0000
  H   H968      1.0  0.50445  0.10986  0.28091  1.0000
  H   H969      1.0  0.62788  0.30379  0.43444  1.0000
  H   H970      1.0  0.59152  0.31338  0.42451  1.0000
  H   H971      1.0  0.56690  0.33059  0.45027  1.0000
  H   H972      1.0  0.57888  0.33833  0.48619  1.0000
  H   H973      1.0  0.71150  0.36593  0.44343  1.0000
  H   H974      1.0  0.69430  0.31333  0.48380  1.0000
  C   C1217     1.0  0.54389  0.15474  0.49152  1.0000
  Fe  Fe82      1.0  0.51244  0.36157  0.00940  1.0000
  H   H975      1.0  0.72667  0.42484  0.36113  1.0000
  H   H976      1.0  0.64889  0.34266  0.44181  1.0000
  C   C1218     1.0  0.60237  0.14888  0.35020  1.0000
  C   C1219     1.0  0.58587  0.16038  0.34074  1.0000
  C   C1220     1.0  0.56522  0.15786  0.34831  1.0000
  C   C1221     1.0  0.56103  0.14410  0.36553  1.0000
  C   C1222     1.0  0.57758  0.13284  0.37544  1.0000
  C   C1223     1.0  0.59822  0.13499  0.36736  1.0000
  P   P42       1.0  0.57252  0.11456  0.39735  1.0000
  C   C1224     1.0  0.58776  0.12022  0.42007  1.0000
  C   C1225     1.0  0.54544  0.11747  0.40635  1.0000
  C   C1226     1.0  0.53840  0.13662  0.41497  1.0000
  C   C1227     1.0  0.69974  0.35491  0.44912  1.0000
  H   H977      1.0  0.63651  0.09384  0.48228  1.0000
  C   C1228     1.0  0.58441  0.99757  0.44251  1.0000
  C   C1229     1.0  0.53122  0.10112  0.40476  1.0000
  C   C1230     1.0  0.58676  0.10673  0.43807  1.0000
  C   C1231     1.0  0.59900  0.11024  0.45555  1.0000
  C   C1232     1.0  0.61191  0.12762  0.45537  1.0000
  C   C1233     1.0  0.61212  0.14182  0.43801  1.0000
  C   C1234     1.0  0.59996  0.13828  0.42046  1.0000
  C   C1235     1.0  0.57822  0.08846  0.38757  1.0000
  C   C1236     1.0  0.56834  0.08213  0.36935  1.0000
  C   C1237     1.0  0.57215  0.06186  0.36181  1.0000
  C   C1238     1.0  0.58580  0.04774  0.37235  1.0000
  C   C1239     1.0  0.59619  0.05409  0.39012  1.0000
  C   C1240     1.0  0.59265  0.07446  0.39754  1.0000
  H   H978      1.0  0.61836  0.15069  0.34420  1.0000
  H   H979      1.0  0.58902  0.17113  0.32743  1.0000
  H   H980      1.0  0.55233  0.16644  0.34073  1.0000
  H   H981      1.0  0.54482  0.14221  0.37076  1.0000
  H   H982      1.0  0.61112  0.12600  0.37442  1.0000
  H   H983      1.0  0.54906  0.14954  0.41612  1.0000
  H   H984      1.0  0.51448  0.40275  0.06070  1.0000
  C   C1241     1.0  0.62790  0.40724  0.06640  1.0000
  H   H985      1.0  0.66311  0.02883  0.47747  1.0000
  H   H986      1.0  0.53612  0.08619  0.39816  1.0000
  H   H987      1.0  0.57667  0.09333  0.43836  1.0000
  H   H988      1.0  0.59861  0.09950  0.46922  1.0000
  H   H989      1.0  0.62160  0.13026  0.46878  1.0000
  H   H990      1.0  0.62165  0.15569  0.43824  1.0000
  H   H991      1.0  0.60007  0.14981  0.40747  1.0000
  H   H992      1.0  0.55747  0.09277  0.36110  1.0000
  H   H993      1.0  0.56436  0.05696  0.34784  1.0000
  H   H994      1.0  0.58835  0.03190  0.36665  1.0000
  H   H995      1.0  0.60693  0.04314  0.39818  1.0000
  H   H996      1.0  0.60126  0.07907  0.41095  1.0000
  C   C1242     1.0  0.52942  0.08099  0.32632  1.0000
  H   H997      1.0  0.49529  0.22686  0.23306  1.0000
  H   H998      1.0  0.66785  0.46167  0.42207  1.0000
  H   H999      1.0  0.52056  0.30280  0.18111  1.0000
  H   H1000     1.0  0.72028  0.48057  0.49524  1.0000
  C   C1243     1.0  0.54287  0.11058  0.49552  1.0000
  P   P43       1.0  0.52122  0.47777  0.08823  1.0000
  C   C1244     1.0  0.52375  0.46699  0.11493  1.0000
  C   C1245     1.0  0.54541  0.46958  0.07476  1.0000
  H   H1001     1.0  0.72098  0.26073  0.46871  1.0000
  C   C1246     1.0  0.58222  0.47523  0.06599  1.0000
  C   C1247     1.0  0.58358  0.45628  0.05536  1.0000
  C   C1248     1.0  0.56604  0.44364  0.05486  1.0000
  C   C1249     1.0  0.54713  0.45009  0.06484  1.0000
  H   H1002     1.0  0.64825  0.47552  0.13199  1.0000
  S   S168      1.0  0.61191  0.48948  0.23361  1.0000
  Fe  Fe83      1.0  0.62780  0.48270  0.02314  1.0000
  H   H1003     1.0  0.67555  0.36786  0.42900  1.0000
  H   H1004     1.0  0.50971  0.41459  0.09729  1.0000
  C   C1250     1.0  0.70974  0.00588  0.48008  1.0000
  C   C1251     1.0  0.50161  0.27794  0.29612  1.0000
  H   H1005     1.0  0.54685  0.11148  0.46127  1.0000
  C   C1252     1.0  0.59731  0.39021  0.04171  1.0000
  Fe  Fe84      1.0  0.61429  0.99523  0.48262  1.0000
  Fe  Fe85      1.0  0.50672  0.01462  0.35924  1.0000
  C   C1253     1.0  0.51889  0.06911  0.34208  1.0000
  S   S169      1.0  0.51636  0.19613  0.35983  1.0000
  C   C1254     1.0  0.71901  0.04144  0.43612  1.0000
  H   H1006     1.0  0.51388  0.46638  0.04416  1.0000
  C   C1255     1.0  0.71282  0.48106  0.29127  1.0000
  C   C1256     1.0  0.71471  0.43696  0.35781  1.0000
  H   H1007     1.0  0.65292  0.45967  0.38170  1.0000
  H   H1008     1.0  0.56704  0.42897  0.04652  1.0000
  H   H1009     1.0  0.53380  0.44004  0.06440  1.0000
  H   H1010     1.0  0.71645  0.00660  0.46417  1.0000
  P   P44       1.0  0.68776  0.48776  0.38810  1.0000
  H   H1011     1.0  0.72074  0.33837  0.47052  1.0000
  C   C1257     1.0  0.68833  0.48780  0.26214  1.0000
  C   C1258     1.0  0.49629  0.28927  0.27728  1.0000
  C   C1259     1.0  0.50323  0.12343  0.41944  1.0000
  C   C1260     1.0  0.67914  0.05644  0.46481  1.0000
  C   C1261     1.0  0.57831  0.34221  0.11320  1.0000
  C   C1262     1.0  0.62553  0.41445  0.04547  1.0000
  H   H1012     1.0  0.63523  0.42699  0.03894  1.0000
  C   C1263     1.0  0.53945  0.47446  0.12767  1.0000
  C   C1264     1.0  0.71403  0.26308  0.48432  1.0000
  C   C1265     1.0  0.68487  0.46907  0.34894  1.0000
  S   S170      1.0  0.61605  0.45901  0.00073  1.0000
  C   C1266     1.0  0.50036  0.28411  0.13642  1.0000
  H   H1013     1.0  0.51582  0.40294  0.01317  1.0000
  C   C1267     1.0  0.51070  0.34786  0.10816  1.0000
  H   H1014     1.0  0.54521  0.17172  0.49018  1.0000
  H   H1015     1.0  0.53258  0.13525  0.27541  1.0000
  H   H1016     1.0  0.62194  0.36458  0.18154  1.0000
  H   H1017     1.0  0.51036  0.02267  0.45524  1.0000
  H   H1018     1.0  0.51417  0.28337  0.30554  1.0000
  H   H1019     1.0  0.53568  0.11175  0.31306  1.0000
  C   C1268     1.0  0.56966  0.99827  0.45936  1.0000
  H   H1020     1.0  0.52925  0.05594  0.42914  1.0000
  C   C1269     1.0  0.50174  0.45193  0.26128  1.0000
  H   H1021     1.0  0.53951  0.07311  0.31476  1.0000
  C   C1270     1.0  0.68991  0.45390  0.33391  1.0000
  C   C1271     1.0  0.52719  0.10295  0.32532  1.0000
  C   C1272     1.0  0.69844  0.47382  0.27667  1.0000
  H   H1022     1.0  0.55471  0.30483  0.01581  1.0000
  C   C1273     1.0  0.56319  0.48205  0.07540  1.0000
  C   C1274     1.0  0.69090  0.45677  0.44595  1.0000
  H   H1023     1.0  0.63017  0.03727  0.45957  1.0000
  H   H1024     1.0  0.50480  0.30316  0.27235  1.0000
  C   C1275     1.0  0.54215  0.46607  0.14819  1.0000
  C   C1276     1.0  0.50356  0.10195  0.35596  1.0000
  C   C1277     1.0  0.54804  0.39686  0.00309  1.0000
  H   H1025     1.0  0.55435  0.47177  0.15802  1.0000
  H   H1026     1.0  0.49951  0.12518  0.47372  1.0000
  C   C1278     1.0  0.72379  0.04945  0.45584  1.0000
  C   C1279     1.0  0.64116  0.06599  0.44453  1.0000
  C   C1280     1.0  0.65951  0.49184  0.38919  1.0000
  C   C1281     1.0  0.49994  0.34365  0.08971  1.0000
  C   C1282     1.0  0.50272  0.43630  0.27739  1.0000
  S   S171      1.0  0.52345  0.04141  0.34201  1.0000
  H   H1027     1.0  0.52155  0.07493  0.46229  1.0000
  C   C1283     1.0  0.54546  0.14257  0.47347  1.0000
  C   C1284     1.0  0.70944  0.45190  0.37302  1.0000
  H   H1028     1.0  0.72020  0.47010  0.30238  1.0000
  C   C1285     1.0  0.55119  0.44090  0.00177  1.0000
  C   C1286     1.0  0.53721  0.06835  0.45923  1.0000
  H   H1029     1.0  0.53226  0.31357  0.04727  1.0000
  H   H1030     1.0  0.59599  0.48475  0.06677  1.0000
  H   H1031     1.0  0.62109  0.42224  0.22985  1.0000
  H   H1032     1.0  0.56172  0.34651  0.11346  1.0000
  H   H1033     1.0  0.70908  0.42641  0.32647  1.0000
  C   C1287     1.0  0.51694  0.27671  0.49081  1.0000
  H   H1034     1.0  0.60509  0.40887  0.19818  1.0000
  C   C1288     1.0  0.64632  0.47512  0.38530  1.0000
  C   C1289     1.0  0.51016  0.10415  0.41125  1.0000
  H   H1035     1.0  0.58495  0.38441  0.03220  1.0000
  H   H1036     1.0  0.52292  0.46406  0.21860  1.0000
  H   H1037     1.0  0.68245  0.45479  0.31868  1.0000
  C   C1290     1.0  0.66372  0.42401  0.19610  1.0000
  P   P45       1.0  0.70399  0.04985  0.47693  1.0000
  C   C1291     1.0  0.51123  0.45051  0.12284  1.0000
  C   C1292     1.0  0.66740  0.39839  0.10878  1.0000
  C   C1293     1.0  0.62050  0.32861  0.11242  1.0000
  H   H1038     1.0  0.60499  0.47931  0.14531  1.0000
  C   C1294     1.0  0.62445  0.47824  0.38599  1.0000
  C   C1295     1.0  0.70490  0.43791  0.33829  1.0000
  H   H1039     1.0  0.53183  0.27331  0.48267  1.0000
  C   C1296     1.0  0.56017  0.31566  0.02720  1.0000
  H   H1040     1.0  0.61716  0.38608  0.09126  1.0000
  C   C1297     1.0  0.53220  0.43172  0.00797  1.0000
  C   C1298     1.0  0.51263  0.16233  0.28221  1.0000
  C   C1299     1.0  0.61281  0.34159  0.09589  1.0000
  C   C1300     1.0  0.63904  0.48386  0.07907  1.0000
  C   C1301     1.0  0.65167  0.42594  0.21484  1.0000
  C   C1302     1.0  0.70275  0.02428  0.49022  1.0000
  S   S172      1.0  0.54642  0.36930  0.00490  1.0000
  H   H1041     1.0  0.57122  0.24073  0.45981  1.0000
  H   H1042     1.0  0.58527  0.06154  0.48156  1.0000
  C   C1303     1.0  0.53058  0.40977  0.00847  1.0000
  C   C1304     1.0  0.60725  0.32283  0.12954  1.0000
  C   C1305     1.0  0.54148  0.05769  0.44048  1.0000
  C   C1306     1.0  0.55290  0.06990  0.47426  1.0000
  H   H1043     1.0  0.63932  0.41448  0.07603  1.0000
  H   H1044     1.0  0.52589  0.35492  0.10682  1.0000
  C   C1307     1.0  0.50381  0.49205  0.22558  1.0000
  C   C1308     1.0  0.50593  0.07961  0.35707  1.0000
  H   H1045     1.0  0.49474  0.18635  0.46661  1.0000
  C   C1309     1.0  0.50064  0.12643  0.28255  1.0000
  H   H1046     1.0  0.69022  0.08483  0.44876  1.0000
  C   C1310     1.0  0.57931  0.26622  0.47955  1.0000
  H   H1047     1.0  0.59247  0.04278  0.44848  1.0000
  C   C1311     1.0  0.52938  0.44998  0.15602  1.0000
  H   H1048     1.0  0.69387  0.25481  0.43402  1.0000
  H   H1049     1.0  0.54963  0.48676  0.12168  1.0000
  C   C1312     1.0  0.51674  0.14084  0.27938  1.0000
  H   H1050     1.0  0.57566  0.32476  0.14287  1.0000
  Fe  Fe86      1.0  0.49970  0.34864  0.18328  1.0000
  H   H1051     1.0  0.71747  0.45089  0.38791  1.0000
  C   C1313     1.0  0.66115  0.36295  0.12219  1.0000
  C   C1314     1.0  0.64533  0.37069  0.13600  1.0000
  C   C1315     1.0  0.64043  0.39239  0.13628  1.0000
  P   P46       1.0  0.62097  0.40305  0.15478  1.0000
  C   C1316     1.0  0.60944  0.42599  0.14145  1.0000
  C   C1317     1.0  0.60100  0.38430  0.16245  1.0000
  C   C1318     1.0  0.57997  0.38777  0.15675  1.0000
  C   C1319     1.0  0.56448  0.37388  0.16387  1.0000
  C   C1320     1.0  0.56971  0.35657  0.17705  1.0000
  C   C1321     1.0  0.59051  0.35313  0.18314  1.0000
  C   C1322     1.0  0.60607  0.36699  0.17599  1.0000
  C   C1323     1.0  0.61140  0.44605  0.14956  1.0000
  C   C1324     1.0  0.60316  0.46387  0.13887  1.0000
  C   C1325     1.0  0.59346  0.46185  0.11958  1.0000
  C   C1326     1.0  0.59158  0.44190  0.11121  1.0000
  C   C1327     1.0  0.59974  0.42406  0.12198  1.0000
  C   C1328     1.0  0.63353  0.41075  0.17852  1.0000
  C   C1329     1.0  0.63064  0.42019  0.21552  1.0000
  C   C1330     1.0  0.62161  0.41257  0.19748  1.0000
  H   H1052     1.0  0.66513  0.34625  0.12225  1.0000
  H   H1053     1.0  0.63712  0.35970  0.14642  1.0000
  H   H1054     1.0  0.57511  0.40164  0.14765  1.0000
  H   H1055     1.0  0.54823  0.37691  0.15976  1.0000
  H   H1056     1.0  0.55749  0.34614  0.18288  1.0000
  H   H1057     1.0  0.59442  0.34004  0.19388  1.0000
  H   H1058     1.0  0.67350  0.48157  0.34511  1.0000
  C   C1331     1.0  0.73428  0.04071  0.41976  1.0000
  C   C1332     1.0  0.54063  0.49210  0.21395  1.0000
  C   C1333     1.0  0.56241  0.23456  0.49259  1.0000
  C   C1334     1.0  0.49487  0.02581  0.46224  1.0000
  H   H1059     1.0  0.49927  0.44412  0.11340  1.0000
  H   H1060     1.0  0.50505  0.42876  0.14913  1.0000
  C   C1335     1.0  0.51005  0.29469  0.17116  1.0000
  H   H1061     1.0  0.49563  0.99766  0.48199  1.0000
  S   S173      1.0  0.74106  0.29631  0.48537  1.0000
  H   H1062     1.0  0.49916  0.09169  0.40932  1.0000
  C   C1336     1.0  0.50065  0.26248  0.49003  1.0000
  S   S174      1.0  0.49887  0.32928  0.01068  1.0000
  Fe  Fe87      1.0  0.49623  0.16859  0.35366  1.0000
  H   H1063     1.0  0.50331  0.28418  0.11944  1.0000
  C   C1337     1.0  0.70110  0.08911  0.49646  1.0000
  S   S175      1.0  0.65674  0.13062  0.49650  1.0000
  C   C1338     1.0  0.72119  0.27948  0.49652  1.0000
  C   C1339     1.0  0.71058  0.06884  0.49629  1.0000
  H   H1064     1.0  0.66035  0.33828  0.50528  1.0000
  S   S176      1.0  0.63981  0.46579  0.94334  1.0000
  C   C1340     1.0  0.58345  0.09313  0.51844  1.0000
  H   H1065     1.0  0.66411  0.11406  0.53904  1.0000
  H   H1066     1.0  0.66193  0.07768  0.55444  1.0000
  H   H1067     1.0  0.72001  0.43783  0.75601  1.0000
  C   C1341     1.0  0.63694  0.46828  0.89979  1.0000
  H   H1068     1.0  0.50646  0.00601  0.59298  1.0000
  H   H1069     1.0  0.54660  0.41629  0.64786  1.0000
  C   C1342     1.0  0.63648  0.47950  0.91866  1.0000
  H   H1070     1.0  0.54576  0.10242  0.68709  1.0000
  P   P47       1.0  0.50829  0.35932  0.70767  1.0000
  H   H1071     1.0  0.51171  0.32628  0.74084  1.0000
  Fe  Fe88      1.0  0.61384  0.46400  0.79646  1.0000
  S   S177      1.0  0.60399  0.43015  0.80209  1.0000
  S   S178      1.0  0.64550  0.47520  0.80607  1.0000
  H   H1072     1.0  0.50452  0.02017  0.51794  1.0000
  H   H1073     1.0  0.68440  0.00189  0.53667  1.0000
  S   S179      1.0  0.51217  0.40537  0.77671  1.0000
  Fe  Fe89      1.0  0.51423  0.21074  0.63867  1.0000
  S   S180      1.0  0.54842  0.21353  0.62788  1.0000
  C   C1343     1.0  0.73390  0.41762  0.81043  1.0000
  H   H1074     1.0  0.63892  0.45129  0.90054  1.0000
  H   H1075     1.0  0.73304  0.04766  0.51187  1.0000
  C   C1344     1.0  0.69476  0.47476  0.83347  1.0000
  H   H1076     1.0  0.50837  0.26172  0.75245  1.0000
  H   H1077     1.0  0.59884  0.23468  0.53782  1.0000
  C   C1345     1.0  0.61179  0.28872  0.89465  1.0000
  S   S181      1.0  0.66797  0.23624  0.52263  1.0000
  Fe  Fe90      1.0  0.60493  0.19091  0.51807  1.0000
  S   S182      1.0  0.57207  0.18982  0.53301  1.0000
  S   S183      1.0  0.63728  0.18319  0.53035  1.0000
  H   H1078     1.0  0.63933  0.41435  0.77614  1.0000
  H   H1079     1.0  0.60363  0.30115  0.53794  1.0000
  C   C1346     1.0  0.69614  0.26860  0.52453  1.0000
  C   C1347     1.0  0.49981  0.16205  0.57536  1.0000
  H   H1080     1.0  0.58361  0.10692  0.50790  1.0000
  H   H1081     1.0  0.68944  0.27075  0.54025  1.0000
  C   C1348     1.0  0.55508  0.20700  0.60150  1.0000
  C   C1349     1.0  0.53945  0.20341  0.58710  1.0000
  C   C1350     1.0  0.54491  0.19842  0.56610  1.0000
  C   C1351     1.0  0.56609  0.19686  0.55936  1.0000
  C   C1352     1.0  0.58179  0.20055  0.57369  1.0000
  C   C1353     1.0  0.57629  0.20572  0.59469  1.0000
  H   H1082     1.0  0.52312  0.20498  0.59212  1.0000
  H   H1083     1.0  0.53268  0.19588  0.55502  1.0000
  H   H1084     1.0  0.59815  0.19912  0.56871  1.0000
  H   H1085     1.0  0.58848  0.20856  0.60573  1.0000
  C   C1354     1.0  0.57802  0.42387  0.79594  1.0000
  C   C1355     1.0  0.56518  0.43803  0.78439  1.0000
  C   C1356     1.0  0.54494  0.43225  0.77880  1.0000
  C   C1357     1.0  0.53723  0.41243  0.78501  1.0000
  C   C1358     1.0  0.54987  0.39846  0.79701  1.0000
  C   C1359     1.0  0.57026  0.40409  0.80229  1.0000
  H   H1086     1.0  0.57099  0.45330  0.77939  1.0000
  H   H1087     1.0  0.53528  0.44314  0.76949  1.0000
  H   H1088     1.0  0.54412  0.38311  0.80175  1.0000
  H   H1089     1.0  0.58010  0.39306  0.81124  1.0000
  H   H1090     1.0  0.51794  0.31417  0.86159  1.0000
  C   C1360     1.0  0.69930  0.47181  0.70622  1.0000
  C   C1361     1.0  0.68873  0.25241  0.51216  1.0000
  C   C1362     1.0  0.65379  0.42169  0.78015  1.0000
  H   H1091     1.0  0.49592  0.39831  0.86431  1.0000
  H   H1092     1.0  0.65261  0.30306  0.56393  1.0000
  H   H1093     1.0  0.68389  0.48517  0.65391  1.0000
  C   C1363     1.0  0.52229  0.28973  0.91654  1.0000
  H   H1094     1.0  0.64770  0.49130  0.66879  1.0000
  H   H1095     1.0  0.63097  0.22254  0.55592  1.0000
  H   H1096     1.0  0.50873  0.42110  0.65771  1.0000
  C   C1364     1.0  0.53642  0.33501  0.76089  1.0000
  H   H1097     1.0  0.52763  0.26126  0.52994  1.0000
  C   C1365     1.0  0.52006  0.31794  0.69695  1.0000
  C   C1366     1.0  0.50938  0.24967  0.57964  1.0000
  C   C1367     1.0  0.66197  0.43770  0.76698  1.0000
  H   H1098     1.0  0.67839  0.48931  0.85991  1.0000
  C   C1368     1.0  0.59108  0.29607  0.89180  1.0000
  H   H1099     1.0  0.53218  0.46409  0.87855  1.0000
  H   H1100     1.0  0.68794  0.03660  0.51870  1.0000
  H   H1101     1.0  0.63509  0.47012  0.86554  1.0000
  H   H1102     1.0  0.53606  0.30385  0.54697  1.0000
  H   H1103     1.0  0.57290  0.00817  0.60248  1.0000
  H   H1104     1.0  0.60113  0.33910  0.85974  1.0000
  H   H1105     1.0  0.69922  0.11911  0.51145  1.0000
  H   H1106     1.0  0.65382  0.44284  0.75282  1.0000
  C   C1369     1.0  0.55086  0.31247  0.85171  1.0000
  S   S184      1.0  0.61515  0.21915  0.49844  1.0000
  C   C1370     1.0  0.51787  0.29929  0.68614  1.0000
  C   C1371     1.0  0.64614  0.28727  0.51366  1.0000
  C   C1372     1.0  0.63481  0.47891  0.87994  1.0000
  C   C1373     1.0  0.51786  0.40807  0.66463  1.0000
  C   C1374     1.0  0.64986  0.10672  0.50981  1.0000
  H   H1107     1.0  0.51068  0.47834  0.98748  1.0000
  C   C1375     1.0  0.52340  0.06956  0.50987  1.0000
  C   C1376     1.0  0.52925  0.30963  0.84931  1.0000
  C   C1377     1.0  0.57040  0.26171  0.51712  1.0000
  C   C1378     1.0  0.71736  0.48311  0.70013  1.0000
  H   H1108     1.0  0.64259  0.24086  0.58727  1.0000
  C   C1379     1.0  0.50543  0.44523  0.93482  1.0000
  C   C1380     1.0  0.52199  0.30082  0.83099  1.0000
  C   C1381     1.0  0.60405  0.24340  0.55098  1.0000
  C   C1382     1.0  0.50490  0.44082  0.95675  1.0000
  H   H1109     1.0  0.51844  0.43363  0.96449  1.0000
  H   H1110     1.0  0.51028  0.29780  0.94761  1.0000
  Fe  Fe91      1.0  0.64176  0.16318  0.50159  1.0000
  C   C1383     1.0  0.65641  0.32368  0.51359  1.0000
  H   H1111     1.0  0.49567  0.35751  0.94370  1.0000
  H   H1112     1.0  0.51985  0.11397  0.56178  1.0000
  H   H1113     1.0  0.54979  0.34334  0.91659  1.0000
  Fe  Fe92      1.0  0.62756  0.48046  0.97394  1.0000
  C   C1384     1.0  0.50830  0.39409  0.67925  1.0000
  C   C1385     1.0  0.69379  0.02265  0.51074  1.0000
  H   H1114     1.0  0.52255  0.45640  0.84218  1.0000
  C   C1386     1.0  0.58908  0.33208  0.53857  1.0000
  C   C1387     1.0  0.54086  0.12303  0.51350  1.0000
  S   S185      1.0  0.51059  0.34756  0.80605  1.0000
  H   H1115     1.0  0.50470  0.42340  0.83489  1.0000
  H   H1116     1.0  0.53626  0.28579  0.88564  1.0000
  H   H1117     1.0  0.53128  0.15034  0.56840  1.0000
  C   C1388     1.0  0.56345  0.00720  0.57018  1.0000
  H   H1118     1.0  0.55069  0.36149  0.68934  1.0000
  C   C1389     1.0  0.52489  0.44935  0.87573  1.0000
  Fe  Fe93      1.0  0.64808  0.21044  0.50878  1.0000
  H   H1119     1.0  0.64458  0.29383  0.88729  1.0000
  H   H1120     1.0  0.69593  0.45767  0.69802  1.0000
  C   C1390     1.0  0.58890  0.31005  0.53958  1.0000
  C   C1391     1.0  0.52312  0.06129  0.57335  1.0000
  C   C1392     1.0  0.53993  0.07183  0.58145  1.0000
  C   C1393     1.0  0.53653  0.08611  0.59779  1.0000
  C   C1394     1.0  0.51602  0.08954  0.60605  1.0000
  P   P48       1.0  0.55875  0.09788  0.60945  1.0000
  C   C1395     1.0  0.55022  0.11072  0.63352  1.0000
  C   C1396     1.0  0.57725  0.07635  0.61490  1.0000
  C   C1397     1.0  0.57007  0.05752  0.62448  1.0000
  C   C1398     1.0  0.58408  0.04053  0.62825  1.0000
  C   C1399     1.0  0.60520  0.04187  0.62179  1.0000
  C   C1400     1.0  0.61241  0.06039  0.61186  1.0000
  C   C1401     1.0  0.59854  0.07763  0.60853  1.0000
  C   C1402     1.0  0.54138  0.13129  0.63229  1.0000
  C   C1403     1.0  0.53467  0.14145  0.65069  1.0000
  C   C1404     1.0  0.55187  0.10039  0.65343  1.0000
  C   C1405     1.0  0.57098  0.11746  0.59215  1.0000
  C   C1406     1.0  0.56854  0.11765  0.57013  1.0000
  C   C1407     1.0  0.57852  0.13282  0.55713  1.0000
  C   C1408     1.0  0.59125  0.14756  0.56593  1.0000
  C   C1409     1.0  0.59372  0.14750  0.58779  1.0000
  C   C1410     1.0  0.58371  0.13249  0.60086  1.0000
  C   C1411     1.0  0.50283  0.06448  0.58193  1.0000
  C   C1412     1.0  0.56495  0.30724  0.83500  1.0000
  H   H1121     1.0  0.52598  0.04994  0.56107  1.0000
  H   H1122     1.0  0.55572  0.06822  0.57558  1.0000
  H   H1123     1.0  0.51287  0.10010  0.61892  1.0000
  H   H1124     1.0  0.55359  0.05582  0.62896  1.0000
  H   H1125     1.0  0.57833  0.02612  0.63576  1.0000
  H   H1126     1.0  0.61592  0.02848  0.62429  1.0000
  H   H1127     1.0  0.62875  0.06130  0.60661  1.0000
  H   H1128     1.0  0.60450  0.09173  0.60072  1.0000
  H   H1129     1.0  0.53955  0.13952  0.61714  1.0000
  H   H1130     1.0  0.52773  0.15726  0.64972  1.0000
  H   H1131     1.0  0.55833  0.08451  0.65498  1.0000
  H   H1132     1.0  0.55924  0.10604  0.56294  1.0000
  H   H1133     1.0  0.57669  0.13319  0.54015  1.0000
  H   H1134     1.0  0.59911  0.15914  0.55579  1.0000
  H   H1135     1.0  0.60333  0.15920  0.59462  1.0000
  H   H1136     1.0  0.58597  0.13261  0.61779  1.0000
  H   H1137     1.0  0.62242  0.27232  0.60000  1.0000
  C   C1413     1.0  0.70675  0.10354  0.51139  1.0000
  H   H1138     1.0  0.50458  0.17781  0.57850  1.0000
  H   H1139     1.0  0.53505  0.32101  0.77105  1.0000
  C   C1414     1.0  0.62208  0.23622  0.56148  1.0000
  H   H1140     1.0  0.56255  0.38095  0.75650  1.0000
  C   C1415     1.0  0.68489  0.49160  0.84396  1.0000
  C   C1416     1.0  0.50486  0.03723  0.51806  1.0000
  C   C1417     1.0  0.57918  0.27370  0.50016  1.0000
  C   C1418     1.0  0.53071  0.32146  0.93419  1.0000
  H   H1141     1.0  0.60388  0.34001  0.53645  1.0000
  H   H1142     1.0  0.59096  0.28560  0.58120  1.0000
  C   C1419     1.0  0.55117  0.33356  0.54348  1.0000
  Fe  Fe94      1.0  0.58572  0.99742  0.52130  1.0000
  C   C1420     1.0  0.56894  0.05993  0.53062  1.0000
  C   C1421     1.0  0.58502  0.05727  0.54517  1.0000
  C   C1422     1.0  0.59984  0.07279  0.54687  1.0000
  C   C1423     1.0  0.59908  0.09068  0.53348  1.0000
  C   C1424     1.0  0.56783  0.07803  0.51728  1.0000
  Fe  Fe95      1.0  0.63029  0.01318  0.52246  1.0000
  C   C1425     1.0  0.62869  0.24661  0.57913  1.0000
  H   H1143     1.0  0.55956  0.26226  0.58924  1.0000
  C   C1426     1.0  0.70266  0.47760  0.81259  1.0000
  H   H1144     1.0  0.61091  0.10250  0.53452  1.0000
  C   C1427     1.0  0.57022  0.34383  0.54053  1.0000
  H   H1145     1.0  0.73246  0.41186  0.50638  1.0000
  H   H1146     1.0  0.61485  0.27456  0.90424  1.0000
  C   C1428     1.0  0.55095  0.31151  0.54454  1.0000
  H   H1147     1.0  0.49979  0.28305  0.66383  1.0000
  H   H1148     1.0  0.69571  0.45943  0.84145  1.0000
  H   H1149     1.0  0.54006  0.11566  0.52915  1.0000
  C   C1429     1.0  0.72987  0.45131  0.75717  1.0000
  C   C1430     1.0  0.52205  0.04757  0.50882  1.0000
  H   H1150     1.0  0.49649  0.39906  0.72735  1.0000
  H   H1151     1.0  0.50528  0.29868  0.82921  1.0000
  H   H1152     1.0  0.55764  0.04768  0.52987  1.0000
  H   H1153     1.0  0.58608  0.04313  0.55515  1.0000
  H   H1154     1.0  0.61232  0.07059  0.55813  1.0000
  C   C1431     1.0  0.50423  0.41244  0.86751  1.0000
  C   C1432     1.0  0.54573  0.26001  0.58013  1.0000
  S   S186      1.0  0.73446  0.47320  0.67945  1.0000
  C   C1433     1.0  0.53461  0.29611  0.89892  1.0000
  C   C1434     1.0  0.61740  0.26440  0.58618  1.0000
  C   C1435     1.0  0.71205  0.28217  0.51673  1.0000
  C   C1436     1.0  0.74341  0.47981  0.77686  1.0000
  H   H1155     1.0  0.56199  0.41345  0.86462  1.0000
  H   H1156     1.0  0.54069  0.15453  0.52548  1.0000
  H   H1157     1.0  0.71720  0.29471  0.52632  1.0000
  C   C1437     1.0  0.52484  0.35597  0.73034  1.0000
  C   C1438     1.0  0.54133  0.14500  0.51150  1.0000
  H   H1158     1.0  0.53962  0.38624  0.72604  1.0000
  P   P49       1.0  0.71349  0.45532  0.79846  1.0000
  H   H1159     1.0  0.56722  0.48282  0.86025  1.0000
  C   C1439     1.0  0.52320  0.33801  0.74371  1.0000
  H   H1160     1.0  0.58086  0.35664  0.89855  1.0000
  C   C1440     1.0  0.54142  0.37449  0.68255  1.0000
  H   H1161     1.0  0.51303  0.00430  0.55445  1.0000
  H   H1162     1.0  0.49959  0.16806  0.50154  1.0000
  C   C1441     1.0  0.52024  0.30246  0.93413  1.0000
  C   C1442     1.0  0.73351  0.42399  0.53775  1.0000
  H   H1163     1.0  0.57037  0.36092  0.53994  1.0000
  C   C1443     1.0  0.64647  0.28640  0.53576  1.0000
  H   H1164     1.0  0.56058  0.34833  0.77906  1.0000
  S   S187      1.0  0.53477  0.00736  0.62793  1.0000
  C   C1444     1.0  0.69066  0.44143  0.79101  1.0000
  C   C1445     1.0  0.68204  0.42570  0.80448  1.0000
  C   C1446     1.0  0.66369  0.41582  0.79899  1.0000
  C   C1447     1.0  0.53917  0.40534  0.65905  1.0000
  C   C1448     1.0  0.68021  0.44767  0.77252  1.0000
  H   H1165     1.0  0.67153  0.46995  0.72682  1.0000
  H   H1166     1.0  0.58603  0.28872  0.50271  1.0000
  C   C1449     1.0  0.54252  0.32822  0.91634  1.0000
  C   C1450     1.0  0.69185  0.00296  0.52102  1.0000
  H   H1167     1.0  0.52837  0.28583  0.68919  1.0000
  H   H1168     1.0  0.58277  0.43506  0.98986  1.0000
  H   H1169     1.0  0.64250  0.27314  0.50560  1.0000
  S   S188      1.0  0.61394  0.48269  0.76552  1.0000
  H   H1170     1.0  0.56850  0.29456  0.80377  1.0000
  H   H1171     1.0  0.63756  0.32610  0.86508  1.0000
  H   H1172     1.0  0.73865  0.46407  0.83528  1.0000
  C   C1451     1.0  0.59278  0.26140  0.55775  1.0000
  C   C1452     1.0  0.63963  0.07007  0.50726  1.0000
  H   H1173     1.0  0.58178  0.39533  0.89359  1.0000
  H   H1174     1.0  0.68911  0.42143  0.81944  1.0000
  H   H1175     1.0  0.65671  0.40406  0.80957  1.0000
  H   H1176     1.0  0.68590  0.46063  0.76269  1.0000
  C   C1453     1.0  0.72977  0.46292  0.77573  1.0000
  C   C1454     1.0  0.74264  0.45714  0.73970  1.0000
  C   C1455     1.0  0.52732  0.25376  0.59089  1.0000
  C   C1456     1.0  0.52786  0.25919  0.54691  1.0000
  C   C1457     1.0  0.50675  0.08110  0.51950  1.0000
  C   C1458     1.0  0.59958  0.27185  0.57548  1.0000
  P   P50       1.0  0.52895  0.43925  0.91912  1.0000
  C   C1459     1.0  0.54683  0.46078  0.91984  1.0000
  C   C1460     1.0  0.54166  0.41562  0.93027  1.0000
  C   C1461     1.0  0.56360  0.41434  0.93266  1.0000
  C   C1462     1.0  0.57310  0.39653  0.94235  1.0000
  C   C1463     1.0  0.56083  0.37993  0.95000  1.0000
  C   C1464     1.0  0.53906  0.38111  0.94787  1.0000
  C   C1465     1.0  0.52951  0.39877  0.93797  1.0000
  C   C1466     1.0  0.56392  0.46200  0.90526  1.0000
  C   C1467     1.0  0.57832  0.47806  0.90639  1.0000
  H   H1177     1.0  0.49602  0.24867  0.54890  1.0000
  H   H1178     1.0  0.64343  0.27165  0.54419  1.0000
  C   C1468     1.0  0.54461  0.47573  0.93573  1.0000
  C   C1469     1.0  0.52119  0.43448  0.89234  1.0000
  H   H1179     1.0  0.54119  0.39264  0.84075  1.0000
  C   C1470     1.0  0.50971  0.25232  0.55765  1.0000
  S   S189      1.0  0.64732  0.03911  0.53835  1.0000
  C   C1471     1.0  0.55092  0.38850  0.66793  1.0000
  H   H1180     1.0  0.54675  0.48361  0.82741  1.0000
  C   C1472     1.0  0.68543  0.47871  0.72266  1.0000
  C   C1473     1.0  0.52610  0.00557  0.56485  1.0000
  C   C1474     1.0  0.55195  0.36869  0.75261  1.0000
  C   C1475     1.0  0.51915  0.44526  0.85507  1.0000
  S   S190      1.0  0.49950  0.35453  0.86663  1.0000
  H   H1181     1.0  0.57353  0.42716  0.92763  1.0000
  H   H1182     1.0  0.58994  0.39593  0.94460  1.0000
  H   H1183     1.0  0.56805  0.36652  0.95835  1.0000
  H   H1184     1.0  0.52954  0.36863  0.95465  1.0000
  H   H1185     1.0  0.51257  0.39954  0.93706  1.0000
  H   H1186     1.0  0.56648  0.45018  0.89339  1.0000
  Fe  Fe96      1.0  0.50007  0.00503  0.63378  1.0000
  H   H1187     1.0  0.53289  0.31879  0.70769  1.0000
  C   C1476     1.0  0.73103  0.07765  0.52659  1.0000
  H   H1188     1.0  0.53225  0.47472  0.94780  1.0000
  H   H1189     1.0  0.50659  0.40479  0.90053  1.0000
  C   C1477     1.0  0.53892  0.37160  0.73526  1.0000
  C   C1478     1.0  0.72559  0.06323  0.51155  1.0000
  H   H1190     1.0  0.56744  0.38634  0.66359  1.0000
  C   C1479     1.0  0.52238  0.00641  0.58677  1.0000
  H   H1191     1.0  0.50714  0.09802  0.52037  1.0000
  S   S191      1.0  0.49377  0.29909  0.77382  1.0000
  C   C1480     1.0  0.54486  0.11054  0.67178  1.0000
  C   C1481     1.0  0.56249  0.24187  0.51318  1.0000
  P   P51       1.0  0.56984  0.27114  0.54387  1.0000
  H   H1192     1.0  0.58160  0.30979  0.83608  1.0000
  H   H1193     1.0  0.53045  0.13879  0.68456  1.0000
  H   H1194     1.0  0.55638  0.23196  0.52607  1.0000
  C   C1482     1.0  0.56985  0.29960  0.54267  1.0000
  C   C1483     1.0  0.65682  0.10201  0.53029  1.0000
  H   H1195     1.0  0.57835  0.28734  0.89922  1.0000
  H   H1196     1.0  0.54052  0.35411  0.84497  1.0000
  C   C1484     1.0  0.55079  0.35035  0.76537  1.0000
  C   C1485     1.0  0.54619  0.26275  0.55798  1.0000
  C   C1486     1.0  0.51475  0.14655  0.56958  1.0000
  H   H1197     1.0  0.53657  0.34268  0.54518  1.0000
  H   H1198     1.0  0.52900  0.33125  0.94788  1.0000
  C   C1487     1.0  0.53633  0.13106  0.67041  1.0000
  P   P52       1.0  0.56026  0.32393  0.87544  1.0000
  C   C1488     1.0  0.58697  0.31443  0.87941  1.0000
  C   C1489     1.0  0.56037  0.35239  0.87232  1.0000
  C   C1490     1.0  0.54957  0.36280  0.85579  1.0000
  C   C1491     1.0  0.54997  0.38474  0.85327  1.0000
  C   C1492     1.0  0.56155  0.39647  0.86686  1.0000
  C   C1493     1.0  0.57263  0.38625  0.88318  1.0000
  C   C1494     1.0  0.57205  0.36431  0.88593  1.0000
  C   C1495     1.0  0.60390  0.32512  0.86970  1.0000
  C   C1496     1.0  0.62459  0.31774  0.87259  1.0000
  C   C1497     1.0  0.62854  0.29956  0.88509  1.0000
  C   C1498     1.0  0.52014  0.37741  0.68858  1.0000
  C   C1499     1.0  0.65582  0.08130  0.53890  1.0000
  C   C1500     1.0  0.54444  0.31568  0.89842  1.0000
  C   C1501     1.0  0.65182  0.30405  0.54682  1.0000
  C   C1502     1.0  0.64746  0.06517  0.52733  1.0000
  H   H1199     1.0  0.51414  0.27500  0.91650  1.0000
  H   H1200     1.0  0.59176  0.47870  0.89545  1.0000
  H   H1201     1.0  0.53038  0.28868  0.80038  1.0000
  H   H1202     1.0  0.72651  0.41090  0.79707  1.0000
  C   C1503     1.0  0.73006  0.43886  0.81519  1.0000
  C   C1504     1.0  0.53923  0.00736  0.60045  1.0000
  C   C1505     1.0  0.50571  0.33499  0.69394  1.0000
  H   H1203     1.0  0.53462  0.03822  0.50139  1.0000
  H   H1204     1.0  0.74246  0.07314  0.53842  1.0000
  C   C1506     1.0  0.53614  0.29529  0.81465  1.0000
  S   S192      1.0  0.59561  0.48841  0.81457  1.0000
  H   H1205     1.0  0.66125  0.33634  0.54426  1.0000
  C   C1507     1.0  0.55760  0.29862  0.81660  1.0000
  S   S193      1.0  0.60292  0.02207  0.50238  1.0000
  C   C1508     1.0  0.73655  0.42506  0.51577  1.0000
  C   C1509     1.0  0.56689  0.40607  0.99643  1.0000
  H   H1206     1.0  0.57928  0.00756  0.56397  1.0000
  C   C1510     1.0  0.54670  0.00575  0.55656  1.0000
  C   C1511     1.0  0.50180  0.29773  0.67174  1.0000
  C   C1512     1.0  0.64129  0.09061  0.49835  1.0000
  H   H1207     1.0  0.49535  0.24403  0.58789  1.0000
  H   H1208     1.0  0.50919  0.36740  0.90769  1.0000
  C   C1513     1.0  0.65674  0.32273  0.53573  1.0000
  C   C1514     1.0  0.49932  0.07858  0.59828  1.0000
  S   S194      1.0  0.50419  0.20468  0.67273  1.0000
  S   S195      1.0  0.55139  0.00318  0.52932  1.0000
  Fe  Fe97      1.0  0.49604  0.37701  0.79172  1.0000
  C   C1515     1.0  0.51039  0.41620  0.88808  1.0000
  C   C1516     1.0  0.65132  0.30585  0.50235  1.0000
  C   C1517     1.0  0.50833  0.12620  0.56575  1.0000
  C   C1518     1.0  0.55977  0.00782  0.59208  1.0000
  H   H1209     1.0  0.72727  0.40992  0.54546  1.0000
  H   H1210     1.0  0.72570  0.10899  0.53820  1.0000
  H   H1211     1.0  0.52728  0.25125  0.60795  1.0000
  C   C1519     1.0  0.50902  0.42670  0.85093  1.0000
  C   C1520     1.0  0.72163  0.09782  0.52649  1.0000
  H   H1212     1.0  0.49881  0.24522  0.71900  1.0000
  C   C1521     1.0  0.51400  0.29523  0.50201  1.0000
  H   H1213     1.0  0.52667  0.30619  0.50263  1.0000
  H   H1214     1.0  0.73708  0.43991  0.56697  1.0000
  C   C1522     1.0  0.73904  0.44087  0.54986  1.0000
  H   H1215     1.0  0.58029  0.39620  0.99179  1.0000
  C   C1523     1.0  0.49658  0.35641  0.90963  1.0000
  P   P53       1.0  0.54656  0.08230  0.49903  1.0000
  C   C1524     1.0  0.56839  0.42807  0.99556  1.0000
  C   C1525     1.0  0.55889  0.49195  0.93660  1.0000
  C   C1526     1.0  0.50258  0.49361  0.98775  1.0000
  C   C1527     1.0  0.49656  0.26933  0.74262  1.0000
  C   C1528     1.0  0.57580  0.49303  0.92202  1.0000
  H   H1216     1.0  0.74213  0.44863  0.72511  1.0000
  C   C1529     1.0  0.74068  0.44751  0.83188  1.0000
  C   C1530     1.0  0.49465  0.29966  0.51223  1.0000
  H   H1217     1.0  0.63274  0.05790  0.49848  1.0000
  S   S196      1.0  0.49451  0.18563  0.62630  1.0000
  H   H1218     1.0  0.50040  0.11046  0.65363  1.0000
  H   H1219     1.0  0.51502  0.94512  0.40708  1.0000
  H   H1220     1.0  0.52280  0.92097  0.37775  1.0000
  C   C1531     1.0  0.66725  0.72814  0.43256  1.0000
  C   C1532     1.0  0.70419  0.78072  0.46100  1.0000
  H   H1221     1.0  0.58568  0.62023  0.11615  1.0000
  H   H1222     1.0  0.61752  0.91311  0.47757  1.0000
  H   H1223     1.0  0.52611  0.54927  0.05533  1.0000
  C   C1533     1.0  0.65155  0.74231  0.42501  1.0000
  C   C1534     1.0  0.72814  0.74734  0.44403  1.0000
  C   C1535     1.0  0.66173  0.71254  0.44780  1.0000
  H   H1224     1.0  0.70368  0.54592  0.48399  1.0000
  H   H1225     1.0  0.73985  0.55569  0.49204  1.0000
  Fe  Fe98      1.0  0.61303  0.79095  0.46297  1.0000
  S   S197      1.0  0.60429  0.79502  0.42863  1.0000
  S   S198      1.0  0.64680  0.79109  0.47223  1.0000
  H   H1226     1.0  0.53364  0.67668  0.32837  1.0000
  S   S199      1.0  0.52152  0.75397  0.39696  1.0000
  C   C1536     1.0  0.50845  0.86661  0.33249  1.0000
  C   C1537     1.0  0.57391  0.53507  0.13032  1.0000
  S   S200      1.0  0.53212  0.60808  0.17372  1.0000
  H   H1227     1.0  0.53548  0.64186  0.31187  1.0000
  H   H1228     1.0  0.59849  0.56218  0.27552  1.0000
  C   C1538     1.0  0.70504  0.51838  0.36020  1.0000
  H   H1229     1.0  0.68541  0.52023  0.25145  1.0000
  C   C1539     1.0  0.71526  0.53371  0.48809  1.0000
  H   H1230     1.0  0.61871  0.75170  0.42658  1.0000
  C   C1540     1.0  0.56569  0.92534  0.48769  1.0000
  H   H1231     1.0  0.53274  0.60925  0.05455  1.0000
  Fe  Fe99      1.0  0.60721  0.52100  0.21676  1.0000
  S   S201      1.0  0.58626  0.54571  0.23256  1.0000
  S   S202      1.0  0.64109  0.52399  0.20596  1.0000
  C   C1541     1.0  0.61638  0.56446  0.06236  1.0000
  S   S203      1.0  0.50839  0.57396  0.01600  1.0000
  C   C1542     1.0  0.56039  0.63125  0.24378  1.0000
  H   H1232     1.0  0.51358  0.63363  0.07831  1.0000
  C   C1543     1.0  0.52760  0.91654  0.39365  1.0000
  H   H1233     1.0  0.58848  0.53175  0.12154  1.0000
  C   C1544     1.0  0.54694  0.59075  0.19032  1.0000
  C   C1545     1.0  0.54039  0.58602  0.21120  1.0000
  C   C1546     1.0  0.55256  0.57213  0.22394  1.0000
  C   C1547     1.0  0.57124  0.56275  0.21590  1.0000
  C   C1548     1.0  0.57766  0.56722  0.19493  1.0000
  C   C1549     1.0  0.56566  0.58139  0.18230  1.0000
  H   H1234     1.0  0.52603  0.59309  0.21759  1.0000
  H   H1235     1.0  0.54728  0.56834  0.23997  1.0000
  H   H1236     1.0  0.59207  0.56008  0.18856  1.0000
  H   H1237     1.0  0.57091  0.58521  0.16629  1.0000
  S   S204      1.0  0.50458  0.93924  0.33587  1.0000
  C   C1550     1.0  0.63108  0.51542  0.09918  1.0000
  C   C1551     1.0  0.60766  0.57180  0.08141  1.0000
  H   H1238     1.0  0.56892  0.52751  0.00091  1.0000
  C   C1552     1.0  0.58114  0.78355  0.42029  1.0000
  C   C1553     1.0  0.57135  0.76756  0.43230  1.0000
  C   C1554     1.0  0.55327  0.75834  0.42483  1.0000
  C   C1555     1.0  0.54448  0.76552  0.40568  1.0000
  C   C1556     1.0  0.55412  0.78169  0.39383  1.0000
  C   C1557     1.0  0.57256  0.79044  0.40100  1.0000
  H   H1239     1.0  0.57787  0.76205  0.44715  1.0000
  H   H1240     1.0  0.54592  0.74577  0.43403  1.0000
  H   H1241     1.0  0.54758  0.78718  0.37897  1.0000
  H   H1242     1.0  0.58024  0.80261  0.39160  1.0000
  H   H1243     1.0  0.72725  0.66514  0.39475  1.0000
  H   H1244     1.0  0.62611  0.53185  0.09939  1.0000
  C   C1558     1.0  0.63070  0.74064  0.43233  1.0000
  Fe  Fe100     1.0  0.63143  0.50727  0.17662  1.0000
  C   C1559     1.0  0.70368  0.52690  0.39732  1.0000
  C   C1560     1.0  0.64087  0.71104  0.45521  1.0000
  C   C1561     1.0  0.53075  0.82362  0.47479  1.0000
  C   C1562     1.0  0.57856  0.94359  0.45570  1.0000
  C   C1563     1.0  0.59847  0.93421  0.45825  1.0000
  H   H1245     1.0  0.60020  0.62320  0.20724  1.0000
  C   C1564     1.0  0.52176  0.84372  0.47102  1.0000
  H   H1246     1.0  0.53754  0.57426  0.14064  1.0000
  C   C1565     1.0  0.60779  0.57639  0.14021  1.0000
  H   H1247     1.0  0.73279  0.78947  0.47538  1.0000
  S   S205      1.0  0.50929  0.77769  0.33818  1.0000
  C   C1566     1.0  0.72481  0.49685  0.49451  1.0000
  C   C1567     1.0  0.72555  0.77840  0.46535  1.0000
  H   H1248     1.0  0.56446  0.84380  0.49636  1.0000
  C   C1568     1.0  0.59352  0.57641  0.28361  1.0000
  H   H1249     1.0  0.67813  0.76824  0.44534  1.0000
  H   H1250     1.0  0.55859  0.88077  0.48421  1.0000
  C   C1569     1.0  0.49586  0.89794  0.35143  1.0000
  C   C1570     1.0  0.56207  0.68971  0.28369  1.0000
  H   H1251     1.0  0.71422  0.49527  0.21543  1.0000
  H   H1252     1.0  0.65538  0.75495  0.41376  1.0000
  C   C1571     1.0  0.58088  0.61338  0.30396  1.0000
  C   C1572     1.0  0.58500  0.62828  0.21373  1.0000
  H   H1253     1.0  0.50722  0.54663  0.12116  1.0000
  H   H1254     1.0  0.72159  0.77469  0.36321  1.0000
  H   H1255     1.0  0.56258  0.49690  0.08337  1.0000
  C   C1573     1.0  0.70779  0.98616  0.49042  1.0000
  H   H1256     1.0  0.50154  0.57107  0.27262  1.0000
  C   C1574     1.0  0.49723  0.87564  0.34966  1.0000
  C   C1575     1.0  0.55361  0.65260  0.28427  1.0000
  H   H1257     1.0  0.56918  0.70320  0.27572  1.0000
  C   C1576     1.0  0.58049  0.62574  0.23544  1.0000
  C   C1577     1.0  0.56606  0.51957  0.14433  1.0000
  C   C1578     1.0  0.61683  0.89627  0.42558  1.0000
  C   C1579     1.0  0.62672  0.88538  0.44229  1.0000
  C   C1580     1.0  0.61611  0.86965  0.45383  1.0000
  C   C1581     1.0  0.59574  0.86459  0.44855  1.0000
  C   C1582     1.0  0.58576  0.87522  0.43158  1.0000
  C   C1583     1.0  0.59639  0.89130  0.42030  1.0000
  P   P54       1.0  0.56022  0.86764  0.42311  1.0000
  C   C1584     1.0  0.56281  0.85302  0.39910  1.0000
  C   C1585     1.0  0.54787  0.85045  0.44291  1.0000
  C   C1586     1.0  0.55628  0.82995  0.44633  1.0000
  H   H1258     1.0  0.55939  0.58444  0.06837  1.0000
  P   P55       1.0  0.57517  0.57551  0.11184  1.0000
  H   H1259     1.0  0.52509  0.80782  0.29408  1.0000
  C   C1587     1.0  0.53015  0.85705  0.45505  1.0000
  C   C1588     1.0  0.54495  0.84395  0.39116  1.0000
  C   C1589     1.0  0.54613  0.83385  0.37186  1.0000
  C   C1590     1.0  0.56511  0.83276  0.36024  1.0000
  C   C1591     1.0  0.58311  0.84140  0.36819  1.0000
  C   C1592     1.0  0.58204  0.85138  0.38765  1.0000
  C   C1593     1.0  0.54502  0.89176  0.41809  1.0000
  C   C1594     1.0  0.54105  0.90593  0.43446  1.0000
  C   C1595     1.0  0.52980  0.92487  0.43054  1.0000
  Fe  Fe101     1.0  0.50467  0.98711  0.39937  1.0000
  C   C1596     1.0  0.58724  0.54118  0.05950  1.0000
  C   C1597     1.0  0.53832  0.89732  0.39756  1.0000
  H   H1260     1.0  0.62501  0.90854  0.41668  1.0000
  H   H1261     1.0  0.64256  0.88913  0.44644  1.0000
  H   H1262     1.0  0.62379  0.86115  0.46675  1.0000
  H   H1263     1.0  0.58810  0.85225  0.45768  1.0000
  H   H1264     1.0  0.58901  0.89972  0.40716  1.0000
  H   H1265     1.0  0.56968  0.82438  0.43687  1.0000
  H   H1266     1.0  0.55486  0.80104  0.46508  1.0000
  C   C1598     1.0  0.56364  0.55494  0.12850  1.0000
  H   H1267     1.0  0.61545  0.58411  0.08933  1.0000
  H   H1268     1.0  0.52269  0.87233  0.45224  1.0000
  H   H1269     1.0  0.52999  0.84512  0.39964  1.0000
  H   H1270     1.0  0.53226  0.82695  0.36582  1.0000
  H   H1271     1.0  0.56581  0.82508  0.34515  1.0000
  H   H1272     1.0  0.59791  0.84023  0.35935  1.0000
  H   H1273     1.0  0.59620  0.85775  0.39356  1.0000
  H   H1274     1.0  0.54670  0.90235  0.45020  1.0000
  C   C1599     1.0  0.68062  0.73352  0.38189  1.0000
  C   C1600     1.0  0.52360  0.51805  0.06962  1.0000
  C   C1601     1.0  0.49647  0.70260  0.27697  1.0000
  H   H1275     1.0  0.54158  0.88720  0.38434  1.0000
  C   C1602     1.0  0.54537  0.64048  0.23023  1.0000
  C   C1603     1.0  0.55012  0.64342  0.20863  1.0000
  C   C1604     1.0  0.56979  0.63704  0.20031  1.0000
  S   S206      1.0  0.63559  0.51921  0.14214  1.0000
  H   H1276     1.0  0.67348  0.70183  0.45447  1.0000
  H   H1277     1.0  0.63091  0.57079  0.05587  1.0000
  H   H1278     1.0  0.53748  0.99396  0.46948  1.0000
  H   H1279     1.0  0.52993  0.64540  0.23624  1.0000
  H   H1280     1.0  0.53833  0.65013  0.19818  1.0000
  H   H1281     1.0  0.57302  0.63855  0.18341  1.0000
  C   C1605     1.0  0.73753  0.76173  0.45683  1.0000
  C   C1606     1.0  0.61558  0.49801  0.39070  1.0000
  C   C1607     1.0  0.55635  0.99049  0.41874  1.0000
  H   H1282     1.0  0.71110  0.53296  0.27672  1.0000
  H   H1283     1.0  0.60192  0.60269  0.32848  1.0000
  C   C1608     1.0  0.65046  0.51161  0.39409  1.0000
  C   C1609     1.0  0.71777  0.50240  0.29130  1.0000
  C   C1610     1.0  0.55110  0.59454  0.07945  1.0000
  H   H1284     1.0  0.67163  0.88524  0.49145  1.0000
  C   C1611     1.0  0.51133  0.94343  0.48999  1.0000
  C   C1612     1.0  0.53498  0.56905  0.00907  1.0000
  C   C1613     1.0  0.63218  0.50497  0.07978  1.0000
  C   C1614     1.0  0.58568  0.91569  0.48988  1.0000
  Fe  Fe102     1.0  0.49546  0.81049  0.34364  1.0000
  S   S207      1.0  0.51569  0.98319  0.43276  1.0000
  H   H1285     1.0  0.71735  0.55630  0.40487  1.0000
  H   H1286     1.0  0.52438  0.81330  0.48726  1.0000
  C   C1615     1.0  0.51924  0.50616  0.08831  1.0000
  C   C1616     1.0  0.62858  0.51466  0.39480  1.0000
  H   H1287     1.0  0.55441  0.52256  0.20988  1.0000
  C   C1617     1.0  0.51691  0.55033  0.08843  1.0000
  C   C1618     1.0  0.51663  0.90187  0.31899  1.0000
  H   H1288     1.0  0.62813  0.51335  0.06525  1.0000
  H   H1289     1.0  0.50565  0.49658  0.02130  1.0000
  C   C1619     1.0  0.71477  0.53747  0.35531  1.0000
  Fe  Fe103     1.0  0.50254  0.62421  0.18694  1.0000
  H   H1290     1.0  0.59863  0.50043  0.39114  1.0000
  S   S208      1.0  0.49493  0.65902  0.18387  1.0000
  C   C1620     1.0  0.71015  0.76318  0.36842  1.0000
  H   H1291     1.0  0.60738  0.55935  0.14088  1.0000
  C   C1621     1.0  0.53593  0.60873  0.07136  1.0000
  C   C1622     1.0  0.58874  0.56364  0.08966  1.0000
  C   C1623     1.0  0.61001  0.62032  0.13887  1.0000
  C   C1624     1.0  0.69574  0.75610  0.35418  1.0000
  C   C1625     1.0  0.57883  0.54798  0.07880  1.0000
  H   H1292     1.0  0.57883  0.53001  0.05068  1.0000
  H   H1293     1.0  0.52093  0.63299  0.11682  1.0000
  H   H1294     1.0  0.52626  0.77137  0.28079  1.0000
  C   C1626     1.0  0.71919  0.55112  0.37137  1.0000
  C   C1627     1.0  0.50843  0.90566  0.48706  1.0000
  C   C1628     1.0  0.54799  0.52372  0.15678  1.0000
  P   P56       1.0  0.55391  0.62739  0.27168  1.0000
  C   C1629     1.0  0.68102  0.74123  0.36090  1.0000
  H   H1295     1.0  0.57126  0.66865  0.25901  1.0000
  H   H1296     1.0  0.59271  0.61934  0.24551  1.0000
  C   C1630     1.0  0.54451  0.60798  0.11456  1.0000
  H   H1297     1.0  0.50906  0.50786  0.12133  1.0000
  C   C1631     1.0  0.51818  0.87994  0.31739  1.0000
  C   C1632     1.0  0.69470  0.76621  0.44839  1.0000
  H   H1298     1.0  0.50098  0.72343  0.30293  1.0000
  H   H1299     1.0  0.66019  0.52475  0.39729  1.0000
  H   H1300     1.0  0.62171  0.53000  0.39846  1.0000
  C   C1633     1.0  0.69967  0.51277  0.38133  1.0000
  H   H1301     1.0  0.52627  0.93570  0.44311  1.0000
  C   C1634     1.0  0.57900  0.59048  0.27422  1.0000
  H   H1302     1.0  0.52816  0.51033  0.05504  1.0000
  H   H1303     1.0  0.55037  0.70738  0.31036  1.0000
  H   H1304     1.0  0.72730  0.56560  0.36762  1.0000
  C   C1635     1.0  0.54025  0.51409  0.21402  1.0000
  C   C1636     1.0  0.73569  0.53922  0.49261  1.0000
  C   C1637     1.0  0.52436  0.59541  0.27357  1.0000
  S   S209      1.0  0.52433  0.98485  0.36944  1.0000
  H   H1305     1.0  0.63688  0.69948  0.46754  1.0000
  C   C1638     1.0  0.51947  0.92289  0.49393  1.0000
  Fe  Fe104     1.0  0.49735  0.96698  0.35729  1.0000
  C   C1639     1.0  0.54855  0.99415  0.45614  1.0000
  C   C1640     1.0  0.54883  0.58551  0.00512  1.0000
  C   C1641     1.0  0.54242  0.54816  0.00774  1.0000
  H   H1306     1.0  0.54325  0.60169  0.00621  1.0000
  C   C1642     1.0  0.54311  0.65508  0.30396  1.0000
  C   C1643     1.0  0.57016  0.58100  0.00018  1.0000
  C   C1644     1.0  0.50340  0.51423  0.22489  1.0000
  H   H1307     1.0  0.69596  0.76214  0.33793  1.0000
  H   H1308     1.0  0.57452  0.50459  0.14608  1.0000
  C   C1645     1.0  0.56319  0.67005  0.27425  1.0000
  H   H1309     1.0  0.56404  0.54185  0.08470  1.0000
  H   H1310     1.0  0.50829  0.84891  0.48048  1.0000
  H   H1311     1.0  0.61313  0.56989  0.31035  1.0000
  C   C1646     1.0  0.60605  0.54935  0.05130  1.0000
  H   H1312     1.0  0.52418  0.91177  0.30695  1.0000
  S   S210      1.0  0.59743  0.50703  0.18683  1.0000
  S   S211      1.0  0.60242  0.81612  0.48523  1.0000
  S   S212      1.0  0.73674  0.51248  0.30854  1.0000
  C   C1647     1.0  0.56357  0.54368  0.00243  1.0000
  H   H1313     1.0  0.60929  0.72419  0.45354  1.0000
  S   S213      1.0  0.59739  0.50119  0.02355  1.0000
  H   H1314     1.0  0.54230  0.51186  0.16806  1.0000
  H   H1315     1.0  0.70711  0.69890  0.39170  1.0000
  C   C1648     1.0  0.57760  0.56006  0.99899  1.0000
  S   S214      1.0  0.60527  0.76428  0.48551  1.0000
  C   C1649     1.0  0.70984  0.51252  0.48896  1.0000
  C   C1650     1.0  0.54190  0.98993  0.43589  1.0000
  C   C1651     1.0  0.55147  0.69207  0.30321  1.0000
  C   C1652     1.0  0.52159  0.52515  0.21922  1.0000
  C   C1653     1.0  0.69482  0.74084  0.39639  1.0000
  C   C1654     1.0  0.70978  0.75553  0.38944  1.0000
  P   P57       1.0  0.69432  0.73067  0.42342  1.0000
  H   H1316     1.0  0.57642  0.62763  0.31208  1.0000
  C   C1655     1.0  0.70833  0.70545  0.42512  1.0000
  C   C1656     1.0  0.71250  0.69349  0.40705  1.0000
  C   C1657     1.0  0.63665  0.50490  0.11824  1.0000
  C   C1658     1.0  0.52325  0.93022  0.41015  1.0000
  C   C1659     1.0  0.54793  0.81670  0.46233  1.0000
  C   C1660     1.0  0.52511  0.62254  0.08480  1.0000
  C   C1661     1.0  0.60175  0.58078  0.30318  1.0000
  C   C1662     1.0  0.59543  0.59925  0.31335  1.0000
  C   C1663     1.0  0.70655  0.74927  0.43996  1.0000
  H   H1317     1.0  0.50942  0.67036  0.09622  1.0000
  H   H1318     1.0  0.61265  0.54405  0.03633  1.0000
  C   C1664     1.0  0.55548  0.59390  0.10122  1.0000
  H   H1319     1.0  0.63441  0.61575  0.16169  1.0000
  H   H1320     1.0  0.51655  0.56739  0.08874  1.0000
  H   H1321     1.0  0.54756  0.94806  0.46876  1.0000
  C   C1665     1.0  0.51297  0.51659  0.10682  1.0000
  C   C1666     1.0  0.62324  0.60817  0.15204  1.0000
  C   C1667     1.0  0.59410  0.58848  0.12728  1.0000
  C   C1668     1.0  0.54545  0.55897  0.14104  1.0000
  C   C1669     1.0  0.71560  0.69781  0.44472  1.0000
  C   C1670     1.0  0.49572  0.82433  0.42942  1.0000
  H   H1322     1.0  0.61093  0.63734  0.13829  1.0000
  H   H1323     1.0  0.52226  0.80578  0.41759  1.0000
  C   C1671     1.0  0.56240  0.93967  0.47064  1.0000
  C   C1672     1.0  0.51183  0.53860  0.10682  1.0000
  H   H1324     1.0  0.66983  0.73572  0.34987  1.0000
  H   H1325     1.0  0.51971  0.95700  0.49492  1.0000
  C   C1673     1.0  0.70752  0.51641  0.27691  1.0000
  H   H1326     1.0  0.66916  0.72195  0.38686  1.0000
  C   C1674     1.0  0.52929  0.62213  0.10640  1.0000
  H   H1327     1.0  0.53744  0.58422  0.27300  1.0000
  H   H1328     1.0  0.54798  0.60833  0.13121  1.0000
  H   H1329     1.0  0.51596  0.77564  0.44253  1.0000
  C   C1675     1.0  0.52246  0.54009  0.06972  1.0000
  C   C1676     1.0  0.53775  0.54344  0.15520  1.0000
  S   S215      1.0  0.49547  0.66868  0.05336  1.0000
  C   C1677     1.0  0.62536  0.72507  0.44747  1.0000
  H   H1330     1.0  0.69972  0.52309  0.41375  1.0000
  C   C1678     1.0  0.71349  0.54591  0.39235  1.0000
  C   C1679     1.0  0.60204  0.92028  0.47539  1.0000
  S   S216      1.0  0.51225  0.63688  0.00342  1.0000
  H   H1331     1.0  0.71253  0.70680  0.45876  1.0000
  H   H1332     1.0  0.52424  0.54703  0.16544  1.0000
  H   H1333     1.0  0.71294  0.97195  0.48248  1.0000
  C   C1680     1.0  0.62220  0.58621  0.15260  1.0000
  H   H1334     1.0  0.61117  0.93801  0.44712  1.0000
  C   C1681     1.0  0.69283  0.50923  0.26256  1.0000
  Fe  Fe105     1.0  0.63550  0.81454  0.49642  1.0000
  H   H1335     1.0  0.57577  0.95430  0.44236  1.0000
  H   H1336     1.0  0.52691  0.87325  0.30413  1.0000
  H   H1337     1.0  0.73290  0.67324  0.46153  1.0000
  H   H1338     1.0  0.52124  0.54224  0.21884  1.0000
  C   C1682     1.0  0.57250  0.60911  0.28426  1.0000
  C   C1683     1.0  0.57764  0.99427  0.42204  1.0000
  H   H1339     1.0  0.63255  0.57668  0.16263  1.0000
  C   C1684     1.0  0.59558  0.61053  0.12641  1.0000
  C   C1685     1.0  0.54203  0.67476  0.31335  1.0000
  H   H1340     1.0  0.57311  0.58690  0.25890  1.0000
  C   C1686     1.0  0.52763  0.61718  0.27397  1.0000
  H   H1341     1.0  0.51200  0.69528  0.27798  1.0000
  H   H1342     1.0  0.69488  0.79367  0.46757  1.0000
  C   C1687     1.0  0.50556  0.78946  0.44294  1.0000
  H   H1343     1.0  0.49838  0.83751  0.41849  1.0000
  H   H1344     1.0  0.71930  0.54147  0.33903  1.0000
  S   S217      1.0  0.51132  0.83906  0.32842  1.0000
  C   C1688     1.0  0.72711  0.67875  0.44630  1.0000
  H   H1345     1.0  0.74036  0.65222  0.42956  1.0000
  H   H1346     1.0  0.70235  0.50794  0.34744  1.0000
  C   C1689     1.0  0.50911  0.80648  0.42888  1.0000
  H   H1347     1.0  0.72109  0.76121  0.40021  1.0000
  H   H1348     1.0  0.69401  0.50825  0.48541  1.0000
  C   C1690     1.0  0.51250  0.78153  0.27834  1.0000
  C   C1691     1.0  0.49958  0.50377  0.00692  1.0000
  C   C1692     1.0  0.50393  0.58784  0.27345  1.0000
  C   C1693     1.0  0.51184  0.80202  0.28582  1.0000
  H   H1349     1.0  0.51430  0.88969  0.48985  1.0000
  C   C1694     1.0  0.50562  0.91115  0.33595  1.0000
  H   H1350     1.0  0.51205  0.64805  0.27391  1.0000
  C   C1695     1.0  0.73132  0.66698  0.42829  1.0000
  H   H1351     1.0  0.74332  0.52043  0.21577  1.0000
  H   H1352     1.0  0.53182  0.53535  0.01064  1.0000
  H   H1353     1.0  0.73777  0.73464  0.43749  1.0000
  H   H1354     1.0  0.55140  0.98712  0.40309  1.0000
  H   H1355     1.0  0.49566  0.75812  0.26234  1.0000
  Fe  Fe106     1.0  0.50189  0.77239  0.37301  1.0000
  C   C1696     1.0  0.51008  0.63116  0.27431  1.0000
  H   H1356     1.0  0.58093  0.59374  0.99744  1.0000
  C   C1697     1.0  0.72395  0.67432  0.40868  1.0000
  Fe  Fe107     1.0  0.49538  0.60656  0.00793  1.0000
  C   C1698     1.0  0.49528  0.77409  0.26795  1.0000
  H   H1357     1.0  0.58894  0.99379  0.40891  1.0000
  C   C1699     1.0  0.49387  0.81496  0.28318  1.0000
  H   H1358     1.0  0.49377  0.83067  0.28922  1.0000
  C   C1700     1.0  0.49763  0.59887  0.86320  1.0000
  C   C1701     1.0  0.51769  0.92153  0.63743  1.0000
  Fe  Fe108     1.0  0.59774  0.50820  0.78470  1.0000
  H   H1359     1.0  0.73514  0.51034  0.70650  1.0000
  C   C1702     1.0  0.70443  0.56997  0.71288  1.0000
  C   C1703     1.0  0.54718  0.86425  0.54300  1.0000
  H   H1360     1.0  0.54714  0.55328  0.94746  1.0000
  C   C1704     1.0  0.57962  0.54865  0.93867  1.0000
  S   S218      1.0  0.49617  0.80133  0.66453  1.0000
  C   C1705     1.0  0.53753  0.91443  0.62981  1.0000
  H   H1361     1.0  0.51611  0.55103  0.88081  1.0000
  H   H1362     1.0  0.57078  0.92121  0.62819  1.0000
  H   H1363     1.0  0.61091  0.61649  0.85923  1.0000
  H   H1364     1.0  0.67262  0.63415  0.67929  1.0000
  H   H1365     1.0  0.58869  0.90479  0.50295  1.0000
  C   C1706     1.0  0.71942  0.72615  0.49935  1.0000
  C   C1707     1.0  0.72260  0.70409  0.50020  1.0000
  S   S219      1.0  0.56744  0.52459  0.77407  1.0000
  S   S220      1.0  0.62788  0.52273  0.79318  1.0000
  C   C1708     1.0  0.55214  0.55600  0.91348  1.0000
  S   S221      1.0  0.53974  0.81063  0.61898  1.0000
  H   H1366     1.0  0.69001  0.79010  0.51359  1.0000
  C   C1709     1.0  0.54839  0.67049  0.86757  1.0000
  S   S222      1.0  0.53865  0.61731  0.79969  1.0000
  H   H1367     1.0  0.58385  0.55737  0.74275  1.0000
  S   S223      1.0  0.61226  0.99010  0.54313  1.0000
  S   S224      1.0  0.56428  0.78743  0.52425  1.0000
  S   S225      1.0  0.62926  0.78946  0.52196  1.0000
  H   H1368     1.0  0.56602  0.95625  0.64382  1.0000
  P   P58       1.0  0.53997  0.88894  0.61794  1.0000
  H   H1369     1.0  0.52575  0.62711  0.71933  1.0000
  H   H1370     1.0  0.53068  0.69944  0.87134  1.0000
  C   C1710     1.0  0.54651  0.80440  0.59259  1.0000
  C   C1711     1.0  0.56728  0.80678  0.58492  1.0000
  C   C1712     1.0  0.57304  0.80174  0.56395  1.0000
  C   C1713     1.0  0.55803  0.79407  0.55065  1.0000
  C   C1714     1.0  0.53724  0.79192  0.55828  1.0000
  C   C1715     1.0  0.53147  0.79709  0.57915  1.0000
  H   H1371     1.0  0.57900  0.81214  0.59538  1.0000
  H   H1372     1.0  0.58910  0.80344  0.55818  1.0000
  H   H1373     1.0  0.52557  0.78605  0.54803  1.0000
  H   H1374     1.0  0.51542  0.79523  0.58488  1.0000
  H   H1375     1.0  0.62840  0.58972  0.70230  1.0000
  H   H1376     1.0  0.63176  0.52911  0.89681  1.0000
  C   C1716     1.0  0.56762  0.94884  0.55673  1.0000
  H   H1377     1.0  0.56471  0.85053  0.60837  1.0000
  C   C1717     1.0  0.55944  0.54984  0.78285  1.0000
  C   C1718     1.0  0.53833  0.55660  0.78093  1.0000
  C   C1719     1.0  0.53164  0.57702  0.78670  1.0000
  C   C1720     1.0  0.54614  0.59100  0.79400  1.0000
  C   C1721     1.0  0.56719  0.58416  0.79622  1.0000
  C   C1722     1.0  0.57382  0.56362  0.79074  1.0000
  H   H1378     1.0  0.52712  0.54601  0.77485  1.0000
  H   H1379     1.0  0.51535  0.58210  0.78514  1.0000
  H   H1380     1.0  0.57849  0.59487  0.80193  1.0000
  H   H1381     1.0  0.59014  0.55863  0.79205  1.0000
  C   C1723     1.0  0.55082  0.75647  0.86427  1.0000
  C   C1724     1.0  0.53268  0.95354  0.64918  1.0000
  C   C1725     1.0  0.60066  0.87704  0.57787  1.0000
  C   C1726     1.0  0.72021  0.57241  0.72747  1.0000
  H   H1382     1.0  0.55165  0.75880  0.77007  1.0000
  H   H1383     1.0  0.51035  0.69555  0.78865  1.0000
  H   H1384     1.0  0.53829  0.73696  0.74178  1.0000
  C   C1727     1.0  0.66897  0.60145  0.68849  1.0000
  H   H1385     1.0  0.66597  0.55221  0.74713  1.0000
  C   C1728     1.0  0.50094  0.58367  0.73889  1.0000
  C   C1729     1.0  0.51971  0.70917  0.78493  1.0000
  Fe  Fe109     1.0  0.62269  0.96522  0.52018  1.0000
  H   H1386     1.0  0.56669  0.84216  0.67595  1.0000
  H   H1387     1.0  0.61098  0.54500  0.92559  1.0000
  H   H1388     1.0  0.51779  0.85238  0.60372  1.0000
  C   C1730     1.0  0.69075  0.53182  0.67733  1.0000
  C   C1731     1.0  0.52685  0.72157  0.80111  1.0000
  C   C1732     1.0  0.55516  0.86239  0.65053  1.0000
  H   H1389     1.0  0.53073  0.96877  0.65642  1.0000
  C   C1733     1.0  0.51932  0.88631  0.59943  1.0000
  C   C1734     1.0  0.70603  0.70937  0.55444  1.0000
  H   H1390     1.0  0.64355  0.52735  0.72795  1.0000
  C   C1735     1.0  0.68466  0.56250  0.71960  1.0000
  S   S226      1.0  0.64245  0.50243  0.99634  1.0000
  C   C1736     1.0  0.52811  0.94147  0.54065  1.0000
  H   H1391     1.0  0.70498  0.49969  0.78583  1.0000
  C   C1737     1.0  0.56704  0.55500  0.89661  1.0000
  C   C1738     1.0  0.69552  0.69062  0.55219  1.0000
  C   C1739     1.0  0.51173  0.86638  0.59535  1.0000
  C   C1740     1.0  0.54824  0.89158  0.51514  1.0000
  C   C1741     1.0  0.59454  0.54787  0.92209  1.0000
  H   H1392     1.0  0.56616  0.91672  0.59084  1.0000
  C   C1742     1.0  0.62443  0.57583  0.71174  1.0000
  C   C1743     1.0  0.54638  0.93467  0.52948  1.0000
  S   S227      1.0  0.65506  0.73345  0.50130  1.0000
  C   C1744     1.0  0.63867  0.55853  0.71360  1.0000
  C   C1745     1.0  0.63282  0.54084  0.72612  1.0000
  C   C1746     1.0  0.61310  0.54046  0.73649  1.0000
  C   C1747     1.0  0.59909  0.55773  0.73458  1.0000
  C   C1748     1.0  0.60475  0.57541  0.72223  1.0000
  H   H1393     1.0  0.57079  0.86658  0.64504  1.0000
  C   C1749     1.0  0.68088  0.55803  0.74128  1.0000
  H   H1394     1.0  0.59737  0.84438  0.58709  1.0000
  Fe  Fe110     1.0  0.61080  0.51938  0.99578  1.0000
  H   H1395     1.0  0.50253  0.78106  0.86582  1.0000
  H   H1396     1.0  0.59386  0.58881  0.72089  1.0000
  H   H1397     1.0  0.57322  0.51576  0.87856  1.0000
  C   C1750     1.0  0.60606  0.60139  0.85389  1.0000
  C   C1751     1.0  0.66329  0.59512  0.64546  1.0000
  Fe  Fe111     1.0  0.50441  0.62799  0.79732  1.0000
  H   H1398     1.0  0.71118  0.51124  0.65895  1.0000
  C   C1752     1.0  0.61185  0.57143  0.83152  1.0000
  C   C1753     1.0  0.61783  0.59112  0.83807  1.0000
  C   C1754     1.0  0.58179  0.57249  0.85615  1.0000
  C   C1755     1.0  0.59392  0.56211  0.84050  1.0000
  P   P59       1.0  0.55971  0.55990  0.86936  1.0000
  C   C1756     1.0  0.55500  0.53545  0.85680  1.0000
  C   C1757     1.0  0.54363  0.53576  0.83807  1.0000
  H   H1399     1.0  0.51159  0.55768  0.96855  1.0000
  H   H1400     1.0  0.50353  0.57001  0.74931  1.0000
  Fe  Fe112     1.0  0.59678  0.78946  0.50872  1.0000
  H   H1401     1.0  0.60862  0.52681  0.74612  1.0000
  C   C1758     1.0  0.53561  0.57560  0.86721  1.0000
  C   C1759     1.0  0.53536  0.59575  0.85729  1.0000
  C   C1760     1.0  0.51646  0.60740  0.85556  1.0000
  C   C1761     1.0  0.63257  0.90856  0.52138  1.0000
  C   C1762     1.0  0.51088  0.60080  0.93554  1.0000
  C   C1763     1.0  0.51645  0.56689  0.87410  1.0000
  H   H1402     1.0  0.62121  0.56318  0.81962  1.0000
  H   H1403     1.0  0.63176  0.59824  0.83108  1.0000
  H   H1404     1.0  0.58990  0.54667  0.83534  1.0000
  H   H1405     1.0  0.60012  0.54969  0.88847  1.0000
  H   H1406     1.0  0.53788  0.55055  0.83098  1.0000
  C   C1764     1.0  0.52575  0.73696  0.84489  1.0000
  C   C1765     1.0  0.55455  0.84938  0.52854  1.0000
  H   H1407     1.0  0.56660  0.75813  0.86987  1.0000
  H   H1408     1.0  0.56532  0.64189  0.85921  1.0000
  H   H1409     1.0  0.54947  0.60239  0.85029  1.0000
  H   H1410     1.0  0.51637  0.62286  0.84772  1.0000
  H   H1411     1.0  0.69686  0.75239  0.49821  1.0000
  C   C1766     1.0  0.56342  0.51623  0.86483  1.0000
  C   C1767     1.0  0.51530  0.94092  0.64720  1.0000
  H   H1412     1.0  0.58297  0.95195  0.56274  1.0000
  C   C1768     1.0  0.66705  0.61531  0.65239  1.0000
  S   S228      1.0  0.63053  0.51533  0.85440  1.0000
  C   C1769     1.0  0.55258  0.94645  0.64202  1.0000
  C   C1770     1.0  0.55846  0.55256  0.93438  1.0000
  C   C1771     1.0  0.66979  0.61848  0.67391  1.0000
  C   C1772     1.0  0.55511  0.92676  0.63276  1.0000
  H   H1413     1.0  0.51562  0.95749  0.56818  1.0000
  C   C1773     1.0  0.54396  0.88529  0.53634  1.0000
  C   C1774     1.0  0.67050  0.53527  0.68628  1.0000
  H   H1414     1.0  0.55055  0.96351  0.58256  1.0000
  C   C1775     1.0  0.52393  0.71467  0.76367  1.0000
  C   C1776     1.0  0.59079  0.86023  0.58845  1.0000
  H   H1415     1.0  0.51271  0.93853  0.53482  1.0000
  C   C1777     1.0  0.59171  0.89738  0.57879  1.0000
  C   C1778     1.0  0.54939  0.95534  0.56785  1.0000
  C   C1779     1.0  0.53861  0.73942  0.79559  1.0000
  C   C1780     1.0  0.57322  0.90100  0.59081  1.0000
  H   H1416     1.0  0.55868  0.72800  0.84797  1.0000
  Fe  Fe113     1.0  0.50654  0.80294  0.63010  1.0000
  H   H1417     1.0  0.72866  0.56929  0.76022  1.0000
  C   C1781     1.0  0.51473  0.76939  0.86200  1.0000
  H   H1418     1.0  0.53576  0.55974  0.91077  1.0000
  C   C1782     1.0  0.53731  0.87047  0.64010  1.0000
  C   C1783     1.0  0.63271  0.50093  0.87881  1.0000
  C   C1784     1.0  0.55291  0.84877  0.66825  1.0000
  C   C1785     1.0  0.53285  0.84368  0.67605  1.0000
  C   C1786     1.0  0.51505  0.85227  0.66620  1.0000
  C   C1787     1.0  0.51724  0.86551  0.64823  1.0000
  H   H1419     1.0  0.53104  0.83308  0.68973  1.0000
  C   C1788     1.0  0.54036  0.51705  0.82776  1.0000
  C   C1789     1.0  0.49966  0.65428  0.90079  1.0000
  C   C1790     1.0  0.69882  0.98470  0.51087  1.0000
  H   H1420     1.0  0.49783  0.49500  0.95437  1.0000
  C   C1791     1.0  0.71636  0.56763  0.74895  1.0000
  H   H1421     1.0  0.70411  0.67678  0.54655  1.0000
  H   H1422     1.0  0.53242  0.51754  0.81278  1.0000
  C   C1792     1.0  0.55996  0.49750  0.85457  1.0000
  H   H1423     1.0  0.68284  0.82497  0.52927  1.0000
  C   C1793     1.0  0.56614  0.93839  0.53773  1.0000
  H   H1424     1.0  0.61508  0.87422  0.56868  1.0000
  H   H1425     1.0  0.67103  0.60415  0.70513  1.0000
  H   H1426     1.0  0.50406  0.91194  0.63608  1.0000
  H   H1427     1.0  0.67103  0.69072  0.50142  1.0000
  H   H1428     1.0  0.59910  0.91032  0.57006  1.0000
  H   H1429     1.0  0.58451  0.54634  0.95487  1.0000
  H   H1430     1.0  0.66785  0.62848  0.64107  1.0000
  H   H1431     1.0  0.63888  0.52324  0.68850  1.0000
  C   C1794     1.0  0.66237  0.57806  0.65999  1.0000
  H   H1432     1.0  0.66117  0.59266  0.62876  1.0000
  H   H1433     1.0  0.61742  0.85720  0.52149  1.0000
  H   H1434     1.0  0.49634  0.82214  0.55219  1.0000
  H   H1435     1.0  0.53405  0.50563  0.89922  1.0000
  H   H1436     1.0  0.59593  0.73745  0.53413  1.0000
  C   C1795     1.0  0.50641  0.56811  0.95574  1.0000
  H   H1437     1.0  0.65935  0.56257  0.65429  1.0000
  C   C1796     1.0  0.51344  0.61583  0.72198  1.0000
  S   S229      1.0  0.50288  0.65598  0.94418  1.0000
  H   H1438     1.0  0.60634  0.89206  0.53544  1.0000
  C   C1797     1.0  0.50941  0.51864  0.91944  1.0000
  H   H1439     1.0  0.49723  0.65315  0.86670  1.0000
  C   C1798     1.0  0.49622  0.86436  0.58038  1.0000
  Fe  Fe114     1.0  0.64442  0.49579  0.77609  1.0000
  C   C1799     1.0  0.56403  0.88444  0.60271  1.0000
  C   C1800     1.0  0.63263  0.51209  0.89763  1.0000
  H   H1440     1.0  0.51896  0.61546  0.93282  1.0000
  C   C1801     1.0  0.66554  0.58105  0.68158  1.0000
  H   H1441     1.0  0.53211  0.59521  0.74229  1.0000
  H   H1442     1.0  0.57960  0.59984  0.87575  1.0000
  C   C1802     1.0  0.57240  0.86384  0.60064  1.0000
  H   H1443     1.0  0.54425  0.85945  0.55942  1.0000
  H   H1444     1.0  0.71141  0.52193  0.73609  1.0000
  H   H1445     1.0  0.55727  0.83316  0.53367  1.0000
  H   H1446     1.0  0.56114  0.64802  0.82063  1.0000
  C   C1803     1.0  0.53505  0.77144  0.86935  1.0000
  H   H1447     1.0  0.52917  0.59127  0.96252  1.0000
  C   C1804     1.0  0.54285  0.74486  0.77427  1.0000
  C   C1805     1.0  0.65970  0.73823  0.63884  1.0000
  C   C1806     1.0  0.67569  0.75096  0.64536  1.0000
  C   C1807     1.0  0.68678  0.76339  0.63045  1.0000
  C   C1808     1.0  0.68171  0.76332  0.60905  1.0000
  C   C1809     1.0  0.66519  0.75110  0.60251  1.0000
  C   C1810     1.0  0.65463  0.73810  0.61746  1.0000
  P   P60       1.0  0.65915  0.75011  0.57486  1.0000
  C   C1811     1.0  0.66735  0.77373  0.56066  1.0000
  C   C1812     1.0  0.67314  0.72692  0.56539  1.0000
  C   C1813     1.0  0.69495  0.72740  0.56124  1.0000
  C   C1814     1.0  0.67391  0.68988  0.55668  1.0000
  C   C1815     1.0  0.66275  0.70791  0.56340  1.0000
  C   C1816     1.0  0.67704  0.77262  0.54046  1.0000
  C   C1817     1.0  0.68290  0.79103  0.52934  1.0000
  C   C1818     1.0  0.67875  0.81069  0.53813  1.0000
  C   C1819     1.0  0.66859  0.81197  0.55798  1.0000
  C   C1820     1.0  0.66280  0.79357  0.56919  1.0000
  C   C1821     1.0  0.63109  0.74943  0.57135  1.0000
  C   C1822     1.0  0.61682  0.75741  0.58672  1.0000
  C   C1823     1.0  0.59515  0.75729  0.58351  1.0000
  C   C1824     1.0  0.58762  0.74984  0.56468  1.0000
  C   C1825     1.0  0.60174  0.74251  0.54905  1.0000
  C   C1826     1.0  0.62337  0.74227  0.55239  1.0000
  H   H1448     1.0  0.65127  0.72839  0.65035  1.0000
  H   H1449     1.0  0.67962  0.75104  0.66193  1.0000
  H   H1450     1.0  0.69939  0.77301  0.63544  1.0000
  H   H1451     1.0  0.69078  0.77269  0.59767  1.0000
  H   H1452     1.0  0.64245  0.72788  0.61257  1.0000
  H   H1453     1.0  0.70338  0.74176  0.56301  1.0000
  H   H1454     1.0  0.66576  0.67538  0.55465  1.0000
  H   H1455     1.0  0.64607  0.70693  0.56697  1.0000
  H   H1456     1.0  0.67945  0.75763  0.53298  1.0000
  H   H1457     1.0  0.55027  0.66785  0.88445  1.0000
  H   H1458     1.0  0.58047  0.93312  0.52965  1.0000
  H   H1459     1.0  0.66483  0.82729  0.56442  1.0000
  H   H1460     1.0  0.65450  0.79483  0.58433  1.0000
  H   H1461     1.0  0.62230  0.76405  0.60104  1.0000
  H   H1462     1.0  0.58413  0.76353  0.59532  1.0000
  H   H1463     1.0  0.57086  0.75035  0.56191  1.0000
  C   C1827     1.0  0.69668  0.56053  0.75584  1.0000
  H   H1464     1.0  0.63409  0.73685  0.54000  1.0000
  H   H1465     1.0  0.68739  0.52908  0.80438  1.0000
  S   S230      1.0  0.64346  0.98768  0.50113  1.0000
  C   C1828     1.0  0.58825  0.59201  0.86308  1.0000
  P   P61       1.0  0.66441  0.55914  0.70051  1.0000
  H   H1466     1.0  0.51784  0.70526  0.75133  1.0000
  H   H1467     1.0  0.70773  0.57392  0.69634  1.0000
  C   C1829     1.0  0.51740  0.50960  0.90085  1.0000
  C   C1830     1.0  0.58829  0.55069  0.90113  1.0000
  C   C1831     1.0  0.68452  0.70071  0.50065  1.0000
  C   C1832     1.0  0.65966  0.50272  0.67104  1.0000
  C   C1833     1.0  0.62672  0.87089  0.51774  1.0000
  C   C1834     1.0  0.72136  0.50145  0.71087  1.0000
  H   H1468     1.0  0.53847  0.89657  0.54788  1.0000
  H   H1469     1.0  0.51774  0.91951  0.59054  1.0000
  H   H1470     1.0  0.50324  0.87196  0.64086  1.0000
  C   C1835     1.0  0.53461  0.69195  0.83816  1.0000
  H   H1471     1.0  0.51599  0.65847  0.90012  1.0000
  H   H1472     1.0  0.67433  0.52411  0.84157  1.0000
  C   C1836     1.0  0.54343  0.67725  0.82403  1.0000
  C   C1837     1.0  0.51173  0.90407  0.58790  1.0000
  C   C1838     1.0  0.49561  0.50331  0.96894  1.0000
  C   C1839     1.0  0.52965  0.95188  0.55971  1.0000
  H   H1473     1.0  0.54165  0.67928  0.80713  1.0000
  C   C1840     1.0  0.69537  0.51403  0.66539  1.0000
  H   H1474     1.0  0.70313  0.54273  0.67947  1.0000
  H   H1475     1.0  0.52007  0.52169  0.93199  1.0000
  C   C1841     1.0  0.54624  0.73936  0.85196  1.0000
  H   H1476     1.0  0.63417  0.51032  0.93182  1.0000
  H   H1477     1.0  0.49995  0.94613  0.65332  1.0000
  C   C1842     1.0  0.55529  0.87639  0.50065  1.0000
  S   S231      1.0  0.62629  0.93207  0.53493  1.0000
  C   C1843     1.0  0.65716  0.88676  0.50078  1.0000
  C   C1844     1.0  0.68253  0.51126  0.83360  1.0000
  C   C1845     1.0  0.55454  0.65936  0.83165  1.0000
  C   C1846     1.0  0.62056  0.89064  0.52580  1.0000
  C   C1847     1.0  0.65484  0.52076  0.68261  1.0000
  S   S232      1.0  0.60437  0.55434  0.99333  1.0000
  C   C1848     1.0  0.55692  0.65590  0.85339  1.0000
  H   H1478     1.0  0.53860  0.78467  0.87892  1.0000
  H   H1479     1.0  0.49949  0.84862  0.67245  1.0000
  P   P62       1.0  0.52003  0.71515  0.82858  1.0000
  H   H1480     1.0  0.69370  0.55650  0.77242  1.0000
  C   C1849     1.0  0.53727  0.68842  0.86003  1.0000
  C   C1850     1.0  0.49442  0.59577  0.92264  1.0000
  C   C1851     1.0  0.54841  0.49791  0.83606  1.0000
  C   C1852     1.0  0.69896  0.73544  0.49897  1.0000
  C   C1853     1.0  0.50407  0.50622  0.88420  1.0000
  H   H1481     1.0  0.54429  0.74939  0.80760  1.0000
  C   C1854     1.0  0.55861  0.85543  0.50743  1.0000
  C   C1855     1.0  0.51670  0.58710  0.95222  1.0000
  C   C1856     1.0  0.51704  0.59787  0.73491  1.0000
  C   C1857     1.0  0.51009  0.75229  0.84971  1.0000
  C   C1858     1.0  0.53541  0.73255  0.75831  1.0000
  C   C1859     1.0  0.49756  0.57849  0.87210  1.0000
  P   P63       1.0  0.54458  0.91882  0.50641  1.0000
  C   C1860     1.0  0.49646  0.90195  0.57272  1.0000
  C   C1861     1.0  0.70775  0.50805  0.72766  1.0000
  S   S233      1.0  0.59722  0.49902  0.97185  1.0000
  H   H1482     1.0  0.69691  0.96941  0.51873  1.0000
  H   H1483     1.0  0.58738  0.50505  0.92319  1.0000
  C   C1862     1.0  0.68999  0.51410  0.81272  1.0000
  H   H1484     1.0  0.55724  0.50327  0.94907  1.0000
  C   C1863     1.0  0.65071  0.90661  0.50845  1.0000
  C   C1864     1.0  0.64538  0.86876  0.50566  1.0000
  C   C1865     1.0  0.70001  0.49735  0.80224  1.0000
  S   S234      1.0  0.67338  0.50576  0.75550  1.0000
  C   C1866     1.0  0.68133  0.72277  0.49998  1.0000
  C   C1867     1.0  0.70499  0.69139  0.50056  1.0000
  H   H1485     1.0  0.73854  0.54744  0.55267  1.0000
  C   C1868     1.0  0.68970  0.49675  0.73377  1.0000
  H   H1486     1.0  0.72271  0.70998  0.55048  1.0000
  H   H1487     1.0  0.73550  0.57785  0.72208  1.0000
  C   C1869     1.0  0.63414  0.50147  0.91747  1.0000
  H   H1488     1.0  0.70711  0.67441  0.50111  1.0000
  H   H1489     1.0  0.51040  0.49967  0.86962  1.0000
  S   S235      1.0  0.59478  0.97114  0.49996  1.0000
  Fe  Fe115     1.0  0.62681  0.50104  0.82214  1.0000
  H   H1490     1.0  0.73290  0.73614  0.49890  1.0000
  C   C1870     1.0  0.67995  0.49932  0.66251  1.0000
  H   H1491     1.0  0.66030  0.92018  0.50522  1.0000
  H   H1492     1.0  0.49455  0.69519  0.86296  1.0000
  H   H1493     1.0  0.49429  0.75107  0.84401  1.0000
  S   S236      1.0  0.65518  0.84384  0.49733  1.0000
  Fe  Fe116     1.0  0.63854  0.76603  0.49672  1.0000
  C   C1871     1.0  0.77787  0.42322  0.31286  1.0000
  C   C1872     1.0  0.84633  0.41186  0.48913  1.0000
  H   H1494     1.0  0.90695  0.46966  0.45930  1.0000
  C   C1873     1.0  0.78424  0.45282  0.27949  1.0000
  Fe  Fe117     1.0  0.77694  0.46534  0.36353  1.0000
  H   H1495     1.0  0.85193  0.47651  0.33674  1.0000
  S   S237      1.0  0.77530  0.43015  0.37020  1.0000
  Fe  Fe118     1.0  0.76719  0.37165  0.48133  1.0000
  S   S238      1.0  0.77874  0.34112  0.46763  1.0000
  H   H1496     1.0  0.93619  0.35571  0.46860  1.0000
  H   H1497     1.0  0.75611  0.44221  0.44484  1.0000
  C   C1874     1.0  0.76847  0.42232  0.39652  1.0000
  C   C1875     1.0  0.76387  0.43726  0.41189  1.0000
  C   C1876     1.0  0.75943  0.43065  0.43295  1.0000
  C   C1877     1.0  0.75995  0.40920  0.43894  1.0000
  C   C1878     1.0  0.76411  0.39421  0.42353  1.0000
  C   C1879     1.0  0.76809  0.40078  0.40231  1.0000
  H   H1498     1.0  0.76388  0.45390  0.40761  1.0000
  H   H1499     1.0  0.88858  0.46188  0.33213  1.0000
  H   H1500     1.0  0.76409  0.37760  0.42794  1.0000
  H   H1501     1.0  0.77130  0.38914  0.39042  1.0000
  C   C1880     1.0  0.86358  0.33566  0.49080  1.0000
  C   C1881     1.0  0.81639  0.37839  0.41498  1.0000
  C   C1882     1.0  0.77901  0.47452  0.48157  1.0000
  S   S239      1.0  0.97282  0.46628  0.37831  1.0000
  H   H1502     1.0  0.88390  0.47208  0.39037  1.0000
  C   C1883     1.0  0.95254  0.43671  0.42123  1.0000
  C   C1884     1.0  0.95760  0.41512  0.42181  1.0000
  C   C1885     1.0  0.96457  0.40532  0.44053  1.0000
  H   H1503     1.0  0.94732  0.44426  0.40672  1.0000
  S   S240      1.0  0.97599  0.33125  0.47853  1.0000
  H   H1504     1.0  0.85055  0.28656  0.49221  1.0000
  H   H1505     1.0  0.85085  0.48263  0.21126  1.0000
  H   H1506     1.0  0.81143  0.40138  0.38960  1.0000
  H   H1507     1.0  0.76628  0.04734  0.41026  1.0000
  H   H1508     1.0  0.91036  0.48935  0.41147  1.0000
  H   H1509     1.0  0.93515  0.35366  0.42971  1.0000
  H   H1510     1.0  0.89470  0.48296  0.49205  1.0000
  H   H1511     1.0  0.78816  0.44315  0.49332  1.0000
  H   H1512     1.0  0.91214  0.38035  0.48772  1.0000
  H   H1513     1.0  0.82533  0.35786  0.44111  1.0000
  H   H1514     1.0  0.80169  0.37066  0.41291  1.0000
  C   C1886     1.0  0.89747  0.39227  0.43708  1.0000
  C   C1887     1.0  0.89284  0.46272  0.45384  1.0000
  H   H1515     1.0  0.77566  0.41217  0.32614  1.0000
  C   C1888     1.0  0.85734  0.44518  0.43721  1.0000
  C   C1889     1.0  0.79896  0.46220  0.44346  1.0000
  C   C1890     1.0  0.90183  0.32990  0.48847  1.0000
  C   C1891     1.0  0.90991  0.42267  0.35598  1.0000
  S   S241      1.0  0.97428  0.37930  0.43997  1.0000
  C   C1892     1.0  0.78873  0.45440  0.48004  1.0000
  H   H1516     1.0  0.80481  0.43227  0.45956  1.0000
  C   C1893     1.0  0.89643  0.40583  0.35935  1.0000
  H   H1517     1.0  0.77505  0.06127  0.44505  1.0000
  C   C1894     1.0  0.96540  0.41690  0.45895  1.0000
  C   C1895     1.0  0.84902  0.38069  0.43346  1.0000
  S   S242      1.0  0.78810  0.47958  0.33207  1.0000
  C   C1896     1.0  0.76639  0.45448  0.29295  1.0000
  C   C1897     1.0  0.91177  0.37981  0.47061  1.0000
  C   C1898     1.0  0.85567  0.46483  0.44662  1.0000
  H   H1518     1.0  0.90977  0.43498  0.44389  1.0000
  S   S243      1.0  0.83906  0.33586  0.47794  1.0000
  Fe  Fe119     1.0  0.95500  0.49104  0.35920  1.0000
  H   H1519     1.0  0.96232  0.44769  0.47223  1.0000
  H   H1520     1.0  0.80753  0.40916  0.30273  1.0000
  C   C1899     1.0  0.79003  0.48247  0.44506  1.0000
  Fe  Fe120     1.0  0.76012  0.32499  0.49437  1.0000
  C   C1900     1.0  0.82194  0.39557  0.40183  1.0000
  C   C1901     1.0  0.91451  0.43532  0.37277  1.0000
  Fe  Fe121     1.0  0.80541  0.34240  0.49043  1.0000
  S   S244      1.0  0.79581  0.48649  0.38280  1.0000
  C   C1902     1.0  0.87685  0.43423  0.43608  1.0000
  H   H1521     1.0  0.88112  0.32817  0.46219  1.0000
  H   H1522     1.0  0.95660  0.40615  0.40763  1.0000
  H   H1523     1.0  0.91076  0.37679  0.40943  1.0000
  C   C1903     1.0  0.96036  0.43855  0.45833  1.0000
  H   H1524     1.0  0.87728  0.38849  0.38191  1.0000
  H   H1525     1.0  0.91575  0.32544  0.47926  1.0000
  H   H1526     1.0  0.84080  0.47359  0.44695  1.0000
  C   C1904     1.0  0.87342  0.47364  0.45480  1.0000
  C   C1905     1.0  0.79916  0.43643  0.28314  1.0000
  H   H1527     1.0  0.83483  0.40950  0.47717  1.0000
  C   C1906     1.0  0.95446  0.44852  0.43929  1.0000
  S   S245      1.0  0.95096  0.47590  0.43754  1.0000
  H   H1528     1.0  0.81358  0.43540  0.27368  1.0000
  H   H1529     1.0  0.88757  0.40381  0.46779  1.0000
  C   C1907     1.0  0.92453  0.36452  0.43790  1.0000
  C   C1908     1.0  0.89164  0.41480  0.39638  1.0000
  C   C1909     1.0  0.90539  0.43150  0.39282  1.0000
  C   C1910     1.0  0.79587  0.42160  0.29970  1.0000
  H   H1530     1.0  0.80575  0.45717  0.42844  1.0000
  C   C1911     1.0  0.84108  0.40525  0.40436  1.0000
  C   C1912     1.0  0.85853  0.49325  0.39981  1.0000
  C   C1913     1.0  0.88209  0.33117  0.47889  1.0000
  H   H1531     1.0  0.90922  0.44170  0.40537  1.0000
  C   C1914     1.0  0.92521  0.36574  0.45988  1.0000
  C   C1915     1.0  0.79849  0.44823  0.46100  1.0000
  C   C1916     1.0  0.75939  0.05573  0.44256  1.0000
  H   H1532     1.0  0.91685  0.42601  0.34038  1.0000
  C   C1917     1.0  0.91077  0.37779  0.42648  1.0000
  H   H1533     1.0  0.84351  0.43885  0.43052  1.0000
  H   H1534     1.0  0.84515  0.41854  0.39400  1.0000
  C   C1918     1.0  0.82980  0.37111  0.43088  1.0000
  H   H1535     1.0  0.74837  0.06260  0.47399  1.0000
  C   C1919     1.0  0.89448  0.44302  0.44480  1.0000
  C   C1920     1.0  0.85494  0.39763  0.41994  1.0000
  Fe  Fe122     1.0  0.98014  0.36586  0.47252  1.0000
  H   H1536     1.0  0.85920  0.37456  0.44581  1.0000
  H   H1537     1.0  0.92515  0.44822  0.37025  1.0000
  P   P64       1.0  0.87996  0.40977  0.42244  1.0000
  C   C1921     1.0  0.89786  0.39300  0.45926  1.0000
  C   C1922     1.0  0.88744  0.40179  0.37952  1.0000
  H   H1538     1.0  0.89296  0.39592  0.34635  1.0000
  H   H1539     1.0  0.97121  0.40955  0.47332  1.0000
  S   S246      1.0  0.92930  0.47954  0.33849  1.0000
  C   C1923     1.0  0.78005  0.48863  0.46398  1.0000
  C   C1924     1.0  0.76313  0.43966  0.30948  1.0000
  Fe  Fe123     1.0  0.96441  0.48670  0.40579  1.0000
  C   C1925     1.0  0.86515  0.48576  0.34077  1.0000
  C   C1926     1.0  0.88592  0.47752  0.33816  1.0000
  H   H1540     1.0  0.81987  0.42366  0.20795  1.0000
  C   C1927     1.0  0.85115  0.43218  0.49486  1.0000
  C   C1928     1.0  0.87935  0.48562  0.39965  1.0000
  H   H1541     1.0  0.87218  0.48925  0.46117  1.0000
  H   H1542     1.0  0.74779  0.44318  0.48886  1.0000
  H   H1543     1.0  0.98934  0.48324  0.46063  1.0000
  C   C1929     1.0  0.99110  0.49309  0.47411  1.0000
  H   H1544     1.0  0.84324  0.44569  0.48739  1.0000
  S   S247      1.0  0.75447  0.40193  0.46568  1.0000
  H   H1545     1.0  0.84697  0.48563  0.39064  1.0000
  C   C1930     1.0  0.75446  0.04788  0.42296  1.0000
  H   H1546     1.0  0.75551  0.46783  0.29119  1.0000
  H   H1547     1.0  0.85245  0.37869  0.49443  1.0000
  C   C1931     1.0  0.90326  0.48951  0.34311  1.0000
  H   H1548     1.0  0.79027  0.49329  0.43142  1.0000
  C   C1932     1.0  0.83717  0.45230  0.20804  1.0000
  H   H1549     1.0  0.74970  0.44148  0.32027  1.0000
  H   H1550     1.0  0.93821  0.46556  0.49532  1.0000
  S   S248      1.0  0.74745  0.48539  0.36568  1.0000
  H   H1551     1.0  0.79399  0.43496  0.23558  1.0000
  C   C1933     1.0  0.80654  0.44534  0.23060  1.0000
  H   H1552     1.0  0.75028  0.45040  0.25246  1.0000
  C   C1934     1.0  0.82111  0.43894  0.21489  1.0000
  C   C1935     1.0  0.74904  0.46576  0.24463  1.0000
  P   P65       1.0  0.78897  0.47331  0.25962  1.0000
  C   C1936     1.0  0.80813  0.46505  0.23976  1.0000
  H   H1553     1.0  0.84844  0.44736  0.19585  1.0000
  C   C1937     1.0  0.74416  0.05646  0.45898  1.0000
  H   H1554     1.0  0.82893  0.48056  0.27946  1.0000
  C   C1938     1.0  0.83856  0.47216  0.21675  1.0000
  C   C1939     1.0  0.76520  0.48025  0.24573  1.0000
  C   C1940     1.0  0.82399  0.47861  0.23244  1.0000
  H   H1555     1.0  0.82507  0.49422  0.23866  1.0000
  H   H1556     1.0  0.99300  0.41348  0.38903  1.0000
  C   C1941     1.0  0.81834  0.49382  0.28270  1.0000
  C   C1942     1.0  0.99006  0.43115  0.52602  1.0000
  H   H1557     1.0  0.74651  0.28739  0.55290  1.0000
  H   H1558     1.0  0.84365  0.43249  0.61832  1.0000
  H   H1559     1.0  0.90233  0.28388  0.53436  1.0000
  C   C1943     1.0  0.83062  0.36641  0.56237  1.0000
  H   H1560     1.0  0.75021  0.38852  0.81916  1.0000
  P   P66       1.0  0.76486  0.48191  0.50565  1.0000
  C   C1944     1.0  0.86511  0.33927  0.51243  1.0000
  S   S249      1.0  0.98956  0.33904  0.52671  1.0000
  H   H1561     1.0  0.87854  0.38336  0.52176  1.0000
  C   C1945     1.0  0.92727  0.47472  0.54723  1.0000
  C   C1946     1.0  0.84762  0.26624  0.58990  1.0000
  Fe  Fe124     1.0  0.78407  0.47603  0.61575  1.0000
  S   S250      1.0  0.78975  0.46427  0.64921  1.0000
  S   S251      1.0  0.78837  0.46026  0.58404  1.0000
  C   C1947     1.0  0.93586  0.47746  0.52681  1.0000
  C   C1948     1.0  0.99149  0.46307  0.54641  1.0000
  C   C1949     1.0  0.87782  0.28359  0.51163  1.0000
  C   C1950     1.0  0.83833  0.28654  0.59095  1.0000
  Fe  Fe125     1.0  0.77562  0.35629  0.52617  1.0000
  H   H1562     1.0  0.76855  0.38670  0.60016  1.0000
  S   S252      1.0  0.77292  0.36535  0.56064  1.0000
  H   H1563     1.0  0.93978  0.41679  0.54054  1.0000
  H   H1564     1.0  0.90761  0.45615  0.56798  1.0000
  S   S253      1.0  0.92789  0.33013  0.52293  1.0000
  H   H1565     1.0  0.88143  0.42164  0.62004  1.0000
  H   H1566     1.0  0.90293  0.41761  0.58730  1.0000
  C   C1951     1.0  0.78426  0.43367  0.57836  1.0000
  C   C1952     1.0  0.77730  0.41897  0.59377  1.0000
  C   C1953     1.0  0.77398  0.39802  0.58820  1.0000
  C   C1954     1.0  0.77738  0.39172  0.56722  1.0000
  C   C1955     1.0  0.78448  0.40646  0.55193  1.0000
  C   C1956     1.0  0.78814  0.42722  0.55753  1.0000
  H   H1567     1.0  0.77437  0.42375  0.60990  1.0000
  H   H1568     1.0  0.93196  0.48485  0.55963  1.0000
  H   H1569     1.0  0.78697  0.40197  0.53573  1.0000
  H   H1570     1.0  0.79346  0.43851  0.54552  1.0000
  H   H1571     1.0  0.96361  0.38770  0.55127  1.0000
  H   H1572     1.0  0.82736  0.43846  0.58354  1.0000
  H   H1573     1.0  0.94952  0.35361  0.56440  1.0000
  P   P67       1.0  0.83288  0.30187  0.56712  1.0000
  H   H1574     1.0  0.82410  0.30968  0.61183  1.0000
  S   S254      1.0  0.78777  0.32420  0.51604  1.0000
  C   C1957     1.0  0.85584  0.43150  0.56549  1.0000
  C   C1958     1.0  0.80548  0.29730  0.56271  1.0000
  H   H1575     1.0  0.94681  0.48992  0.52348  1.0000
  S   S255      1.0  0.98479  0.46409  0.60912  1.0000
  C   C1959     1.0  0.74547  0.44283  0.50590  1.0000
  C   C1960     1.0  0.91740  0.44719  0.51557  1.0000
  H   H1576     1.0  0.85188  0.25955  0.57476  1.0000
  C   C1961     1.0  0.81681  0.48686  0.54161  1.0000
  C   C1962     1.0  0.91354  0.45834  0.55188  1.0000
  H   H1577     1.0  0.83171  0.47843  0.54340  1.0000
  H   H1578     1.0  0.84815  0.43406  0.55057  1.0000
  S   S256      1.0  0.96200  0.37608  0.50160  1.0000
  H   H1579     1.0  0.86291  0.32317  0.59295  1.0000
  H   H1580     1.0  0.87817  0.29290  0.56423  1.0000
  C   C1963     1.0  0.77847  0.27572  0.54875  1.0000
  H   H1581     1.0  0.76793  0.40367  0.84942  1.0000
  C   C1964     1.0  0.83199  0.29435  0.61075  1.0000
  H   H1582     1.0  0.91438  0.43618  0.50333  1.0000
  C   C1965     1.0  0.83562  0.28233  0.62930  1.0000
  C   C1966     1.0  0.84532  0.26232  0.62817  1.0000
  C   C1967     1.0  0.85124  0.25425  0.60847  1.0000
  H   H1583     1.0  0.83073  0.28847  0.64454  1.0000
  H   H1584     1.0  0.84804  0.25297  0.64254  1.0000
  H   H1585     1.0  0.85848  0.23862  0.60758  1.0000
  H   H1586     1.0  0.91106  0.34911  0.56776  1.0000
  H   H1587     1.0  0.88654  0.37844  0.55790  1.0000
  H   H1588     1.0  0.86907  0.45088  0.51504  1.0000
  C   C1968     1.0  0.90846  0.44449  0.53605  1.0000
  C   C1969     1.0  0.75744  0.41349  0.83983  1.0000
  C   C1970     1.0  0.88024  0.48294  0.59526  1.0000
  C   C1971     1.0  0.78328  0.49115  0.52424  1.0000
  C   C1972     1.0  0.87108  0.39718  0.51452  1.0000
  C   C1973     1.0  0.87593  0.41755  0.52051  1.0000
  C   C1974     1.0  0.86587  0.43504  0.51046  1.0000
  P   P68       1.0  0.89299  0.42170  0.54238  1.0000
  C   C1975     1.0  0.87726  0.42553  0.56633  1.0000
  C   C1976     1.0  0.91107  0.39974  0.54790  1.0000
  C   C1977     1.0  0.90329  0.38062  0.55613  1.0000
  C   C1978     1.0  0.91711  0.36411  0.56217  1.0000
  C   C1979     1.0  0.93882  0.36663  0.56029  1.0000
  C   C1980     1.0  0.94674  0.38574  0.55262  1.0000
  C   C1981     1.0  0.93300  0.40221  0.54633  1.0000
  C   C1982     1.0  0.88640  0.42208  0.58617  1.0000
  C   C1983     1.0  0.87429  0.42442  0.60482  1.0000
  C   C1984     1.0  0.85304  0.43046  0.60386  1.0000
  C   C1985     1.0  0.84386  0.43393  0.58421  1.0000
  C   C1986     1.0  0.85728  0.35638  0.58759  1.0000
  C   C1987     1.0  0.75414  0.43478  0.84428  1.0000
  C   C1988     1.0  0.82680  0.34516  0.55942  1.0000
  H   H1589     1.0  0.82166  0.37849  0.55374  1.0000
  H   H1590     1.0  0.79353  0.32472  0.57946  1.0000
  C   C1989     1.0  0.78965  0.31103  0.57074  1.0000
  Fe  Fe126     1.0  0.95932  0.34134  0.50864  1.0000
  S   S257      1.0  0.79510  0.37421  0.50200  1.0000
  Fe  Fe127     1.0  0.96090  0.48167  0.62918  1.0000
  H   H1591     1.0  0.95441  0.45770  0.68717  1.0000
  C   C1990     1.0  0.83772  0.32935  0.57103  1.0000
  H   H1592     1.0  0.85099  0.34253  0.52181  1.0000
  H   H1593     1.0  0.86918  0.36078  0.59841  1.0000
  C   C1991     1.0  0.93107  0.46364  0.51101  1.0000
  C   C1992     1.0  0.98517  0.45281  0.52836  1.0000
  Fe  Fe128     1.0  0.98386  0.49261  0.58731  1.0000
  H   H1594     1.0  0.84821  0.38849  0.57926  1.0000
  H   H1595     1.0  0.99246  0.41611  0.61961  1.0000
  C   C1993     1.0  0.84561  0.37203  0.57669  1.0000
  C   C1994     1.0  0.79967  0.27922  0.55230  1.0000
  C   C1995     1.0  0.76848  0.30747  0.56717  1.0000
  C   C1996     1.0  0.90759  0.47320  0.64677  1.0000
  H   H1596     1.0  0.82637  0.29623  0.52152  1.0000
  C   C1997     1.0  0.88555  0.28557  0.53192  1.0000
  H   H1597     1.0  0.77408  0.26214  0.54008  1.0000
  C   C1998     1.0  0.90342  0.33346  0.51007  1.0000
  C   C1999     1.0  0.87181  0.29082  0.54876  1.0000
  C   C2000     1.0  0.85355  0.33510  0.58459  1.0000
  H   H1598     1.0  0.98494  0.42311  0.51233  1.0000
  C   C2001     1.0  0.74741  0.40494  0.82283  1.0000
  C   C2002     1.0  0.85629  0.39441  0.49894  1.0000
  Fe  Fe129     1.0  0.76186  0.48588  0.65826  1.0000
  C   C2003     1.0  0.80329  0.48133  0.52579  1.0000
  H   H1599     1.0  0.81514  0.34116  0.54821  1.0000
  H   H1600     1.0  0.76516  0.47908  0.72691  1.0000
  H   H1601     1.0  0.74407  0.48860  0.79121  1.0000
  H   H1602     1.0  0.88574  0.34009  0.53888  1.0000
  C   C2004     1.0  0.86460  0.48731  0.58061  1.0000
  C   C2005     1.0  0.85019  0.29400  0.54544  1.0000
  C   C2006     1.0  0.76289  0.28992  0.55603  1.0000
  H   H1603     1.0  0.85042  0.47824  0.58129  1.0000
  H   H1604     1.0  0.81151  0.26796  0.54668  1.0000
  S   S258      1.0  0.93307  0.46237  0.64098  1.0000
  C   C2007     1.0  0.88489  0.33799  0.52204  1.0000
  C   C2008     1.0  0.89050  0.45969  0.64851  1.0000
  H   H1605     1.0  0.75646  0.31865  0.57269  1.0000
  C   C2009     1.0  0.86994  0.46762  0.65283  1.0000
  C   C2010     1.0  0.84265  0.29251  0.52490  1.0000
  H   H1606     1.0  0.89326  0.44296  0.64676  1.0000
  H   H1607     1.0  0.97942  0.47548  0.70941  1.0000
  C   C2011     1.0  0.97121  0.45454  0.68518  1.0000
  H   H1608     1.0  0.85698  0.45699  0.65450  1.0000
  H   H1609     1.0  0.97627  0.46142  0.51645  1.0000
  C   C2012     1.0  0.75567  0.47436  0.74071  1.0000
  H   H1610     1.0  0.80815  0.46878  0.51542  1.0000
  H   H1611     1.0  0.96759  0.43397  0.65920  1.0000
  C   C2013     1.0  0.86640  0.48911  0.65629  1.0000
  H   H1612     1.0  0.91060  0.49132  0.60596  1.0000
  C   C2014     1.0  0.98542  0.46457  0.69770  1.0000
  C   C2015     1.0  0.74822  0.45856  0.54010  1.0000
  H   H1613     1.0  0.76213  0.44149  0.85728  1.0000
  C   C2016     1.0  0.75186  0.45953  0.51805  1.0000
  C   C2017     1.0  0.97863  0.44117  0.66931  1.0000
  H   H1614     1.0  0.87833  0.47038  0.60710  1.0000
  C   C2018     1.0  0.85638  0.28703  0.50814  1.0000
  H   H1615     1.0  0.99347  0.44283  0.77455  1.0000
  C   C2019     1.0  0.75615  0.48562  0.75932  1.0000
  H   H1616     1.0  0.98127  0.37949  0.62710  1.0000
  H   H1617     1.0  0.75298  0.47108  0.54998  1.0000
  Fe  Fe130     1.0  0.80968  0.49294  0.65161  1.0000
  S   S259      1.0  0.98285  0.48894  0.55194  1.0000
  S   S260      1.0  0.74681  0.35578  0.50645  1.0000
  Fe  Fe131     1.0  0.99336  0.37300  0.51688  1.0000
  H   H1618     1.0  0.88857  0.28029  0.49845  1.0000
  C   C2020     1.0  0.85278  0.51128  0.41096  1.0000
  S   S261      1.0  0.97842  0.63090  0.47595  1.0000
  C   C2021     1.0  0.91143  0.51081  0.48211  1.0000
  C   C2022     1.0  0.97283  0.56771  0.45870  1.0000
  C   C2023     1.0  0.96812  0.54706  0.42763  1.0000
  C   C2024     1.0  0.74501  0.50513  0.22374  1.0000
  S   S262      1.0  0.75785  0.52169  0.41411  1.0000
  H   H1619     1.0  0.91773  0.50439  0.46744  1.0000
  H   H1620     1.0  0.81621  0.53835  0.31136  1.0000
  Fe  Fe132     1.0  0.77525  0.62600  0.46567  1.0000
  S   S263      1.0  0.79123  0.65474  0.47643  1.0000
  S   S264      1.0  0.77628  0.61727  0.43130  1.0000
  C   C2025     1.0  0.91671  0.53104  0.48759  1.0000
  S   S265      1.0  0.94533  0.51027  0.38707  1.0000
  H   H1621     1.0  0.75406  0.75981  0.46033  1.0000
  H   H1622     1.0  0.83599  0.63224  0.46118  1.0000
  Fe  Fe133     1.0  0.76725  0.50799  0.38243  1.0000
  S   S266      1.0  0.77655  0.52525  0.35234  1.0000
  Fe  Fe134     1.0  0.80458  0.50263  0.35186  1.0000
  C   C2026     1.0  0.97302  0.50183  0.48379  1.0000
  C   C2027     1.0  0.96663  0.54920  0.44962  1.0000
  H   H1623     1.0  0.83664  0.51725  0.41042  1.0000
  H   H1624     1.0  0.96064  0.53647  0.45951  1.0000
  S   S267      1.0  0.97101  0.56992  0.48639  1.0000
  C   C2028     1.0  0.77127  0.59063  0.42668  1.0000
  C   C2029     1.0  0.82498  0.50967  0.29561  1.0000
  H   H1625     1.0  0.91284  0.51915  0.35440  1.0000
  C   C2030     1.0  0.76342  0.54819  0.41858  1.0000
  C   C2031     1.0  0.77041  0.56177  0.40216  1.0000
  C   C2032     1.0  0.77410  0.58298  0.40618  1.0000
  H   H1626     1.0  0.77271  0.55604  0.38633  1.0000
  H   H1627     1.0  0.77915  0.59350  0.39335  1.0000
  C   C2033     1.0  0.81526  0.52998  0.49031  1.0000
  Fe  Fe135     1.0  0.97597  0.52611  0.38120  1.0000
  C   C2034     1.0  0.79083  0.52729  0.29321  1.0000
  C   C2035     1.0  0.87900  0.51815  0.35283  1.0000
  C   C2036     1.0  0.85027  0.52985  0.47421  1.0000
  H   H1628     1.0  0.87641  0.53402  0.35815  1.0000
  C   C2037     1.0  0.89723  0.58075  0.47186  1.0000
  S   S268      1.0  0.83627  0.51847  0.34964  1.0000
  C   C2038     1.0  0.76032  0.55590  0.43901  1.0000
  C   C2039     1.0  0.83676  0.52505  0.49144  1.0000
  S   S269      1.0  0.98440  0.50929  0.35115  1.0000
  H   H1629     1.0  0.77985  0.53980  0.29793  1.0000
  H   H1630     1.0  0.88418  0.67798  0.48104  1.0000
  H   H1631     1.0  0.89575  0.58825  0.48705  1.0000
  C   C2040     1.0  0.98201  0.58200  0.42357  1.0000
  H   H1632     1.0  0.83516  0.56931  0.36319  1.0000
  H   H1633     1.0  0.81677  0.60174  0.37621  1.0000
  S   S270      1.0  0.92626  0.66322  0.49072  1.0000
  C   C2041     1.0  0.76440  0.57699  0.44313  1.0000
  H   H1634     1.0  0.98038  0.63946  0.39645  1.0000
  C   C2042     1.0  0.96695  0.65273  0.42488  1.0000
  C   C2043     1.0  0.78419  0.51154  0.28021  1.0000
  C   C2044     1.0  0.86797  0.52221  0.42160  1.0000
  H   H1635     1.0  0.77277  0.50425  0.46448  1.0000
  P   P69       1.0  0.86029  0.54666  0.43409  1.0000
  C   C2045     1.0  0.84767  0.56463  0.41530  1.0000
  C   C2046     1.0  0.84235  0.53961  0.45570  1.0000
  C   C2047     1.0  0.82059  0.54374  0.45438  1.0000
  H   H1636     1.0  0.77590  0.51084  0.23466  1.0000
  C   C2048     1.0  0.96602  0.64293  0.40548  1.0000
  H   H1637     1.0  0.98201  0.65681  0.43099  1.0000
  H   H1638     1.0  0.92693  0.54033  0.47718  1.0000
  C   C2049     1.0  0.83763  0.58319  0.42241  1.0000
  C   C2050     1.0  0.82665  0.59654  0.40829  1.0000
  C   C2051     1.0  0.82580  0.59164  0.38695  1.0000
  C   C2052     1.0  0.83611  0.57344  0.37965  1.0000
  C   C2053     1.0  0.84728  0.56016  0.39366  1.0000
  C   C2054     1.0  0.88207  0.56069  0.44417  1.0000
  C   C2055     1.0  0.90077  0.56277  0.43205  1.0000
  C   C2056     1.0  0.91781  0.57301  0.44017  1.0000
  C   C2057     1.0  0.91617  0.58174  0.46017  1.0000
  H   H1639     1.0  0.86541  0.57061  0.47276  1.0000
  C   C2058     1.0  0.88015  0.57051  0.46379  1.0000
  C   C2059     1.0  0.97580  0.56347  0.41456  1.0000
  C   C2060     1.0  0.89964  0.50973  0.35079  1.0000
  C   C2061     1.0  0.86167  0.50630  0.34782  1.0000
  H   H1640     1.0  0.98673  0.59776  0.45237  1.0000
  H   H1641     1.0  0.90053  0.52100  0.43129  1.0000
  H   H1642     1.0  0.81385  0.55071  0.44013  1.0000
  H   H1643     1.0  0.96314  0.53272  0.42089  1.0000
  S   S271      1.0  0.97861  0.56047  0.38715  1.0000
  C   C2062     1.0  0.98077  0.58397  0.44561  1.0000
  S   S272      1.0  0.74535  0.63196  0.48458  1.0000
  H   H1644     1.0  0.83772  0.58706  0.43899  1.0000
  H   H1645     1.0  0.81818  0.61036  0.41402  1.0000
  H   H1646     1.0  0.94917  0.66532  0.45132  1.0000
  H   H1647     1.0  0.85523  0.54633  0.38743  1.0000
  H   H1648     1.0  0.90226  0.55636  0.41638  1.0000
  H   H1649     1.0  0.93236  0.57422  0.43095  1.0000
  H   H1650     1.0  0.92947  0.58962  0.46643  1.0000
  H   H1651     1.0  0.95773  0.49845  0.47789  1.0000
  C   C2063     1.0  0.80717  0.53916  0.47175  1.0000
  C   C2064     1.0  0.88770  0.69211  0.37108  1.0000
  C   C2065     1.0  0.89154  0.68866  0.34956  1.0000
  C   C2066     1.0  0.89884  0.66886  0.34300  1.0000
  C   C2067     1.0  0.90213  0.65242  0.35794  1.0000
  C   C2068     1.0  0.89772  0.65561  0.37953  1.0000
  C   C2069     1.0  0.89097  0.67571  0.38605  1.0000
  P   P70       1.0  0.90289  0.63499  0.39914  1.0000
  C   C2070     1.0  0.90351  0.60955  0.38703  1.0000
  C   C2071     1.0  0.92793  0.64139  0.40971  1.0000
  C   C2072     1.0  0.94657  0.63766  0.39772  1.0000
  H   H1652     1.0  0.98831  0.59461  0.41359  1.0000
  H   H1653     1.0  0.86697  0.52650  0.47545  1.0000
  C   C2073     1.0  0.94843  0.65739  0.43643  1.0000
  C   C2074     1.0  0.92897  0.65181  0.42892  1.0000
  C   C2075     1.0  0.92045  0.59509  0.38987  1.0000
  C   C2076     1.0  0.92118  0.57605  0.37932  1.0000
  C   C2077     1.0  0.90493  0.57114  0.36617  1.0000
  C   C2078     1.0  0.88764  0.58504  0.36388  1.0000
  C   C2079     1.0  0.88681  0.60410  0.37442  1.0000
  C   C2080     1.0  0.88161  0.63427  0.41872  1.0000
  C   C2081     1.0  0.86127  0.64177  0.41368  1.0000
  C   C2082     1.0  0.84493  0.64123  0.42901  1.0000
  C   C2083     1.0  0.84860  0.63263  0.44923  1.0000
  C   C2084     1.0  0.86861  0.62459  0.45411  1.0000
  C   C2085     1.0  0.88505  0.62538  0.43896  1.0000
  H   H1654     1.0  0.88237  0.70755  0.37622  1.0000
  H   H1655     1.0  0.88909  0.70141  0.33798  1.0000
  H   H1656     1.0  0.90216  0.66629  0.32635  1.0000
  H   H1657     1.0  0.90829  0.63736  0.35259  1.0000
  H   H1658     1.0  0.88832  0.67871  0.40273  1.0000
  H   H1659     1.0  0.94614  0.63057  0.38238  1.0000
  C   C2086     1.0  0.88865  0.51376  0.42233  1.0000
  C   C2087     1.0  0.81123  0.52642  0.30084  1.0000
  H   H1660     1.0  0.75468  0.54550  0.45167  1.0000
  H   H1661     1.0  0.91489  0.65591  0.43813  1.0000
  H   H1662     1.0  0.93320  0.59832  0.40011  1.0000
  H   H1663     1.0  0.93445  0.56510  0.38126  1.0000
  H   H1664     1.0  0.90583  0.55658  0.35770  1.0000
  H   H1665     1.0  0.87496  0.58105  0.35379  1.0000
  H   H1666     1.0  0.87332  0.61474  0.37247  1.0000
  H   H1667     1.0  0.85795  0.64806  0.39797  1.0000
  H   H1668     1.0  0.82932  0.64731  0.42523  1.0000
  C   C2088     1.0  0.88286  0.66352  0.49047  1.0000
  H   H1669     1.0  0.87144  0.61810  0.46984  1.0000
  H   H1670     1.0  0.90051  0.61935  0.44313  1.0000
  H   H1671     1.0  0.79050  0.54303  0.47084  1.0000
  C   C2089     1.0  0.76335  0.49971  0.23461  1.0000
  C   C2090     1.0  0.89431  0.49563  0.41121  1.0000
  H   H1672     1.0  0.84056  0.50870  0.30217  1.0000
  H   H1673     1.0  0.76190  0.58279  0.45894  1.0000
  S   S273      1.0  0.78997  0.60461  0.49010  1.0000
  H   H1674     1.0  0.76806  0.51214  0.27522  1.0000
  C   C2091     1.0  0.89844  0.49886  0.49577  1.0000
  H   H1675     1.0  0.84875  0.66416  0.49044  1.0000
  Fe  Fe136     1.0  0.75897  0.50077  0.33512  1.0000
  C   C2092     1.0  0.86276  0.65575  0.49580  1.0000
  C   C2093     1.0  0.79798  0.49482  0.27463  1.0000
  H   H1676     1.0  0.76122  0.51341  0.53904  1.0000
  H   H1677     1.0  0.86929  0.52728  0.61800  1.0000
  C   C2094     1.0  0.81047  0.50229  0.55595  1.0000
  C   C2095     1.0  0.77696  0.50640  0.53897  1.0000
  C   C2096     1.0  0.98324  0.61297  0.61010  1.0000
  C   C2097     1.0  0.88357  0.50258  0.65493  1.0000
  H   H1678     1.0  0.90930  0.61980  0.61580  1.0000
  S   S274      1.0  0.95819  0.50924  0.60612  1.0000
  H   H1679     1.0  0.84491  0.60569  0.56836  1.0000
  Fe  Fe137     1.0  0.77788  0.52177  0.62882  1.0000
  S   S275      1.0  0.78239  0.51345  0.66328  1.0000
  S   S276      1.0  0.77740  0.55607  0.61793  1.0000
  H   H1680     1.0  0.85507  0.50665  0.55392  1.0000
  S   S277      1.0  0.77591  0.64033  0.52472  1.0000
  H   H1681     1.0  0.91707  0.50532  0.64879  1.0000
  C   C2098     1.0  0.76899  0.56331  0.59233  1.0000
  C   C2099     1.0  0.87089  0.65488  0.65797  1.0000
  C   C2100     1.0  0.80586  0.64366  0.59767  1.0000
  H   H1682     1.0  0.96081  0.52323  0.50727  1.0000
  C   C2101     1.0  0.76868  0.58900  0.56280  1.0000
  C   C2102     1.0  0.77534  0.58255  0.58307  1.0000
  H   H1683     1.0  0.77345  0.60391  0.55586  1.0000
  H   H1684     1.0  0.78538  0.59250  0.59166  1.0000
  C   C2103     1.0  0.88238  0.64041  0.57361  1.0000
  H   H1685     1.0  0.76629  0.49896  0.76005  1.0000
  H   H1686     1.0  0.91446  0.52077  0.58053  1.0000
  C   C2104     1.0  0.86598  0.64164  0.67541  1.0000
  C   C2105     1.0  0.81484  0.62186  0.56786  1.0000
  H   H1687     1.0  0.82033  0.50599  0.56891  1.0000
  S   S278      1.0  0.84155  0.49907  0.66548  1.0000
  H   H1688     1.0  0.93291  0.53425  0.55085  1.0000
  H   H1689     1.0  0.98887  0.58719  0.56383  1.0000
  Fe  Fe138     1.0  0.76150  0.61254  0.51020  1.0000
  H   H1690     1.0  0.76650  0.52828  0.50107  1.0000
  C   C2106     1.0  0.97474  0.51570  0.50029  1.0000
  H   H1691     1.0  0.85572  0.59702  0.64992  1.0000
  C   C2107     1.0  0.98795  0.57205  0.59509  1.0000
  Fe  Fe139     1.0  0.95674  0.64593  0.50011  1.0000
  C   C2108     1.0  0.88671  0.55539  0.61064  1.0000
  H   H1692     1.0  0.95899  0.56030  0.55944  1.0000
  C   C2109     1.0  0.88559  0.57732  0.60748  1.0000
  C   C2110     1.0  0.75581  0.55059  0.58127  1.0000
  C   C2111     1.0  0.89898  0.65060  0.56290  1.0000
  H   H1693     1.0  0.78564  0.52356  0.56610  1.0000
  C   C2112     1.0  0.86842  0.54422  0.61512  1.0000
  H   H1694     1.0  0.79480  0.65417  0.60576  1.0000
  H   H1695     1.0  0.78570  0.63974  0.57138  1.0000
  H   H1696     1.0  0.93215  0.65686  0.56245  1.0000
  C   C2113     1.0  0.83414  0.61627  0.57677  1.0000
  C   C2114     1.0  0.91921  0.64932  0.57100  1.0000
  H   H1697     1.0  0.87507  0.67104  0.66034  1.0000
  H   H1698     1.0  0.90002  0.58558  0.60449  1.0000
  H   H1699     1.0  0.90186  0.54710  0.61013  1.0000
  P   P71       1.0  0.86441  0.61683  0.60763  1.0000
  H   H1700     1.0  0.80720  0.57888  0.53465  1.0000
  H   H1701     1.0  0.83407  0.57969  0.50553  1.0000
  H   H1702     1.0  0.87412  0.65782  0.62410  1.0000
  C   C2115     1.0  0.98738  0.58949  0.58071  1.0000
  H   H1703     1.0  0.87793  0.61211  0.52461  1.0000
  S   S279      1.0  0.95458  0.61691  0.52081  1.0000
  C   C2116     1.0  0.98469  0.60994  0.58831  1.0000
  C   C2117     1.0  0.88590  0.62890  0.59268  1.0000
  S   S280      1.0  0.98303  0.63231  0.57142  1.0000
  H   H1704     1.0  0.88107  0.51912  0.65814  1.0000
  H   H1705     1.0  0.94779  0.59773  0.56442  1.0000
  H   H1706     1.0  0.88391  0.58292  0.55394  1.0000
  C   C2118     1.0  0.75536  0.57642  0.55181  1.0000
  Fe  Fe140     1.0  0.98286  0.62866  0.53625  1.0000
  C   C2119     1.0  0.83953  0.62451  0.59617  1.0000
  H   H1707     1.0  0.85667  0.61055  0.68584  1.0000
  H   H1708     1.0  0.86694  0.64175  0.56688  1.0000
  H   H1709     1.0  0.89621  0.65930  0.54812  1.0000
  Fe  Fe141     1.0  0.80373  0.63363  0.50273  1.0000
  H   H1710     1.0  0.86636  0.64751  0.69130  1.0000
  C   C2120     1.0  0.92283  0.63807  0.58998  1.0000
  C   C2121     1.0  0.87041  0.64730  0.63746  1.0000
  S   S281      1.0  0.98419  0.65896  0.51691  1.0000
  H   H1711     1.0  0.93861  0.63704  0.59613  1.0000
  C   C2122     1.0  0.86507  0.62635  0.63424  1.0000
  Fe  Fe142     1.0  0.98509  0.52172  0.62375  1.0000
  C   C2123     1.0  0.86091  0.63717  0.50815  1.0000
  C   C2124     1.0  0.86713  0.50354  0.56536  1.0000
  C   C2125     1.0  0.86004  0.61318  0.65185  1.0000
  C   C2126     1.0  0.74896  0.55717  0.56107  1.0000
  C   C2127     1.0  0.84893  0.55494  0.61622  1.0000
  H   H1712     1.0  0.83474  0.54632  0.62001  1.0000
  C   C2128     1.0  0.80070  0.63552  0.57829  1.0000
  H   H1713     1.0  0.81087  0.61565  0.55277  1.0000
  C   C2129     1.0  0.82521  0.63822  0.60661  1.0000
  H   H1714     1.0  0.82876  0.64467  0.62167  1.0000
  H   H1715     1.0  0.83245  0.58480  0.61434  1.0000
  C   C2130     1.0  0.90624  0.62808  0.60089  1.0000
  C   C2131     1.0  0.86608  0.58827  0.60874  1.0000
  C   C2132     1.0  0.84772  0.57682  0.61291  1.0000
  C   C2133     1.0  0.86053  0.62082  0.67234  1.0000
  C   C2134     1.0  0.87921  0.62646  0.51502  1.0000
  C   C2135     1.0  0.83752  0.57123  0.52028  1.0000
  C   C2136     1.0  0.82238  0.57093  0.53676  1.0000
  C   C2137     1.0  0.82701  0.56084  0.55611  1.0000
  C   C2138     1.0  0.84668  0.55082  0.55887  1.0000
  C   C2139     1.0  0.86172  0.55037  0.54213  1.0000
  C   C2140     1.0  0.85717  0.56113  0.52298  1.0000
  P   P72       1.0  0.88726  0.53755  0.54566  1.0000
  C   C2141     1.0  0.88497  0.51601  0.56504  1.0000
  C   C2142     1.0  0.89636  0.52719  0.52062  1.0000
  C   C2143     1.0  0.90915  0.53928  0.50668  1.0000
  H   H1716     1.0  0.75068  0.53582  0.58841  1.0000
  C   C2144     1.0  0.89920  0.63411  0.50954  1.0000
  S   S282      1.0  0.83638  0.62630  0.51543  1.0000
  C   C2145     1.0  0.89094  0.50696  0.51490  1.0000
  S   S283      1.0  0.80601  0.50291  0.61771  1.0000
  H   H1717     1.0  0.98135  0.62876  0.61600  1.0000
  H   H1718     1.0  0.80493  0.52692  0.50392  1.0000
  H   H1719     1.0  0.84296  0.51803  0.50589  1.0000
  C   C2146     1.0  0.90057  0.51155  0.57996  1.0000
  C   C2147     1.0  0.90621  0.55634  0.55291  1.0000
  C   C2148     1.0  0.90014  0.57755  0.55535  1.0000
  C   C2149     1.0  0.91524  0.59233  0.55908  1.0000
  C   C2150     1.0  0.93629  0.58608  0.56126  1.0000
  C   C2151     1.0  0.94254  0.56505  0.55851  1.0000
  C   C2152     1.0  0.92763  0.55029  0.55391  1.0000
  H   H1720     1.0  0.91297  0.62564  0.51502  1.0000
  H   H1721     1.0  0.91070  0.60875  0.55981  1.0000
  H   H1722     1.0  0.81538  0.56097  0.56904  1.0000
  H   H1723     1.0  0.85004  0.54340  0.57407  1.0000
  H   H1724     1.0  0.86881  0.56189  0.51021  1.0000
  H   H1725     1.0  0.91357  0.55503  0.51052  1.0000
  C   C2153     1.0  0.79068  0.51215  0.55450  1.0000
  S   S284      1.0  0.98672  0.55436  0.63571  1.0000
  S   S285      1.0  0.74883  0.69336  0.50063  1.0000
  Fe  Fe143     1.0  0.97747  0.60238  0.49762  1.0000
  H   H1726     1.0  0.98978  0.55621  0.58934  1.0000
  C   C2154     1.0  0.90121  0.65278  0.49735  1.0000
  C   C2155     1.0  0.98611  0.57527  0.61694  1.0000
  C   C2156     1.0  0.98403  0.59572  0.62435  1.0000
  S   S286      1.0  0.74616  0.58460  0.52673  1.0000
  H   H1727     1.0  0.98274  0.59825  0.64120  1.0000
  H   H1728     1.0  0.88135  0.49715  0.52531  1.0000
  S   S287      1.0  0.75529  0.49590  0.62427  1.0000
  Fe  Fe144     1.0  0.76200  0.65944  0.49739  1.0000
  C   C2157     1.0  0.75076  0.52359  0.49786  1.0000
  C   C2158     1.0  0.74539  0.50227  0.49907  1.0000
  S   S288      1.0  0.98631  0.49525  0.64824  1.0000
  C   C2159     1.0  0.89832  0.49488  0.59475  1.0000
  C   C2160     1.0  0.90402  0.49476  0.64982  1.0000
