data_image0
_chemical_formula_structural       CSCSC2HC9H4CH3C2H4CH4SC3H2C3HC2H2PC2SC2HC2HCHC2HC2HFeHC3H4C2H2CH2CSC5HC4H2CH2CHCHC4FeC2H5C5H3CH3CHCHSC4HFeC2H2PC2HCHC3HPCSCHCHCH2CFeSHFeS2H3SCSHCSHFeS2CFeSHS2FeS3HC7H2PH4CHC6H3CH4C4HC6H4CHC3HC2H2CHC7HCHPHCHC3HSCHC2HC7PC7FeHC2HC7H12C2H5C6PC18H15CH3CHFeC4HCHCHC5H2C3PH6FeCH2CH4C3H2CHCH4CFeHC4H3C2HCFeC2H5CHC2HCHCH6CHC6H2P2HSC2S2CH3C4HCFeH2CSH3CHC4H3C4HCHC3HC2SHC2PCH2FeHC4SHSC8HC2HC2HCHC6HCHC2HC5HC2H6C3H2CHCHPCHSCHCHC4HC2HCSCHCH4C3PCHC3HC4H2FeHC2H3CHC3H2SC2H4CH6C3H5C2H2FeH2C2FeCHSC2H3CHC4SHCHC2SCSCHC2H2SC2SHC4HSH3CH2C6HC3H3CH2CHCH3CH6C2S2HCH2CHCHFeH6FeSFeCH2CHS2C2H2SFeHSC6SH3C3H3C7H5C6H4CHC7HC2H2C2HC3SC3SC5HSHCHC2H3CHC2H2C5H2C7HCHC5HC2HC3H3C2HCH2CH2C2H2C3HC4HSC2SHC3H2C2H6SC2PHC3SC2HC10FeC5HC3H2C4H4CHC4HCH2PH3Fe2C3H2C2H4SHCH3C2HCSCH2SCHC3HC2HCHCHC5HCHCH4SHCSC2H3CHCHPH3C2PC2H2CH2C2PHC4H3C3HC2H2SCHCHC2PH2SH7SHC2HCPHCHC3HC2H2CHSC4FeCH2C2HCSH5CH2SCH2CHC3H2SCFeC5H4CSC2HC5HC7H4CH2C2HC2HCH2CHCHCHCH2C5H2C4HSC2H2CH2FeCSCHC2H3CHCH5C8H5CHPC5HC3H3CH3CPCH3C3HCH4CH2C2FeC3S2C2HSHCPCH2CFeC2FeHFeSCSH2CH3C2SFeC2FeSCH2SHC2HC4HCHC3HC3HC2HCFeHC5H3SC2HCH2C7PC18H18CHCHCHCH3FeCS2CHC3HCHCH4CPSCHCH5CFeC5SCH3CHCSH2CHCHC2HSCH2CHCSHCHC2H2CSH2CHFeSFeSCSCFeHSFeCSHCSHSFeS2FeS2FeSFeSCFeS2FeS2FeSHSC3FeS2FeH4FeH2SFeS2FeS2HFeSHSC5H2SC7H4CHCHCH2C10H2CHC6H4CSHC8H2S2C6H4C6H2C3HC3H7C6H2C6H4C3H3C6PC4SHC8FeH2CH16CHCHCHC2SCHC4H2C2SC3H4CH2CHC6HCHC3H5C5PC18H17CH2C3H2C2HC2H2C4HC2HCFeHCHCH3CH2PC5HCHCH2C7HC3FeCH2CHC4HCHC2H5PHPC2H2CH3C2HCH3C2H2C5HC4H3CSPCH2CHSH3C2H4CHC2HCPC4H3CHC6HC2H2CSHPCH2CH3C2HCH2CHCHCHCPC4HC2HC3H4CHC3HCHCHCSHCHCSHC7HCHCHCH3FeH2CHCHCH3CH4C2HC2HFeH3CSHS2HC3PC3H2CH3FeSHCH2C3H2CFeSCSHFeCS2C2SC2SFeHSCHCS2CFeCH2FeH2CHCHCH2CHCSH2C6H3C4HCH4SCFePCH3C7H4C6HCH5CH2CHCH2C2HC2HSFeC6H2CHCHC11H10C3H2CHC3HC7HCHC6HCHPC2FeH4CHCHC2HCHC3HPCH7C2H2C3H2C3HC3HCPC4HC2H5CH3C4HC2HC5HC5HC3HFeC5HCHCH2CHSCHCH6C3HC5HCH5C4SCH3C3FeHCHC4SC5PC2H2SC3SHCHC2HC4HCH3C2H2C2HCHCP2H2PCHC6HC6H5CPHSHCHC2H2CH2CHC2HCH2CH2CH5CH4C4HCHC3HCH2CSC2SHCHCFeCFeSC2HSH2CH3CH4C4HCH2C4HC2H2C6HSCHC3H2SHSCH4SC2H6FeS2H3CPCS2CHCHCH3C8HC3H3C3FeHCHC3HC7H4C2HCHSC3HC7HCHPCHFeH2C2HC2SFeCSHPCHC2FeCH3CSC2H3CHC3HC2HC3H6CHCHC2HC3HCH2FeCSCHFe2CFeHSFeS4CFeHSFeSFeS2CH2C3SPHC6H4C6H4SCFeHC2H3SH2C3HCHC2H2C2H4CH2CPCFeC2HC8H2C3H2C4FeCH2C2HC2HC2HCHCHCHSFeHC3HC5HCFeHCSHS2H3CH4CH2CSH3CSHCHC3HCH3CHCHCHSH3CSC2H2CH2FeSH3CHC2H3FeS2HCFeSFeSH2CHSFeCSFeS2CFeSHSFeSHFeS2FeS2CSCHCHFeSHSH2CFeS2FeS2HFeS3H2SFeSCFeSCFeSCSC8H4C6HCH2CFeHCH3SH2C6H5C7H2C6H5C3H4C8H4CHC5H3CHC4H2SHC2HC2H2FeHPC2HSHC10H2CH2C2H2CH2FeH3C4PCHC6PCHC9H14C10H8C3SC3PCH2C4SHC4HC2H3C6PC14HC3H16C2HC3H2FeC3HCH3C2H2PC5H2CHCH2CH3C2HCHC2H2SH3PC4SHCHC2H2FeC5H3C13HC2H2C2HC2SC3HC5HCHCSCH2PH3SHC4H4SHC4H2CHCH5C2HC4H2C2H2CHCHCHC3HC2HC3HC3FeCH3C2HCFeH2CHSC2HCHCHC2PCHCHCHSHC5H2SHCHCHCHSH2C4SC2HC3H3CHCH2CSH2CHCH3C4HC3HCH2CSH3C2FeH2CHC2HCHSHCSC2H4FeC2HC2H7CHCSC3H2CH3CH2CHC2PC5HCH2C2SHS2HSCFeS5CSCFeSCFeS2FeSC2FeHSH2CHSCFeCFeHSPS2CHC2SC2FeHC6H3C6H7C8H4C6H4CH2CH2C6H4C2HCHCH2CHCHCH2CH2CHCH2C2HC2HC2H2CHCH3CH2C5HPHC2FeCHPC2HC3PC12H3SHCSH5FeH4CHPH2CFeH5C6H2CHCHCHC2HC3H4C2H2C2HCH3CSCSH3C4HC2HCH2CH2C3FeHC2H2C2H2PCH2PCHC3H2CH2CH2CH3CFeHC2FeH2C3SHC2HCHC2HCHC3SHC4HCH2C2SHC2H2SH3SFeCHC2H3FeHC2H3C2HC3FeC2H2CSC3HSC7SCHCHCHC2HCH2CH2CH4C6HCH2C5H3C3HCHC2FeC2PH2CH3SCHC2H4CHCHC5HC4HFeHC3HCH2SHCHC5HCFeHC2H2CH2CFeHSCFeHSFeS2C2FeS2CHCH2CHCHC10H4CH3C3H2PHSC3HC3HCHC3HC2HC3HC2SH2CH3SC2H3C2HCHCHCHSCHCHCHCHSCFeHC3H3C3H2C2HCHCFePCHC5HC2H2CH4C4H3C2H2C2HC2HCSHCHC2HC3H3CHC2HC2HC5HC2HCPCH2C2FeSH2CHC3HPCFeHFeHC2HC3HPC2H5C6H2C3HSH4C4FeS2C3H4SHC6HFeSCSCSH3C3SC4HC8H5C2HCH3C7H2PCFePH2SCH3CH2C3HC2HC4SPCHCHC4HCH2CHCH2FeHCH3PC2SC8H2C2H2C2H3CHSCH2C2HCHC3HCFeH3FeCHCH2C5H4Fe2CHCH2C2H2SH2C2HCH2C3H2C7H2CHC2HCFeS2FeS2HCHFeSFeS2CFeSHFeS2FeSFeS3FeS2HCFeSHCFeS2FeS2HCHPCHFeS2FeSHFeSFeS3FeS2FeSCFeSFeS3C6H8C8H4C6H4CH2SHC2FeC4H4C5HCH2CH2C6H4C6H4CH4C2PC6H4C6H4PCH2CHC5H4CHSCHFeCHC2H2C2PH3C2HC2H2C2H2C3HC5HCSHC3H2CHCHCH3CHCHC6SH2C3SH2CHCH3C2H2C2SHCHC2HSC3H5CSHC2H3CHSHSH3FeHFeCHCH2C2HC3HCSCH3CHC6H2CH2C2FeCHC5H4CSC2PC6SH2C3H2CH2C9H2CHCH3CHC2PHCHCHC2FeSH2C2H2C5HC3H2CH2C2HC2HC2HC3H2CHC2SH3FeH4C3H2CHCPCHSH3C2HCPHCHC5HSHCHC3H5C3SHC3HCHCHC4HC3PCH2CHC2H2C3HCSH2CSCHCHC2HC2FeHSHCHCHC6HC2H3CHC3HCH2CH4CH2C3HC2HSH3Fe2SCS3HCS3C5H2C6H3SC4H6CH3SC10H2FeHC3SCH2C7HCH3CHPCHCHC4HFeHC2PHCHCSC2HCHCH2C2HC8SC2H5CH2C9H2CFeH2CSH2SCHFeH3CHCHC2H2C3H2C2H2C2HCH2CH2C3PC7HC6HFeH5CH6CSH3C2HC2H2C2HC2H2C2H2C2H3CH2CH4PHC2H2C2H2CH2CPH2CPHC3HC2HCH2C2HCSC3HC2HC5H2SCH2SH3CHC2PC2H2C2HC6H3SC2HCH3FeC2HC3HC2HCHC6SH4C3H2CHCH4CHCH2CHC2H2CH2C6H2C3HC6HC2PCHC2HC3H2CHCFeCH3SH2C2H2CHC2HSH2PCHC2HCSHCHCH2PH2CH4CHC2HCHC7H4FeC4PHC3SC2HCH6CHC2FeCHCH3SCHSHCHC6H3CHC5H6C3H3CH4CSCH2C2HC5HCSC2H3CHC2HC3HC4SCH2CHC2HCHC2SCH5CHC
_chemical_formula_sum              "C2880 S384 H2304 P96 Fe192"
_cell_length_a       76.568
_cell_length_b       76.4823
_cell_length_c       76.6901
_cell_angle_alpha    81.2671
_cell_angle_beta     81.2261
_cell_angle_gamma    81.2305

_space_group_name_H-M_alt    "P 1"
_space_group_IT_number       1

loop_
  _space_group_symop_operation_xyz
  'x, y, z'

loop_
  _atom_site_type_symbol
  _atom_site_label
  _atom_site_symmetry_multiplicity
  _atom_site_fract_x
  _atom_site_fract_y
  _atom_site_fract_z
  _atom_site_occupancy
  C   C1        1.0  0.47658  0.39400  0.10535  1.0000
  S   S1        1.0  0.47031  0.38703  0.06043  1.0000
  C   C2        1.0  0.43912  0.38590  0.99912  1.0000
  S   S2        1.0  0.40621  0.44696  0.04676  1.0000
  C   C3        1.0  0.33061  0.40197  0.22773  1.0000
  C   C4        1.0  0.36806  0.45456  0.19101  1.0000
  H   H1        1.0  0.30777  0.42195  0.22485  1.0000
  C   C5        1.0  0.46614  0.46460  0.07946  1.0000
  C   C6        1.0  0.47097  0.38045  0.01433  1.0000
  C   C7        1.0  0.48404  0.37946  0.13949  1.0000
  C   C8        1.0  0.45317  0.40434  0.05646  1.0000
  C   C9        1.0  0.45504  0.42219  0.05700  1.0000
  C   C10       1.0  0.44056  0.43558  0.05431  1.0000
  C   C11       1.0  0.42457  0.43101  0.05067  1.0000
  C   C12       1.0  0.42297  0.41323  0.04986  1.0000
  C   C13       1.0  0.43717  0.39991  0.05290  1.0000
  H   H2        1.0  0.46743  0.42558  0.05986  1.0000
  H   H3        1.0  0.44177  0.44937  0.05496  1.0000
  H   H4        1.0  0.41057  0.40971  0.04727  1.0000
  H   H5        1.0  0.43579  0.38612  0.05247  1.0000
  C   C14       1.0  0.38684  0.46655  0.16474  1.0000
  H   H6        1.0  0.39374  0.46325  0.19112  1.0000
  H   H7        1.0  0.41968  0.45757  0.99810  1.0000
  H   H8        1.0  0.39248  0.44089  0.09812  1.0000
  C   C15       1.0  0.38449  0.44352  0.22422  1.0000
  C   C16       1.0  0.49274  0.37144  0.12476  1.0000
  H   H9        1.0  0.47425  0.39982  0.09200  1.0000
  H   H10       1.0  0.35572  0.38521  0.22969  1.0000
  H   H11       1.0  0.46197  0.44109  0.19286  1.0000
  H   H12       1.0  0.38074  0.33510  0.03603  1.0000
  C   C17       1.0  0.35078  0.43063  0.22033  1.0000
  H   H13       1.0  0.39743  0.40349  0.02294  1.0000
  H   H14       1.0  0.49234  0.47157  0.06930  1.0000
  H   H15       1.0  0.39887  0.47218  0.15884  1.0000
  H   H16       1.0  0.48309  0.42103  0.21092  1.0000
  S   S3        1.0  0.41320  0.48609  0.07316  1.0000
  C   C18       1.0  0.41487  0.42811  0.22246  1.0000
  C   C19       1.0  0.34997  0.46793  0.22429  1.0000
  C   C20       1.0  0.49005  0.46679  0.14610  1.0000
  H   H17       1.0  0.47705  0.48273  0.19363  1.0000
  H   H18       1.0  0.43689  0.41299  0.00526  1.0000
  C   C21       1.0  0.46746  0.40194  0.12007  1.0000
  C   C22       1.0  0.37401  0.46514  0.15408  1.0000
  C   C23       1.0  0.39850  0.43232  0.21581  1.0000
  H   H19       1.0  0.42898  0.40793  0.14681  1.0000
  C   C24       1.0  0.32978  0.49722  0.23916  1.0000
  C   C25       1.0  0.38768  0.34523  0.02752  1.0000
  H   H20       1.0  0.41675  0.37412  0.02918  1.0000
  H   H21       1.0  0.47714  0.48055  0.04119  1.0000
  P   P1        1.0  0.36357  0.44920  0.21496  1.0000
  C   C26       1.0  0.39904  0.35424  0.03447  1.0000
  C   C27       1.0  0.46418  0.44897  0.24111  1.0000
  S   S4        1.0  0.43655  0.47138  0.20003  1.0000
  C   C28       1.0  0.47152  0.39470  0.13720  1.0000
  C   C29       1.0  0.43319  0.41902  0.10690  1.0000
  H   H22       1.0  0.41674  0.38827  0.08828  1.0000
  C   C30       1.0  0.48904  0.37874  0.10768  1.0000
  C   C31       1.0  0.45211  0.46032  0.23094  1.0000
  H   H23       1.0  0.39683  0.42702  0.20395  1.0000
  C   C32       1.0  0.47226  0.49670  0.19032  1.0000
  H   H24       1.0  0.35132  0.48601  0.19958  1.0000
  C   C33       1.0  0.45130  0.45754  0.21348  1.0000
  C   C34       1.0  0.49431  0.43663  0.16131  1.0000
  H   H25       1.0  0.44444  0.48568  0.12309  1.0000
  C   C35       1.0  0.42548  0.42606  0.16625  1.0000
  C   C36       1.0  0.47460  0.43204  0.21649  1.0000
  H   H26       1.0  0.49321  0.42259  0.16201  1.0000
  Fe  Fe1       1.0  0.41639  0.49434  0.20886  1.0000
  H   H27       1.0  0.47326  0.35331  0.00914  1.0000
  C   C37       1.0  0.42974  0.44193  0.17036  1.0000
  C   C38       1.0  0.41713  0.40055  0.09354  1.0000
  C   C39       1.0  0.40348  0.43018  0.09909  1.0000
  H   H28       1.0  0.48601  0.47577  0.13470  1.0000
  H   H29       1.0  0.44327  0.39222  0.10068  1.0000
  H   H30       1.0  0.41848  0.44479  0.11179  1.0000
  H   H31       1.0  0.49624  0.45338  0.03217  1.0000
  C   C40       1.0  0.43231  0.40294  0.10052  1.0000
  C   C41       1.0  0.38532  0.34925  0.00957  1.0000
  H   H32       1.0  0.47168  0.44104  0.01339  1.0000
  H   H33       1.0  0.34815  0.45772  0.15352  1.0000
  C   C42       1.0  0.33215  0.43370  0.22078  1.0000
  H   H34       1.0  0.49068  0.42596  0.10918  1.0000
  H   H35       1.0  0.38432  0.49340  0.99774  1.0000
  C   C43       1.0  0.49236  0.46429  0.02214  1.0000
  S   S5        1.0  0.42495  0.49283  0.02955  1.0000
  C   C44       1.0  0.44512  0.45007  0.00741  1.0000
  C   C45       1.0  0.34621  0.48428  0.21359  1.0000
  C   C46       1.0  0.44342  0.43049  0.13734  1.0000
  C   C47       1.0  0.48468  0.46257  0.07858  1.0000
  C   C48       1.0  0.47552  0.43483  0.23391  1.0000
  H   H36       1.0  0.34276  0.44838  0.18587  1.0000
  C   C49       1.0  0.45629  0.45255  0.09093  1.0000
  C   C50       1.0  0.41740  0.43500  0.23760  1.0000
  C   C51       1.0  0.46493  0.43834  0.10168  1.0000
  C   C52       1.0  0.34913  0.39876  0.22721  1.0000
  H   H37       1.0  0.37654  0.34222  0.00418  1.0000
  H   H38       1.0  0.40093  0.35111  0.04838  1.0000
  C   C53       1.0  0.38738  0.43047  0.01393  1.0000
  H   H39       1.0  0.48754  0.37422  0.15265  1.0000
  H   H40       1.0  0.32283  0.39091  0.23060  1.0000
  C   C54       1.0  0.44949  0.36903  0.00046  1.0000
  H   H41       1.0  0.48304  0.37828  0.02062  1.0000
  C   C55       1.0  0.46538  0.36637  0.00796  1.0000
  H   H42       1.0  0.42577  0.41977  0.21575  1.0000
  C   C56       1.0  0.44718  0.44672  0.14131  1.0000
  C   C57       1.0  0.43224  0.42036  0.14979  1.0000
  C   C58       1.0  0.39428  0.36230  0.99854  1.0000
  C   C59       1.0  0.41842  0.43244  0.10653  1.0000
  Fe  Fe2       1.0  0.40802  0.47541  0.04903  1.0000
  C   C60       1.0  0.35526  0.45312  0.18016  1.0000
  C   C61       1.0  0.38385  0.46142  0.18312  1.0000
  H   H43       1.0  0.45537  0.45494  0.13175  1.0000
  H   H44       1.0  0.44021  0.45381  0.02050  1.0000
  H   H45       1.0  0.48513  0.44351  0.13586  1.0000
  H   H46       1.0  0.32534  0.44715  0.21820  1.0000
  H   H47       1.0  0.44379  0.46458  0.16125  1.0000
  C   C62       1.0  0.46256  0.44337  0.20633  1.0000
  C   C63       1.0  0.39672  0.41362  0.01153  1.0000
  C   C64       1.0  0.40569  0.37149  0.00542  1.0000
  C   C65       1.0  0.44050  0.45231  0.15788  1.0000
  C   C66       1.0  0.48168  0.47959  0.02727  1.0000
  H   H48       1.0  0.45934  0.47537  0.07106  1.0000
  H   H49       1.0  0.42472  0.44619  0.18323  1.0000
  H   H50       1.0  0.49613  0.37281  0.09619  1.0000
  C   C67       1.0  0.40801  0.36729  0.02350  1.0000
  H   H51       1.0  0.41707  0.41807  0.17589  1.0000
  H   H52       1.0  0.46485  0.40788  0.01866  1.0000
  H   H53       1.0  0.38121  0.43323  0.02710  1.0000
  C   C68       1.0  0.40285  0.41425  0.09257  1.0000
  H   H54       1.0  0.44204  0.45429  0.09097  1.0000
  C   C69       1.0  0.44486  0.40002  0.00551  1.0000
  H   H55       1.0  0.46552  0.40094  0.14880  1.0000
  S   S6        1.0  0.38765  0.49043  0.21444  1.0000
  C   C70       1.0  0.32213  0.41943  0.22450  1.0000
  C   C71       1.0  0.48357  0.43672  0.10104  1.0000
  C   C72       1.0  0.35824  0.45841  0.16178  1.0000
  C   C73       1.0  0.48940  0.44854  0.14670  1.0000
  H   H56       1.0  0.44338  0.47111  0.23662  1.0000
  Fe  Fe3       1.0  0.49798  0.39412  0.05384  1.0000
  C   C74       1.0  0.47679  0.49377  0.01446  1.0000
  C   C75       1.0  0.34282  0.46617  0.24237  1.0000
  H   H57       1.0  0.39143  0.41268  0.08643  1.0000
  H   H58       1.0  0.37607  0.46971  0.13991  1.0000
  P   P2        1.0  0.45241  0.42245  0.11646  1.0000
  C   C76       1.0  0.46074  0.39723  0.01309  1.0000
  C   C77       1.0  0.49764  0.46289  0.00409  1.0000
  H   H59       1.0  0.43017  0.43189  0.24261  1.0000
  C   C78       1.0  0.49339  0.44872  0.08945  1.0000
  H   H60       1.0  0.37349  0.41014  0.22317  1.0000
  C   C79       1.0  0.35920  0.41301  0.22348  1.0000
  C   C80       1.0  0.46295  0.44320  0.00321  1.0000
  C   C81       1.0  0.49595  0.47317  0.16013  1.0000
  H   H61       1.0  0.45550  0.49764  0.21547  1.0000
  P   P3        1.0  0.49698  0.49668  0.15959  1.0000
  C   C82       1.0  0.38725  0.45051  0.23937  1.0000
  S   S7        1.0  0.38228  0.49321  0.04588  1.0000
  C   C83       1.0  0.38623  0.44390  0.99946  1.0000
  H   H62       1.0  0.37905  0.45698  0.00141  1.0000
  C   C84       1.0  0.40364  0.44626  0.24598  1.0000
  H   H63       1.0  0.37713  0.45971  0.24588  1.0000
  C   C85       1.0  0.35261  0.29277  0.43573  1.0000
  H   H64       1.0  0.48916  0.02919  0.32428  1.0000
  H   H65       1.0  0.19065  0.49678  0.35465  1.0000
  C   C86       1.0  0.48379  0.07080  0.44875  1.0000
  Fe  Fe4       1.0  0.39159  0.07001  0.47153  1.0000
  S   S8        1.0  0.42114  0.06924  0.47035  1.0000
  H   H66       1.0  0.46022  0.07710  0.46701  1.0000
  Fe  Fe5       1.0  0.41656  0.09825  0.45913  1.0000
  S   S9        1.0  0.43237  0.11317  0.43617  1.0000
  S   S10       1.0  0.38754  0.09866  0.45818  1.0000
  H   H67       1.0  0.20116  0.42739  0.26167  1.0000
  H   H68       1.0  0.01429  0.44598  0.32810  1.0000
  H   H69       1.0  0.26281  0.48139  0.40285  1.0000
  S   S11       1.0  0.09606  0.44714  0.36019  1.0000
  C   C87       1.0  0.42788  0.31158  0.47761  1.0000
  S   S12       1.0  0.08320  0.41567  0.46443  1.0000
  H   H70       1.0  0.40726  0.11686  0.31136  1.0000
  C   C88       1.0  0.02776  0.42856  0.46355  1.0000
  S   S13       1.0  0.12642  0.41072  0.46741  1.0000
  H   H71       1.0  0.19727  0.44698  0.44512  1.0000
  Fe  Fe6       1.0  0.10797  0.39834  0.45438  1.0000
  S   S14       1.0  0.11500  0.39170  0.42642  1.0000
  S   S15       1.0  0.10485  0.37527  0.47618  1.0000
  C   C89       1.0  0.04462  0.43533  0.41595  1.0000
  Fe  Fe7       1.0  0.41335  0.26657  0.46589  1.0000
  S   S16       1.0  0.43094  0.28177  0.44437  1.0000
  H   H72       1.0  0.02412  0.47214  0.44082  1.0000
  S   S17       1.0  0.38915  0.25665  0.45983  1.0000
  S   S18       1.0  0.27512  0.45920  0.37517  1.0000
  Fe  Fe8       1.0  0.26405  0.41420  0.47525  1.0000
  S   S19       1.0  0.25906  0.44165  0.45923  1.0000
  S   S20       1.0  0.48471  0.23584  0.39223  1.0000
  S   S21       1.0  0.26967  0.38727  0.46589  1.0000
  H   H73       1.0  0.15474  0.41012  0.37502  1.0000
  C   C90       1.0  0.27037  0.45411  0.39849  1.0000
  C   C91       1.0  0.27244  0.43628  0.40658  1.0000
  C   C92       1.0  0.26902  0.43216  0.42523  1.0000
  C   C93       1.0  0.26349  0.44588  0.43582  1.0000
  C   C94       1.0  0.26114  0.46363  0.42767  1.0000
  C   C95       1.0  0.26451  0.46772  0.40908  1.0000
  C   C96       1.0  0.47536  0.16988  0.33487  1.0000
  H   H74       1.0  0.27074  0.41843  0.43141  1.0000
  H   H75       1.0  0.25675  0.47427  0.43579  1.0000
  P   P4        1.0  0.36469  0.20662  0.42558  1.0000
  H   H76       1.0  0.15764  0.43219  0.45071  1.0000
  H   H77       1.0  0.14365  0.42292  0.42725  1.0000
  H   H78       1.0  0.34762  0.13856  0.45973  1.0000
  H   H79       1.0  0.19445  0.45860  0.47770  1.0000
  C   C97       1.0  0.13766  0.46786  0.41502  1.0000
  H   H80       1.0  0.14310  0.44105  0.47987  1.0000
  C   C98       1.0  0.47117  0.24892  0.40741  1.0000
  C   C99       1.0  0.45985  0.24042  0.42112  1.0000
  C   C100      1.0  0.44770  0.25036  0.43269  1.0000
  C   C101      1.0  0.44674  0.26894  0.43057  1.0000
  C   C102      1.0  0.45831  0.27746  0.41705  1.0000
  C   C103      1.0  0.47057  0.26746  0.40550  1.0000
  H   H81       1.0  0.46055  0.22607  0.42282  1.0000
  H   H82       1.0  0.43894  0.24367  0.44314  1.0000
  H   H83       1.0  0.45769  0.29183  0.41541  1.0000
  C   C104      1.0  0.37640  0.15240  0.48706  1.0000
  H   H84       1.0  0.14582  0.48729  0.42838  1.0000
  H   H85       1.0  0.04024  0.49240  0.33767  1.0000
  H   H86       1.0  0.19449  0.36464  0.46124  1.0000
  H   H87       1.0  0.45118  0.25661  0.37529  1.0000
  C   C105      1.0  0.41944  0.09973  0.33244  1.0000
  C   C106      1.0  0.43268  0.04909  0.38735  1.0000
  C   C107      1.0  0.19841  0.46089  0.44065  1.0000
  C   C108      1.0  0.45336  0.24942  0.36382  1.0000
  H   H88       1.0  0.44604  0.04429  0.45220  1.0000
  C   C109      1.0  0.09959  0.43218  0.37942  1.0000
  C   C110      1.0  0.09882  0.43799  0.39604  1.0000
  C   C111      1.0  0.10302  0.42559  0.41087  1.0000
  C   C112      1.0  0.10816  0.40754  0.40890  1.0000
  C   C113      1.0  0.10847  0.40183  0.39238  1.0000
  C   C114      1.0  0.10412  0.41408  0.37772  1.0000
  H   H89       1.0  0.09524  0.45200  0.39742  1.0000
  H   H90       1.0  0.10266  0.43003  0.42369  1.0000
  H   H91       1.0  0.11216  0.38786  0.39088  1.0000
  H   H92       1.0  0.10461  0.40955  0.36494  1.0000
  C   C115      1.0  0.15877  0.44094  0.33424  1.0000
  H   H93       1.0  0.07123  0.49627  0.49192  1.0000
  C   C116      1.0  0.44641  0.09767  0.42433  1.0000
  C   C117      1.0  0.46247  0.10218  0.41467  1.0000
  C   C118      1.0  0.47405  0.08947  0.40570  1.0000
  H   H94       1.0  0.42917  0.19837  0.38224  1.0000
  C   C119      1.0  0.45339  0.06799  0.41588  1.0000
  C   C120      1.0  0.44171  0.08069  0.42469  1.0000
  H   H95       1.0  0.46604  0.11538  0.41425  1.0000
  H   H96       1.0  0.03705  0.40005  0.39714  1.0000
  C   C121      1.0  0.03698  0.42590  0.40543  1.0000
  H   H97       1.0  0.42903  0.07735  0.43165  1.0000
  C   C122      1.0  0.44667  0.03192  0.44678  1.0000
  C   C123      1.0  0.15218  0.44227  0.44083  1.0000
  C   C124      1.0  0.46847  0.11583  0.35181  1.0000
  C   C125      1.0  0.15598  0.43978  0.48451  1.0000
  C   C126      1.0  0.39055  0.01209  0.47400  1.0000
  C   C127      1.0  0.14439  0.43696  0.42747  1.0000
  C   C128      1.0  0.46002  0.23072  0.33439  1.0000
  H   H98       1.0  0.22152  0.42129  0.32567  1.0000
  C   C129      1.0  0.47709  0.15988  0.46085  1.0000
  H   H99       1.0  0.13236  0.43475  0.34489  1.0000
  P   P5        1.0  0.19205  0.45079  0.31962  1.0000
  H   H100      1.0  0.00263  0.44298  0.36004  1.0000
  C   C130      1.0  0.33830  0.30504  0.48619  1.0000
  H   H101      1.0  0.32599  0.29254  0.43040  1.0000
  C   C131      1.0  0.18784  0.47255  0.30687  1.0000
  C   C132      1.0  0.38183  0.02460  0.46158  1.0000
  C   C133      1.0  0.43237  0.00740  0.44155  1.0000
  H   H102      1.0  0.02479  0.49856  0.46859  1.0000
  S   S22       1.0  0.42288  0.24111  0.48237  1.0000
  C   C134      1.0  0.15813  0.45492  0.36597  1.0000
  H   H103      1.0  0.22515  0.45532  0.42736  1.0000
  C   C135      1.0  0.03641  0.38060  0.49070  1.0000
  C   C136      1.0  0.47640  0.14407  0.45387  1.0000
  H   H104      1.0  0.45576  0.27301  0.34486  1.0000
  C   C137      1.0  0.16873  0.45080  0.47614  1.0000
  C   C138      1.0  0.26631  0.33162  0.47174  1.0000
  C   C139      1.0  0.26805  0.31436  0.48088  1.0000
  C   C140      1.0  0.28187  0.30161  0.47497  1.0000
  C   C141      1.0  0.29415  0.30621  0.46012  1.0000
  C   C142      1.0  0.29266  0.32364  0.45097  1.0000
  C   C143      1.0  0.27835  0.33621  0.45671  1.0000
  P   P6        1.0  0.30767  0.32912  0.43089  1.0000
  C   C144      1.0  0.33022  0.31907  0.43401  1.0000
  C   C145      1.0  0.30066  0.32020  0.41301  1.0000
  C   C146      1.0  0.28277  0.31774  0.41355  1.0000
  C   C147      1.0  0.27734  0.31110  0.39951  1.0000
  C   C148      1.0  0.28969  0.30698  0.38482  1.0000
  C   C149      1.0  0.30748  0.30958  0.38412  1.0000
  C   C150      1.0  0.31296  0.31622  0.39814  1.0000
  Fe  Fe9       1.0  0.28674  0.37884  0.48812  1.0000
  H   H105      1.0  0.00693  0.40854  0.37738  1.0000
  C   C151      1.0  0.39092  0.18490  0.47593  1.0000
  C   C152      1.0  0.40801  0.19002  0.37141  1.0000
  H   H106      1.0  0.36290  0.14175  0.42875  1.0000
  C   C153      1.0  0.30660  0.35313  0.42557  1.0000
  C   C154      1.0  0.30807  0.36339  0.43881  1.0000
  C   C155      1.0  0.30726  0.38193  0.43505  1.0000
  C   C156      1.0  0.30460  0.39047  0.41805  1.0000
  C   C157      1.0  0.30293  0.38041  0.40476  1.0000
  C   C158      1.0  0.30400  0.36179  0.40845  1.0000
  C   C159      1.0  0.34403  0.20314  0.39963  1.0000
  H   H107      1.0  0.34538  0.45364  0.25086  1.0000
  H   H108      1.0  0.28333  0.28825  0.48218  1.0000
  H   H109      1.0  0.30491  0.29618  0.45609  1.0000
  H   H110      1.0  0.27637  0.34960  0.44972  1.0000
  H   H111      1.0  0.27297  0.32094  0.42477  1.0000
  H   H112      1.0  0.26353  0.30913  0.40006  1.0000
  H   H113      1.0  0.28545  0.30182  0.37397  1.0000
  H   H114      1.0  0.31705  0.30648  0.37270  1.0000
  H   H115      1.0  0.32675  0.31834  0.39734  1.0000
  H   H116      1.0  0.33944  0.34333  0.43848  1.0000
  H   H117      1.0  0.39871  0.19100  0.38349  1.0000
  H   H118      1.0  0.46660  0.10733  0.46909  1.0000
  C   C160      1.0  0.40274  0.18469  0.35659  1.0000
  C   C161      1.0  0.44587  0.09605  0.36220  1.0000
  H   H119      1.0  0.30984  0.35697  0.45211  1.0000
  H   H120      1.0  0.30854  0.38964  0.44545  1.0000
  H   H121      1.0  0.00161  0.44136  0.27461  1.0000
  H   H122      1.0  0.30088  0.38710  0.39158  1.0000
  H   H123      1.0  0.30277  0.35430  0.39793  1.0000
  C   C162      1.0  0.16648  0.38090  0.41060  1.0000
  C   C163      1.0  0.15667  0.38918  0.39700  1.0000
  C   C164      1.0  0.16237  0.40389  0.38562  1.0000
  C   C165      1.0  0.17769  0.41062  0.38812  1.0000
  C   C166      1.0  0.18716  0.40285  0.40230  1.0000
  C   C167      1.0  0.18188  0.38747  0.41304  1.0000
  P   P7        1.0  0.20641  0.41185  0.40641  1.0000
  C   C168      1.0  0.22602  0.39766  0.39812  1.0000
  C   C169      1.0  0.20676  0.43494  0.39714  1.0000
  C   C170      1.0  0.22306  0.44151  0.39099  1.0000
  C   C171      1.0  0.22335  0.45961  0.38481  1.0000
  C   C172      1.0  0.20746  0.47130  0.38476  1.0000
  C   C173      1.0  0.19126  0.46504  0.39163  1.0000
  C   C174      1.0  0.19091  0.44694  0.39799  1.0000
  C   C175      1.0  0.23431  0.38391  0.40967  1.0000
  C   C176      1.0  0.24986  0.37334  0.40337  1.0000
  C   C177      1.0  0.25704  0.37616  0.38545  1.0000
  C   C178      1.0  0.24858  0.38947  0.37378  1.0000
  C   C179      1.0  0.23305  0.40014  0.38006  1.0000
  C   C180      1.0  0.20638  0.41243  0.42973  1.0000
  C   C181      1.0  0.19091  0.41071  0.44195  1.0000
  C   C182      1.0  0.19145  0.41068  0.46005  1.0000
  C   C183      1.0  0.20733  0.41249  0.46598  1.0000
  C   C184      1.0  0.22253  0.41504  0.45380  1.0000
  C   C185      1.0  0.22206  0.41512  0.43571  1.0000
  H   H124      1.0  0.16192  0.36956  0.41947  1.0000
  H   H125      1.0  0.18197  0.42193  0.37910  1.0000
  H   H126      1.0  0.18934  0.38084  0.42367  1.0000
  H   H127      1.0  0.23563  0.43284  0.39126  1.0000
  H   H128      1.0  0.23600  0.46456  0.38010  1.0000
  H   H129      1.0  0.35143  0.34651  0.47949  1.0000
  H   H130      1.0  0.17899  0.47422  0.39214  1.0000
  H   H131      1.0  0.17832  0.44236  0.40374  1.0000
  H   H132      1.0  0.22890  0.38137  0.42360  1.0000
  H   H133      1.0  0.25635  0.36301  0.41247  1.0000
  H   H134      1.0  0.26914  0.36799  0.38062  1.0000
  H   H135      1.0  0.25412  0.39157  0.35989  1.0000
  H   H136      1.0  0.22662  0.41044  0.37092  1.0000
  H   H137      1.0  0.17849  0.40913  0.43772  1.0000
  H   H138      1.0  0.17974  0.40857  0.46960  1.0000
  C   C186      1.0  0.21862  0.48017  0.48778  1.0000
  H   H139      1.0  0.23483  0.41654  0.45834  1.0000
  H   H140      1.0  0.23405  0.41694  0.42648  1.0000
  H   H141      1.0  0.41938  0.02870  0.45642  1.0000
  C   C187      1.0  0.44825  0.05274  0.33483  1.0000
  H   H142      1.0  0.46246  0.18484  0.46795  1.0000
  Fe  Fe10      1.0  0.09599  0.47602  0.36245  1.0000
  C   C188      1.0  0.48173  0.19528  0.38125  1.0000
  C   C189      1.0  0.15899  0.49624  0.47678  1.0000
  C   C190      1.0  0.31271  0.32850  0.48951  1.0000
  C   C191      1.0  0.20209  0.48100  0.29728  1.0000
  H   H143      1.0  0.25560  0.34148  0.47637  1.0000
  C   C192      1.0  0.40200  0.33205  0.46992  1.0000
  H   H144      1.0  0.02784  0.36320  0.45494  1.0000
  C   C193      1.0  0.39722  0.16979  0.46732  1.0000
  H   H145      1.0  0.44130  0.18651  0.32813  1.0000
  C   C194      1.0  0.18422  0.47407  0.44500  1.0000
  C   C195      1.0  0.45918  0.24932  0.33193  1.0000
  C   C196      1.0  0.05822  0.42672  0.42568  1.0000
  C   C197      1.0  0.39018  0.15364  0.47290  1.0000
  C   C198      1.0  0.17310  0.45553  0.35304  1.0000
  H   H146      1.0  0.04015  0.44925  0.41665  1.0000
  H   H147      1.0  0.06077  0.38486  0.41482  1.0000
  C   C199      1.0  0.43166  0.02310  0.44908  1.0000
  C   C200      1.0  0.02527  0.36876  0.46738  1.0000
  C   C201      1.0  0.15269  0.46042  0.44141  1.0000
  P   P8        1.0  0.16381  0.46760  0.45766  1.0000
  H   H148      1.0  0.48642  0.09297  0.39831  1.0000
  H   H149      1.0  0.43510  0.05501  0.33076  1.0000
  H   H150      1.0  0.44982  0.05489  0.41612  1.0000
  H   H151      1.0  0.32811  0.20022  0.37964  1.0000
  H   H152      1.0  0.32680  0.26259  0.46349  1.0000
  H   H153      1.0  0.37824  0.29681  0.44164  1.0000
  Fe  Fe11      1.0  0.24669  0.38030  0.48659  1.0000
  C   C202      1.0  0.41480  0.18346  0.34102  1.0000
  H   H154      1.0  0.45266  0.22395  0.37978  1.0000
  H   H155      1.0  0.44372  0.12732  0.39008  1.0000
  C   C203      1.0  0.46180  0.17280  0.38594  1.0000
  H   H156      1.0  0.41066  0.17946  0.32948  1.0000
  H   H157      1.0  0.40405  0.08788  0.38444  1.0000
  H   H158      1.0  0.36392  0.31437  0.48015  1.0000
  H   H159      1.0  0.36986  0.17130  0.41373  1.0000
  C   C204      1.0  0.46799  0.29354  0.29488  1.0000
  C   C205      1.0  0.34557  0.16651  0.46202  1.0000
  C   C206      1.0  0.14392  0.44022  0.34726  1.0000
  H   H160      1.0  0.49224  0.20902  0.33295  1.0000
  H   H161      1.0  0.15833  0.43623  0.32172  1.0000
  C   C207      1.0  0.14555  0.47318  0.42827  1.0000
  H   H162      1.0  0.14459  0.38420  0.39537  1.0000
  C   C208      1.0  0.01422  0.46040  0.39355  1.0000
  H   H163      1.0  0.13098  0.44566  0.40439  1.0000
  H   H164      1.0  0.48204  0.13208  0.48914  1.0000
  H   H165      1.0  0.46008  0.12987  0.44192  1.0000
  H   H166      1.0  0.32805  0.47965  0.26390  1.0000
  C   C209      1.0  0.46971  0.07221  0.40677  1.0000
  Fe  Fe12      1.0  0.39749  0.23180  0.47817  1.0000
  H   H167      1.0  0.19705  0.39643  0.27514  1.0000
  C   C210      1.0  0.40614  0.10534  0.32139  1.0000
  C   C211      1.0  0.42450  0.04058  0.40325  1.0000
  C   C212      1.0  0.14361  0.44719  0.36310  1.0000
  C   C213      1.0  0.20315  0.37142  0.48454  1.0000
  H   H168      1.0  0.48620  0.16840  0.42031  1.0000
  H   H169      1.0  0.49314  0.28828  0.32868  1.0000
  H   H170      1.0  0.06441  0.46244  0.47615  1.0000
  C   C214      1.0  0.41000  0.07474  0.38964  1.0000
  C   C215      1.0  0.46805  0.18804  0.37576  1.0000
  H   H171      1.0  0.20793  0.41140  0.48008  1.0000
  C   C216      1.0  0.41803  0.32159  0.46473  1.0000
  Fe  Fe13      1.0  0.08089  0.39332  0.48703  1.0000
  C   C217      1.0  0.24059  0.43230  0.33700  1.0000
  C   C218      1.0  0.21702  0.46399  0.33512  1.0000
  H   H172      1.0  0.33572  0.19604  0.41025  1.0000
  H   H173      1.0  0.40512  0.49304  0.27364  1.0000
  H   H174      1.0  0.19914  0.45099  0.28070  1.0000
  H   H175      1.0  0.48733  0.04771  0.49065  1.0000
  H   H176      1.0  0.02995  0.40449  0.45159  1.0000
  C   C219      1.0  0.40056  0.19142  0.42308  1.0000
  H   H177      1.0  0.46495  0.30486  0.31945  1.0000
  C   C220      1.0  0.43769  0.19225  0.35535  1.0000
  C   C221      1.0  0.06810  0.47700  0.43193  1.0000
  H   H178      1.0  0.04206  0.42774  0.46316  1.0000
  C   C222      1.0  0.46154  0.04107  0.32623  1.0000
  H   H179      1.0  0.46495  0.09437  0.33828  1.0000
  C   C223      1.0  0.45435  0.23082  0.36632  1.0000
  H   H180      1.0  0.27686  0.42568  0.39842  1.0000
  H   H181      1.0  0.37887  0.07367  0.33729  1.0000
  H   H182      1.0  0.39416  0.33946  0.45993  1.0000
  H   H183      1.0  0.45202  0.16627  0.38150  1.0000
  H   H184      1.0  0.46127  0.25652  0.31866  1.0000
  H   H185      1.0  0.47599  0.00376  0.42297  1.0000
  C   C224      1.0  0.15077  0.48612  0.46742  1.0000
  H   H186      1.0  0.46043  0.01222  0.39600  1.0000
  C   C225      1.0  0.17365  0.44829  0.33717  1.0000
  C   C226      1.0  0.01211  0.49396  0.33565  1.0000
  C   C227      1.0  0.32873  0.24936  0.44012  1.0000
  C   C228      1.0  0.21418  0.46559  0.43051  1.0000
  C   C229      1.0  0.00930  0.47863  0.48370  1.0000
  C   C230      1.0  0.02344  0.44231  0.33793  1.0000
  H   H187      1.0  0.15749  0.46089  0.37800  1.0000
  H   H188      1.0  0.07450  0.40178  0.43285  1.0000
  P   P9        1.0  0.02574  0.45988  0.47852  1.0000
  P   P10       1.0  0.43547  0.07705  0.35938  1.0000
  H   H189      1.0  0.21574  0.47475  0.29758  1.0000
  S   S23       1.0  0.26822  0.49484  0.33406  1.0000
  C   C231      1.0  0.42537  0.20836  0.41990  1.0000
  C   C232      1.0  0.41345  0.22402  0.42118  1.0000
  S   S24       1.0  0.07487  0.48968  0.38117  1.0000
  S   S25       1.0  0.40130  0.20448  0.46847  1.0000
  C   C233      1.0  0.48817  0.18827  0.39730  1.0000
  H   H190      1.0  0.39035  0.07296  0.41309  1.0000
  H   H191      1.0  0.48744  0.20640  0.37310  1.0000
  H   H192      1.0  0.43959  0.20876  0.41844  1.0000
  C   C234      1.0  0.00260  0.41583  0.45752  1.0000
  C   C235      1.0  0.04279  0.40760  0.40515  1.0000
  C   C236      1.0  0.46827  0.16578  0.40202  1.0000
  C   C237      1.0  0.05620  0.39895  0.41511  1.0000
  H   H193      1.0  0.38931  0.18156  0.35716  1.0000
  C   C238      1.0  0.03954  0.37362  0.47449  1.0000
  Fe  Fe14      1.0  0.26985  0.48833  0.36347  1.0000
  H   H194      1.0  0.39522  0.14219  0.46600  1.0000
  H   H195      1.0  0.05298  0.37167  0.46761  1.0000
  C   C239      1.0  0.48253  0.04627  0.34483  1.0000
  S   S26       1.0  0.22605  0.36769  0.47603  1.0000
  H   H196      1.0  0.36965  0.32918  0.44280  1.0000
  H   H197      1.0  0.15904  0.47524  0.31379  1.0000
  H   H198      1.0  0.46334  0.15410  0.40989  1.0000
  C   C240      1.0  0.33536  0.30075  0.43302  1.0000
  H   H199      1.0  0.19094  0.38913  0.30795  1.0000
  C   C241      1.0  0.45214  0.06143  0.34839  1.0000
  C   C242      1.0  0.35245  0.22442  0.43745  1.0000
  C   C243      1.0  0.35736  0.22709  0.45364  1.0000
  C   C244      1.0  0.45514  0.02264  0.48790  1.0000
  H   H200      1.0  0.31103  0.30021  0.49314  1.0000
  H   H201      1.0  0.47993  0.11938  0.34251  1.0000
  H   H202      1.0  0.16213  0.36976  0.47263  1.0000
  C   C245      1.0  0.27706  0.47615  0.47688  1.0000
  C   C246      1.0  0.46073  0.14169  0.44776  1.0000
  C   C247      1.0  0.48814  0.20410  0.27913  1.0000
  C   C248      1.0  0.45600  0.25865  0.34667  1.0000
  H   H203      1.0  0.47479  0.28074  0.27127  1.0000
  C   C249      1.0  0.19028  0.36883  0.47425  1.0000
  H   H204      1.0  0.43817  0.49003  0.27004  1.0000
  C   C250      1.0  0.46348  0.00907  0.43011  1.0000
  C   C251      1.0  0.03763  0.47226  0.44329  1.0000
  C   C252      1.0  0.44570  0.15454  0.44926  1.0000
  H   H205      1.0  0.43349  0.15216  0.44503  1.0000
  C   C253      1.0  0.07292  0.47175  0.44895  1.0000
  C   C254      1.0  0.47571  0.09906  0.46049  1.0000
  S   S27       1.0  0.48481  0.05556  0.39746  1.0000
  H   H206      1.0  0.07810  0.48086  0.42098  1.0000
  C   C255      1.0  0.39149  0.09600  0.32318  1.0000
  C   C256      1.0  0.24495  0.44739  0.34273  1.0000
  P   P11       1.0  0.01996  0.43679  0.39212  1.0000
  C   C257      1.0  0.02856  0.43635  0.36892  1.0000
  H   H207      1.0  0.43075  0.10703  0.33072  1.0000
  H   H208      1.0  0.43472  0.18009  0.45781  1.0000
  Fe  Fe15      1.0  0.10142  0.42582  0.47983  1.0000
  H   H209      1.0  0.47233  0.06397  0.36430  1.0000
  C   C258      1.0  0.36498  0.30304  0.43917  1.0000
  C   C259      1.0  0.17194  0.37182  0.48062  1.0000
  C   C260      1.0  0.46209  0.17281  0.46223  1.0000
  C   C261      1.0  0.44638  0.17012  0.45649  1.0000
  S   S28       1.0  0.39885  0.27985  0.48925  1.0000
  H   H210      1.0  0.05650  0.43185  0.37294  1.0000
  S   S29       1.0  0.10101  0.45474  0.48316  1.0000
  C   C262      1.0  0.05045  0.47735  0.42912  1.0000
  C   C263      1.0  0.48420  0.00788  0.47706  1.0000
  C   C264      1.0  0.44814  0.12029  0.37860  1.0000
  C   C265      1.0  0.34312  0.49790  0.29069  1.0000
  C   C266      1.0  0.37682  0.18388  0.48988  1.0000
  C   C267      1.0  0.46255  0.02492  0.43730  1.0000
  C   C268      1.0  0.36014  0.32130  0.43982  1.0000
  C   C269      1.0  0.21257  0.44902  0.32915  1.0000
  H   H211      1.0  0.38123  0.10030  0.31457  1.0000
  C   C270      1.0  0.47215  0.08183  0.45954  1.0000
  C   C271      1.0  0.45819  0.22128  0.35164  1.0000
  H   H212      1.0  0.06791  0.43488  0.34115  1.0000
  C   C272      1.0  0.01226  0.49608  0.47649  1.0000
  C   C273      1.0  0.13716  0.44977  0.41458  1.0000
  H   H213      1.0  0.40761  0.17053  0.45619  1.0000
  C   C274      1.0  0.04236  0.46698  0.46048  1.0000
  H   H214      1.0  0.48335  0.19128  0.28041  1.0000
  C   C275      1.0  0.35006  0.21481  0.36844  1.0000
  C   C276      1.0  0.48125  0.17371  0.40783  1.0000
  C   C277      1.0  0.41812  0.08475  0.34542  1.0000
  C   C278      1.0  0.35028  0.15161  0.45298  1.0000
  C   C279      1.0  0.42553  0.06628  0.38042  1.0000
  C   C280      1.0  0.46923  0.05772  0.35361  1.0000
  H   H215      1.0  0.46243  0.22369  0.32285  1.0000
  C   C281      1.0  0.18577  0.49202  0.43855  1.0000
  H   H216      1.0  0.08666  0.47144  0.45109  1.0000
  C   C282      1.0  0.06015  0.46674  0.46319  1.0000
  C   C283      1.0  0.16715  0.49800  0.29644  1.0000
  H   H217      1.0  0.34960  0.48446  0.29392  1.0000
  C   C284      1.0  0.42534  0.19402  0.37072  1.0000
  C   C285      1.0  0.46262  0.12516  0.36636  1.0000
  C   C286      1.0  0.48270  0.23560  0.28224  1.0000
  C   C287      1.0  0.35897  0.20992  0.40320  1.0000
  C   C288      1.0  0.04184  0.44010  0.33253  1.0000
  H   H218      1.0  0.13185  0.44703  0.37290  1.0000
  C   C289      1.0  0.02096  0.41532  0.45695  1.0000
  C   C290      1.0  0.39016  0.08100  0.33597  1.0000
  H   H219      1.0  0.44467  0.04224  0.38068  1.0000
  H   H220      1.0  0.06438  0.43417  0.43345  1.0000
  H   H221      1.0  0.45859  0.03450  0.31566  1.0000
  H   H222      1.0  0.47394  0.03214  0.43505  1.0000
  H   H223      1.0  0.46966  0.13583  0.36835  1.0000
  H   H224      1.0  0.47684  0.01466  0.36591  1.0000
  C   C291      1.0  0.34283  0.32928  0.43739  1.0000
  C   C292      1.0  0.40931  0.04920  0.41253  1.0000
  C   C293      1.0  0.02769  0.47151  0.38914  1.0000
  H   H225      1.0  0.42943  0.10168  0.38691  1.0000
  H   H226      1.0  0.25751  0.44692  0.34782  1.0000
  C   C294      1.0  0.47873  0.03799  0.33110  1.0000
  H   H227      1.0  0.36640  0.02757  0.43986  1.0000
  C   C295      1.0  0.40207  0.06629  0.40574  1.0000
  H   H228      1.0  0.40230  0.06352  0.35668  1.0000
  P   P12       1.0  0.46006  0.19719  0.35489  1.0000
  C   C296      1.0  0.46006  0.10147  0.34962  1.0000
  H   H229      1.0  0.48915  0.16209  0.46543  1.0000
  S   S30       1.0  0.38101  0.04833  0.45991  1.0000
  C   C297      1.0  0.40344  0.07534  0.34701  1.0000
  H   H230      1.0  0.40319  0.04271  0.42507  1.0000
  C   C298      1.0  0.43220  0.18733  0.34034  1.0000
  H   H231      1.0  0.35636  0.27855  0.43555  1.0000
  C   C299      1.0  0.43997  0.10564  0.37671  1.0000
  C   C300      1.0  0.23317  0.46323  0.34172  1.0000
  C   C301      1.0  0.00464  0.37829  0.49232  1.0000
  C   C302      1.0  0.06394  0.40851  0.42534  1.0000
  H   H232      1.0  0.43024  0.02750  0.40862  1.0000
  C   C303      1.0  0.01626  0.44262  0.47068  1.0000
  C   C304      1.0  0.49229  0.02203  0.48061  1.0000
  H   H233      1.0  0.13166  0.47785  0.40530  1.0000
  C   C305      1.0  0.19279  0.40265  0.30208  1.0000
  S   S31       1.0  0.49051  0.42079  0.24700  1.0000
  C   C306      1.0  0.04704  0.43425  0.36339  1.0000
  H   H234      1.0  0.01382  0.48229  0.32888  1.0000
  C   C307      1.0  0.37287  0.99986  0.44981  1.0000
  H   H235      1.0  0.45582  0.30102  0.29069  1.0000
  H   H236      1.0  0.47927  0.27410  0.39495  1.0000
  H   H237      1.0  0.04699  0.44192  0.31851  1.0000
  H   H238      1.0  0.42261  0.32075  0.45075  1.0000
  C   C308      1.0  0.36923  0.21945  0.38925  1.0000
  C   C309      1.0  0.37320  0.01820  0.44948  1.0000
  C   C310      1.0  0.00577  0.49755  0.39225  1.0000
  P   P13       1.0  0.49586  0.12753  0.45205  1.0000
  C   C311      1.0  0.19737  0.43757  0.28688  1.0000
  H   H239      1.0  0.48084  0.05760  0.44786  1.0000
  C   C312      1.0  0.00773  0.37123  0.47617  1.0000
  C   C313      1.0  0.27599  0.49130  0.48537  1.0000
  C   C314      1.0  0.39506  0.22342  0.42336  1.0000
  H   H240      1.0  0.49428  0.19038  0.48422  1.0000
  C   C315      1.0  0.17033  0.48120  0.30636  1.0000
  C   C316      1.0  0.46569  0.00826  0.48060  1.0000
  C   C317      1.0  0.19383  0.43357  0.30546  1.0000
  C   C318      1.0  0.38844  0.20709  0.42429  1.0000
  H   H241      1.0  0.46476  0.45114  0.25461  1.0000
  H   H242      1.0  0.30382  0.40488  0.41521  1.0000
  Fe  Fe16      1.0  0.12147  0.38926  0.49011  1.0000
  H   H243      1.0  0.49859  0.21882  0.42322  1.0000
  C   C319      1.0  0.33964  0.20554  0.38230  1.0000
  C   C320      1.0  0.36483  0.22179  0.37193  1.0000
  H   H244      1.0  0.41891  0.00094  0.40531  1.0000
  H   H245      1.0  0.20814  0.47642  0.33433  1.0000
  H   H246      1.0  0.35195  0.24272  0.47549  1.0000
  C   C321      1.0  0.48425  0.19794  0.49257  1.0000
  H   H247      1.0  0.47343  0.24702  0.28585  1.0000
  C   C322      1.0  0.42175  0.31203  0.49570  1.0000
  C   C323      1.0  0.19162  0.41598  0.31299  1.0000
  C   C324      1.0  0.36305  0.17016  0.42721  1.0000
  H   H248      1.0  0.04144  0.46595  0.38553  1.0000
  H   H249      1.0  0.31756  0.25796  0.43497  1.0000
  S   S32       1.0  0.09186  0.49607  0.33829  1.0000
  C   C325      1.0  0.28396  0.45946  0.48502  1.0000
  C   C326      1.0  0.05362  0.43607  0.34526  1.0000
  H   H250      1.0  0.20778  0.48524  0.37962  1.0000
  H   H251      1.0  0.34671  0.19428  0.46152  1.0000
  H   H252      1.0  0.27256  0.47724  0.46397  1.0000
  H   H253      1.0  0.37286  0.22908  0.36122  1.0000
  C   C327      1.0  0.34996  0.18319  0.45389  1.0000
  H   H254      1.0  0.24988  0.42012  0.33755  1.0000
  H   H255      1.0  0.28502  0.44772  0.47841  1.0000
  H   H256      1.0  0.39600  0.17857  0.42416  1.0000
  H   H257      1.0  0.46506  0.16234  0.34210  1.0000
  H   H258      1.0  0.41846  0.23661  0.42081  1.0000
  H   H259      1.0  0.17300  0.49284  0.47823  1.0000
  C   C328      1.0  0.02347  0.48997  0.38871  1.0000
  C   C329      1.0  0.47604  0.18734  0.33808  1.0000
  C   C330      1.0  0.22445  0.43307  0.33024  1.0000
  H   H260      1.0  0.38065  0.22506  0.39167  1.0000
  H   H261      1.0  0.18892  0.41260  0.32729  1.0000
  H   H262      1.0  0.00091  0.47418  0.27235  1.0000
  H   H263      1.0  0.38607  0.23570  0.42442  1.0000
  H   H264      1.0  0.23656  0.47503  0.34593  1.0000
  C   C331      1.0  0.13240  0.49020  0.46643  1.0000
  C   C332      1.0  0.48899  0.28636  0.31627  1.0000
  H   H265      1.0  0.42052  0.00081  0.44342  1.0000
  H   H266      1.0  0.18396  0.46209  0.35526  1.0000
  Fe  Fe17      1.0  0.37512  0.26821  0.48443  1.0000
  H   H267      1.0  0.36829  0.21849  0.45915  1.0000
  H   H268      1.0  0.42817  0.17990  0.42024  1.0000
  C   C333      1.0  0.34806  0.24074  0.46298  1.0000
  C   C334      1.0  0.41892  0.19208  0.42087  1.0000
  Fe  Fe18      1.0  0.38441  0.10728  0.48536  1.0000
  C   C335      1.0  0.19623  0.40675  0.28359  1.0000
  H   H269      1.0  0.34662  0.21668  0.35502  1.0000
  S   S33       1.0  0.36684  0.13227  0.49358  1.0000
  C   C336      1.0  0.00122  0.42447  0.39915  1.0000
  C   C337      1.0  0.39586  0.33259  0.48799  1.0000
  H   H270      1.0  0.33373  0.23387  0.41842  1.0000
  H   H271      1.0  0.22597  0.46716  0.48572  1.0000
  H   H272      1.0  0.43992  0.30291  0.47351  1.0000
  C   C338      1.0  0.21574  0.48349  0.42434  1.0000
  H   H273      1.0  0.40577  0.45201  0.25744  1.0000
  C   C339      1.0  0.34254  0.33643  0.48241  1.0000
  C   C340      1.0  0.33381  0.25193  0.45620  1.0000
  C   C341      1.0  0.33797  0.23565  0.43076  1.0000
  C   C342      1.0  0.49078  0.10554  0.45026  1.0000
  S   S34       1.0  0.34624  0.28190  0.48590  1.0000
  H   H274      1.0  0.33925  0.16488  0.47572  1.0000
  C   C343      1.0  0.18470  0.44978  0.48339  1.0000
  H   H275      1.0  0.46256  0.21793  0.28839  1.0000
  C   C344      1.0  0.01684  0.44054  0.35605  1.0000
  C   C345      1.0  0.35900  0.15343  0.43557  1.0000
  S   S35       1.0  0.31568  0.36492  0.48443  1.0000
  C   C346      1.0  0.48856  0.16168  0.32289  1.0000
  S   S36       1.0  0.28301  0.40684  0.49572  1.0000
  C   C347      1.0  0.19854  0.42419  0.27601  1.0000
  H   H276      1.0  0.04677  0.48158  0.41591  1.0000
  C   C348      1.0  0.47309  0.00191  0.37224  1.0000
  C   C349      1.0  0.47310  0.29570  0.31106  1.0000
  H   H277      1.0  0.12549  0.48203  0.46012  1.0000
  H   H278      1.0  0.44080  0.02287  0.49084  1.0000
  S   S37       1.0  0.41344  0.10800  0.48560  1.0000
  C   C350      1.0  0.34967  0.31822  0.48275  1.0000
  C   C351      1.0  0.47646  0.21910  0.28369  1.0000
  S   S38       1.0  0.11845  0.48815  0.36955  1.0000
  H   H279      1.0  0.22789  0.48708  0.41626  1.0000
  C   C352      1.0  0.35873  0.18518  0.43637  1.0000
  C   C353      1.0  0.49048  0.19619  0.32963  1.0000
  C   C354      1.0  0.36960  0.16767  0.49541  1.0000
  C   C355      1.0  0.32400  0.34171  0.48563  1.0000
  H   H280      1.0  0.39722  0.01675  0.48352  1.0000
  S   S39       1.0  0.24039  0.40760  0.49483  1.0000
  H   H281      1.0  0.48616  0.22293  0.47543  1.0000
  H   H282      1.0  0.29846  0.33227  0.49225  1.0000
  H   H283      1.0  0.49490  0.40702  0.28594  1.0000
  C   C356      1.0  0.47883  0.28207  0.28389  1.0000
  H   H284      1.0  0.45148  0.08664  0.49534  1.0000
  H   H285      1.0  0.49586  0.04384  0.34863  1.0000
  C   C357      1.0  0.33288  0.48081  0.24979  1.0000
  C   C358      1.0  0.19886  0.49787  0.28748  1.0000
  C   C359      1.0  0.46393  0.00035  0.38952  1.0000
  C   C360      1.0  0.22300  0.49534  0.47627  1.0000
  C   C361      1.0  0.49495  0.27271  0.28897  1.0000
  C   C362      1.0  0.31985  0.31032  0.48987  1.0000
  H   H286      1.0  0.25872  0.31094  0.49258  1.0000
  C   C363      1.0  0.46307  0.03685  0.49124  1.0000
  C   C364      1.0  0.49641  0.12893  0.48798  1.0000
  C   C365      1.0  0.44820  0.00059  0.43151  1.0000
  H   H287      1.0  0.38314  0.34033  0.49180  1.0000
  H   H288      1.0  0.49251  0.19357  0.44649  1.0000
  H   H289      1.0  0.23366  0.49362  0.46544  1.0000
  C   C366      1.0  0.20156  0.49669  0.42841  1.0000
  H   H290      1.0  0.04027  0.42391  0.49472  1.0000
  H   H291      1.0  0.48845  0.14793  0.32102  1.0000
  C   C367      1.0  0.48156  0.03662  0.48762  1.0000
  H   H292      1.0  0.32302  0.49609  0.31387  1.0000
  C   C368      1.0  0.47960  0.21622  0.48760  1.0000
  H   H293      1.0  0.46241  0.23999  0.49437  1.0000
  H   H294      1.0  0.49715  0.12432  0.41428  1.0000
  H   H295      1.0  0.49860  0.19418  0.40147  1.0000
  C   C369      1.0  0.49901  0.07696  0.43884  1.0000
  H   H296      1.0  0.03386  0.49851  0.38490  1.0000
  H   H297      1.0  0.37146  0.19549  0.49639  1.0000
  H   H298      1.0  0.24464  0.48602  0.67080  1.0000
  H   H299      1.0  0.47778  0.07043  0.55183  1.0000
  H   H300      1.0  0.30878  0.44470  0.61075  1.0000
  H   H301      1.0  0.29529  0.44456  0.64223  1.0000
  C   C370      1.0  0.46990  0.15438  0.54487  1.0000
  C   C371      1.0  0.47885  0.01732  0.61825  1.0000
  S   S40       1.0  0.10139  0.47251  0.60415  1.0000
  S   S41       1.0  0.42775  0.06657  0.52063  1.0000
  H   H302      1.0  0.00001  0.40285  0.62655  1.0000
  C   C372      1.0  0.30851  0.44838  0.63805  1.0000
  H   H303      1.0  0.43255  0.46814  0.69615  1.0000
  H   H304      1.0  0.16725  0.45203  0.52746  1.0000
  C   C373      1.0  0.00416  0.41546  0.59941  1.0000
  H   H305      1.0  0.46955  0.27996  0.51658  1.0000
  C   C374      1.0  0.23123  0.47506  0.55872  1.0000
  H   H306      1.0  0.43081  0.29214  0.70637  1.0000
  Fe  Fe19      1.0  0.25961  0.39820  0.51458  1.0000
  H   H307      1.0  0.39803  0.05215  0.54389  1.0000
  H   H308      1.0  0.47831  0.35135  0.68563  1.0000
  H   H309      1.0  0.39028  0.38868  0.51363  1.0000
  H   H310      1.0  0.47947  0.17510  0.51168  1.0000
  H   H311      1.0  0.45042  0.35199  0.70649  1.0000
  H   H312      1.0  0.48525  0.12874  0.55071  1.0000
  Fe  Fe20      1.0  0.40660  0.25342  0.50537  1.0000
  S   S42       1.0  0.41595  0.24931  0.53271  1.0000
  Fe  Fe21      1.0  0.07618  0.49187  0.60179  1.0000
  C   C375      1.0  0.15212  0.47778  0.52287  1.0000
  H   H313      1.0  0.47826  0.31474  0.68138  1.0000
  H   H314      1.0  0.07176  0.49236  0.52462  1.0000
  C   C376      1.0  0.40412  0.41556  0.70802  1.0000
  H   H315      1.0  0.03827  0.43417  0.58495  1.0000
  S   S43       1.0  0.24978  0.40715  0.54169  1.0000
  S   S44       1.0  0.41226  0.45356  0.72906  1.0000
  C   C377      1.0  0.42743  0.29492  0.67058  1.0000
  C   C378      1.0  0.45556  0.19324  0.55860  1.0000
  H   H316      1.0  0.20106  0.46997  0.51050  1.0000
  H   H317      1.0  0.48165  0.09414  0.49716  1.0000
  S   S45       1.0  0.38488  0.07878  0.49886  1.0000
  Fe  Fe22      1.0  0.39987  0.48213  0.72227  1.0000
  H   H318      1.0  0.46452  0.11218  0.53992  1.0000
  S   S46       1.0  0.09716  0.40498  0.50334  1.0000
  C   C379      1.0  0.46618  0.43336  0.69899  1.0000
  C   C380      1.0  0.45636  0.44928  0.69219  1.0000
  C   C381      1.0  0.44007  0.45596  0.70159  1.0000
  C   C382      1.0  0.43345  0.44663  0.71777  1.0000
  C   C383      1.0  0.44343  0.43087  0.72469  1.0000
  C   C384      1.0  0.45977  0.42426  0.71538  1.0000
  S   S47       1.0  0.48573  0.27700  0.54853  1.0000
  H   H319      1.0  0.46729  0.41203  0.72079  1.0000
  H   H320      1.0  0.36198  0.48519  0.65138  1.0000
  H   H321      1.0  0.41436  0.43830  0.65018  1.0000
  C   C385      1.0  0.40281  0.44844  0.65041  1.0000
  C   C386      1.0  0.33439  0.45951  0.64475  1.0000
  C   C387      1.0  0.38396  0.46750  0.58606  1.0000
  H   H322      1.0  0.20509  0.47622  0.57344  1.0000
  H   H323      1.0  0.31080  0.48289  0.56515  1.0000
  H   H324      1.0  0.03594  0.47844  0.50531  1.0000
  C   C388      1.0  0.41456  0.19791  0.55249  1.0000
  C   C389      1.0  0.46659  0.26872  0.54424  1.0000
  C   C390      1.0  0.46149  0.27247  0.52705  1.0000
  C   C391      1.0  0.44604  0.26661  0.52330  1.0000
  C   C392      1.0  0.43543  0.25708  0.53678  1.0000
  C   C393      1.0  0.44043  0.25345  0.55399  1.0000
  C   C394      1.0  0.45592  0.25925  0.55771  1.0000
  H   H325      1.0  0.39378  0.05897  0.57490  1.0000
  H   H326      1.0  0.44233  0.26947  0.51000  1.0000
  H   H327      1.0  0.43228  0.24611  0.56450  1.0000
  H   H328      1.0  0.45943  0.25671  0.57108  1.0000
  H   H329      1.0  0.20733  0.37878  0.50945  1.0000
  C   C395      1.0  0.28030  0.44165  0.56731  1.0000
  C   C396      1.0  0.26280  0.43901  0.57432  1.0000
  C   C397      1.0  0.25365  0.42829  0.56642  1.0000
  C   C398      1.0  0.26173  0.42053  0.55120  1.0000
  C   C399      1.0  0.27910  0.42351  0.54397  1.0000
  C   C400      1.0  0.28841  0.43385  0.55212  1.0000
  H   H330      1.0  0.25645  0.44485  0.58607  1.0000
  H   H331      1.0  0.24021  0.42609  0.57208  1.0000
  H   H332      1.0  0.28552  0.41744  0.53239  1.0000
  H   H333      1.0  0.30200  0.43569  0.54673  1.0000
  C   C401      1.0  0.46220  0.19886  0.51889  1.0000
  H   H334      1.0  0.47128  0.22585  0.57518  1.0000
  C   C402      1.0  0.39229  0.44100  0.57132  1.0000
  C   C403      1.0  0.11566  0.44098  0.51345  1.0000
  C   C404      1.0  0.11974  0.44162  0.53047  1.0000
  C   C405      1.0  0.11538  0.45743  0.53814  1.0000
  C   C406      1.0  0.10773  0.47291  0.52836  1.0000
  C   C407      1.0  0.39365  0.35994  0.51855  1.0000
  C   C408      1.0  0.46001  0.34861  0.62926  1.0000
  H   H335      1.0  0.12601  0.42972  0.53785  1.0000
  C   C409      1.0  0.35808  0.49200  0.61210  1.0000
  C   C410      1.0  0.01893  0.38272  0.49963  1.0000
  H   H336      1.0  0.03276  0.49031  0.55157  1.0000
  H   H337      1.0  0.37600  0.26372  0.53653  1.0000
  C   C411      1.0  0.16722  0.48649  0.55086  1.0000
  C   C412      1.0  0.01470  0.48255  0.63067  1.0000
  H   H338      1.0  0.17504  0.38268  0.52118  1.0000
  C   C413      1.0  0.23698  0.45751  0.53424  1.0000
  C   C414      1.0  0.37461  0.45768  0.60050  1.0000
  C   C415      1.0  0.44478  0.31450  0.54429  1.0000
  S   S48       1.0  0.37032  0.49139  0.72774  1.0000
  C   C416      1.0  0.31770  0.45376  0.65027  1.0000
  C   C417      1.0  0.34213  0.45977  0.62690  1.0000
  C   C418      1.0  0.44805  0.07366  0.52225  1.0000
  S   S49       1.0  0.13749  0.49459  0.62372  1.0000
  C   C419      1.0  0.47427  0.08722  0.50861  1.0000
  C   C420      1.0  0.01923  0.48872  0.59861  1.0000
  C   C421      1.0  0.47214  0.07390  0.53946  1.0000
  C   C422      1.0  0.45541  0.06921  0.53824  1.0000
  C   C423      1.0  0.28852  0.47289  0.51026  1.0000
  H   H339      1.0  0.17913  0.41531  0.51650  1.0000
  S   S50       1.0  0.49171  0.37710  0.71647  1.0000
  H   H340      1.0  0.44815  0.06215  0.54970  1.0000
  C   C424      1.0  0.33276  0.45429  0.61469  1.0000
  H   H341      1.0  0.42885  0.19454  0.50859  1.0000
  C   C425      1.0  0.47013  0.46760  0.72894  1.0000
  C   C426      1.0  0.48698  0.24912  0.65234  1.0000
  H   H342      1.0  0.10484  0.48530  0.53408  1.0000
  H   H343      1.0  0.49676  0.12968  0.51583  1.0000
  H   H344      1.0  0.33802  0.45489  0.60072  1.0000
  C   C427      1.0  0.45410  0.30302  0.69159  1.0000
  H   H345      1.0  0.14584  0.47416  0.51241  1.0000
  C   C428      1.0  0.10748  0.45617  0.50385  1.0000
  C   C429      1.0  0.46181  0.12656  0.53925  1.0000
  H   H346      1.0  0.33032  0.49246  0.69560  1.0000
  H   H347      1.0  0.36812  0.43471  0.68766  1.0000
  C   C430      1.0  0.39105  0.42879  0.70169  1.0000
  C   C431      1.0  0.37210  0.27799  0.53372  1.0000
  C   C432      1.0  0.03881  0.40725  0.55317  1.0000
  C   C433      1.0  0.40254  0.04717  0.57133  1.0000
  C   C434      1.0  0.06725  0.40296  0.56447  1.0000
  H   H348      1.0  0.41919  0.19657  0.56531  1.0000
  H   H349      1.0  0.41827  0.32118  0.65746  1.0000
  C   C435      1.0  0.36256  0.31472  0.52514  1.0000
  C   C436      1.0  0.17313  0.49337  0.62716  1.0000
  C   C437      1.0  0.42340  0.02107  0.57927  1.0000
  C   C438      1.0  0.40078  0.32587  0.72333  1.0000
  C   C439      1.0  0.00030  0.42585  0.53210  1.0000
  C   C440      1.0  0.40178  0.20162  0.51972  1.0000
  C   C441      1.0  0.46014  0.31660  0.63606  1.0000
  H   H350      1.0  0.20072  0.49341  0.63042  1.0000
  C   C442      1.0  0.38488  0.28960  0.53203  1.0000
  H   H351      1.0  0.41889  0.35513  0.69015  1.0000
  C   C443      1.0  0.37821  0.42438  0.69259  1.0000
  C   C444      1.0  0.41188  0.03612  0.58402  1.0000
  C   C445      1.0  0.17150  0.46925  0.54592  1.0000
  C   C446      1.0  0.16421  0.46514  0.53156  1.0000
  C   C447      1.0  0.39273  0.45917  0.57152  1.0000
  H   H352      1.0  0.48350  0.32098  0.71066  1.0000
  C   C448      1.0  0.03225  0.42057  0.56417  1.0000
  C   C449      1.0  0.41384  0.34963  0.70351  1.0000
  H   H353      1.0  0.01986  0.48020  0.64331  1.0000
  C   C450      1.0  0.00066  0.48865  0.59833  1.0000
  C   C451      1.0  0.02628  0.48577  0.61492  1.0000
  C   C452      1.0  0.19999  0.41730  0.55477  1.0000
  H   H354      1.0  0.33626  0.30827  0.52442  1.0000
  H   H355      1.0  0.38449  0.48159  0.58597  1.0000
  H   H356      1.0  0.39901  0.43459  0.56000  1.0000
  C   C453      1.0  0.45634  0.18605  0.59051  1.0000
  C   C454      1.0  0.46576  0.21368  0.57499  1.0000
  H   H357      1.0  0.36553  0.39236  0.53833  1.0000
  C   C455      1.0  0.48165  0.08273  0.52456  1.0000
  H   H358      1.0  0.41037  0.03934  0.59749  1.0000
  H   H359      1.0  0.21564  0.44396  0.53040  1.0000
  C   C456      1.0  0.00887  0.45536  0.55585  1.0000
  H   H360      1.0  0.46571  0.20550  0.60313  1.0000
  H   H361      1.0  0.42911  0.30341  0.50540  1.0000
  C   C457      1.0  0.45450  0.16375  0.53831  1.0000
  C   C458      1.0  0.40655  0.35183  0.73505  1.0000
  H   H362      1.0  0.15594  0.43401  0.55598  1.0000
  H   H363      1.0  0.20090  0.43602  0.50328  1.0000
  C   C459      1.0  0.46477  0.27951  0.66301  1.0000
  C   C460      1.0  0.44530  0.30224  0.72353  1.0000
  C   C461      1.0  0.17610  0.42543  0.50550  1.0000
  H   H364      1.0  0.40086  0.26215  0.68471  1.0000
  C   C462      1.0  0.05420  0.42843  0.51529  1.0000
  C   C463      1.0  0.05858  0.44082  0.52493  1.0000
  C   C464      1.0  0.05165  0.45875  0.52150  1.0000
  C   C465      1.0  0.04068  0.46436  0.50815  1.0000
  H   H365      1.0  0.44675  0.22468  0.52151  1.0000
  S   S51       1.0  0.48966  0.05016  0.60911  1.0000
  C   C466      1.0  0.46216  0.20932  0.55895  1.0000
  C   C467      1.0  0.39635  0.20285  0.55143  1.0000
  S   S52       1.0  0.26077  0.47730  0.61800  1.0000
  H   H366      1.0  0.09856  0.48428  0.50330  1.0000
  C   C468      1.0  0.16807  0.42462  0.55479  1.0000
  C   C469      1.0  0.37439  0.43938  0.60030  1.0000
  C   C470      1.0  0.45601  0.47970  0.73556  1.0000
  H   H367      1.0  0.46527  0.40707  0.66747  1.0000
  H   H368      1.0  0.31147  0.45428  0.66389  1.0000
  C   C471      1.0  0.45745  0.21716  0.51370  1.0000
  C   C472      1.0  0.45275  0.18161  0.57453  1.0000
  H   H369      1.0  0.44744  0.27398  0.64519  1.0000
  H   H370      1.0  0.41400  0.41928  0.71492  1.0000
  H   H371      1.0  0.05962  0.41453  0.51787  1.0000
  H   H372      1.0  0.06746  0.43652  0.53496  1.0000
  H   H373      1.0  0.05508  0.46825  0.52905  1.0000
  H   H374      1.0  0.01536  0.40563  0.59581  1.0000
  S   S53       1.0  0.12023  0.45732  0.55972  1.0000
  C   C473      1.0  0.38015  0.30807  0.52813  1.0000
  C   C474      1.0  0.49803  0.01190  0.54677  1.0000
  P   P14       1.0  0.44988  0.18763  0.53825  1.0000
  H   H375      1.0  0.44775  0.16907  0.57465  1.0000
  C   C475      1.0  0.40433  0.39769  0.70563  1.0000
  C   C476      1.0  0.38413  0.47218  0.66449  1.0000
  C   C477      1.0  0.44665  0.13578  0.53235  1.0000
  S   S54       1.0  0.29289  0.45351  0.57781  1.0000
  C   C478      1.0  0.40488  0.04327  0.55386  1.0000
  C   C479      1.0  0.45977  0.26979  0.65084  1.0000
  H   H376      1.0  0.46130  0.45644  0.67957  1.0000
  C   C480      1.0  0.39902  0.45913  0.66412  1.0000
  C   C481      1.0  0.42650  0.19492  0.53708  1.0000
  C   C482      1.0  0.44296  0.15433  0.53188  1.0000
  C   C483      1.0  0.42570  0.01695  0.56175  1.0000
  C   C484      1.0  0.46894  0.31120  0.69306  1.0000
  C   C485      1.0  0.31092  0.49281  0.55350  1.0000
  C   C486      1.0  0.45090  0.33542  0.65941  1.0000
  C   C487      1.0  0.14731  0.49465  0.52840  1.0000
  C   C488      1.0  0.31243  0.49250  0.67616  1.0000
  C   C489      1.0  0.02194  0.48308  0.55051  1.0000
  Fe  Fe23      1.0  0.27815  0.49628  0.62501  1.0000
  C   C490      1.0  0.16020  0.49695  0.61539  1.0000
  C   C491      1.0  0.21387  0.47070  0.56258  1.0000
  C   C492      1.0  0.37701  0.46431  0.63706  1.0000
  C   C493      1.0  0.44231  0.29850  0.70699  1.0000
  C   C494      1.0  0.48107  0.27385  0.66973  1.0000
  H   H377      1.0  0.45484  0.04801  0.49683  1.0000
  C   C495      1.0  0.38996  0.20464  0.53505  1.0000
  C   C496      1.0  0.31608  0.44856  0.62029  1.0000
  C   C497      1.0  0.37839  0.40667  0.68993  1.0000
  H   H378      1.0  0.44449  0.47491  0.74384  1.0000
  H   H379      1.0  0.06924  0.41926  0.58448  1.0000
  C   C498      1.0  0.45387  0.35048  0.64709  1.0000
  C   C499      1.0  0.47344  0.13587  0.54543  1.0000
  C   C500      1.0  0.17846  0.45264  0.58183  1.0000
  C   C501      1.0  0.19052  0.44723  0.59431  1.0000
  H   H380      1.0  0.48587  0.37889  0.66619  1.0000
  H   H381      1.0  0.46447  0.21860  0.54700  1.0000
  H   H382      1.0  0.46969  0.02374  0.62830  1.0000
  H   H383      1.0  0.38277  0.41702  0.58556  1.0000
  C   C502      1.0  0.35454  0.28473  0.53115  1.0000
  H   H384      1.0  0.43843  0.42368  0.73725  1.0000
  C   C503      1.0  0.18455  0.44686  0.61251  1.0000
  C   C504      1.0  0.16644  0.45131  0.61837  1.0000
  C   C505      1.0  0.15430  0.45599  0.60605  1.0000
  C   C506      1.0  0.16024  0.45673  0.58785  1.0000
  H   H385      1.0  0.24610  0.45203  0.52354  1.0000
  C   C507      1.0  0.00712  0.49188  0.54271  1.0000
  H   H386      1.0  0.37587  0.20848  0.53419  1.0000
  H   H387      1.0  0.37852  0.28581  0.67219  1.0000
  P   P15       1.0  0.39712  0.32271  0.52425  1.0000
  H   H388      1.0  0.43743  0.40812  0.68821  1.0000
  H   H389      1.0  0.38722  0.20535  0.56330  1.0000
  H   H390      1.0  0.34078  0.46425  0.65440  1.0000
  Fe  Fe24      1.0  0.11572  0.49572  0.60595  1.0000
  Fe  Fe25      1.0  0.10717  0.47996  0.57464  1.0000
  C   C508      1.0  0.41996  0.19685  0.52067  1.0000
  C   C509      1.0  0.48384  0.02487  0.54253  1.0000
  C   C510      1.0  0.20821  0.45893  0.55286  1.0000
  H   H391      1.0  0.40783  0.32584  0.69508  1.0000
  H   H392      1.0  0.43766  0.12848  0.52755  1.0000
  C   C511      1.0  0.41422  0.31550  0.53864  1.0000
  C   C512      1.0  0.02281  0.46493  0.55711  1.0000
  H   H393      1.0  0.39692  0.20308  0.50701  1.0000
  H   H394      1.0  0.16177  0.45132  0.63244  1.0000
  H   H395      1.0  0.14026  0.45941  0.61063  1.0000
  H   H396      1.0  0.15055  0.46038  0.57856  1.0000
  S   S55       1.0  0.04914  0.48604  0.61718  1.0000
  H   H397      1.0  0.39112  0.37975  0.69435  1.0000
  C   C513      1.0  0.45316  0.36398  0.69764  1.0000
  H   H398      1.0  0.43069  0.01286  0.58926  1.0000
  H   H399      1.0  0.21284  0.42076  0.55618  1.0000
  H   H400      1.0  0.39521  0.44266  0.62639  1.0000
  C   C514      1.0  0.39211  0.28840  0.67186  1.0000
  C   C515      1.0  0.46263  0.20219  0.59078  1.0000
  H   H401      1.0  0.38735  0.31526  0.65861  1.0000
  C   C516      1.0  0.38752  0.34480  0.52898  1.0000
  S   S56       1.0  0.40326  0.49828  0.69535  1.0000
  C   C517      1.0  0.39187  0.45098  0.63693  1.0000
  H   H402      1.0  0.38108  0.48049  0.67512  1.0000
  H   H403      1.0  0.17271  0.48990  0.56191  1.0000
  S   S57       1.0  0.48615  0.42494  0.68654  1.0000
  C   C518      1.0  0.34383  0.49819  0.60224  1.0000
  H   H404      1.0  0.46265  0.36020  0.61975  1.0000
  C   C519      1.0  0.37396  0.34700  0.54333  1.0000
  C   C520      1.0  0.44382  0.38126  0.73953  1.0000
  C   C521      1.0  0.41055  0.30501  0.55513  1.0000
  H   H405      1.0  0.45455  0.17684  0.60266  1.0000
  C   C522      1.0  0.48489  0.49222  0.71243  1.0000
  C   C523      1.0  0.49042  0.02730  0.60627  1.0000
  H   H406      1.0  0.33575  0.48898  0.59913  1.0000
  C   C524      1.0  0.42649  0.38592  0.73492  1.0000
  H   H407      1.0  0.39585  0.31305  0.72543  1.0000
  C   C525      1.0  0.36605  0.36411  0.54666  1.0000
  H   H408      1.0  0.16920  0.48864  0.64102  1.0000
  C   C526      1.0  0.37324  0.47479  0.65102  1.0000
  C   C527      1.0  0.30848  0.49836  0.65868  1.0000
  C   C528      1.0  0.46009  0.31041  0.72483  1.0000
  C   C529      1.0  0.40753  0.33307  0.70623  1.0000
  C   C530      1.0  0.40585  0.32282  0.50101  1.0000
  H   H409      1.0  0.43192  0.26780  0.68376  1.0000
  C   C531      1.0  0.42228  0.27831  0.67831  1.0000
  H   H410      1.0  0.46251  0.31319  0.73764  1.0000
  C   C532      1.0  0.45733  0.08295  0.50754  1.0000
  H   H411      1.0  0.36738  0.43154  0.61138  1.0000
  H   H412      1.0  0.43101  0.16110  0.52668  1.0000
  H   H413      1.0  0.28677  0.48664  0.54644  1.0000
  H   H414      1.0  0.46688  0.24708  0.63631  1.0000
  S   S58       1.0  0.48833  0.09529  0.57498  1.0000
  H   H415      1.0  0.23568  0.48358  0.56676  1.0000
  C   C533      1.0  0.46323  0.00296  0.55194  1.0000
  S   S59       1.0  0.29785  0.49376  0.60059  1.0000
  C   C534      1.0  0.39136  0.39335  0.69646  1.0000
  C   C535      1.0  0.41469  0.30828  0.66357  1.0000
  H   H416      1.0  0.02805  0.49094  0.58632  1.0000
  H   H417      1.0  0.45563  0.03068  0.54178  1.0000
  H   H418      1.0  0.40762  0.45737  0.67444  1.0000
  C   C536      1.0  0.04318  0.43389  0.50202  1.0000
  H   H419      1.0  0.03070  0.40365  0.54422  1.0000
  C   C537      1.0  0.46901  0.36354  0.68585  1.0000
  H   H420      1.0  0.41896  0.02631  0.53512  1.0000
  P   P16       1.0  0.36316  0.46835  0.61928  1.0000
  H   H421      1.0  0.44614  0.33714  0.67315  1.0000
  H   H422      1.0  0.46300  0.30361  0.63151  1.0000
  H   H423      1.0  0.36837  0.40326  0.68293  1.0000
  C   C538      1.0  0.41667  0.02844  0.54896  1.0000
  C   C539      1.0  0.46309  0.33168  0.62376  1.0000
  P   P17       1.0  0.42123  0.38071  0.71421  1.0000
  C   C540      1.0  0.44136  0.37994  0.69843  1.0000
  C   C541      1.0  0.47329  0.37903  0.67486  1.0000
  H   H424      1.0  0.35874  0.16692  0.50620  1.0000
  H   H425      1.0  0.46834  0.33006  0.61007  1.0000
  C   C542      1.0  0.41349  0.35909  0.71792  1.0000
  H   H426      1.0  0.34476  0.27571  0.53185  1.0000
  H   H427      1.0  0.15395  0.40273  0.55312  1.0000
  C   C543      1.0  0.43131  0.32066  0.53356  1.0000
  C   C544      1.0  0.19876  0.39956  0.55325  1.0000
  P   P18       1.0  0.18597  0.45274  0.55837  1.0000
  H   H428      1.0  0.36930  0.33548  0.55177  1.0000
  C   C545      1.0  0.46165  0.39493  0.67558  1.0000
  C   C546      1.0  0.18474  0.43010  0.55504  1.0000
  C   C547      1.0  0.49213  0.25875  0.66435  1.0000
  C   C548      1.0  0.38315  0.43110  0.58572  1.0000
  H   H429      1.0  0.21069  0.38985  0.55285  1.0000
  H   H430      1.0  0.19395  0.44316  0.62208  1.0000
  H   H431      1.0  0.03441  0.45856  0.56309  1.0000
  C   C549      1.0  0.44582  0.39545  0.68740  1.0000
  C   C550      1.0  0.34976  0.30310  0.52696  1.0000
  C   C551      1.0  0.40470  0.27507  0.67891  1.0000
  H   H432      1.0  0.20453  0.44331  0.59001  1.0000
  C   C552      1.0  0.18220  0.39431  0.55262  1.0000
  C   C553      1.0  0.47192  0.31483  0.70961  1.0000
  H   H433      1.0  0.18123  0.38049  0.55171  1.0000
  H   H434      1.0  0.43620  0.29871  0.73538  1.0000
  S   S60       1.0  0.05387  0.38602  0.50087  1.0000
  C   C554      1.0  0.42406  0.29892  0.56584  1.0000
  H   H435      1.0  0.08085  0.39638  0.56435  1.0000
  C   C555      1.0  0.47075  0.25457  0.64569  1.0000
  H   H436      1.0  0.35873  0.32878  0.52098  1.0000
  C   C556      1.0  0.44118  0.30357  0.56038  1.0000
  C   C557      1.0  0.40029  0.33523  0.73773  1.0000
  P   P19       1.0  0.45020  0.29890  0.66997  1.0000
  H   H437      1.0  0.45183  0.29834  0.56836  1.0000
  H   H438      1.0  0.01646  0.38778  0.51232  1.0000
  S   S61       1.0  0.38159  0.24244  0.50238  1.0000
  H   H439      1.0  0.47907  0.16132  0.54982  1.0000
  H   H440      1.0  0.45428  0.37452  0.73085  1.0000
  H   H441      1.0  0.39739  0.30123  0.55962  1.0000
  H   H442      1.0  0.39086  0.44248  0.70398  1.0000
  H   H443      1.0  0.39971  0.39813  0.74359  1.0000
  H   H444      1.0  0.45163  0.36359  0.65139  1.0000
  H   H445      1.0  0.06127  0.38844  0.54460  1.0000
  S   S62       1.0  0.26406  0.36978  0.50821  1.0000
  H   H446      1.0  0.42139  0.29018  0.57817  1.0000
  C   C558      1.0  0.39710  0.30500  0.66421  1.0000
  C   C559      1.0  0.47571  0.18929  0.50820  1.0000
  H   H447      1.0  0.25645  0.47137  0.54202  1.0000
  C   C560      1.0  0.06073  0.41590  0.57575  1.0000
  P   P20       1.0  0.00965  0.43182  0.56425  1.0000
  H   H448      1.0  0.35525  0.36571  0.55745  1.0000
  C   C561      1.0  0.04323  0.42449  0.57578  1.0000
  H   H449      1.0  0.43437  0.32908  0.52111  1.0000
  C   C562      1.0  0.19104  0.49605  0.62118  1.0000
  C   C563      1.0  0.29740  0.49488  0.54269  1.0000
  C   C564      1.0  0.46649  0.02043  0.54504  1.0000
  H   H450      1.0  0.48623  0.03846  0.53761  1.0000
  C   C565      1.0  0.21973  0.45281  0.53831  1.0000
  C   C566      1.0  0.05623  0.39849  0.55336  1.0000
  H   H451      1.0  0.45821  0.31771  0.53995  1.0000
  H   H452      1.0  0.39857  0.28412  0.53333  1.0000
  C   C567      1.0  0.45422  0.31831  0.65403  1.0000
  H   H453      1.0  0.40442  0.35856  0.50770  1.0000
  S   S63       1.0  0.48723  0.26301  0.60121  1.0000
  C   C568      1.0  0.24284  0.46837  0.54465  1.0000
  C   C569      1.0  0.16685  0.40683  0.55342  1.0000
  C   C570      1.0  0.10411  0.47233  0.51103  1.0000
  C   C571      1.0  0.38575  0.37704  0.52194  1.0000
  Fe  Fe26      1.0  0.27978  0.47667  0.59261  1.0000
  C   C572      1.0  0.37186  0.37912  0.53589  1.0000
  H   H454      1.0  0.49858  0.33819  0.63227  1.0000
  H   H455      1.0  0.39983  0.46684  0.56036  1.0000
  C   C573      1.0  0.48469  0.47381  0.71767  1.0000
  C   C574      1.0  0.15987  0.42685  0.49888  1.0000
  H   H456      1.0  0.48544  0.28111  0.67894  1.0000
  C   C575      1.0  0.45663  0.49802  0.73122  1.0000
  S   S64       1.0  0.14369  0.37899  0.50700  1.0000
  H   H457      1.0  0.30367  0.48441  0.68522  1.0000
  H   H458      1.0  0.00067  0.33685  0.51384  1.0000
  H   H459      1.0  0.11905  0.42870  0.50771  1.0000
  H   H460      1.0  0.46964  0.45338  0.73226  1.0000
  H   H461      1.0  0.49560  0.23749  0.64803  1.0000
  C   C576      1.0  0.17929  0.37911  0.50797  1.0000
  H   H462      1.0  0.29298  0.47101  0.52315  1.0000
  H   H463      1.0  0.00920  0.43536  0.52580  1.0000
  S   S65       1.0  0.28888  0.49246  0.65210  1.0000
  C   C577      1.0  0.20471  0.48173  0.50177  1.0000
  H   H464      1.0  0.15033  0.41781  0.50488  1.0000
  H   H465      1.0  0.49548  0.46413  0.71289  1.0000
  C   C578      1.0  0.32757  0.49707  0.68212  1.0000
  H   H466      1.0  0.49410  0.47075  0.68163  1.0000
  C   C579      1.0  0.46624  0.22584  0.49823  1.0000
  C   C580      1.0  0.28206  0.48986  0.50201  1.0000
  C   C581      1.0  0.19756  0.37683  0.50135  1.0000
  H   H467      1.0  0.29449  0.44476  0.50818  1.0000
  H   H468      1.0  0.22108  0.49301  0.65101  1.0000
  S   S66       1.0  0.08116  0.49774  0.57202  1.0000
  C   C582      1.0  0.28946  0.45780  0.50177  1.0000
  Fe  Fe27      1.0  0.41438  0.07922  0.49688  1.0000
  C   C583      1.0  0.47890  0.99913  0.61746  1.0000
  C   C584      1.0  0.19549  0.49849  0.50454  1.0000
  C   C585      1.0  0.03662  0.45197  0.49806  1.0000
  C   C586      1.0  0.18836  0.43713  0.49801  1.0000
  C   C587      1.0  0.16640  0.37675  0.49764  1.0000
  H   H469      1.0  0.40592  0.35890  0.74638  1.0000
  H   H470      1.0  0.39510  0.43128  0.82255  1.0000
  H   H471      1.0  0.44550  0.49171  0.99032  1.0000
  H   H472      1.0  0.48748  0.43155  0.81424  1.0000
  C   C588      1.0  0.49691  0.47514  0.93769  1.0000
  S   S67       1.0  0.46717  0.40076  0.88939  1.0000
  C   C589      1.0  0.39465  0.44056  0.98259  1.0000
  C   C590      1.0  0.44401  0.45830  0.92982  1.0000
  H   H473      1.0  0.46230  0.44443  0.84259  1.0000
  C   C591      1.0  0.48865  0.45821  0.77445  1.0000
  C   C592      1.0  0.43469  0.39418  0.76698  1.0000
  C   C593      1.0  0.41973  0.43980  0.80824  1.0000
  C   C594      1.0  0.38349  0.48964  0.80738  1.0000
  C   C595      1.0  0.45771  0.44048  0.97332  1.0000
  H   H474      1.0  0.44869  0.41545  0.79844  1.0000
  C   C596      1.0  0.48377  0.46465  0.94606  1.0000
  C   C597      1.0  0.46344  0.42412  0.88726  1.0000
  C   C598      1.0  0.47754  0.43365  0.88768  1.0000
  C   C599      1.0  0.47473  0.45226  0.88627  1.0000
  C   C600      1.0  0.45790  0.46150  0.88392  1.0000
  C   C601      1.0  0.44393  0.45203  0.88279  1.0000
  C   C602      1.0  0.44658  0.43332  0.88484  1.0000
  H   H475      1.0  0.49065  0.42678  0.88923  1.0000
  H   H476      1.0  0.48563  0.45945  0.88706  1.0000
  H   H477      1.0  0.43112  0.45905  0.88029  1.0000
  H   H478      1.0  0.43567  0.42605  0.88426  1.0000
  C   C603      1.0  0.45105  0.48911  0.83307  1.0000
  H   H479      1.0  0.37912  0.43727  0.79631  1.0000
  H   H480      1.0  0.42530  0.45538  0.76385  1.0000
  C   C604      1.0  0.44785  0.44067  0.93787  1.0000
  C   C605      1.0  0.48362  0.44765  0.94131  1.0000
  H   H481      1.0  0.39419  0.44929  0.76690  1.0000
  C   C606      1.0  0.48674  0.38250  0.96572  1.0000
  C   C607      1.0  0.39463  0.44197  0.87167  1.0000
  H   H482      1.0  0.48342  0.43415  0.98290  1.0000
  C   C608      1.0  0.39290  0.43960  0.79494  1.0000
  H   H483      1.0  0.39864  0.39682  0.87386  1.0000
  H   H484      1.0  0.49676  0.42862  0.92374  1.0000
  C   C609      1.0  0.47433  0.38700  0.82556  1.0000
  H   H485      1.0  0.41098  0.42455  0.93008  1.0000
  C   C610      1.0  0.41617  0.43170  0.84743  1.0000
  H   H486      1.0  0.40376  0.45602  0.91726  1.0000
  C   C611      1.0  0.43082  0.47334  0.82211  1.0000
  H   H487      1.0  0.47342  0.47000  0.95583  1.0000
  C   C612      1.0  0.49634  0.45754  0.80902  1.0000
  H   H488      1.0  0.39409  0.39157  0.93425  1.0000
  H   H489      1.0  0.45304  0.46798  0.92940  1.0000
  C   C613      1.0  0.40094  0.41045  0.86902  1.0000
  C   C614      1.0  0.46684  0.39460  0.81019  1.0000
  C   C615      1.0  0.42816  0.46377  0.92245  1.0000
  C   C616      1.0  0.38029  0.49718  0.79002  1.0000
  C   C617      1.0  0.40133  0.44644  0.77840  1.0000
  H   H490      1.0  0.47069  0.41125  0.92364  1.0000
  H   H491      1.0  0.38767  0.47547  0.81013  1.0000
  C   C618      1.0  0.41322  0.39449  0.74672  1.0000
  C   C619      1.0  0.48585  0.44339  0.78711  1.0000
  C   C620      1.0  0.41945  0.38526  0.96825  1.0000
  C   C621      1.0  0.43715  0.37733  0.94073  1.0000
  H   H492      1.0  0.38218  0.42168  0.88969  1.0000
  S   S68       1.0  0.40229  0.48356  0.88726  1.0000
  C   C622      1.0  0.48779  0.37498  0.95005  1.0000
  C   C623      1.0  0.49677  0.44140  0.92804  1.0000
  H   H493      1.0  0.42218  0.48587  0.97384  1.0000
  H   H494      1.0  0.42523  0.47743  0.91637  1.0000
  C   C624      1.0  0.40438  0.38971  0.95922  1.0000
  H   H495      1.0  0.49875  0.45703  0.82260  1.0000
  H   H496      1.0  0.42333  0.38083  0.91779  1.0000
  Fe  Fe28      1.0  0.49685  0.39342  0.88576  1.0000
  C   C625      1.0  0.40689  0.44561  0.85655  1.0000
  S   S69       1.0  0.45486  0.48483  0.88231  1.0000
  C   C626      1.0  0.46939  0.43888  0.98610  1.0000
  H   H497      1.0  0.45285  0.41565  0.85395  1.0000
  C   C627      1.0  0.44900  0.41769  0.82626  1.0000
  C   C628      1.0  0.45517  0.45678  0.83697  1.0000
  H   H498      1.0  0.44788  0.37591  0.96512  1.0000
  H   H499      1.0  0.43792  0.39752  0.77922  1.0000
  H   H500      1.0  0.40718  0.40568  0.77146  1.0000
  C   C629      1.0  0.48971  0.44305  0.80438  1.0000
  H   H501      1.0  0.43042  0.44936  0.96814  1.0000
  C   C630      1.0  0.39171  0.42440  0.87797  1.0000
  H   H502      1.0  0.40894  0.45933  0.85199  1.0000
  H   H503      1.0  0.48406  0.37510  0.82533  1.0000
  H   H504      1.0  0.39159  0.39472  0.96612  1.0000
  H   H505      1.0  0.49375  0.36124  0.94938  1.0000
  H   H506      1.0  0.38214  0.48882  0.77952  1.0000
  C   C631      1.0  0.40573  0.38798  0.94115  1.0000
  C   C632      1.0  0.41302  0.41408  0.85372  1.0000
  C   C633      1.0  0.45681  0.41007  0.84156  1.0000
  C   C634      1.0  0.45431  0.40994  0.81048  1.0000
  C   C635      1.0  0.46947  0.39486  0.84117  1.0000
  C   C636      1.0  0.43586  0.42850  0.93784  1.0000
  C   C637      1.0  0.41892  0.44996  0.77671  1.0000
  C   C638      1.0  0.41736  0.39870  0.76262  1.0000
  H   H507      1.0  0.44984  0.37267  0.93343  1.0000
  H   H508      1.0  0.48560  0.45849  0.76108  1.0000
  H   H509      1.0  0.41986  0.40313  0.84682  1.0000
  H   H510      1.0  0.47089  0.38859  0.79802  1.0000
  H   H511      1.0  0.48074  0.43215  0.78351  1.0000
  C   C639      1.0  0.43589  0.37907  0.95881  1.0000
  H   H512      1.0  0.47538  0.38905  0.85308  1.0000
  P   P21       1.0  0.43151  0.43644  0.82747  1.0000
  C   C640      1.0  0.42018  0.43394  0.93013  1.0000
  C   C641      1.0  0.44016  0.45690  0.82847  1.0000
  C   C642      1.0  0.41616  0.45166  0.92277  1.0000
  C   C643      1.0  0.47491  0.40333  0.93558  1.0000
  C   C644      1.0  0.47987  0.40046  0.96633  1.0000
  H   H513      1.0  0.47950  0.40584  0.97858  1.0000
  C   C645      1.0  0.42214  0.38189  0.93188  1.0000
  C   C646      1.0  0.48175  0.38537  0.93503  1.0000
  C   C647      1.0  0.42806  0.44681  0.79157  1.0000
  H   H514      1.0  0.44156  0.45000  0.79013  1.0000
  H   H515      1.0  0.49184  0.37451  0.97724  1.0000
  H   H516      1.0  0.43838  0.41493  0.94416  1.0000
  C   C648      1.0  0.40205  0.43623  0.80982  1.0000
  H   H517      1.0  0.38725  0.45288  0.87834  1.0000
  H   H518      1.0  0.41108  0.42176  0.96720  1.0000
  H   H519      1.0  0.46143  0.38209  0.75874  1.0000
  C   C649      1.0  0.47401  0.41112  0.95119  1.0000
  P   P22       1.0  0.46589  0.43469  0.95120  1.0000
  C   C650      1.0  0.44791  0.38545  0.75545  1.0000
  H   H520      1.0  0.48276  0.37964  0.92276  1.0000
  H   H521      1.0  0.41875  0.47389  0.81620  1.0000
  H   H522      1.0  0.37800  0.48079  0.97162  1.0000
  C   C651      1.0  0.43972  0.44734  0.97775  1.0000
  C   C652      1.0  0.43345  0.49211  0.96676  1.0000
  C   C653      1.0  0.46061  0.47285  0.83917  1.0000
  H   H523      1.0  0.47169  0.47267  0.84648  1.0000
  C   C654      1.0  0.49223  0.47682  0.99117  1.0000
  H   H524      1.0  0.49775  0.48389  0.76885  1.0000
  H   H525      1.0  0.49671  0.48842  0.94101  1.0000
  H   H526      1.0  0.39394  0.45103  0.97135  1.0000
  H   H527      1.0  0.49580  0.47518  0.97727  1.0000
  C   C655      1.0  0.49556  0.47260  0.77894  1.0000
  H   H528      1.0  0.39225  0.36502  0.98472  1.0000
  H   H529      1.0  0.49482  0.49068  0.87721  1.0000
  C   C656      1.0  0.43629  0.48936  0.82435  1.0000
  C   C657      1.0  0.40430  0.42384  0.98024  1.0000
  Fe  Fe29      1.0  0.42651  0.49744  0.88185  1.0000
  C   C658      1.0  0.49777  0.49118  0.86286  1.0000
  C   C659      1.0  0.38289  0.49355  0.96971  1.0000
  C   C660      1.0  0.43351  0.45215  0.99471  1.0000
  S   S70       1.0  0.38100  0.49329  0.93414  1.0000
  S   S71       1.0  0.38374  0.48987  0.84317  1.0000
  C   C661      1.0  0.48243  0.49273  0.99625  1.0000
  C   C662      1.0  0.40514  0.41008  0.99460  1.0000
  H   H530      1.0  0.42383  0.49505  0.94139  1.0000
  S   S72       1.0  0.49918  0.38514  0.76488  1.0000
  H   H531      1.0  0.39497  0.32969  0.75099  1.0000
  C   C663      1.0  0.44667  0.49552  0.97604  1.0000
  P   P23       1.0  0.41756  0.38839  0.99149  1.0000
  C   C664      1.0  0.43434  0.49734  0.94845  1.0000
  H   H532      1.0  0.44509  0.35783  0.99604  1.0000
  H   H533      1.0  0.42808  0.54921  0.23702  1.0000
  C   C665      1.0  0.47836  0.50638  0.17404  1.0000
  Fe  Fe30      1.0  0.39948  0.51142  0.02762  1.0000
  C   C666      1.0  0.42807  0.60232  0.00877  1.0000
  C   C667      1.0  0.45897  0.66937  0.19771  1.0000
  Fe  Fe31      1.0  0.38460  0.50943  0.23469  1.0000
  H   H534      1.0  0.39581  0.50451  0.11534  1.0000
  Fe  Fe32      1.0  0.42717  0.50595  0.05328  1.0000
  S   S73       1.0  0.45352  0.51326  0.05778  1.0000
  C   C668      1.0  0.44864  0.66451  0.15251  1.0000
  S   S74       1.0  0.40267  0.52575  0.05023  1.0000
  H   H535      1.0  0.41820  0.72428  0.17421  1.0000
  H   H536      1.0  0.49635  0.68811  0.21554  1.0000
  C   C669      1.0  0.44920  0.55408  0.01465  1.0000
  H   H537      1.0  0.43480  0.49948  0.15099  1.0000
  H   H538      1.0  0.46330  0.60062  0.03151  1.0000
  H   H539      1.0  0.32256  0.50868  0.24506  1.0000
  C   C670      1.0  0.45941  0.53289  0.18300  1.0000
  C   C671      1.0  0.45375  0.52323  0.19929  1.0000
  S   S75       1.0  0.41424  0.51175  0.23046  1.0000
  Fe  Fe33      1.0  0.38286  0.51436  0.19420  1.0000
  C   C672      1.0  0.45512  0.67801  0.21304  1.0000
  C   C673      1.0  0.45706  0.63500  0.16785  1.0000
  Fe  Fe34      1.0  0.40742  0.53453  0.20918  1.0000
  S   S76       1.0  0.41941  0.56056  0.20096  1.0000
  C   C674      1.0  0.42237  0.63157  0.19932  1.0000
  H   H540      1.0  0.48557  0.62949  0.00635  1.0000
  H   H541      1.0  0.41647  0.60178  0.23679  1.0000
  S   S77       1.0  0.37771  0.53337  0.21475  1.0000
  H   H542      1.0  0.44404  0.58639  0.19163  1.0000
  C   C675      1.0  0.46315  0.62880  0.15147  1.0000
  C   C676      1.0  0.45636  0.58057  0.23321  1.0000
  H   H543      1.0  0.44177  0.67928  0.22024  1.0000
  C   C677      1.0  0.43579  0.55978  0.23086  1.0000
  C   C678      1.0  0.43453  0.56715  0.21321  1.0000
  C   C679      1.0  0.44492  0.58064  0.20530  1.0000
  C   C680      1.0  0.45594  0.58725  0.21523  1.0000
  H   H544      1.0  0.33747  0.52044  0.15114  1.0000
  C   C681      1.0  0.49818  0.52519  0.10189  1.0000
  H   H545      1.0  0.46333  0.59814  0.20928  1.0000
  C   C682      1.0  0.45601  0.59968  0.02072  1.0000
  C   C683      1.0  0.45323  0.57133  0.06610  1.0000
  C   C684      1.0  0.46222  0.64046  0.13564  1.0000
  H   H546      1.0  0.40873  0.57400  0.00187  1.0000
  C   C685      1.0  0.45332  0.53566  0.06096  1.0000
  C   C686      1.0  0.43814  0.54813  0.05925  1.0000
  C   C687      1.0  0.43807  0.56586  0.06177  1.0000
  H   H547      1.0  0.40838  0.60850  0.20620  1.0000
  C   C688      1.0  0.46850  0.55891  0.06804  1.0000
  C   C689      1.0  0.46856  0.54113  0.06534  1.0000
  H   H548      1.0  0.42647  0.54438  0.05564  1.0000
  C   C690      1.0  0.39237  0.69095  0.18735  1.0000
  Fe  Fe35      1.0  0.48054  0.60038  0.06686  1.0000
  H   H549      1.0  0.48040  0.53164  0.06660  1.0000
  C   C691      1.0  0.36755  0.51192  0.11486  1.0000
  C   C692      1.0  0.35123  0.51635  0.12520  1.0000
  C   C693      1.0  0.35029  0.51700  0.14347  1.0000
  C   C694      1.0  0.36567  0.51352  0.15184  1.0000
  C   C695      1.0  0.41612  0.61718  0.21085  1.0000
  H   H550      1.0  0.33410  0.51164  0.21275  1.0000
  H   H551      1.0  0.37540  0.59919  0.22393  1.0000
  H   H552      1.0  0.37849  0.68880  0.18979  1.0000
  S   S78       1.0  0.45278  0.59376  0.06882  1.0000
  C   C696      1.0  0.47175  0.52453  0.17045  1.0000
  C   C697      1.0  0.45507  0.65832  0.13618  1.0000
  H   H553      1.0  0.44447  0.52972  0.20917  1.0000
  C   C698      1.0  0.42059  0.61341  0.22813  1.0000
  H   H554      1.0  0.47984  0.66163  0.17663  1.0000
  H   H555      1.0  0.46758  0.63584  0.12295  1.0000
  C   C699      1.0  0.46525  0.59545  0.00446  1.0000
  C   C700      1.0  0.39170  0.58684  0.07545  1.0000
  C   C701      1.0  0.38231  0.57527  0.06924  1.0000
  C   C702      1.0  0.38112  0.55818  0.07843  1.0000
  C   C703      1.0  0.38945  0.55259  0.09369  1.0000
  C   C704      1.0  0.39902  0.56404  0.09998  1.0000
  C   C705      1.0  0.40000  0.58129  0.09077  1.0000
  P   P24       1.0  0.40896  0.55699  0.12028  1.0000
  C   C706      1.0  0.42580  0.57097  0.12065  1.0000
  C   C707      1.0  0.39215  0.55873  0.13949  1.0000
  C   C708      1.0  0.37427  0.55750  0.13827  1.0000
  C   C709      1.0  0.36138  0.55858  0.15322  1.0000
  C   C710      1.0  0.36621  0.56077  0.16951  1.0000
  C   C711      1.0  0.38395  0.56199  0.17086  1.0000
  C   C712      1.0  0.39691  0.56086  0.15597  1.0000
  C   C713      1.0  0.42149  0.58708  0.12804  1.0000
  C   C714      1.0  0.43453  0.59823  0.12740  1.0000
  C   C715      1.0  0.45182  0.59351  0.11915  1.0000
  C   C716      1.0  0.45608  0.57756  0.11172  1.0000
  C   C717      1.0  0.44317  0.56638  0.11240  1.0000
  C   C718      1.0  0.42001  0.53428  0.12108  1.0000
  C   C719      1.0  0.42580  0.52647  0.10541  1.0000
  C   C720      1.0  0.43459  0.50900  0.10619  1.0000
  C   C721      1.0  0.48967  0.67528  0.19472  1.0000
  C   C722      1.0  0.43240  0.50700  0.13821  1.0000
  C   C723      1.0  0.42372  0.52452  0.13743  1.0000
  H   H556      1.0  0.39275  0.60006  0.06828  1.0000
  H   H557      1.0  0.37595  0.57950  0.05733  1.0000
  H   H558      1.0  0.37371  0.54918  0.07377  1.0000
  H   H559      1.0  0.38835  0.53933  0.10061  1.0000
  H   H560      1.0  0.40735  0.59045  0.09517  1.0000
  H   H561      1.0  0.37021  0.55525  0.12600  1.0000
  H   H562      1.0  0.34774  0.55698  0.15233  1.0000
  H   H563      1.0  0.35629  0.56098  0.18119  1.0000
  H   H564      1.0  0.38775  0.56343  0.18355  1.0000
  H   H565      1.0  0.41064  0.56141  0.15747  1.0000
  H   H566      1.0  0.40799  0.59123  0.13389  1.0000
  H   H567      1.0  0.43113  0.61075  0.13288  1.0000
  H   H568      1.0  0.46181  0.60237  0.11813  1.0000
  H   H569      1.0  0.46919  0.57410  0.10470  1.0000
  H   H570      1.0  0.44663  0.55454  0.10581  1.0000
  H   H571      1.0  0.42354  0.53380  0.09257  1.0000
  H   H572      1.0  0.43881  0.50303  0.09404  1.0000
  H   H573      1.0  0.44331  0.67843  0.15256  1.0000
  C   C724      1.0  0.33632  0.49890  0.22104  1.0000
  H   H574      1.0  0.41970  0.53032  0.14964  1.0000
  C   C725      1.0  0.41472  0.71094  0.17859  1.0000
  H   H575      1.0  0.44634  0.64593  0.22712  1.0000
  C   C726      1.0  0.39683  0.70815  0.18173  1.0000
  H   H576      1.0  0.45440  0.54694  0.18030  1.0000
  C   C727      1.0  0.38482  0.57263  0.23543  1.0000
  H   H577      1.0  0.48020  0.56294  0.07174  1.0000
  H   H578      1.0  0.46919  0.61509  0.15103  1.0000
  H   H579      1.0  0.45850  0.62590  0.18000  1.0000
  Fe  Fe36      1.0  0.38859  0.50526  0.06892  1.0000
  C   C728      1.0  0.43742  0.60306  0.02292  1.0000
  S   S79       1.0  0.36715  0.51220  0.09168  1.0000
  S   S80       1.0  0.36287  0.51501  0.17502  1.0000
  C   C729      1.0  0.46006  0.50515  0.20289  1.0000
  H   H580      1.0  0.44195  0.69899  0.17844  1.0000
  C   C730      1.0  0.38219  0.50901  0.14165  1.0000
  C   C731      1.0  0.38313  0.50804  0.12317  1.0000
  C   C732      1.0  0.44946  0.65286  0.16850  1.0000
  H   H581      1.0  0.33914  0.51936  0.11901  1.0000
  C   C733      1.0  0.38094  0.57764  0.99920  1.0000
  H   H582      1.0  0.46848  0.50538  0.01904  1.0000
  C   C734      1.0  0.46858  0.68468  0.21945  1.0000
  H   H583      1.0  0.41907  0.63408  0.18584  1.0000
  H   H584      1.0  0.45482  0.66740  0.12388  1.0000
  H   H585      1.0  0.46604  0.56857  0.14758  1.0000
  H   H586      1.0  0.47578  0.55781  0.01761  1.0000
  C   C735      1.0  0.48027  0.56811  0.14744  1.0000
  P   P25       1.0  0.44137  0.66074  0.18972  1.0000
  S   S81       1.0  0.41171  0.51722  0.18729  1.0000
  C   C736      1.0  0.42380  0.67920  0.18669  1.0000
  H   H587      1.0  0.44292  0.56341  0.02375  1.0000
  C   C737      1.0  0.43137  0.62397  0.23388  1.0000
  H   H588      1.0  0.48738  0.55353  0.12489  1.0000
  H   H589      1.0  0.47740  0.58319  0.16951  1.0000
  H   H590      1.0  0.40194  0.66338  0.19423  1.0000
  H   H591      1.0  0.49862  0.53233  0.08852  1.0000
  H   H592      1.0  0.43036  0.60649  0.03557  1.0000
  C   C738      1.0  0.48194  0.52157  0.11183  1.0000
  Fe  Fe37      1.0  0.48920  0.60782  0.23736  1.0000
  C   C739      1.0  0.42815  0.69656  0.18105  1.0000
  C   C740      1.0  0.48665  0.57629  0.15983  1.0000
  C   C741      1.0  0.47635  0.66819  0.18849  1.0000
  C   C742      1.0  0.40577  0.67652  0.18984  1.0000
  C   C743      1.0  0.43310  0.64240  0.20503  1.0000
  S   S82       1.0  0.48646  0.63649  0.22477  1.0000
  C   C744      1.0  0.49743  0.50784  0.13696  1.0000
  H   H593      1.0  0.42637  0.57543  0.05996  1.0000
  H   H594      1.0  0.38644  0.71932  0.17980  1.0000
  H   H595      1.0  0.49119  0.50438  0.05149  1.0000
  C   C745      1.0  0.44661  0.56654  0.24079  1.0000
  H   H596      1.0  0.46579  0.69063  0.23171  1.0000
  C   C746      1.0  0.43763  0.63838  0.22240  1.0000
  S   S83       1.0  0.48817  0.62771  0.05719  1.0000
  H   H597      1.0  0.41372  0.60563  0.01053  1.0000
  H   H598      1.0  0.47657  0.53237  0.15826  1.0000
  C   C747      1.0  0.46776  0.55103  0.01103  1.0000
  H   H599      1.0  0.38527  0.56700  0.22323  1.0000
  C   C748      1.0  0.48586  0.68329  0.21032  1.0000
  H   H600      1.0  0.46891  0.51032  0.13695  1.0000
  C   C749      1.0  0.37931  0.59085  0.23580  1.0000
  C   C750      1.0  0.48156  0.51294  0.12933  1.0000
  H   H601      1.0  0.37801  0.56678  0.00961  1.0000
  S   S84       1.0  0.49526  0.59562  0.09054  1.0000
  C   C751      1.0  0.43779  0.49923  0.12257  1.0000
  H   H602      1.0  0.46966  0.52561  0.10599  1.0000
  H   H603      1.0  0.42438  0.54670  0.01006  1.0000
  C   C752      1.0  0.49227  0.55946  0.13482  1.0000
  H   H604      1.0  0.39409  0.50612  0.14808  1.0000
  C   C753      1.0  0.47589  0.53886  0.99941  1.0000
  S   S85       1.0  0.39587  0.52751  0.00059  1.0000
  H   H605      1.0  0.47964  0.59330  0.00266  1.0000
  C   C754      1.0  0.43875  0.54492  0.00675  1.0000
  H   H606      1.0  0.49030  0.53625  0.99714  1.0000
  C   C755      1.0  0.27107  0.53361  0.44413  1.0000
  C   C756      1.0  0.14915  0.51074  0.48437  1.0000
  H   H607      1.0  0.47601  0.73087  0.31716  1.0000
  H   H608      1.0  0.01780  0.56266  0.43589  1.0000
  C   C757      1.0  0.44828  0.80841  0.38703  1.0000
  S   S86       1.0  0.46667  0.92317  0.37740  1.0000
  H   H609      1.0  0.02920  0.65159  0.43223  1.0000
  H   H610      1.0  0.48589  0.68822  0.39428  1.0000
  C   C758      1.0  0.44717  0.66748  0.37624  1.0000
  H   H611      1.0  0.28426  0.56042  0.33681  1.0000
  Fe  Fe38      1.0  0.39310  0.93825  0.47517  1.0000
  S   S87       1.0  0.42057  0.93751  0.48187  1.0000
  Fe  Fe39      1.0  0.42633  0.91064  0.47247  1.0000
  S   S88       1.0  0.45365  0.90012  0.46012  1.0000
  C   C759      1.0  0.46353  0.96892  0.38862  1.0000
  S   S89       1.0  0.39969  0.91231  0.46293  1.0000
  C   C760      1.0  0.48043  0.93776  0.45799  1.0000
  Fe  Fe40      1.0  0.07138  0.51031  0.35736  1.0000
  H   H612      1.0  0.41543  0.78973  0.34418  1.0000
  S   S90       1.0  0.04366  0.52447  0.35297  1.0000
  Fe  Fe41      1.0  0.11247  0.50974  0.34734  1.0000
  C   C761      1.0  0.48421  0.73302  0.48216  1.0000
  S   S91       1.0  0.13458  0.52345  0.32992  1.0000
  H   H613      1.0  0.49896  0.87508  0.41657  1.0000
  C   C762      1.0  0.26279  0.69066  0.48544  1.0000
  S   S92       1.0  0.10277  0.50930  0.41237  1.0000
  H   H614      1.0  0.49779  0.85517  0.30434  1.0000
  S   S93       1.0  0.09137  0.52630  0.36384  1.0000
  Fe  Fe42      1.0  0.08830  0.61886  0.45099  1.0000
  S   S94       1.0  0.09155  0.59164  0.44286  1.0000
  S   S95       1.0  0.06261  0.63715  0.44534  1.0000
  Fe  Fe43      1.0  0.12560  0.61199  0.46371  1.0000
  S   S96       1.0  0.13097  0.58411  0.45659  1.0000
  S   S97       1.0  0.14614  0.61901  0.47931  1.0000
  Fe  Fe44      1.0  0.11939  0.59588  0.43176  1.0000
  S   S98       1.0  0.12962  0.58457  0.40626  1.0000
  Fe  Fe45      1.0  0.10271  0.58204  0.46828  1.0000
  S   S99       1.0  0.11590  0.62427  0.43759  1.0000
  C   C763      1.0  0.40876  0.81674  0.33182  1.0000
  Fe  Fe46      1.0  0.24772  0.63354  0.45974  1.0000
  S   S100      1.0  0.25213  0.60388  0.46631  1.0000
  S   S101      1.0  0.22164  0.64499  0.44892  1.0000
  Fe  Fe47      1.0  0.28555  0.63824  0.46711  1.0000
  S   S102      1.0  0.29193  0.60829  0.47439  1.0000
  S   S103      1.0  0.30944  0.65332  0.46849  1.0000
  Fe  Fe48      1.0  0.27904  0.60550  0.45056  1.0000
  S   S104      1.0  0.29176  0.58627  0.43078  1.0000
  H   H615      1.0  0.16380  0.55571  0.41891  1.0000
  S   S105      1.0  0.27425  0.63512  0.44228  1.0000
  C   C764      1.0  0.21363  0.51226  0.47883  1.0000
  C   C765      1.0  0.01920  0.61395  0.47060  1.0000
  C   C766      1.0  0.12265  0.50491  0.47383  1.0000
  Fe  Fe49      1.0  0.25804  0.52684  0.37021  1.0000
  S   S106      1.0  0.28523  0.51109  0.36454  1.0000
  S   S107      1.0  0.24643  0.54546  0.39088  1.0000
  Fe  Fe50      1.0  0.24223  0.51160  0.34224  1.0000
  H   H616      1.0  0.48862  0.70035  0.32822  1.0000
  H   H617      1.0  0.37467  0.61240  0.25173  1.0000
  H   H618      1.0  0.46678  0.80181  0.49168  1.0000
  H   H619      1.0  0.40208  0.94152  0.43134  1.0000
  Fe  Fe51      1.0  0.28185  0.51858  0.33534  1.0000
  H   H620      1.0  0.00633  0.53683  0.35818  1.0000
  H   H621      1.0  0.49480  0.83234  0.38786  1.0000
  S   S108      1.0  0.25556  0.53595  0.34135  1.0000
  Fe  Fe52      1.0  0.38436  0.77293  0.47005  1.0000
  S   S109      1.0  0.41060  0.75798  0.47688  1.0000
  S   S110      1.0  0.38437  0.80300  0.46058  1.0000
  Fe  Fe53      1.0  0.36793  0.73741  0.47205  1.0000
  S   S111      1.0  0.39342  0.72071  0.47901  1.0000
  S   S112      1.0  0.34186  0.72668  0.46887  1.0000
  H   H622      1.0  0.46795  0.67771  0.32614  1.0000
  Fe  Fe54      1.0  0.40755  0.73948  0.45786  1.0000
  S   S113      1.0  0.43281  0.72882  0.44092  1.0000
  H   H623      1.0  0.42394  0.85116  0.36836  1.0000
  S   S114      1.0  0.38220  0.75511  0.44961  1.0000
  C   C767      1.0  0.37394  0.82296  0.48903  1.0000
  C   C768      1.0  0.16117  0.56949  0.49159  1.0000
  C   C769      1.0  0.26304  0.70910  0.48187  1.0000
  C   C770      1.0  0.25428  0.53641  0.45416  1.0000
  C   C771      1.0  0.29320  0.55869  0.47307  1.0000
  H   H624      1.0  0.02400  0.57757  0.38460  1.0000
  H   H625      1.0  0.39208  0.86543  0.46246  1.0000
  S   S115      1.0  0.46488  0.76386  0.36441  1.0000
  C   C772      1.0  0.18140  0.50633  0.28701  1.0000
  C   C773      1.0  0.44143  0.73924  0.41985  1.0000
  C   C774      1.0  0.45903  0.73347  0.41278  1.0000
  C   C775      1.0  0.46635  0.74102  0.39588  1.0000
  C   C776      1.0  0.45603  0.75425  0.38577  1.0000
  C   C777      1.0  0.43838  0.75996  0.39276  1.0000
  C   C778      1.0  0.43115  0.75264  0.40985  1.0000
  H   H626      1.0  0.46704  0.72309  0.42041  1.0000
  H   H627      1.0  0.47994  0.73652  0.39065  1.0000
  H   H628      1.0  0.43031  0.77017  0.38500  1.0000
  H   H629      1.0  0.41754  0.75710  0.41514  1.0000
  C   C779      1.0  0.44161  0.64854  0.40429  1.0000
  H   H630      1.0  0.46467  0.63799  0.41740  1.0000
  C   C780      1.0  0.34151  0.52598  0.27141  1.0000
  H   H631      1.0  0.47209  0.77607  0.41265  1.0000
  C   C781      1.0  0.31959  0.52193  0.29828  1.0000
  H   H632      1.0  0.44495  0.70998  0.47362  1.0000
  H   H633      1.0  0.16690  0.57510  0.47850  1.0000
  C   C782      1.0  0.41875  0.80324  0.34197  1.0000
  C   C783      1.0  0.06435  0.55708  0.44880  1.0000
  C   C784      1.0  0.13105  0.51524  0.48267  1.0000
  C   C785      1.0  0.21726  0.55081  0.47516  1.0000
  C   C786      1.0  0.31845  0.67394  0.46775  1.0000
  C   C787      1.0  0.30844  0.69072  0.46437  1.0000
  C   C788      1.0  0.31593  0.70656  0.46448  1.0000
  C   C789      1.0  0.33367  0.70605  0.46772  1.0000
  C   C790      1.0  0.34384  0.68925  0.47074  1.0000
  C   C791      1.0  0.33626  0.67340  0.47082  1.0000
  H   H634      1.0  0.29491  0.69153  0.46163  1.0000
  H   H635      1.0  0.30785  0.71935  0.46208  1.0000
  C   C792      1.0  0.43198  0.87407  0.37626  1.0000
  H   H636      1.0  0.45964  0.94529  0.47874  1.0000
  C   C793      1.0  0.27899  0.57527  0.41955  1.0000
  C   C794      1.0  0.26041  0.57692  0.42329  1.0000
  C   C795      1.0  0.25066  0.56786  0.41426  1.0000
  C   C796      1.0  0.25934  0.55697  0.40148  1.0000
  C   C797      1.0  0.27792  0.55544  0.39760  1.0000
  C   C798      1.0  0.28769  0.56458  0.40660  1.0000
  H   H637      1.0  0.25354  0.58509  0.43321  1.0000
  H   H638      1.0  0.23634  0.56924  0.41733  1.0000
  H   H639      1.0  0.28477  0.54718  0.38774  1.0000
  H   H640      1.0  0.30206  0.56330  0.40358  1.0000
  C   C799      1.0  0.16981  0.54238  0.44455  1.0000
  S   S116      1.0  0.09555  0.55564  0.48214  1.0000
  H   H641      1.0  0.19560  0.55786  0.40706  1.0000
  C   C800      1.0  0.42793  0.83788  0.33578  1.0000
  C   C801      1.0  0.00502  0.62364  0.46210  1.0000
  C   C802      1.0  0.16752  0.62502  0.47032  1.0000
  C   C803      1.0  0.17186  0.63081  0.45219  1.0000
  C   C804      1.0  0.18851  0.63676  0.44581  1.0000
  C   C805      1.0  0.20124  0.63642  0.45734  1.0000
  C   C806      1.0  0.19707  0.63021  0.47541  1.0000
  C   C807      1.0  0.18023  0.62472  0.48187  1.0000
  H   H642      1.0  0.16212  0.63136  0.44321  1.0000
  H   H643      1.0  0.19138  0.64192  0.43192  1.0000
  S   S117      1.0  0.49667  0.66798  0.25743  1.0000
  S   S118      1.0  0.21872  0.51102  0.32735  1.0000
  C   C808      1.0  0.11142  0.52964  0.41065  1.0000
  C   C809      1.0  0.11283  0.53678  0.42606  1.0000
  C   C810      1.0  0.11842  0.55364  0.42477  1.0000
  C   C811      1.0  0.12277  0.56336  0.40805  1.0000
  C   C812      1.0  0.12177  0.55602  0.39267  1.0000
  C   C813      1.0  0.11640  0.53909  0.39398  1.0000
  H   H644      1.0  0.10915  0.52953  0.43903  1.0000
  H   H645      1.0  0.11920  0.55911  0.43675  1.0000
  H   H646      1.0  0.12514  0.56342  0.37970  1.0000
  H   H647      1.0  0.11645  0.53331  0.38204  1.0000
  C   C814      1.0  0.15759  0.52124  0.33240  1.0000
  C   C815      1.0  0.16831  0.53167  0.31988  1.0000
  C   C816      1.0  0.18688  0.52923  0.31947  1.0000
  C   C817      1.0  0.46741  0.73586  0.49228  1.0000
  C   C818      1.0  0.45331  0.72759  0.48918  1.0000
  C   C819      1.0  0.02354  0.60676  0.40270  1.0000
  H   H648      1.0  0.16229  0.54113  0.30980  1.0000
  H   H649      1.0  0.19491  0.53663  0.30891  1.0000
  C   C820      1.0  0.34695  0.53854  0.32332  1.0000
  C   C821      1.0  0.45978  0.64627  0.40593  1.0000
  C   C822      1.0  0.16567  0.50899  0.34538  1.0000
  H   H650      1.0  0.10852  0.50822  0.47284  1.0000
  C   C823      1.0  0.36396  0.53013  0.32625  1.0000
  C   C824      1.0  0.02514  0.51535  0.34846  1.0000
  C   C825      1.0  0.00799  0.52469  0.35213  1.0000
  H   H651      1.0  0.31273  0.67567  0.34441  1.0000
  H   H652      1.0  0.00259  0.51190  0.39122  1.0000
  H   H653      1.0  0.41847  0.87995  0.38032  1.0000
  H   H654      1.0  0.49435  0.98392  0.40306  1.0000
  H   H655      1.0  0.39904  0.55990  0.32340  1.0000
  H   H656      1.0  0.44731  0.56105  0.25452  1.0000
  H   H657      1.0  0.44214  0.67544  0.36468  1.0000
  C   C826      1.0  0.45652  0.73362  0.34035  1.0000
  C   C827      1.0  0.38213  0.82242  0.47148  1.0000
  C   C828      1.0  0.38850  0.83794  0.46198  1.0000
  C   C829      1.0  0.38724  0.85360  0.47001  1.0000
  C   C830      1.0  0.40158  0.52036  0.27872  1.0000
  C   C831      1.0  0.47759  0.70714  0.33625  1.0000
  H   H658      1.0  0.39426  0.83793  0.44823  1.0000
  H   H659      1.0  0.01672  0.57928  0.46122  1.0000
  C   C832      1.0  0.46314  0.91720  0.40044  1.0000
  C   C833      1.0  0.44578  0.91893  0.40946  1.0000
  C   C834      1.0  0.44279  0.91376  0.42786  1.0000
  C   C835      1.0  0.45715  0.90694  0.43723  1.0000
  C   C836      1.0  0.47449  0.90533  0.42824  1.0000
  C   C837      1.0  0.47754  0.91056  0.40985  1.0000
  H   H660      1.0  0.43465  0.92421  0.40220  1.0000
  H   H661      1.0  0.42939  0.91503  0.43477  1.0000
  H   H662      1.0  0.48553  0.90016  0.43560  1.0000
  H   H663      1.0  0.49224  0.99644  0.47179  1.0000
  C   C838      1.0  0.44994  0.72559  0.35719  1.0000
  C   C839      1.0  0.45532  0.96058  0.45340  1.0000
  C   C840      1.0  0.26383  0.62736  0.38322  1.0000
  H   H664      1.0  0.06795  0.51921  0.40645  1.0000
  H   H665      1.0  0.43166  0.85124  0.33287  1.0000
  H   H666      1.0  0.34663  0.53441  0.25970  1.0000
  C   C841      1.0  0.43291  0.78980  0.44858  1.0000
  C   C842      1.0  0.44858  0.77778  0.44862  1.0000
  C   C843      1.0  0.46499  0.78421  0.44681  1.0000
  C   C844      1.0  0.46575  0.80259  0.44451  1.0000
  C   C845      1.0  0.45002  0.81471  0.44398  1.0000
  C   C846      1.0  0.43356  0.80812  0.44685  1.0000
  P   P26       1.0  0.45100  0.83839  0.44155  1.0000
  C   C847      1.0  0.43223  0.85155  0.43212  1.0000
  C   C848      1.0  0.45235  0.84299  0.46359  1.0000
  C   C849      1.0  0.46891  0.84059  0.46998  1.0000
  C   C850      1.0  0.46981  0.84282  0.48757  1.0000
  S   S119      1.0  0.25839  0.63914  0.48393  1.0000
  H   H667      1.0  0.20720  0.59604  0.46942  1.0000
  C   C851      1.0  0.43673  0.84733  0.47509  1.0000
  C   C852      1.0  0.42361  0.84476  0.42020  1.0000
  C   C853      1.0  0.40880  0.85487  0.41329  1.0000
  C   C854      1.0  0.40304  0.87212  0.41758  1.0000
  C   C855      1.0  0.41225  0.87936  0.42853  1.0000
  C   C856      1.0  0.42680  0.86913  0.43580  1.0000
  C   C857      1.0  0.47000  0.84420  0.42608  1.0000
  C   C858      1.0  0.47587  0.83480  0.41148  1.0000
  Fe  Fe55      1.0  0.26436  0.60918  0.48952  1.0000
  H   H668      1.0  0.31395  0.54081  0.46031  1.0000
  H   H669      1.0  0.49887  0.93274  0.43461  1.0000
  C   C859      1.0  0.47822  0.85893  0.42776  1.0000
  H   H670      1.0  0.42014  0.78499  0.44967  1.0000
  H   H671      1.0  0.44796  0.76353  0.44993  1.0000
  H   H672      1.0  0.47714  0.77491  0.44683  1.0000
  H   H673      1.0  0.47858  0.80734  0.44301  1.0000
  H   H674      1.0  0.42114  0.81703  0.44757  1.0000
  H   H675      1.0  0.48111  0.83693  0.46140  1.0000
  H   H676      1.0  0.17936  0.53069  0.46899  1.0000
  H   H677      1.0  0.39756  0.81373  0.32623  1.0000
  H   H678      1.0  0.48505  0.98809  0.34993  1.0000
  H   H679      1.0  0.42379  0.84879  0.47060  1.0000
  H   H680      1.0  0.42812  0.83160  0.41640  1.0000
  H   H681      1.0  0.40177  0.84932  0.40466  1.0000
  H   H682      1.0  0.39151  0.87995  0.41232  1.0000
  H   H683      1.0  0.40802  0.89286  0.43151  1.0000
  H   H684      1.0  0.43376  0.87499  0.44430  1.0000
  H   H685      1.0  0.46913  0.82398  0.40948  1.0000
  C   C860      1.0  0.43033  0.50250  0.27312  1.0000
  H   H686      1.0  0.40589  0.84441  0.32048  1.0000
  C   C861      1.0  0.48695  0.72108  0.46947  1.0000
  H   H687      1.0  0.47329  0.86696  0.43843  1.0000
  C   C862      1.0  0.45597  0.71624  0.47611  1.0000
  H   H688      1.0  0.30629  0.65150  0.36843  1.0000
  C   C863      1.0  0.28424  0.64022  0.33718  1.0000
  C   C864      1.0  0.47044  0.72445  0.32994  1.0000
  S   S120      1.0  0.09767  0.60901  0.47764  1.0000
  C   C865      1.0  0.43879  0.51695  0.27493  1.0000
  H   H689      1.0  0.39207  0.52869  0.31745  1.0000
  C   C866      1.0  0.37920  0.85409  0.48759  1.0000
  C   C867      1.0  0.19519  0.51667  0.33190  1.0000
  C   C868      1.0  0.41342  0.83403  0.32864  1.0000
  C   C869      1.0  0.43765  0.84957  0.49264  1.0000
  H   H690      1.0  0.15591  0.54156  0.44973  1.0000
  H   H691      1.0  0.47470  0.70420  0.45609  1.0000
  C   C870      1.0  0.01218  0.60568  0.41891  1.0000
  C   C871      1.0  0.46471  0.94773  0.46474  1.0000
  S   S121      1.0  0.46714  0.59049  0.24726  1.0000
  C   C872      1.0  0.02848  0.52498  0.43322  1.0000
  C   C873      1.0  0.27879  0.56031  0.48651  1.0000
  C   C874      1.0  0.04660  0.51983  0.42823  1.0000
  H   H692      1.0  0.21914  0.54655  0.42563  1.0000
  H   H693      1.0  0.20580  0.57016  0.45478  1.0000
  H   H694      1.0  0.43240  0.64213  0.41454  1.0000
  H   H695      1.0  0.12341  0.52661  0.48833  1.0000
  C   C875      1.0  0.40827  0.56764  0.31457  1.0000
  H   H696      1.0  0.48570  0.65262  0.39419  1.0000
  H   H697      1.0  0.27143  0.57331  0.48832  1.0000
  C   C876      1.0  0.21094  0.56800  0.46743  1.0000
  H   H698      1.0  0.49057  0.80934  0.36546  1.0000
  C   C877      1.0  0.27399  0.52240  0.43094  1.0000
  C   C878      1.0  0.08364  0.63898  0.39893  1.0000
  C   C879      1.0  0.01735  0.53263  0.42037  1.0000
  C   C880      1.0  0.41900  0.57709  0.32192  1.0000
  C   C881      1.0  0.42183  0.57842  0.28501  1.0000
  C   C882      1.0  0.05481  0.52182  0.49161  1.0000
  H   H699      1.0  0.43554  0.54387  0.28055  1.0000
  C   C883      1.0  0.48332  0.79261  0.38975  1.0000
  H   H700      1.0  0.17945  0.50525  0.39991  1.0000
  C   C884      1.0  0.32710  0.61141  0.41056  1.0000
  C   C885      1.0  0.25055  0.63881  0.37480  1.0000
  C   C886      1.0  0.42866  0.53304  0.27886  1.0000
  H   H701      1.0  0.29144  0.64080  0.39923  1.0000
  H   H702      1.0  0.39415  0.54764  0.25001  1.0000
  H   H703      1.0  0.08490  0.59409  0.40217  1.0000
  H   H704      1.0  0.28163  0.54076  0.44601  1.0000
  H   H705      1.0  0.06000  0.65812  0.39785  1.0000
  C   C887      1.0  0.37900  0.53563  0.31526  1.0000
  C   C888      1.0  0.19819  0.52288  0.38651  1.0000
  C   C889      1.0  0.16838  0.54805  0.38168  1.0000
  C   C890      1.0  0.18538  0.55238  0.37441  1.0000
  C   C891      1.0  0.20037  0.53978  0.37720  1.0000
  P   P27       1.0  0.18790  0.57470  0.36367  1.0000
  C   C892      1.0  0.16785  0.58358  0.35387  1.0000
  C   C893      1.0  0.19204  0.58675  0.38083  1.0000
  C   C894      1.0  0.17784  0.59329  0.39301  1.0000
  C   C895      1.0  0.18105  0.60158  0.40704  1.0000
  C   C896      1.0  0.19851  0.60329  0.40912  1.0000
  C   C897      1.0  0.21276  0.59649  0.39728  1.0000
  C   C898      1.0  0.20960  0.58796  0.38339  1.0000
  C   C899      1.0  0.15972  0.60116  0.35514  1.0000
  C   C900      1.0  0.14372  0.60739  0.34816  1.0000
  C   C901      1.0  0.13592  0.59624  0.33963  1.0000
  C   C902      1.0  0.14424  0.57891  0.33784  1.0000
  C   C903      1.0  0.16022  0.57266  0.34476  1.0000
  C   C904      1.0  0.20554  0.57481  0.34518  1.0000
  C   C905      1.0  0.20983  0.56021  0.33556  1.0000
  C   C906      1.0  0.22290  0.56057  0.32069  1.0000
  C   C907      1.0  0.23189  0.57547  0.31540  1.0000
  C   C908      1.0  0.22751  0.59021  0.32475  1.0000
  C   C909      1.0  0.21419  0.59000  0.33945  1.0000
  H   H706      1.0  0.15676  0.55792  0.38063  1.0000
  H   H707      1.0  0.21370  0.54310  0.37251  1.0000
  H   H708      1.0  0.16428  0.59169  0.39186  1.0000
  H   H709      1.0  0.16997  0.60653  0.41642  1.0000
  H   H710      1.0  0.20099  0.60966  0.42006  1.0000
  H   H711      1.0  0.22631  0.59756  0.39905  1.0000
  H   H712      1.0  0.22089  0.58196  0.37497  1.0000
  H   H713      1.0  0.16556  0.61001  0.36164  1.0000
  H   H714      1.0  0.13725  0.62082  0.34955  1.0000
  H   H715      1.0  0.12343  0.60101  0.33441  1.0000
  H   H716      1.0  0.13824  0.57017  0.33125  1.0000
  H   H717      1.0  0.16642  0.55914  0.34334  1.0000
  H   H718      1.0  0.20307  0.54855  0.33949  1.0000
  H   H719      1.0  0.22622  0.54911  0.31345  1.0000
  H   H720      1.0  0.24223  0.57556  0.30404  1.0000
  H   H721      1.0  0.23434  0.60184  0.32053  1.0000
  H   H722      1.0  0.21060  0.60168  0.34629  1.0000
  C   C910      1.0  0.49880  0.85387  0.40121  1.0000
  H   H723      1.0  0.04012  0.63580  0.39821  1.0000
  H   H724      1.0  0.36544  0.51906  0.33678  1.0000
  C   C911      1.0  0.34497  0.55256  0.30951  1.0000
  C   C912      1.0  0.35996  0.55805  0.29842  1.0000
  C   C913      1.0  0.45268  0.85053  0.36348  1.0000
  H   H725      1.0  0.19288  0.52665  0.49581  1.0000
  H   H726      1.0  0.45249  0.70276  0.37702  1.0000
  C   C914      1.0  0.45722  0.70835  0.36361  1.0000
  C   C915      1.0  0.28402  0.52847  0.49616  1.0000
  H   H727      1.0  0.45322  0.51567  0.27335  1.0000
  C   C916      1.0  0.32644  0.53259  0.28284  1.0000
  C   C917      1.0  0.02648  0.64095  0.44288  1.0000
  H   H728      1.0  0.35796  0.56852  0.28747  1.0000
  H   H729      1.0  0.44373  0.89521  0.38369  1.0000
  C   C918      1.0  0.05497  0.57381  0.45134  1.0000
  C   C919      1.0  0.23391  0.64367  0.38444  1.0000
  C   C920      1.0  0.39848  0.98387  0.40980  1.0000
  C   C921      1.0  0.30282  0.54196  0.47083  1.0000
  H   H730      1.0  0.07570  0.53925  0.42972  1.0000
  C   C922      1.0  0.19208  0.55157  0.42044  1.0000
  C   C923      1.0  0.41174  0.50418  0.27515  1.0000
  H   H731      1.0  0.20973  0.51340  0.38907  1.0000
  C   C924      1.0  0.24016  0.52810  0.45089  1.0000
  Fe  Fe56      1.0  0.39127  0.89832  0.49025  1.0000
  H   H732      1.0  0.43966  0.73303  0.36555  1.0000
  C   C925      1.0  0.21173  0.58283  0.47570  1.0000
  H   H733      1.0  0.31024  0.60428  0.34381  1.0000
  C   C926      1.0  0.20549  0.54509  0.43111  1.0000
  H   H734      1.0  0.06485  0.55912  0.40424  1.0000
  H   H735      1.0  0.05517  0.51388  0.43817  1.0000
  H   H736      1.0  0.27002  0.61174  0.40803  1.0000
  C   C927      1.0  0.17424  0.55031  0.42713  1.0000
  H   H737      1.0  0.25302  0.64416  0.36092  1.0000
  H   H738      1.0  0.06982  0.54853  0.45982  1.0000
  P   P28       1.0  0.44938  0.98076  0.42109  1.0000
  C   C928      1.0  0.49031  0.83956  0.39916  1.0000
  C   C929      1.0  0.40996  0.53492  0.28067  1.0000
  C   C930      1.0  0.02711  0.49968  0.34059  1.0000
  C   C931      1.0  0.06156  0.56331  0.41733  1.0000
  C   C932      1.0  0.47264  0.97055  0.37131  1.0000
  H   H739      1.0  0.33170  0.55865  0.30698  1.0000
  C   C933      1.0  0.46371  0.87524  0.37298  1.0000
  H   H740      1.0  0.43461  0.81432  0.38612  1.0000
  C   C934      1.0  0.46532  0.66583  0.37815  1.0000
  H   H741      1.0  0.30955  0.57796  0.32882  1.0000
  H   H742      1.0  0.45948  0.99742  0.47767  1.0000
  C   C935      1.0  0.22436  0.54870  0.49130  1.0000
  C   C936      1.0  0.24317  0.51709  0.43737  1.0000
  C   C937      1.0  0.16624  0.53101  0.39055  1.0000
  C   C938      1.0  0.38979  0.56911  0.26635  1.0000
  C   C939      1.0  0.38997  0.56173  0.25065  1.0000
  C   C940      1.0  0.07044  0.57436  0.35599  1.0000
  C   C941      1.0  0.05217  0.58022  0.41974  1.0000
  H   H743      1.0  0.31363  0.63557  0.42027  1.0000
  C   C942      1.0  0.37712  0.54955  0.30116  1.0000
  C   C943      1.0  0.38415  0.58745  0.26666  1.0000
  C   C944      1.0  0.20008  0.51373  0.49331  1.0000
  Fe  Fe57      1.0  0.49361  0.75396  0.35453  1.0000
  C   C945      1.0  0.27053  0.57681  0.35655  1.0000
  H   H744      1.0  0.45131  0.74724  0.33573  1.0000
  H   H745      1.0  0.02939  0.56175  0.35819  1.0000
  C   C946      1.0  0.18114  0.51838  0.39288  1.0000
  H   H746      1.0  0.02313  0.52324  0.44712  1.0000
  C   C947      1.0  0.49807  0.64664  0.34621  1.0000
  C   C948      1.0  0.30109  0.65194  0.35603  1.0000
  C   C949      1.0  0.20120  0.53729  0.44871  1.0000
  C   C950      1.0  0.43764  0.82454  0.34651  1.0000
  H   H747      1.0  0.15302  0.52772  0.39585  1.0000
  C   C951      1.0  0.27214  0.71753  0.49195  1.0000
  H   H748      1.0  0.38379  0.59338  0.27869  1.0000
  C   C952      1.0  0.18320  0.53607  0.45537  1.0000
  C   C953      1.0  0.05057  0.58529  0.38105  1.0000
  H   H749      1.0  0.41796  0.57656  0.33624  1.0000
  H   H750      1.0  0.01677  0.54193  0.39218  1.0000
  H   H751      1.0  0.08353  0.57290  0.34822  1.0000
  H   H752      1.0  0.14816  0.55077  0.48164  1.0000
  H   H753      1.0  0.20661  0.63010  0.48448  1.0000
  P   P29       1.0  0.39661  0.55547  0.28617  1.0000
  H   H754      1.0  0.23244  0.51096  0.43429  1.0000
  P   P30       1.0  0.21819  0.53190  0.46342  1.0000
  C   C954      1.0  0.47968  0.80558  0.37537  1.0000
  C   C955      1.0  0.43326  0.80707  0.34912  1.0000
  H   H755      1.0  0.47464  0.77278  0.48030  1.0000
  H   H756      1.0  0.42126  0.66072  0.38806  1.0000
  C   C956      1.0  0.05386  0.52279  0.41039  1.0000
  H   H757      1.0  0.04764  0.61015  0.47197  1.0000
  H   H758      1.0  0.47746  0.79955  0.33812  1.0000
  H   H759      1.0  0.48748  0.92759  0.46676  1.0000
  C   C957      1.0  0.02482  0.53574  0.40246  1.0000
  C   C958      1.0  0.28800  0.65402  0.32355  1.0000
  H   H760      1.0  0.49099  0.90942  0.40296  1.0000
  C   C959      1.0  0.26002  0.51425  0.42748  1.0000
  H   H761      1.0  0.04375  0.59902  0.43850  1.0000
  H   H762      1.0  0.43175  0.94863  0.43403  1.0000
  H   H763      1.0  0.33721  0.58743  0.39883  1.0000
  C   C960      1.0  0.05420  0.63136  0.39827  1.0000
  C   C961      1.0  0.48681  0.94066  0.43987  1.0000
  H   H764      1.0  0.02544  0.61767  0.37480  1.0000
  H   H765      1.0  0.03892  0.54696  0.49510  1.0000
  C   C962      1.0  0.43533  0.65904  0.38939  1.0000
  C   C963      1.0  0.04062  0.63138  0.45159  1.0000
  C   C964      1.0  0.46941  0.78709  0.40236  1.0000
  C   C965      1.0  0.48223  0.65485  0.31493  1.0000
  C   C966      1.0  0.04308  0.53106  0.39763  1.0000
  H   H766      1.0  0.05908  0.55913  0.34013  1.0000
  C   C967      1.0  0.32796  0.50445  0.30203  1.0000
  C   C968      1.0  0.29075  0.63905  0.35355  1.0000
  C   C969      1.0  0.44623  0.88270  0.37819  1.0000
  C   C970      1.0  0.47076  0.69879  0.35292  1.0000
  H   H767      1.0  0.25244  0.54547  0.46403  1.0000
  H   H768      1.0  0.28289  0.65487  0.31099  1.0000
  H   H769      1.0  0.47589  0.95900  0.36420  1.0000
  C   C971      1.0  0.35004  0.50860  0.27533  1.0000
  S   S122      1.0  0.37923  0.96434  0.46187  1.0000
  P   P31       1.0  0.48050  0.67662  0.36102  1.0000
  C   C972      1.0  0.48177  0.81182  0.33087  1.0000
  H   H770      1.0  0.26213  0.50630  0.41666  1.0000
  H   H771      1.0  0.28688  0.52066  0.42285  1.0000
  C   C973      1.0  0.45979  0.98361  0.39818  1.0000
  H   H772      1.0  0.44114  0.79083  0.41091  1.0000
  S   S123      1.0  0.36811  0.75667  0.49198  1.0000
  H   H773      1.0  0.05318  0.57821  0.46436  1.0000
  H   H774      1.0  0.32014  0.54613  0.27977  1.0000
  H   H775      1.0  0.39686  0.98388  0.48383  1.0000
  C   C974      1.0  0.47768  0.98697  0.36322  1.0000
  C   C975      1.0  0.04942  0.58551  0.43676  1.0000
  H   H776      1.0  0.27613  0.63053  0.33498  1.0000
  H   H777      1.0  0.49683  0.78632  0.39078  1.0000
  H   H778      1.0  0.47130  0.88916  0.49484  1.0000
  H   H779      1.0  0.17477  0.50242  0.44110  1.0000
  C   C976      1.0  0.03686  0.61772  0.46536  1.0000
  H   H780      1.0  0.35747  0.68845  0.47328  1.0000
  C   C977      1.0  0.49479  0.81090  0.31600  1.0000
  C   C978      1.0  0.15068  0.55574  0.49338  1.0000
  H   H781      1.0  0.20271  0.51055  0.42350  1.0000
  C   C979      1.0  0.03695  0.57708  0.37656  1.0000
  P   P32       1.0  0.45691  0.82938  0.35488  1.0000
  C   C980      1.0  0.23042  0.63710  0.40246  1.0000
  C   C981      1.0  0.41537  0.98796  0.41111  1.0000
  C   C982      1.0  0.29911  0.59666  0.34751  1.0000
  C   C983      1.0  0.49878  0.68585  0.38634  1.0000
  H   H782      1.0  0.25642  0.71678  0.47110  1.0000
  H   H783      1.0  0.29706  0.57043  0.46450  1.0000
  H   H784      1.0  0.01647  0.60349  0.48139  1.0000
  C   C984      1.0  0.24343  0.62543  0.41080  1.0000
  H   H785      1.0  0.44113  0.79630  0.35649  1.0000
  C   C985      1.0  0.47276  0.71299  0.46624  1.0000
  C   C986      1.0  0.46205  0.81323  0.37369  1.0000
  C   C987      1.0  0.48186  0.77582  0.49028  1.0000
  C   C988      1.0  0.43265  0.58769  0.29238  1.0000
  C   C989      1.0  0.43123  0.58704  0.31084  1.0000
  C   C990      1.0  0.40967  0.56818  0.29604  1.0000
  H   H786      1.0  0.01656  0.59835  0.43092  1.0000
  C   C991      1.0  0.28446  0.57194  0.34344  1.0000
  C   C992      1.0  0.06741  0.58373  0.37071  1.0000
  H   H787      1.0  0.44232  0.59516  0.28372  1.0000
  H   H788      1.0  0.45968  0.95609  0.39467  1.0000
  C   C993      1.0  0.30481  0.66574  0.34237  1.0000
  S   S124      1.0  0.36952  0.49961  0.26187  1.0000
  H   H789      1.0  0.05510  0.52382  0.47729  1.0000
  P   P33       1.0  0.28554  0.62125  0.37113  1.0000
  C   C994      1.0  0.03993  0.56805  0.36164  1.0000
  H   H790      1.0  0.43972  0.59416  0.31652  1.0000
  H   H791      1.0  0.22378  0.65276  0.37804  1.0000
  C   C995      1.0  0.06776  0.55192  0.43180  1.0000
  H   H792      1.0  0.21773  0.64120  0.41008  1.0000
  H   H793      1.0  0.38895  0.99376  0.40343  1.0000
  H   H794      1.0  0.47417  0.85711  0.32985  1.0000
  C   C996      1.0  0.39377  0.96707  0.41698  1.0000
  C   C997      1.0  0.26005  0.62058  0.40123  1.0000
  H   H795      1.0  0.30602  0.51401  0.48065  1.0000
  C   C998      1.0  0.05669  0.56660  0.35141  1.0000
  H   H796      1.0  0.24076  0.62040  0.42481  1.0000
  H   H797      1.0  0.36846  0.81136  0.49634  1.0000
  C   C999      1.0  0.38132  0.98727  0.46214  1.0000
  H   H798      1.0  0.38052  0.96400  0.41644  1.0000
  C   C1000     1.0  0.39039  0.99344  0.47418  1.0000
  H   H799      1.0  0.48061  0.85357  0.36175  1.0000
  C   C1001     1.0  0.29814  0.52683  0.48222  1.0000
  H   H800      1.0  0.07833  0.58948  0.37397  1.0000
  C   C1002     1.0  0.49269  0.86363  0.41540  1.0000
  P   P34       1.0  0.04654  0.59623  0.40087  1.0000
  C   C1003     1.0  0.45195  0.79527  0.40123  1.0000
  C   C1004     1.0  0.29876  0.58184  0.33895  1.0000
  C   C1005     1.0  0.06547  0.64419  0.39804  1.0000
  C   C1006     1.0  0.43517  0.85789  0.36922  1.0000
  H   H801      1.0  0.09225  0.64889  0.39929  1.0000
  C   C1007     1.0  0.47446  0.82841  0.33633  1.0000
  C   C1008     1.0  0.47165  0.65472  0.39281  1.0000
  H   H802      1.0  0.42321  0.57902  0.27067  1.0000
  C   C1009     1.0  0.46155  0.96349  0.43513  1.0000
  C   C1010     1.0  0.30159  0.62928  0.39872  1.0000
  C   C1011     1.0  0.00880  0.63706  0.44802  1.0000
  H   H803      1.0  0.30114  0.67753  0.31561  1.0000
  H   H804      1.0  0.26019  0.59468  0.37574  1.0000
  H   H805      1.0  0.27260  0.73178  0.48897  1.0000
  H   H806      1.0  0.25950  0.56904  0.36010  1.0000
  C   C1012     1.0  0.09056  0.62094  0.40007  1.0000
  H   H807      1.0  0.33650  0.60896  0.42016  1.0000
  C   C1013     1.0  0.06105  0.61315  0.39936  1.0000
  C   C1014     1.0  0.07932  0.60805  0.40053  1.0000
  C   C1015     1.0  0.42751  0.97540  0.41998  1.0000
  H   H808      1.0  0.31527  0.59233  0.37773  1.0000
  C   C1016     1.0  0.27095  0.59145  0.36535  1.0000
  H   H809      1.0  0.10458  0.61687  0.40113  1.0000
  C   C1017     1.0  0.31496  0.60216  0.38653  1.0000
  H   H810      1.0  0.04904  0.53402  0.38399  1.0000
  C   C1018     1.0  0.28522  0.60157  0.36080  1.0000
  S   S125      1.0  0.30147  0.53154  0.31303  1.0000
  H   H811      1.0  0.48252  0.95513  0.41449  1.0000
  C   C1019     1.0  0.30190  0.61721  0.38652  1.0000
  H   H812      1.0  0.44306  0.96810  0.45884  1.0000
  C   C1020     1.0  0.47994  0.84409  0.32636  1.0000
  S   S126      1.0  0.24311  0.50341  0.37135  1.0000
  H   H813      1.0  0.34428  0.66059  0.47335  1.0000
  C   C1021     1.0  0.40594  0.95437  0.42546  1.0000
  C   C1022     1.0  0.42269  0.95855  0.42712  1.0000
  C   C1023     1.0  0.31417  0.62640  0.41065  1.0000
  C   C1024     1.0  0.47739  0.95341  0.42845  1.0000
  C   C1025     1.0  0.32750  0.59931  0.39851  1.0000
  C   C1026     1.0  0.46696  0.85918  0.36568  1.0000
  C   C1027     1.0  0.18445  0.50678  0.34518  1.0000
  H   H814      1.0  0.47638  0.65820  0.30262  1.0000
  C   C1028     1.0  0.29828  0.66679  0.32614  1.0000
  H   H815      1.0  0.17891  0.51959  0.27980  1.0000
  C   C1029     1.0  0.47772  0.66606  0.32820  1.0000
  H   H816      1.0  0.49831  0.63109  0.30681  1.0000
  C   C1030     1.0  0.48595  0.66226  0.34377  1.0000
  H   H817      1.0  0.48916  0.70327  0.26810  1.0000
  H   H818      1.0  0.43545  0.80806  0.49014  1.0000
  H   H819      1.0  0.15364  0.50485  0.29660  1.0000
  Fe  Fe58      1.0  0.09688  0.50417  0.38579  1.0000
  H   H820      1.0  0.43550  0.62054  0.24702  1.0000
  H   H821      1.0  0.25602  0.68404  0.47741  1.0000
  C   C1031     1.0  0.01694  0.61654  0.38747  1.0000
  H   H822      1.0  0.33523  0.53391  0.33144  1.0000
  C   C1032     1.0  0.00666  0.56205  0.44644  1.0000
  H   H823      1.0  0.42616  0.97080  0.49483  1.0000
  C   C1033     1.0  0.21897  0.58070  0.49165  1.0000
  H   H824      1.0  0.15754  0.50083  0.35511  1.0000
  H   H825      1.0  0.38717  0.52145  0.27999  1.0000
  H   H826      1.0  0.47468  0.88207  0.37451  1.0000
  C   C1034     1.0  0.99939  0.62513  0.38850  1.0000
  H   H827      1.0  0.40629  0.79776  0.49127  1.0000
  H   H828      1.0  0.00613  0.50071  0.43550  1.0000
  H   H829      1.0  0.48262  0.84124  0.49237  1.0000
  H   H830      1.0  0.15555  0.51829  0.49177  1.0000
  C   C1035     1.0  0.49839  0.69556  0.27660  1.0000
  C   C1036     1.0  0.49464  0.63956  0.31728  1.0000
  H   H831      1.0  0.27049  0.50410  0.47890  1.0000
  C   C1037     1.0  0.49307  0.84310  0.31158  1.0000
  C   C1038     1.0  0.37892  0.59826  0.25143  1.0000
  H   H832      1.0  0.36578  0.99539  0.44050  1.0000
  Fe  Fe59      1.0  0.49572  0.91855  0.36718  1.0000
  H   H833      1.0  0.17695  0.62045  0.49594  1.0000
  H   H834      1.0  0.20994  0.50459  0.28064  1.0000
  H   H835      1.0  0.00130  0.52389  0.47390  1.0000
  C   C1039     1.0  0.00619  0.57146  0.46079  1.0000
  S   S127      1.0  0.41712  0.93023  0.53257  1.0000
  H   H836      1.0  0.26762  0.52870  0.54327  1.0000
  S   S128      1.0  0.48606  0.92738  0.58008  1.0000
  S   S129      1.0  0.40804  0.50246  0.73643  1.0000
  H   H837      1.0  0.43745  0.94270  0.55511  1.0000
  C   C1040     1.0  0.26930  0.57574  0.61277  1.0000
  C   C1041     1.0  0.01933  0.60287  0.56915  1.0000
  C   C1042     1.0  0.43233  0.80990  0.51833  1.0000
  P   P35       1.0  0.29182  0.67617  0.52732  1.0000
  C   C1043     1.0  0.44714  0.86929  0.59319  1.0000
  C   C1044     1.0  0.49719  0.67589  0.67814  1.0000
  C   C1045     1.0  0.28366  0.54454  0.63250  1.0000
  H   H838      1.0  0.46837  0.63589  0.65418  1.0000
  H   H839      1.0  0.45649  0.53421  0.66203  1.0000
  C   C1046     1.0  0.43614  0.98992  0.53595  1.0000
  H   H840      1.0  0.15998  0.62087  0.53880  1.0000
  H   H841      1.0  0.33577  0.69298  0.56104  1.0000
  H   H842      1.0  0.36211  0.74354  0.69607  1.0000
  Fe  Fe60      1.0  0.09626  0.51900  0.57742  1.0000
  S   S130      1.0  0.09519  0.54745  0.56483  1.0000
  H   H843      1.0  0.13715  0.50404  0.52238  1.0000
  C   C1047     1.0  0.16318  0.57700  0.50656  1.0000
  H   H844      1.0  0.46382  0.98076  0.52683  1.0000
  H   H845      1.0  0.46947  0.94548  0.55274  1.0000
  C   C1048     1.0  0.49073  0.99028  0.60486  1.0000
  C   C1049     1.0  0.29263  0.54432  0.67355  1.0000
  C   C1050     1.0  0.15178  0.56855  0.56290  1.0000
  H   H846      1.0  0.42399  0.67390  0.61014  1.0000
  H   H847      1.0  0.00584  0.58105  0.52914  1.0000
  C   C1051     1.0  0.37245  0.83872  0.49698  1.0000
  Fe  Fe61      1.0  0.28084  0.51716  0.58765  1.0000
  S   S131      1.0  0.29577  0.53790  0.56944  1.0000
  C   C1052     1.0  0.03840  0.60591  0.50938  1.0000
  S   S132      1.0  0.26169  0.52089  0.61247  1.0000
  H   H848      1.0  0.40132  0.98451  0.51517  1.0000
  Fe  Fe62      1.0  0.40934  0.51952  0.71000  1.0000
  C   C1053     1.0  0.38974  0.74769  0.69105  1.0000
  S   S133      1.0  0.43389  0.53333  0.70020  1.0000
  S   S134      1.0  0.48986  0.96701  0.60562  1.0000
  C   C1054     1.0  0.37671  0.72874  0.67545  1.0000
  C   C1055     1.0  0.13455  0.59983  0.54169  1.0000
  S   S135      1.0  0.40314  0.73143  0.52480  1.0000
  C   C1056     1.0  0.49109  0.61619  0.65770  1.0000
  C   C1057     1.0  0.26724  0.66278  0.57788  1.0000
  S   S136      1.0  0.47549  0.79927  0.61264  1.0000
  Fe  Fe63      1.0  0.48325  0.75426  0.57040  1.0000
  H   H849      1.0  0.23939  0.70065  0.56684  1.0000
  S   S137      1.0  0.46897  0.76147  0.54593  1.0000
  C   C1058     1.0  0.05043  0.57473  0.51469  1.0000
  H   H850      1.0  0.24551  0.60834  0.68079  1.0000
  C   C1059     1.0  0.25294  0.67642  0.57961  1.0000
  S   S138      1.0  0.47097  0.75346  0.59896  1.0000
  S   S139      1.0  0.48188  0.63049  0.74164  1.0000
  C   C1060     1.0  0.43898  0.70626  0.66867  1.0000
  Fe  Fe64      1.0  0.49457  0.73299  0.60530  1.0000
  C   C1061     1.0  0.22708  0.51090  0.53085  1.0000
  H   H851      1.0  0.27228  0.64511  0.53316  1.0000
  H   H852      1.0  0.21204  0.52305  0.55311  1.0000
  Fe  Fe65      1.0  0.47506  0.60685  0.73097  1.0000
  H   H853      1.0  0.31149  0.52907  0.51245  1.0000
  H   H854      1.0  0.49277  0.82281  0.58214  1.0000
  C   C1062     1.0  0.39327  0.72454  0.66542  1.0000
  H   H855      1.0  0.47099  0.51853  0.71628  1.0000
  C   C1063     1.0  0.25871  0.51368  0.52547  1.0000
  H   H856      1.0  0.21381  0.52395  0.63639  1.0000
  C   C1064     1.0  0.19615  0.50276  0.60342  1.0000
  H   H857      1.0  0.17956  0.56565  0.56717  1.0000
  H   H858      1.0  0.06180  0.56446  0.51411  1.0000
  C   C1065     1.0  0.00863  0.54419  0.53497  1.0000
  H   H859      1.0  0.33257  0.62674  0.50233  1.0000
  C   C1066     1.0  0.42694  0.80635  0.50274  1.0000
  S   S140      1.0  0.35787  0.51483  0.67749  1.0000
  H   H860      1.0  0.09304  0.52542  0.50880  1.0000
  H   H861      1.0  0.37297  0.53185  0.61201  1.0000
  C   C1067     1.0  0.42146  0.73976  0.53073  1.0000
  C   C1068     1.0  0.42771  0.75517  0.52126  1.0000
  C   C1069     1.0  0.44230  0.76151  0.52614  1.0000
  C   C1070     1.0  0.45076  0.75262  0.54059  1.0000
  C   C1071     1.0  0.44444  0.73732  0.55028  1.0000
  C   C1072     1.0  0.42980  0.73093  0.54533  1.0000
  H   H862      1.0  0.05053  0.57062  0.55071  1.0000
  H   H863      1.0  0.45098  0.73032  0.56136  1.0000
  H   H864      1.0  0.42509  0.71892  0.55259  1.0000
  C   C1073     1.0  0.43809  0.55021  0.71179  1.0000
  C   C1074     1.0  0.45449  0.55697  0.70757  1.0000
  C   C1075     1.0  0.45780  0.57118  0.71577  1.0000
  C   C1076     1.0  0.44462  0.57885  0.72813  1.0000
  H   H865      1.0  0.22082  0.55252  0.67842  1.0000
  C   C1077     1.0  0.42512  0.55754  0.72454  1.0000
  H   H866      1.0  0.15583  0.50584  0.58828  1.0000
  H   H867      1.0  0.47043  0.57639  0.71233  1.0000
  H   H868      1.0  0.46973  0.99181  0.62688  1.0000
  H   H869      1.0  0.41244  0.55241  0.72793  1.0000
  S   S141      1.0  0.25358  0.59530  0.51655  1.0000
  C   C1078     1.0  0.40736  0.57001  0.66254  1.0000
  Fe  Fe66      1.0  0.37412  0.50918  0.70139  1.0000
  P   P36       1.0  0.43669  0.61746  0.66647  1.0000
  C   C1079     1.0  0.19070  0.58369  0.53626  1.0000
  H   H870      1.0  0.28950  0.56838  0.59131  1.0000
  H   H871      1.0  0.38843  0.75644  0.70119  1.0000
  H   H872      1.0  0.21912  0.58396  0.53213  1.0000
  C   C1080     1.0  0.41851  0.99077  0.53249  1.0000
  C   C1081     1.0  0.26577  0.57938  0.53091  1.0000
  C   C1082     1.0  0.25674  0.57194  0.54701  1.0000
  C   C1083     1.0  0.26583  0.55922  0.55887  1.0000
  C   C1084     1.0  0.28408  0.55386  0.55475  1.0000
  C   C1085     1.0  0.29322  0.56147  0.53876  1.0000
  C   C1086     1.0  0.28407  0.57409  0.52679  1.0000
  H   H873      1.0  0.24265  0.57607  0.55044  1.0000
  H   H874      1.0  0.25874  0.55359  0.57125  1.0000
  H   H875      1.0  0.30737  0.55744  0.53555  1.0000
  H   H876      1.0  0.29116  0.57971  0.51443  1.0000
  C   C1087     1.0  0.09613  0.54942  0.54180  1.0000
  C   C1088     1.0  0.09458  0.53473  0.53358  1.0000
  C   C1089     1.0  0.09464  0.53668  0.51514  1.0000
  C   C1090     1.0  0.28400  0.56497  0.60510  1.0000
  C   C1091     1.0  0.09890  0.56769  0.51308  1.0000
  C   C1092     1.0  0.09838  0.56587  0.53158  1.0000
  H   H877      1.0  0.09303  0.52197  0.54142  1.0000
  C   C1093     1.0  0.41867  0.64951  0.65118  1.0000
  H   H878      1.0  0.47495  0.78004  0.64750  1.0000
  H   H879      1.0  0.09979  0.57719  0.53793  1.0000
  H   H880      1.0  0.42844  0.84738  0.53763  1.0000
  H   H881      1.0  0.13231  0.60045  0.51369  1.0000
  H   H882      1.0  0.31083  0.60497  0.51088  1.0000
  C   C1094     1.0  0.03843  0.54612  0.55564  1.0000
  H   H883      1.0  0.28070  0.61432  0.52623  1.0000
  H   H884      1.0  0.42131  0.76222  0.51015  1.0000
  C   C1095     1.0  0.13505  0.56338  0.57007  1.0000
  H   H885      1.0  0.40514  0.67432  0.63944  1.0000
  C   C1096     1.0  0.15518  0.49915  0.54210  1.0000
  H   H886      1.0  0.48242  0.80877  0.51535  1.0000
  H   H887      1.0  0.13414  0.53879  0.51166  1.0000
  C   C1097     1.0  0.45013  0.98213  0.52430  1.0000
  C   C1098     1.0  0.48135  0.54522  0.65509  1.0000
  H   H888      1.0  0.43370  0.80790  0.58585  1.0000
  C   C1099     1.0  0.48151  0.82119  0.60980  1.0000
  C   C1100     1.0  0.47724  0.83051  0.62454  1.0000
  H   H889      1.0  0.17036  0.58844  0.50466  1.0000
  S   S142      1.0  0.38216  0.92436  0.50173  1.0000
  Fe  Fe67      1.0  0.24598  0.50182  0.60351  1.0000
  C   C1101     1.0  0.43987  0.93230  0.53033  1.0000
  C   C1102     1.0  0.45154  0.92733  0.51547  1.0000
  C   C1103     1.0  0.46981  0.92856  0.51428  1.0000
  C   C1104     1.0  0.47648  0.93418  0.52820  1.0000
  C   C1105     1.0  0.46467  0.93992  0.54259  1.0000
  C   C1106     1.0  0.44645  0.93881  0.54372  1.0000
  H   H890      1.0  0.25552  0.53070  0.69929  1.0000
  H   H891      1.0  0.30881  0.52621  0.71218  1.0000
  C   C1107     1.0  0.44679  0.87855  0.60767  1.0000
  H   H892      1.0  0.44255  0.78865  0.64714  1.0000
  C   C1108     1.0  0.26928  0.53294  0.69533  1.0000
  H   H893      1.0  0.44663  0.92206  0.50514  1.0000
  C   C1109     1.0  0.30736  0.61839  0.51433  1.0000
  C   C1110     1.0  0.37335  0.78548  0.55570  1.0000
  C   C1111     1.0  0.11202  0.61888  0.52584  1.0000
  C   C1112     1.0  0.41384  0.72892  0.60637  1.0000
  C   C1113     1.0  0.42761  0.71792  0.59764  1.0000
  C   C1114     1.0  0.44184  0.70936  0.60652  1.0000
  C   C1115     1.0  0.44212  0.71152  0.62423  1.0000
  C   C1116     1.0  0.42814  0.72215  0.63327  1.0000
  C   C1117     1.0  0.41421  0.73125  0.62406  1.0000
  C   C1118     1.0  0.47353  0.75185  0.65025  1.0000
  C   C1119     1.0  0.46237  0.73866  0.65208  1.0000
  H   H894      1.0  0.40314  0.73600  0.59923  1.0000
  H   H895      1.0  0.42745  0.71633  0.58389  1.0000
  H   H896      1.0  0.45290  0.70137  0.59960  1.0000
  H   H897      1.0  0.45343  0.70510  0.63079  1.0000
  H   H898      1.0  0.49484  0.73181  0.52509  1.0000
  H   H899      1.0  0.48783  0.74814  0.64960  1.0000
  H   H900      1.0  0.46821  0.72482  0.65272  1.0000
  H   H901      1.0  0.36528  0.72282  0.67350  1.0000
  H   H902      1.0  0.30888  0.67999  0.55845  1.0000
  H   H903      1.0  0.02891  0.52060  0.56511  1.0000
  C   C1120     1.0  0.23950  0.52745  0.54931  1.0000
  C   C1121     1.0  0.29763  0.50747  0.52733  1.0000
  C   C1122     1.0  0.47102  0.50426  0.71979  1.0000
  H   H904      1.0  0.18735  0.63514  0.53334  1.0000
  H   H905      1.0  0.31741  0.51327  0.63366  1.0000
  C   C1123     1.0  0.42848  0.62541  0.68763  1.0000
  H   H906      1.0  0.21587  0.50531  0.52800  1.0000
  C   C1124     1.0  0.39913  0.79854  0.51947  1.0000
  C   C1125     1.0  0.35839  0.84788  0.55174  1.0000
  C   C1126     1.0  0.49715  0.59854  0.66406  1.0000
  H   H907      1.0  0.34705  0.54263  0.59548  1.0000
  C   C1127     1.0  0.16442  0.55045  0.58808  1.0000
  C   C1128     1.0  0.41026  0.62624  0.69430  1.0000
  C   C1129     1.0  0.40393  0.63201  0.71083  1.0000
  C   C1130     1.0  0.41570  0.63707  0.72079  1.0000
  C   C1131     1.0  0.43379  0.63641  0.71421  1.0000
  C   C1132     1.0  0.44018  0.63055  0.69772  1.0000
  C   C1133     1.0  0.29120  0.54940  0.61498  1.0000
  H   H908      1.0  0.33752  0.75507  0.55365  1.0000
  C   C1134     1.0  0.18827  0.62074  0.53450  1.0000
  H   H909      1.0  0.49898  0.85443  0.58014  1.0000
  C   C1135     1.0  0.43968  0.64887  0.61802  1.0000
  C   C1136     1.0  0.44262  0.63493  0.63177  1.0000
  C   C1137     1.0  0.24390  0.50735  0.52100  1.0000
  C   C1138     1.0  0.36521  0.75869  0.54733  1.0000
  C   C1139     1.0  0.17275  0.61255  0.53761  1.0000
  C   C1140     1.0  0.26184  0.57099  0.63038  1.0000
  H   H910      1.0  0.20164  0.57759  0.69111  1.0000
  C   C1141     1.0  0.48893  0.85679  0.60757  1.0000
  H   H911      1.0  0.13759  0.55175  0.53791  1.0000
  P   P37       1.0  0.39003  0.79971  0.55610  1.0000
  C   C1142     1.0  0.16649  0.56196  0.57208  1.0000
  C   C1143     1.0  0.45245  0.84325  0.56176  1.0000
  Fe  Fe68      1.0  0.49757  0.63670  0.71438  1.0000
  H   H912      1.0  0.38995  0.63221  0.71611  1.0000
  H   H913      1.0  0.41088  0.64115  0.73377  1.0000
  H   H914      1.0  0.44302  0.63974  0.72221  1.0000
  H   H915      1.0  0.45426  0.62988  0.69303  1.0000
  C   C1144     1.0  0.47682  0.51930  0.67688  1.0000
  H   H916      1.0  0.25012  0.57920  0.63587  1.0000
  C   C1145     1.0  0.29806  0.65347  0.52249  1.0000
  H   H917      1.0  0.15140  0.51220  0.54645  1.0000
  C   C1146     1.0  0.47768  0.98982  0.55536  1.0000
  C   C1147     1.0  0.12716  0.60729  0.55725  1.0000
  H   H918      1.0  0.36139  0.82346  0.54038  1.0000
  C   C1148     1.0  0.44299  0.81514  0.57650  1.0000
  H   H919      1.0  0.45252  0.96381  0.61425  1.0000
  C   C1149     1.0  0.38010  0.82217  0.55918  1.0000
  C   C1150     1.0  0.45799  0.80581  0.56766  1.0000
  C   C1151     1.0  0.06411  0.50401  0.51824  1.0000
  H   H920      1.0  0.13295  0.60302  0.56949  1.0000
  P   P38       1.0  0.44071  0.99748  0.55584  1.0000
  C   C1152     1.0  0.31506  0.64808  0.51372  1.0000
  H   H921      1.0  0.00240  0.54278  0.56371  1.0000
  H   H922      1.0  0.10652  0.62599  0.56917  1.0000
  H   H923      1.0  0.44353  0.66091  0.67192  1.0000
  H   H924      1.0  0.35173  0.80165  0.56999  1.0000
  H   H925      1.0  0.47559  0.97614  0.56025  1.0000
  H   H926      1.0  0.44760  0.85496  0.59564  1.0000
  H   H927      1.0  0.39831  0.82635  0.57676  1.0000
  C   C1153     1.0  0.43231  0.63525  0.64857  1.0000
  C   C1154     1.0  0.37812  0.76956  0.54810  1.0000
  H   H928      1.0  0.45302  0.62394  0.62931  1.0000
  H   H929      1.0  0.10637  0.62348  0.51354  1.0000
  C   C1155     1.0  0.42898  0.97636  0.50611  1.0000
  C   C1156     1.0  0.42205  0.95549  0.58968  1.0000
  C   C1157     1.0  0.43215  0.95362  0.60371  1.0000
  H   H930      1.0  0.23789  0.53479  0.56061  1.0000
  H   H931      1.0  0.48495  0.67029  0.63855  1.0000
  C   C1158     1.0  0.43786  0.97990  0.57431  1.0000
  C   C1159     1.0  0.42472  0.96872  0.57516  1.0000
  C   C1160     1.0  0.02148  0.60173  0.51685  1.0000
  H   H932      1.0  0.46530  0.74419  0.50278  1.0000
  C   C1161     1.0  0.32446  0.51670  0.53466  1.0000
  C   C1162     1.0  0.24614  0.53071  0.65992  1.0000
  C   C1163     1.0  0.48113  0.84796  0.62351  1.0000
  H   H933      1.0  0.29007  0.65209  0.56090  1.0000
  C   C1164     1.0  0.47278  0.62200  0.65854  1.0000
  P   P39       1.0  0.28050  0.50959  0.51287  1.0000
  C   C1165     1.0  0.22783  0.50359  0.65368  1.0000
  C   C1166     1.0  0.41565  0.66334  0.63734  1.0000
  C   C1167     1.0  0.38681  0.83195  0.57017  1.0000
  C   C1168     1.0  0.20615  0.59190  0.53369  1.0000
  H   H934      1.0  0.35393  0.70618  0.53393  1.0000
  C   C1169     1.0  0.31966  0.63060  0.50967  1.0000
  C   C1170     1.0  0.25013  0.51314  0.66806  1.0000
  H   H935      1.0  0.18701  0.51134  0.57789  1.0000
  H   H936      1.0  0.38407  0.85688  0.58090  1.0000
  H   H937      1.0  0.41216  0.94668  0.58997  1.0000
  H   H938      1.0  0.43014  0.94337  0.61495  1.0000
  H   H939      1.0  0.19188  0.56938  0.53635  1.0000
  C   C1171     1.0  0.09667  0.55318  0.50492  1.0000
  H   H940      1.0  0.41663  0.96994  0.56453  1.0000
  H   H941      1.0  0.03219  0.59788  0.56240  1.0000
  H   H942      1.0  0.40743  0.99624  0.54149  1.0000
  C   C1172     1.0  0.27643  0.67623  0.54768  1.0000
  C   C1173     1.0  0.33481  0.51384  0.65331  1.0000
  C   C1174     1.0  0.32440  0.50371  0.54954  1.0000
  C   C1175     1.0  0.10465  0.62614  0.54140  1.0000
  H   H943      1.0  0.29729  0.55103  0.66063  1.0000
  C   C1176     1.0  0.44479  0.96509  0.60329  1.0000
  C   C1177     1.0  0.14272  0.54907  0.51022  1.0000
  H   H944      1.0  0.12350  0.56820  0.56327  1.0000
  C   C1178     1.0  0.44754  0.87854  0.57588  1.0000
  C   C1179     1.0  0.37492  0.74038  0.68821  1.0000
  C   C1180     1.0  0.37884  0.84931  0.57248  1.0000
  C   C1181     1.0  0.22228  0.59464  0.68658  1.0000
  C   C1182     1.0  0.27173  0.68064  0.49901  1.0000
  H   H945      1.0  0.47098  0.82413  0.63700  1.0000
  C   C1183     1.0  0.42114  0.80777  0.53448  1.0000
  C   C1184     1.0  0.40458  0.80175  0.53523  1.0000
  C   C1185     1.0  0.03525  0.53121  0.56831  1.0000
  C   C1186     1.0  0.44436  0.67397  0.67525  1.0000
  C   C1187     1.0  0.40253  0.78889  0.57380  1.0000
  H   H946      1.0  0.32908  0.78248  0.56835  1.0000
  C   C1188     1.0  0.05472  0.51688  0.52850  1.0000
  C   C1189     1.0  0.31142  0.68571  0.52968  1.0000
  C   C1190     1.0  0.46039  0.61001  0.66523  1.0000
  H   H947      1.0  0.47620  0.55588  0.64547  1.0000
  Fe  Fe69      1.0  0.41018  0.92250  0.50771  1.0000
  C   C1191     1.0  0.41805  0.77706  0.56996  1.0000
  C   C1192     1.0  0.42801  0.76882  0.58346  1.0000
  C   C1193     1.0  0.42249  0.77221  0.60099  1.0000
  C   C1194     1.0  0.40662  0.78341  0.60508  1.0000
  C   C1195     1.0  0.39653  0.79155  0.59156  1.0000
  H   H948      1.0  0.03794  0.51834  0.59501  1.0000
  C   C1196     1.0  0.36451  0.85720  0.56341  1.0000
  H   H949      1.0  0.05536  0.51476  0.54264  1.0000
  C   C1197     1.0  0.15470  0.57077  0.52346  1.0000
  H   H950      1.0  0.28785  0.71436  0.51336  1.0000
  H   H951      1.0  0.42546  0.81066  0.54640  1.0000
  C   C1198     1.0  0.45294  0.67551  0.68966  1.0000
  H   H952      1.0  0.44696  0.87133  0.62095  1.0000
  S   S143      1.0  0.41833  0.89554  0.49899  1.0000
  C   C1199     1.0  0.34207  0.70047  0.53283  1.0000
  H   H953      1.0  0.46019  0.79135  0.57004  1.0000
  C   C1200     1.0  0.40343  0.86341  0.53415  1.0000
  H   H954      1.0  0.42247  0.77416  0.55652  1.0000
  H   H955      1.0  0.44006  0.75984  0.58021  1.0000
  H   H956      1.0  0.43047  0.76602  0.61136  1.0000
  H   H957      1.0  0.40220  0.78583  0.61871  1.0000
  H   H958      1.0  0.38415  0.80002  0.59492  1.0000
  H   H959      1.0  0.42824  0.84084  0.58011  1.0000
  C   C1201     1.0  0.46760  0.83377  0.55301  1.0000
  C   C1202     1.0  0.21542  0.57889  0.68585  1.0000
  C   C1203     1.0  0.41130  0.57288  0.67897  1.0000
  H   H960      1.0  0.49858  0.53578  0.70963  1.0000
  C   C1204     1.0  0.48096  0.87789  0.54383  1.0000
  C   C1205     1.0  0.46425  0.87581  0.53958  1.0000
  C   C1206     1.0  0.46086  0.88002  0.52186  1.0000
  C   C1207     1.0  0.39810  0.89146  0.54619  1.0000
  C   C1208     1.0  0.41467  0.88774  0.55240  1.0000
  H   H961      1.0  0.00907  0.54638  0.50637  1.0000
  C   C1209     1.0  0.35027  0.52852  0.59993  1.0000
  H   H962      1.0  0.41038  0.65009  0.66387  1.0000
  H   H963      1.0  0.44790  0.87927  0.51833  1.0000
  H   H964      1.0  0.37982  0.88252  0.53190  1.0000
  H   H965      1.0  0.38985  0.90408  0.54796  1.0000
  H   H966      1.0  0.41871  0.89763  0.55905  1.0000
  C   C1210     1.0  0.17385  0.59390  0.53868  1.0000
  C   C1211     1.0  0.44010  0.83377  0.57341  1.0000
  C   C1212     1.0  0.44653  0.97532  0.50951  1.0000
  C   C1213     1.0  0.12687  0.60576  0.52597  1.0000
  S   S144      1.0  0.21780  0.50880  0.59544  1.0000
  C   C1214     1.0  0.49078  0.88763  0.51280  1.0000
  H   H967      1.0  0.24380  0.67644  0.59187  1.0000
  H   H968      1.0  0.35859  0.87080  0.56489  1.0000
  H   H969      1.0  0.30214  0.54070  0.60879  1.0000
  C   C1215     1.0  0.01903  0.58404  0.52335  1.0000
  C   C1216     1.0  0.14471  0.55653  0.52521  1.0000
  C   C1217     1.0  0.33183  0.69305  0.54806  1.0000
  Fe  Fe70      1.0  0.37911  0.51326  0.73986  1.0000
  H   H970      1.0  0.44784  0.64864  0.60518  1.0000
  C   C1218     1.0  0.24420  0.56631  0.67166  1.0000
  H   H971      1.0  0.42368  0.58878  0.69298  1.0000
  C   C1219     1.0  0.44758  0.97825  0.58873  1.0000
  C   C1220     1.0  0.44711  0.89699  0.60497  1.0000
  C   C1221     1.0  0.11221  0.62034  0.55711  1.0000
  C   C1222     1.0  0.27900  0.66271  0.56202  1.0000
  S   S145      1.0  0.08985  0.51439  0.60706  1.0000
  C   C1223     1.0  0.05283  0.59238  0.50811  1.0000
  C   C1224     1.0  0.26918  0.55547  0.64048  1.0000
  C   C1225     1.0  0.24012  0.59622  0.68003  1.0000
  C   C1226     1.0  0.44740  0.70771  0.68334  1.0000
  C   C1227     1.0  0.31118  0.51860  0.52360  1.0000
  P   P40       1.0  0.03148  0.54825  0.53373  1.0000
  C   C1228     1.0  0.01790  0.61692  0.57921  1.0000
  C   C1229     1.0  0.04504  0.53227  0.52042  1.0000
  H   H972      1.0  0.26919  0.65222  0.58881  1.0000
  H   H973      1.0  0.31823  0.69308  0.50143  1.0000
  S   S146      1.0  0.49841  0.58835  0.73991  1.0000
  C   C1230     1.0  0.03359  0.57046  0.52252  1.0000
  C   C1231     1.0  0.34278  0.77889  0.56270  1.0000
  C   C1232     1.0  0.35566  0.78982  0.56344  1.0000
  S   S147      1.0  0.49825  0.66556  0.70057  1.0000
  H   H974      1.0  0.12012  0.54770  0.59128  1.0000
  C   C1233     1.0  0.42624  0.66310  0.62082  1.0000
  H   H975      1.0  0.44746  0.90402  0.61613  1.0000
  C   C1234     1.0  0.48953  0.82981  0.59367  1.0000
  C   C1235     1.0  0.44385  0.74333  0.65294  1.0000
  H   H976      1.0  0.46154  0.69346  0.70462  1.0000
  C   C1236     1.0  0.44768  0.90623  0.58778  1.0000
  C   C1237     1.0  0.40631  0.74352  0.68103  1.0000
  C   C1238     1.0  0.04710  0.55936  0.56025  1.0000
  C   C1239     1.0  0.42036  0.58712  0.68012  1.0000
  H   H977      1.0  0.44889  0.90433  0.56002  1.0000
  C   C1240     1.0  0.46629  0.76981  0.64894  1.0000
  H   H978      1.0  0.47732  0.84070  0.54394  1.0000
  H   H979      1.0  0.09316  0.63633  0.54122  1.0000
  H   H980      1.0  0.40939  0.57916  0.63445  1.0000
  C   C1241     1.0  0.40810  0.73224  0.66784  1.0000
  C   C1242     1.0  0.49558  0.76334  0.49670  1.0000
  H   H981      1.0  0.41775  0.74890  0.68378  1.0000
  H   H982      1.0  0.23125  0.56206  0.51165  1.0000
  C   C1243     1.0  0.34752  0.76341  0.55450  1.0000
  C   C1244     1.0  0.39252  0.87937  0.53701  1.0000
  H   H983      1.0  0.48367  0.87523  0.55752  1.0000
  C   C1245     1.0  0.48624  0.79623  0.50999  1.0000
  H   H984      1.0  0.45729  0.98715  0.58886  1.0000
  C   C1246     1.0  0.45444  0.69237  0.69370  1.0000
  P   P41       1.0  0.25872  0.54809  0.66256  1.0000
  P   P42       1.0  0.42964  0.72612  0.65555  1.0000
  H   H985      1.0  0.45482  0.84852  0.51262  1.0000
  H   H986      1.0  0.14610  0.53633  0.60735  1.0000
  P   P43       1.0  0.15397  0.58310  0.54190  1.0000
  C   C1247     1.0  0.28569  0.64115  0.52694  1.0000
  H   H987      1.0  0.45740  0.58293  0.67729  1.0000
  C   C1248     1.0  0.44813  0.89702  0.57330  1.0000
  C   C1249     1.0  0.36617  0.83045  0.54961  1.0000
  C   C1250     1.0  0.04025  0.52986  0.58530  1.0000
  C   C1251     1.0  0.26218  0.69002  0.54961  1.0000
  C   C1252     1.0  0.44794  0.77463  0.64890  1.0000
  C   C1253     1.0  0.49380  0.69438  0.64334  1.0000
  H   H988      1.0  0.28873  0.53196  0.63970  1.0000
  C   C1254     1.0  0.42589  0.87186  0.54942  1.0000
  C   C1255     1.0  0.14770  0.54541  0.59504  1.0000
  C   C1256     1.0  0.28149  0.52759  0.70758  1.0000
  C   C1257     1.0  0.43723  0.68927  0.66489  1.0000
  C   C1258     1.0  0.25045  0.69005  0.56550  1.0000
  C   C1259     1.0  0.43672  0.76144  0.65080  1.0000
  H   H989      1.0  0.40382  0.74039  0.63037  1.0000
  H   H990      1.0  0.45893  0.66370  0.69743  1.0000
  H   H991      1.0  0.44716  0.77330  0.51857  1.0000
  H   H992      1.0  0.01027  0.61223  0.51736  1.0000
  H   H993      1.0  0.17581  0.54523  0.59504  1.0000
  C   C1260     1.0  0.42510  0.59898  0.66484  1.0000
  P   P44       1.0  0.44768  0.86721  0.55681  1.0000
  H   H994      1.0  0.05299  0.54180  0.60280  1.0000
  S   S148      1.0  0.38076  0.53191  0.71397  1.0000
  H   H995      1.0  0.39454  0.71513  0.65592  1.0000
  C   C1261     1.0  0.04865  0.54318  0.58978  1.0000
  H   H996      1.0  0.46460  0.55135  0.69775  1.0000
  C   C1262     1.0  0.05202  0.55795  0.57728  1.0000
  C   C1263     1.0  0.49498  0.99432  0.55282  1.0000
  H   H997      1.0  0.42257  0.76538  0.65054  1.0000
  H   H998      1.0  0.21706  0.61671  0.53015  1.0000
  C   C1264     1.0  0.42008  0.85966  0.54027  1.0000
  H   H999      1.0  0.32859  0.52104  0.58897  1.0000
  H   H1000     1.0  0.26346  0.58754  0.60490  1.0000
  C   C1265     1.0  0.20498  0.61041  0.53264  1.0000
  H   H1001     1.0  0.05925  0.56789  0.58053  1.0000
  C   C1266     1.0  0.31656  0.68568  0.54651  1.0000
  C   C1267     1.0  0.25634  0.52385  0.53958  1.0000
  H   H1002     1.0  0.34783  0.85430  0.54407  1.0000
  C   C1268     1.0  0.13305  0.55183  0.58601  1.0000
  H   H1003     1.0  0.44874  0.72066  0.68667  1.0000
  H   H1004     1.0  0.40052  0.55878  0.66177  1.0000
  C   C1269     1.0  0.04556  0.53485  0.50180  1.0000
  H   H1005     1.0  0.39900  0.85415  0.52689  1.0000
  H   H1006     1.0  0.44814  0.92049  0.58558  1.0000
  C   C1270     1.0  0.47027  0.81511  0.55592  1.0000
  H   H1007     1.0  0.00644  0.50590  0.53762  1.0000
  H   H1008     1.0  0.42502  0.60460  0.63627  1.0000
  H   H1009     1.0  0.40098  0.62216  0.68685  1.0000
  H   H1010     1.0  0.39177  0.76565  0.54248  1.0000
  H   H1011     1.0  0.43054  0.68781  0.65388  1.0000
  C   C1271     1.0  0.00145  0.54357  0.51929  1.0000
  H   H1012     1.0  0.31858  0.54129  0.68220  1.0000
  H   H1013     1.0  0.47884  0.92451  0.50291  1.0000
  H   H1014     1.0  0.36893  0.74668  0.54098  1.0000
  H   H1015     1.0  0.38620  0.79449  0.51946  1.0000
  C   C1272     1.0  0.22525  0.56363  0.49949  1.0000
  C   C1273     1.0  0.41237  0.58149  0.64720  1.0000
  C   C1274     1.0  0.22489  0.52087  0.54504  1.0000
  C   C1275     1.0  0.06396  0.50632  0.49984  1.0000
  H   H1016     1.0  0.27722  0.52108  0.72077  1.0000
  C   C1276     1.0  0.32186  0.69309  0.51451  1.0000
  H   H1017     1.0  0.48198  0.80778  0.54928  1.0000
  C   C1277     1.0  0.49409  0.88399  0.53050  1.0000
  C   C1278     1.0  0.28092  0.70756  0.50567  1.0000
  C   C1279     1.0  0.22372  0.52104  0.64551  1.0000
  H   H1018     1.0  0.26000  0.70072  0.53888  1.0000
  C   C1280     1.0  0.30477  0.53905  0.68587  1.0000
  H   H1019     1.0  0.02966  0.62277  0.58029  1.0000
  H   H1020     1.0  0.26082  0.50951  0.67618  1.0000
  C   C1281     1.0  0.49156  0.66752  0.66535  1.0000
  S   S149      1.0  0.49033  0.70565  0.62166  1.0000
  C   C1282     1.0  0.32001  0.50883  0.64720  1.0000
  C   C1283     1.0  0.33985  0.51637  0.59631  1.0000
  S   S150      1.0  0.26448  0.49985  0.57790  1.0000
  H   H1021     1.0  0.44524  0.81410  0.51799  1.0000
  C   C1284     1.0  0.42124  0.59592  0.64831  1.0000
  H   H1022     1.0  0.40754  0.56387  0.69084  1.0000
  C   C1285     1.0  0.33707  0.70048  0.51607  1.0000
  Fe  Fe71      1.0  0.39458  0.74079  0.49735  1.0000
  C   C1286     1.0  0.47417  0.88564  0.50847  1.0000
  Fe  Fe72      1.0  0.48836  0.77438  0.60030  1.0000
  S   S151      1.0  0.48854  0.61453  0.70335  1.0000
  C   C1287     1.0  0.27429  0.54531  0.49815  1.0000
  C   C1288     1.0  0.46662  0.59233  0.67163  1.0000
  H   H1023     1.0  0.21382  0.60557  0.69236  1.0000
  S   S152      1.0  0.49296  0.87902  0.60796  1.0000
  H   H1024     1.0  0.46799  0.50992  0.68375  1.0000
  H   H1025     1.0  0.33457  0.52557  0.53190  1.0000
  C   C1289     1.0  0.23286  0.53457  0.64858  1.0000
  H   H1026     1.0  0.44030  0.72984  0.49693  1.0000
  H   H1027     1.0  0.36582  0.83911  0.51041  1.0000
  H   H1028     1.0  0.47788  0.85477  0.63520  1.0000
  C   C1290     1.0  0.42834  0.57190  0.73259  1.0000
  H   H1029     1.0  0.18489  0.49968  0.51553  1.0000
  H   H1030     1.0  0.44571  0.50750  0.73627  1.0000
  H   H1031     1.0  0.34333  0.52227  0.64438  1.0000
  H   H1032     1.0  0.22989  0.54792  0.64175  1.0000
  C   C1291     1.0  0.18330  0.50605  0.59162  1.0000
  C   C1292     1.0  0.24101  0.49966  0.66493  1.0000
  C   C1293     1.0  0.47028  0.53300  0.66433  1.0000
  C   C1294     1.0  0.25107  0.58208  0.67265  1.0000
  H   H1033     1.0  0.26493  0.58336  0.66780  1.0000
  C   C1295     1.0  0.22634  0.56471  0.67851  1.0000
  H   H1034     1.0  0.48814  0.65413  0.66890  1.0000
  H   H1035     1.0  0.45735  0.96877  0.50099  1.0000
  C   C1296     1.0  0.41497  0.98409  0.51758  1.0000
  C   C1297     1.0  0.27484  0.54093  0.67805  1.0000
  C   C1298     1.0  0.29926  0.53054  0.70281  1.0000
  C   C1299     1.0  0.49307  0.84770  0.59253  1.0000
  H   H1036     1.0  0.26369  0.54715  0.50902  1.0000
  C   C1300     1.0  0.48491  0.58671  0.67126  1.0000
  C   C1301     1.0  0.29037  0.62368  0.52295  1.0000
  H   H1037     1.0  0.24531  0.49940  0.51022  1.0000
  H   H1038     1.0  0.10077  0.58036  0.50524  1.0000
  C   C1302     1.0  0.33878  0.50800  0.67079  1.0000
  C   C1303     1.0  0.16554  0.50294  0.59749  1.0000
  C   C1304     1.0  0.36888  0.50423  0.61513  1.0000
  C   C1305     1.0  0.41042  0.80059  0.50336  1.0000
  C   C1306     1.0  0.45416  0.84716  0.49893  1.0000
  C   C1307     1.0  0.48971  0.67677  0.64816  1.0000
  H   H1039     1.0  0.33452  0.50239  0.55827  1.0000
  S   S153      1.0  0.44798  0.59735  0.73789  1.0000
  C   C1308     1.0  0.00417  0.59530  0.56777  1.0000
  H   H1040     1.0  0.48961  0.57332  0.67705  1.0000
  C   C1309     1.0  0.47732  0.79225  0.49679  1.0000
  C   C1310     1.0  0.28086  0.68899  0.50926  1.0000
  C   C1311     1.0  0.36486  0.52244  0.60922  1.0000
  H   H1041     1.0  0.00019  0.63437  0.59561  1.0000
  H   H1042     1.0  0.04025  0.61960  0.50414  1.0000
  S   S154      1.0  0.49919  0.77623  0.57163  1.0000
  H   H1043     1.0  0.06592  0.59554  0.50210  1.0000
  S   S155      1.0  0.37647  0.87373  0.49812  1.0000
  C   C1312     1.0  0.00129  0.62343  0.58785  1.0000
  H   H1044     1.0  0.34499  0.70623  0.50423  1.0000
  H   H1045     1.0  0.00549  0.58429  0.56011  1.0000
  H   H1046     1.0  0.41811  0.57774  0.74218  1.0000
  H   H1047     1.0  0.32462  0.65743  0.50944  1.0000
  S   S156      1.0  0.12271  0.50191  0.57658  1.0000
  C   C1313     1.0  0.49439  0.51805  0.68064  1.0000
  C   C1314     1.0  0.49903  0.54372  0.65836  1.0000
  H   H1048     1.0  0.22015  0.59237  0.49761  1.0000
  H   H1049     1.0  0.27164  0.66636  0.50126  1.0000
  H   H1050     1.0  0.42545  0.85308  0.50131  1.0000
  H   H1051     1.0  0.22979  0.53565  0.49718  1.0000
  H   H1052     1.0  0.38034  0.49984  0.62214  1.0000
  H   H1053     1.0  0.41749  0.56225  0.97051  1.0000
  Fe  Fe73      1.0  0.40457  0.53344  0.87823  1.0000
  S   S157      1.0  0.37829  0.52244  0.88360  1.0000
  S   S158      1.0  0.40963  0.56187  0.87375  1.0000
  H   H1054     1.0  0.49012  0.54301  0.83991  1.0000
  H   H1055     1.0  0.44124  0.57473  0.77840  1.0000
  H   H1056     1.0  0.37285  0.52677  0.82821  1.0000
  C   C1315     1.0  0.48812  0.50414  0.85188  1.0000
  P   P45       1.0  0.47625  0.51124  0.97964  1.0000
  C   C1316     1.0  0.48149  0.57618  0.79759  1.0000
  S   S159      1.0  0.41606  0.51663  0.90132  1.0000
  S   S160      1.0  0.47715  0.61101  0.89764  1.0000
  C   C1317     1.0  0.45117  0.55639  0.93689  1.0000
  H   H1057     1.0  0.47929  0.58537  0.78567  1.0000
  C   C1318     1.0  0.44860  0.50577  0.93927  1.0000
  H   H1058     1.0  0.46357  0.59186  0.97771  1.0000
  C   C1319     1.0  0.45204  0.60265  0.84005  1.0000
  H   H1059     1.0  0.45662  0.61664  0.86092  1.0000
  H   H1060     1.0  0.36091  0.60794  0.96869  1.0000
  H   H1061     1.0  0.44385  0.65135  0.76260  1.0000
  C   C1320     1.0  0.39431  0.52706  0.96506  1.0000
  C   C1321     1.0  0.41292  0.54588  0.79978  1.0000
  C   C1322     1.0  0.45600  0.59456  0.99034  1.0000
  C   C1323     1.0  0.43932  0.59662  0.83178  1.0000
  C   C1324     1.0  0.49813  0.56584  0.79846  1.0000
  C   C1325     1.0  0.39202  0.51759  0.98228  1.0000
  C   C1326     1.0  0.42863  0.61525  0.86128  1.0000
  C   C1327     1.0  0.41590  0.60916  0.85323  1.0000
  H   H1062     1.0  0.39833  0.54023  0.96320  1.0000
  C   C1328     1.0  0.46919  0.52807  0.78141  1.0000
  C   C1329     1.0  0.46547  0.52951  0.99149  1.0000
  C   C1330     1.0  0.43628  0.58122  0.96030  1.0000
  H   H1063     1.0  0.45481  0.52962  0.78215  1.0000
  H   H1064     1.0  0.43557  0.63270  0.97959  1.0000
  H   H1065     1.0  0.46910  0.61532  0.80265  1.0000
  C   C1331     1.0  0.45141  0.58432  0.94798  1.0000
  C   C1332     1.0  0.37513  0.51851  0.81761  1.0000
  C   C1333     1.0  0.44669  0.61195  0.85471  1.0000
  Fe  Fe74      1.0  0.49780  0.62075  0.87550  1.0000
  H   H1066     1.0  0.47228  0.51646  0.94103  1.0000
  C   C1334     1.0  0.42905  0.56521  0.96117  1.0000
  H   H1067     1.0  0.42328  0.55273  0.77226  1.0000
  C   C1335     1.0  0.42119  0.60010  0.83837  1.0000
  C   C1336     1.0  0.39125  0.51969  0.95019  1.0000
  C   C1337     1.0  0.46063  0.50476  0.96709  1.0000
  H   H1068     1.0  0.39304  0.52717  0.93704  1.0000
  C   C1338     1.0  0.48779  0.55217  0.82804  1.0000
  C   C1339     1.0  0.43121  0.56130  0.87909  1.0000
  C   C1340     1.0  0.44379  0.54611  0.87729  1.0000
  C   C1341     1.0  0.46059  0.54514  0.88277  1.0000
  C   C1342     1.0  0.46502  0.55951  0.88972  1.0000
  C   C1343     1.0  0.45254  0.57475  0.89133  1.0000
  C   C1344     1.0  0.43561  0.57558  0.88617  1.0000
  H   H1069     1.0  0.44052  0.53497  0.87190  1.0000
  H   H1070     1.0  0.47007  0.53320  0.88179  1.0000
  H   H1071     1.0  0.45553  0.58561  0.89726  1.0000
  H   H1072     1.0  0.42571  0.58700  0.88824  1.0000
  C   C1345     1.0  0.43249  0.57163  0.80686  1.0000
  C   C1346     1.0  0.46799  0.57467  0.81210  1.0000
  H   H1073     1.0  0.46610  0.60059  0.83499  1.0000
  C   C1347     1.0  0.42312  0.55525  0.78583  1.0000
  H   H1074     1.0  0.42197  0.60329  0.78485  1.0000
  S   S161      1.0  0.36769  0.52497  0.76538  1.0000
  C   C1348     1.0  0.42272  0.56169  0.82088  1.0000
  C   C1349     1.0  0.49495  0.51907  0.96463  1.0000
  C   C1350     1.0  0.49761  0.62726  0.82846  1.0000
  H   H1075     1.0  0.36613  0.53991  0.79786  1.0000
  C   C1351     1.0  0.38541  0.50291  0.95245  1.0000
  C   C1352     1.0  0.49305  0.62594  0.99395  1.0000
  C   C1353     1.0  0.45873  0.61848  0.79408  1.0000
  C   C1354     1.0  0.49561  0.63824  0.81221  1.0000
  C   C1355     1.0  0.37138  0.60070  0.97604  1.0000
  C   C1356     1.0  0.37382  0.51531  0.78652  1.0000
  C   C1357     1.0  0.47810  0.51327  0.79104  1.0000
  H   H1076     1.0  0.42129  0.63086  0.76385  1.0000
  C   C1358     1.0  0.43235  0.61160  0.78407  1.0000
  H   H1077     1.0  0.42582  0.63817  0.91639  1.0000
  P   P46       1.0  0.44624  0.58724  0.81123  1.0000
  C   C1359     1.0  0.40258  0.59500  0.98060  1.0000
  H   H1078     1.0  0.42278  0.56360  0.83459  1.0000
  Fe  Fe75      1.0  0.39110  0.50402  0.90557  1.0000
  H   H1079     1.0  0.40519  0.53611  0.79702  1.0000
  H   H1080     1.0  0.43632  0.66289  0.92772  1.0000
  C   C1360     1.0  0.38890  0.60460  0.97136  1.0000
  C   C1361     1.0  0.43169  0.62751  0.77235  1.0000
  H   H1081     1.0  0.47034  0.63241  0.97946  1.0000
  C   C1362     1.0  0.36743  0.58713  0.98985  1.0000
  C   C1363     1.0  0.43339  0.65100  0.93668  1.0000
  S   S162      1.0  0.48237  0.62585  0.94345  1.0000
  Fe  Fe76      1.0  0.49472  0.61634  0.91693  1.0000
  C   C1364     1.0  0.38639  0.50072  0.98453  1.0000
  S   S163      1.0  0.48582  0.55774  0.89726  1.0000
  H   H1082     1.0  0.48370  0.51469  0.82524  1.0000
  P   P47       1.0  0.42558  0.59849  0.97355  1.0000
  C   C1365     1.0  0.43602  0.64941  0.95452  1.0000
  H   H1083     1.0  0.44106  0.66002  0.95933  1.0000
  C   C1366     1.0  0.44612  0.60678  0.79477  1.0000
  C   C1367     1.0  0.38096  0.50025  0.82126  1.0000
  Fe  Fe77      1.0  0.39226  0.50300  0.86475  1.0000
  C   C1368     1.0  0.48444  0.62765  0.97864  1.0000
  H   H1084     1.0  0.45664  0.54711  0.92746  1.0000
  H   H1085     1.0  0.47770  0.51356  0.85782  1.0000
  H   H1086     1.0  0.39169  0.61488  0.96038  1.0000
  C   C1369     1.0  0.44437  0.63901  0.77165  1.0000
  S   S164      1.0  0.41752  0.51542  0.85823  1.0000
  C   C1370     1.0  0.49739  0.53869  0.76969  1.0000
  C   C1371     1.0  0.42730  0.61961  0.95960  1.0000
  H   H1087     1.0  0.40193  0.61134  0.85857  1.0000
  H   H1088     1.0  0.41110  0.59594  0.83202  1.0000
  H   H1089     1.0  0.42041  0.61052  0.93640  1.0000
  C   C1372     1.0  0.42750  0.63706  0.93030  1.0000
  H   H1090     1.0  0.45730  0.59654  0.94695  1.0000
  C   C1373     1.0  0.45878  0.57197  0.93638  1.0000
  C   C1374     1.0  0.42445  0.62142  0.94170  1.0000
  C   C1375     1.0  0.43294  0.63380  0.96598  1.0000
  H   H1091     1.0  0.40485  0.54176  0.82810  1.0000
  C   C1376     1.0  0.43648  0.55289  0.94946  1.0000
  C   C1377     1.0  0.43730  0.59773  0.99244  1.0000
  H   H1092     1.0  0.46752  0.64355  0.78224  1.0000
  C   C1378     1.0  0.47882  0.54078  0.77072  1.0000
  C   C1379     1.0  0.47119  0.56252  0.82728  1.0000
  C   C1380     1.0  0.49216  0.53554  0.95387  1.0000
  H   H1093     1.0  0.46084  0.56112  0.83859  1.0000
  H   H1094     1.0  0.47021  0.57472  0.92673  1.0000
  H   H1095     1.0  0.47963  0.54415  0.95586  1.0000
  H   H1096     1.0  0.43821  0.52587  0.98942  1.0000
  H   H1097     1.0  0.43057  0.54080  0.94987  1.0000
  H   H1098     1.0  0.44929  0.50976  0.92499  1.0000
  C   C1381     1.0  0.46166  0.50956  0.94853  1.0000
  H   H1099     1.0  0.47045  0.50340  0.79903  1.0000
  C   C1382     1.0  0.45779  0.63456  0.78263  1.0000
  H   H1100     1.0  0.47190  0.55224  0.76322  1.0000
  C   C1383     1.0  0.43312  0.56785  0.78937  1.0000
  C   C1384     1.0  0.41276  0.54906  0.81729  1.0000
  H   H1101     1.0  0.42454  0.62225  0.87279  1.0000
  C   C1385     1.0  0.37127  0.52591  0.80040  1.0000
  C   C1386     1.0  0.49143  0.50456  0.83339  1.0000
  C   C1387     1.0  0.39839  0.58168  0.99471  1.0000
  H   H1102     1.0  0.42849  0.50193  0.82010  1.0000
  C   C1388     1.0  0.49393  0.62334  0.96232  1.0000
  H   H1103     1.0  0.45461  0.50151  0.83576  1.0000
  H   H1104     1.0  0.35396  0.58378  0.99316  1.0000
  Fe  Fe78      1.0  0.49440  0.58455  0.89745  1.0000
  C   C1389     1.0  0.44679  0.53283  0.99507  1.0000
  S   S165      1.0  0.49107  0.63632  0.84892  1.0000
  C   C1390     1.0  0.49675  0.51116  0.79024  1.0000
  H   H1105     1.0  0.48996  0.65208  0.81235  1.0000
  Fe  Fe79      1.0  0.53077  0.38296  0.02867  1.0000
  Fe  Fe80      1.0  0.64329  0.48218  0.08313  1.0000
  C   C1391     1.0  0.65441  0.42542  0.03985  1.0000
  Fe  Fe81      1.0  0.53322  0.38549  0.06874  1.0000
  H   H1106     1.0  0.70419  0.47250  0.20087  1.0000
  S   S166      1.0  0.54643  0.37272  0.09317  1.0000
  Fe  Fe82      1.0  0.52599  0.41854  0.04251  1.0000
  S   S167      1.0  0.53380  0.44594  0.03382  1.0000
  S   S168      1.0  0.54832  0.39592  0.04257  1.0000
  S   S169      1.0  0.58234  0.46553  0.08583  1.0000
  S   S170      1.0  0.63362  0.46182  0.06985  1.0000
  C   C1392     1.0  0.56847  0.44511  0.17416  1.0000
  Fe  Fe83      1.0  0.52438  0.38494  0.19904  1.0000
  H   H1107     1.0  0.50562  0.45082  0.00021  1.0000
  S   S171      1.0  0.51587  0.39203  0.17118  1.0000
  Fe  Fe84      1.0  0.55117  0.39227  0.22239  1.0000
  S   S172      1.0  0.57916  0.40007  0.21893  1.0000
  Fe  Fe85      1.0  0.51118  0.40049  0.23387  1.0000
  S   S173      1.0  0.54774  0.36803  0.21044  1.0000
  S   S174      1.0  0.52917  0.40949  0.20941  1.0000
  C   C1393     1.0  0.57226  0.42799  0.23929  1.0000
  H   H1108     1.0  0.57970  0.45124  0.00034  1.0000
  H   H1109     1.0  0.69896  0.41838  0.02598  1.0000
  C   C1394     1.0  0.58425  0.41899  0.22693  1.0000
  C   C1395     1.0  0.60093  0.42489  0.22100  1.0000
  C   C1396     1.0  0.60559  0.43971  0.22730  1.0000
  S   S175      1.0  0.67097  0.47773  0.18414  1.0000
  P   P48       1.0  0.57584  0.43727  0.15280  1.0000
  H   H1110     1.0  0.61849  0.44409  0.22268  1.0000
  C   C1397     1.0  0.54768  0.45107  0.04807  1.0000
  C   C1398     1.0  0.55969  0.46342  0.04179  1.0000
  C   C1399     1.0  0.57085  0.46752  0.05312  1.0000
  C   C1400     1.0  0.56961  0.45970  0.07089  1.0000
  C   C1401     1.0  0.55762  0.44733  0.07714  1.0000
  C   C1402     1.0  0.54688  0.44281  0.06568  1.0000
  H   H1111     1.0  0.56052  0.46973  0.02815  1.0000
  H   H1112     1.0  0.58007  0.47703  0.04816  1.0000
  H   H1113     1.0  0.55674  0.44108  0.09082  1.0000
  H   H1114     1.0  0.53785  0.43309  0.07058  1.0000
  C   C1403     1.0  0.52593  0.38706  0.14972  1.0000
  C   C1404     1.0  0.52085  0.39857  0.13468  1.0000
  C   C1405     1.0  0.52716  0.39446  0.11734  1.0000
  C   C1406     1.0  0.53854  0.37866  0.11480  1.0000
  C   C1407     1.0  0.54385  0.36726  0.12982  1.0000
  C   C1408     1.0  0.53757  0.37142  0.14720  1.0000
  H   H1115     1.0  0.50467  0.43338  0.18625  1.0000
  H   H1116     1.0  0.52302  0.40339  0.10596  1.0000
  H   H1117     1.0  0.55267  0.35503  0.12801  1.0000
  H   H1118     1.0  0.54143  0.36235  0.15864  1.0000
  S   S176      1.0  0.51828  0.36984  0.05488  1.0000
  C   C1409     1.0  0.62656  0.36007  0.02082  1.0000
  Fe  Fe86      1.0  0.60687  0.47820  0.07420  1.0000
  H   H1119     1.0  0.61031  0.41796  0.21149  1.0000
  C   C1410     1.0  0.57842  0.37635  0.15657  1.0000
  C   C1411     1.0  0.63315  0.39950  0.07862  1.0000
  H   H1120     1.0  0.56103  0.48263  0.16490  1.0000
  H   H1121     1.0  0.58947  0.42781  0.09629  1.0000
  H   H1122     1.0  0.57726  0.38097  0.12830  1.0000
  S   S177      1.0  0.54041  0.36573  0.00647  1.0000
  H   H1123     1.0  0.63988  0.42811  0.15930  1.0000
  H   H1124     1.0  0.55152  0.48729  0.11036  1.0000
  C   C1412     1.0  0.53897  0.48395  0.99973  1.0000
  C   C1413     1.0  0.64871  0.48083  0.13768  1.0000
  C   C1414     1.0  0.58582  0.38445  0.00194  1.0000
  H   H1125     1.0  0.51169  0.41057  0.13641  1.0000
  C   C1415     1.0  0.62923  0.40113  0.09676  1.0000
  H   H1126     1.0  0.64931  0.44282  0.12894  1.0000
  C   C1416     1.0  0.55098  0.44356  0.18237  1.0000
  C   C1417     1.0  0.61765  0.37062  0.05479  1.0000
  H   H1127     1.0  0.61147  0.45583  0.99721  1.0000
  H   H1128     1.0  0.53041  0.48219  0.01229  1.0000
  C   C1418     1.0  0.58470  0.34887  0.99824  1.0000
  C   C1419     1.0  0.66717  0.47765  0.16178  1.0000
  H   H1129     1.0  0.56853  0.42678  0.02213  1.0000
  H   H1130     1.0  0.64543  0.39157  0.07389  1.0000
  H   H1131     1.0  0.59632  0.42547  0.06436  1.0000
  H   H1132     1.0  0.69223  0.46813  0.12281  1.0000
  C   C1420     1.0  0.58453  0.37164  0.01699  1.0000
  H   H1133     1.0  0.62971  0.35605  0.00763  1.0000
  H   H1134     1.0  0.50781  0.44703  0.08859  1.0000
  C   C1421     1.0  0.57730  0.38704  0.14018  1.0000
  P   P49       1.0  0.62666  0.40510  0.04345  1.0000
  C   C1422     1.0  0.50063  0.44277  0.17506  1.0000
  Fe  Fe87      1.0  0.52878  0.36167  0.23559  1.0000
  C   C1423     1.0  0.61195  0.42008  0.02982  1.0000
  C   C1424     1.0  0.53298  0.44920  0.12488  1.0000
  H   H1135     1.0  0.64437  0.43573  0.04476  1.0000
  C   C1425     1.0  0.59897  0.43988  0.14515  1.0000
  C   C1426     1.0  0.62071  0.34791  0.03526  1.0000
  C   C1427     1.0  0.59368  0.44859  0.23982  1.0000
  C   C1428     1.0  0.66300  0.39582  0.03127  1.0000
  C   C1429     1.0  0.60163  0.41983  0.09137  1.0000
  C   C1430     1.0  0.67211  0.42875  0.03570  1.0000
  C   C1431     1.0  0.68208  0.47284  0.14964  1.0000
  C   C1432     1.0  0.56171  0.46590  0.12941  1.0000
  H   H1136     1.0  0.58879  0.40699  0.04096  1.0000
  H   H1137     1.0  0.59305  0.45507  0.17652  1.0000
  C   C1433     1.0  0.68073  0.39918  0.02714  1.0000
  C   C1434     1.0  0.58873  0.44245  0.00838  1.0000
  C   C1435     1.0  0.54947  0.47448  0.11801  1.0000
  H   H1138     1.0  0.59518  0.45234  0.11841  1.0000
  H   H1139     1.0  0.57903  0.35977  0.23433  1.0000
  C   C1436     1.0  0.70573  0.48496  0.20524  1.0000
  C   C1437     1.0  0.68045  0.47203  0.13185  1.0000
  C   C1438     1.0  0.65034  0.48168  0.15576  1.0000
  C   C1439     1.0  0.57599  0.40558  0.13913  1.0000
  Fe  Fe88      1.0  0.62273  0.48194  0.23728  1.0000
  C   C1440     1.0  0.60556  0.41838  0.07318  1.0000
  H   H1140     1.0  0.52205  0.44254  0.12296  1.0000
  H   H1141     1.0  0.63199  0.43614  0.01546  1.0000
  C   C1441     1.0  0.66387  0.47602  0.12564  1.0000
  C   C1442     1.0  0.61194  0.43232  0.15626  1.0000
  H   H1142     1.0  0.58922  0.48959  0.16942  1.0000
  C   C1443     1.0  0.60660  0.44504  0.00666  1.0000
  C   C1444     1.0  0.61344  0.41123  0.10314  1.0000
  H   H1143     1.0  0.62686  0.45509  0.10880  1.0000
  C   C1445     1.0  0.57833  0.38423  0.17188  1.0000
  C   C1446     1.0  0.55596  0.45813  0.20677  1.0000
  H   H1144     1.0  0.63845  0.39462  0.10588  1.0000
  C   C1447     1.0  0.63531  0.44187  0.13345  1.0000
  H   H1145     1.0  0.57521  0.41366  0.12633  1.0000
  C   C1448     1.0  0.60454  0.44766  0.12780  1.0000
  H   H1146     1.0  0.61943  0.33445  0.03328  1.0000
  C   C1449     1.0  0.57568  0.41356  0.15452  1.0000
  H   H1147     1.0  0.63864  0.48517  0.16503  1.0000
  S   S178      1.0  0.66336  0.47377  0.10293  1.0000
  Fe  Fe89      1.0  0.63781  0.48037  0.04416  1.0000
  H   H1148     1.0  0.58370  0.33519  0.99686  1.0000
  C   C1450     1.0  0.59397  0.41751  0.03136  1.0000
  C   C1451     1.0  0.68526  0.41569  0.02926  1.0000
  C   C1452     1.0  0.64962  0.40910  0.03733  1.0000
  H   H1149     1.0  0.60810  0.42548  0.16943  1.0000
  C   C1453     1.0  0.58383  0.35388  0.01516  1.0000
  C   C1454     1.0  0.54476  0.45012  0.19857  1.0000
  C   C1455     1.0  0.54864  0.49032  0.16957  1.0000
  C   C1456     1.0  0.62999  0.43358  0.15052  1.0000
  C   C1457     1.0  0.54516  0.44059  0.13627  1.0000
  H   H1150     1.0  0.58211  0.46576  0.20526  1.0000
  C   C1458     1.0  0.57693  0.40277  0.17087  1.0000
  Fe  Fe90      1.0  0.65374  0.48775  0.20849  1.0000
  H   H1151     1.0  0.57709  0.40865  0.18279  1.0000
  C   C1459     1.0  0.62133  0.40806  0.06669  1.0000
  S   S179      1.0  0.64818  0.46845  0.01851  1.0000
  H   H1152     1.0  0.69099  0.38897  0.02237  1.0000
  S   S180      1.0  0.50491  0.37675  0.22311  1.0000
  S   S181      1.0  0.51186  0.40904  0.06940  1.0000
  H   H1153     1.0  0.57923  0.36199  0.15742  1.0000
  H   H1154     1.0  0.67551  0.44164  0.03729  1.0000
  H   H1155     1.0  0.61113  0.34396  0.06332  1.0000
  C   C1460     1.0  0.57335  0.45979  0.19870  1.0000
  H   H1156     1.0  0.51117  0.31138  0.22878  1.0000
  H   H1157     1.0  0.57274  0.47258  0.13099  1.0000
  H   H1158     1.0  0.65997  0.38280  0.02992  1.0000
  H   H1159     1.0  0.63231  0.38689  0.01206  1.0000
  C   C1461     1.0  0.57961  0.45336  0.18245  1.0000
  H   H1160     1.0  0.58622  0.39817  0.00355  1.0000
  H   H1161     1.0  0.55130  0.46276  0.21957  1.0000
  C   C1462     1.0  0.62392  0.38278  0.04041  1.0000
  S   S182      1.0  0.65217  0.47211  0.23620  1.0000
  H   H1162     1.0  0.53343  0.47908  0.15381  1.0000
  H   H1163     1.0  0.57941  0.37602  0.18459  1.0000
  H   H1164     1.0  0.53135  0.44866  0.20502  1.0000
  C   C1463     1.0  0.62793  0.37751  0.02334  1.0000
  S   S183      1.0  0.61022  0.49502  0.04778  1.0000
  H   H1165     1.0  0.52603  0.47254  0.10644  1.0000
  C   C1464     1.0  0.61607  0.35325  0.05219  1.0000
  H   H1166     1.0  0.69509  0.46957  0.15406  1.0000
  C   C1465     1.0  0.53517  0.46610  0.11567  1.0000
  C   C1466     1.0  0.58244  0.42867  0.02069  1.0000
  C   C1467     1.0  0.55998  0.44864  0.13821  1.0000
  H   H1167     1.0  0.61386  0.37447  0.06800  1.0000
  C   C1468     1.0  0.51016  0.29717  0.23118  1.0000
  H   H1168     1.0  0.54221  0.43709  0.17634  1.0000
  H   H1169     1.0  0.58218  0.34410  0.02687  1.0000
  H   H1170     1.0  0.61044  0.41247  0.11720  1.0000
  C   C1469     1.0  0.62261  0.44887  0.12210  1.0000
  H   H1171     1.0  0.54302  0.42756  0.14341  1.0000
  C   C1470     1.0  0.61822  0.43385  0.01723  1.0000
  H   H1172     1.0  0.58383  0.37548  0.03013  1.0000
  C   C1471     1.0  0.50147  0.46096  0.17451  1.0000
  H   H1173     1.0  0.63581  0.48348  0.13311  1.0000
  S   S184      1.0  0.50945  0.40639  0.02687  1.0000
  H   H1174     1.0  0.50621  0.46547  0.18545  1.0000
  H   H1175     1.0  0.59938  0.49305  0.13688  1.0000
  H   H1176     1.0  0.69694  0.47635  0.23283  1.0000
  C   C1472     1.0  0.53301  0.48850  0.16310  1.0000
  S   S185      1.0  0.62440  0.49580  0.20923  1.0000
  C   C1473     1.0  0.64480  0.47915  0.99687  1.0000
  C   C1474     1.0  0.70168  0.48710  0.22323  1.0000
  H   H1177     1.0  0.50808  0.49630  0.07736  1.0000
  H   H1178     1.0  0.55940  0.42356  0.24391  1.0000
  C   C1475     1.0  0.57702  0.44263  0.24579  1.0000
  H   H1179     1.0  0.71365  0.49750  0.17878  1.0000
  H   H1180     1.0  0.58056  0.49801  0.00240  1.0000
  Fe  Fe91      1.0  0.65489  0.49797  0.24606  1.0000
  S   S186      1.0  0.61617  0.49718  0.08934  1.0000
  H   H1181     1.0  0.54087  0.49667  0.07301  1.0000
  H   H1182     1.0  0.57611  0.32813  0.24625  1.0000
  H   H1183     1.0  0.50879  0.26215  0.20912  1.0000
  C   C1476     1.0  0.50983  0.28778  0.21700  1.0000
  H   H1184     1.0  0.50795  0.24618  0.23965  1.0000
  C   C1477     1.0  0.50837  0.26042  0.23752  1.0000
  C   C1478     1.0  0.50890  0.26942  0.22017  1.0000
  H   H1185     1.0  0.51046  0.29474  0.20355  1.0000
  H   H1186     1.0  0.50285  0.35996  0.12650  1.0000
  H   H1187     1.0  0.74118  0.45542  0.31486  1.0000
  Fe  Fe92      1.0  0.93787  0.41253  0.46896  1.0000
  S   S187      1.0  0.94324  0.38835  0.45476  1.0000
  S   S188      1.0  0.93849  0.44084  0.45617  1.0000
  H   H1188     1.0  0.58945  0.17597  0.47287  1.0000
  C   C1479     1.0  0.98478  0.40057  0.39602  1.0000
  Fe  Fe93      1.0  0.96151  0.37724  0.47529  1.0000
  S   S189      1.0  0.99003  0.36513  0.46682  1.0000
  Fe  Fe94      1.0  0.92068  0.37847  0.47461  1.0000
  S   S190      1.0  0.89885  0.36616  0.46525  1.0000
  H   H1189     1.0  0.97723  0.49182  0.29079  1.0000
  H   H1190     1.0  0.72096  0.13991  0.42249  1.0000
  C   C1480     1.0  0.95447  0.28041  0.49506  1.0000
  H   H1191     1.0  0.70054  0.37878  0.34183  1.0000
  S   S191      1.0  0.91396  0.45509  0.38016  1.0000
  Fe  Fe95      1.0  0.63303  0.08157  0.45425  1.0000
  C   C1481     1.0  0.69527  0.14198  0.43850  1.0000
  S   S192      1.0  0.64958  0.06088  0.43798  1.0000
  Fe  Fe96      1.0  0.62304  0.12226  0.45756  1.0000
  S   S193      1.0  0.97674  0.49708  0.33098  1.0000
  S   S194      1.0  0.62631  0.15111  0.44555  1.0000
  C   C1482     1.0  0.58611  0.14316  0.42404  1.0000
  Fe  Fe97      1.0  0.59527  0.09624  0.46606  1.0000
  S   S195      1.0  0.56763  0.09234  0.46298  1.0000
  H   H1192     1.0  0.58597  0.43937  0.29449  1.0000
  S   S196      1.0  0.61404  0.10349  0.44165  1.0000
  Fe  Fe98      1.0  0.52281  0.09984  0.35803  1.0000
  S   S197      1.0  0.52282  0.08813  0.38675  1.0000
  H   H1193     1.0  0.52444  0.05619  0.46200  1.0000
  Fe  Fe99      1.0  0.53024  0.06237  0.34569  1.0000
  S   S198      1.0  0.53109  0.04853  0.37320  1.0000
  S   S199      1.0  0.53285  0.04557  0.32334  1.0000
  Fe  Fe100     1.0  0.54672  0.06972  0.37693  1.0000
  S   S200      1.0  0.57057  0.06031  0.39141  1.0000
  S   S201      1.0  0.54808  0.08258  0.34836  1.0000
  C   C1483     1.0  0.53089  0.37892  0.29900  1.0000
  S   S202      1.0  0.63854  0.29360  0.46183  1.0000
  C   C1484     1.0  0.78379  0.48356  0.48394  1.0000
  H   H1194     1.0  0.98265  0.39027  0.38862  1.0000
  C   C1485     1.0  0.99843  0.41108  0.38961  1.0000
  H   H1195     1.0  0.56498  0.02938  0.42845  1.0000
  Fe  Fe101     1.0  0.63197  0.27282  0.44702  1.0000
  S   S203      1.0  0.61981  0.28177  0.42145  1.0000
  H   H1196     1.0  0.98977  0.47476  0.44424  1.0000
  S   S204      1.0  0.65906  0.25682  0.44775  1.0000
  H   H1197     1.0  0.50998  0.29580  0.25929  1.0000
  H   H1198     1.0  0.56624  0.41588  0.30367  1.0000
  C   C1486     1.0  0.98253  0.48804  0.44208  1.0000
  Fe  Fe102     1.0  0.53749  0.22616  0.34749  1.0000
  S   S205      1.0  0.51314  0.24650  0.34455  1.0000
  S   S206      1.0  0.54555  0.20188  0.33261  1.0000
  Fe  Fe103     1.0  0.54903  0.24392  0.37650  1.0000
  S   S207      1.0  0.52556  0.26552  0.37590  1.0000
  S   S208      1.0  0.56660  0.23578  0.39858  1.0000
  H   H1199     1.0  0.66107  0.00054  0.46646  1.0000
  Fe  Fe104     1.0  0.53122  0.26706  0.34571  1.0000
  S   S209      1.0  0.52856  0.29564  0.33036  1.0000
  S   S210      1.0  0.53232  0.22211  0.37701  1.0000
  S   S211      1.0  0.55605  0.24674  0.34662  1.0000
  H   H1200     1.0  0.91590  0.44151  0.34649  1.0000
  H   H1201     1.0  0.76720  0.46802  0.47377  1.0000
  S   S212      1.0  0.73779  0.47572  0.39774  1.0000
  Fe  Fe105     1.0  0.78979  0.37356  0.48471  1.0000
  S   S213      1.0  0.78011  0.40132  0.47253  1.0000
  C   C1487     1.0  0.99104  0.43002  0.46402  1.0000
  Fe  Fe106     1.0  0.75342  0.35995  0.48258  1.0000
  S   S214      1.0  0.74208  0.38716  0.47041  1.0000
  C   C1488     1.0  0.68453  0.46413  0.33066  1.0000
  Fe  Fe107     1.0  0.76876  0.38776  0.45375  1.0000
  S   S215      1.0  0.77190  0.39712  0.42412  1.0000
  C   C1489     1.0  0.51308  0.38527  0.29704  1.0000
  S   S216      1.0  0.77990  0.35981  0.46462  1.0000
  C   C1490     1.0  0.70033  0.23617  0.45997  1.0000
  C   C1491     1.0  0.80245  0.47452  0.42501  1.0000
  C   C1492     1.0  0.74909  0.45468  0.40522  1.0000
  C   C1493     1.0  0.75998  0.44426  0.39329  1.0000
  C   C1494     1.0  0.76708  0.42669  0.39928  1.0000
  C   C1495     1.0  0.76396  0.41967  0.41731  1.0000
  C   C1496     1.0  0.75371  0.43037  0.42938  1.0000
  C   C1497     1.0  0.74608  0.44773  0.42330  1.0000
  H   H1202     1.0  0.76223  0.44943  0.37934  1.0000
  H   H1203     1.0  0.77464  0.41837  0.38982  1.0000
  H   H1204     1.0  0.75113  0.42507  0.44330  1.0000
  H   H1205     1.0  0.73762  0.45572  0.43258  1.0000
  C   C1498     1.0  0.53102  0.32296  0.27178  1.0000
  C   C1499     1.0  0.52483  0.33280  0.28599  1.0000
  C   C1500     1.0  0.52434  0.32427  0.30377  1.0000
  C   C1501     1.0  0.53001  0.30582  0.30764  1.0000
  C   C1502     1.0  0.53665  0.29616  0.29342  1.0000
  C   C1503     1.0  0.53712  0.30467  0.27569  1.0000
  H   H1206     1.0  0.96138  0.25414  0.48708  1.0000
  C   C1504     1.0  0.99780  0.44345  0.47040  1.0000
  H   H1207     1.0  0.54153  0.28214  0.29615  1.0000
  H   H1208     1.0  0.54236  0.29711  0.26482  1.0000
  C   C1505     1.0  0.72228  0.32532  0.48179  1.0000
  Fe  Fe108     1.0  0.62282  0.09471  0.49022  1.0000
  H   H1209     1.0  0.94030  0.41566  0.35380  1.0000
  C   C1506     1.0  0.70251  0.30351  0.46716  1.0000
  H   H1210     1.0  0.55204  0.02432  0.46010  1.0000
  H   H1211     1.0  0.98839  0.45436  0.47484  1.0000
  H   H1212     1.0  0.55675  0.23214  0.31093  1.0000
  S   S217      1.0  0.73920  0.49511  0.30828  1.0000
  H   H1213     1.0  0.50102  0.02204  0.44431  1.0000
  H   H1214     1.0  0.93211  0.46404  0.29233  1.0000
  C   C1507     1.0  0.60433  0.26931  0.41573  1.0000
  C   C1508     1.0  0.60066  0.25312  0.42579  1.0000
  C   C1509     1.0  0.58890  0.24312  0.42045  1.0000
  C   C1510     1.0  0.58062  0.24926  0.40511  1.0000
  C   C1511     1.0  0.58412  0.26555  0.39516  1.0000
  C   C1512     1.0  0.59600  0.27548  0.40043  1.0000
  H   H1215     1.0  0.60711  0.24812  0.43749  1.0000
  H   H1216     1.0  0.58636  0.23047  0.42815  1.0000
  H   H1217     1.0  0.57785  0.27036  0.38331  1.0000
  H   H1218     1.0  0.59882  0.28796  0.39256  1.0000
  H   H1219     1.0  0.60715  0.19578  0.48314  1.0000
  C   C1513     1.0  0.78537  0.47386  0.42086  1.0000
  C   C1514     1.0  0.52351  0.14836  0.35000  1.0000
  C   C1515     1.0  0.53915  0.14935  0.33801  1.0000
  C   C1516     1.0  0.54621  0.16567  0.33329  1.0000
  C   C1517     1.0  0.53802  0.18100  0.34090  1.0000
  C   C1518     1.0  0.52300  0.17972  0.35366  1.0000
  C   C1519     1.0  0.51551  0.16363  0.35780  1.0000
  H   H1220     1.0  0.54521  0.13785  0.33157  1.0000
  H   H1221     1.0  0.55780  0.16656  0.32334  1.0000
  C   C1520     1.0  0.56811  0.08166  0.44423  1.0000
  C   C1521     1.0  0.58397  0.07254  0.43662  1.0000
  C   C1522     1.0  0.58431  0.06511  0.42094  1.0000
  C   C1523     1.0  0.56901  0.06723  0.41251  1.0000
  C   C1524     1.0  0.55291  0.07532  0.42082  1.0000
  C   C1525     1.0  0.55248  0.08251  0.43667  1.0000
  H   H1222     1.0  0.59600  0.07118  0.44277  1.0000
  H   H1223     1.0  0.59652  0.05804  0.41514  1.0000
  H   H1224     1.0  0.54085  0.07612  0.41504  1.0000
  H   H1225     1.0  0.54021  0.08914  0.44287  1.0000
  H   H1226     1.0  0.57701  0.00855  0.31914  1.0000
  C   C1526     1.0  0.63561  0.19954  0.45568  1.0000
  C   C1527     1.0  0.63014  0.18586  0.44812  1.0000
  C   C1528     1.0  0.63165  0.16812  0.45656  1.0000
  H   H1227     1.0  0.53420  0.36548  0.30554  1.0000
  H   H1228     1.0  0.65736  0.31988  0.47102  1.0000
  H   H1229     1.0  0.63445  0.21309  0.44894  1.0000
  H   H1230     1.0  0.62477  0.18904  0.43561  1.0000
  C   C1529     1.0  0.89623  0.45976  0.33375  1.0000
  C   C1530     1.0  0.57360  0.22687  0.46968  1.0000
  C   C1531     1.0  0.93023  0.44484  0.43571  1.0000
  C   C1532     1.0  0.92511  0.43100  0.42845  1.0000
  C   C1533     1.0  0.91964  0.43421  0.41151  1.0000
  C   C1534     1.0  0.91921  0.45129  0.40190  1.0000
  C   C1535     1.0  0.92332  0.46533  0.40963  1.0000
  C   C1536     1.0  0.92897  0.46208  0.42645  1.0000
  H   H1231     1.0  0.92545  0.41780  0.43579  1.0000
  H   H1232     1.0  0.91603  0.42343  0.40573  1.0000
  H   H1233     1.0  0.92217  0.47872  0.40267  1.0000
  H   H1234     1.0  0.93248  0.47294  0.43218  1.0000
  C   C1537     1.0  0.87569  0.36853  0.47373  1.0000
  H   H1235     1.0  0.75915  0.48821  0.41860  1.0000
  C   C1538     1.0  0.68977  0.36159  0.48752  1.0000
  C   C1539     1.0  0.70215  0.48247  0.34201  1.0000
  C   C1540     1.0  0.84509  0.36464  0.47053  1.0000
  C   C1541     1.0  0.86345  0.36371  0.46393  1.0000
  C   C1542     1.0  0.57609  0.35425  0.35016  1.0000
  H   H1236     1.0  0.52018  0.34689  0.28327  1.0000
  H   H1237     1.0  0.83589  0.36076  0.46288  1.0000
  H   H1238     1.0  0.86820  0.35909  0.45118  1.0000
  C   C1543     1.0  0.64571  0.03846  0.43818  1.0000
  H   H1239     1.0  0.62103  0.03929  0.45606  1.0000
  C   C1544     1.0  0.50862  0.40228  0.28799  1.0000
  C   C1545     1.0  0.92228  0.46275  0.30402  1.0000
  C   C1546     1.0  0.53901  0.01327  0.31123  1.0000
  C   C1547     1.0  0.53281  0.02205  0.32614  1.0000
  H   H1240     1.0  0.88449  0.45408  0.42323  1.0000
  H   H1241     1.0  0.54366  0.02083  0.29872  1.0000
  S   S218      1.0  0.65442  0.26057  0.49016  1.0000
  H   H1242     1.0  0.54731  0.11433  0.48614  1.0000
  C   C1548     1.0  0.71805  0.48612  0.28557  1.0000
  C   C1549     1.0  0.52220  0.02677  0.42321  1.0000
  H   H1243     1.0  0.51490  0.13709  0.38745  1.0000
  C   C1550     1.0  0.52502  0.12026  0.47106  1.0000
  C   C1551     1.0  0.58880  0.35038  0.33566  1.0000
  H   H1244     1.0  0.85547  0.44472  0.43539  1.0000
  H   H1245     1.0  0.51432  0.09871  0.43175  1.0000
  Fe  Fe109     1.0  0.75449  0.39820  0.49047  1.0000
  H   H1246     1.0  0.69609  0.12779  0.44313  1.0000
  P   P50       1.0  0.56736  0.38047  0.29339  1.0000
  C   C1552     1.0  0.57076  0.37051  0.31569  1.0000
  C   C1553     1.0  0.52288  0.03838  0.48698  1.0000
  H   H1247     1.0  0.55357  0.21042  0.43107  1.0000
  S   S219      1.0  0.81429  0.48767  0.34941  1.0000
  H   H1248     1.0  0.59781  0.22831  0.48017  1.0000
  C   C1554     1.0  0.70951  0.31556  0.49264  1.0000
  C   C1555     1.0  0.54376  0.02452  0.44988  1.0000
  C   C1556     1.0  0.55826  0.37470  0.33036  1.0000
  C   C1557     1.0  0.56088  0.36649  0.34752  1.0000
  C   C1558     1.0  0.57471  0.36853  0.26019  1.0000
  C   C1559     1.0  0.54436  0.38961  0.29206  1.0000
  C   C1560     1.0  0.99079  0.46756  0.28122  1.0000
  C   C1561     1.0  0.57149  0.36358  0.27865  1.0000
  C   C1562     1.0  0.69408  0.37723  0.49215  1.0000
  C   C1563     1.0  0.97680  0.41637  0.42174  1.0000
  H   H1249     1.0  0.51373  0.02825  0.41285  1.0000
  H   H1250     1.0  0.88170  0.48785  0.43732  1.0000
  C   C1564     1.0  0.56973  0.34568  0.28530  1.0000
  H   H1251     1.0  0.79153  0.48666  0.47109  1.0000
  H   H1252     1.0  0.58398  0.18573  0.43271  1.0000
  C   C1565     1.0  0.69695  0.44913  0.33451  1.0000
  C   C1566     1.0  0.49994  0.27501  0.30524  1.0000
  H   H1253     1.0  0.81583  0.44679  0.36193  1.0000
  H   H1254     1.0  0.86016  0.49381  0.38545  1.0000
  C   C1567     1.0  0.58622  0.35857  0.31849  1.0000
  H   H1255     1.0  0.66927  0.14813  0.45312  1.0000
  H   H1256     1.0  0.94597  0.41563  0.38456  1.0000
  Fe  Fe110     1.0  0.64632  0.24222  0.47308  1.0000
  H   H1257     1.0  0.70188  0.24452  0.46973  1.0000
  H   H1258     1.0  0.67306  0.46297  0.32440  1.0000
  H   H1259     1.0  0.59614  0.35540  0.30735  1.0000
  C   C1568     1.0  0.94547  0.32265  0.48192  1.0000
  C   C1569     1.0  0.72512  0.32402  0.46354  1.0000
  C   C1570     1.0  0.93595  0.39607  0.30225  1.0000
  C   C1571     1.0  0.90529  0.47249  0.30348  1.0000
  P   P51       1.0  0.94859  0.43952  0.32066  1.0000
  C   C1572     1.0  0.50659  0.12558  0.47170  1.0000
  H   H1260     1.0  0.56621  0.34159  0.29938  1.0000
  C   C1573     1.0  0.63553  0.12747  0.32908  1.0000
  C   C1574     1.0  0.64924  0.11659  0.32011  1.0000
  C   C1575     1.0  0.65461  0.09924  0.32790  1.0000
  C   C1576     1.0  0.64616  0.09269  0.34458  1.0000
  C   C1577     1.0  0.63201  0.10335  0.35340  1.0000
  C   C1578     1.0  0.62707  0.12095  0.34576  1.0000
  P   P52       1.0  0.62165  0.09526  0.37527  1.0000
  C   C1579     1.0  0.62273  0.07126  0.37765  1.0000
  H   H1261     1.0  0.68544  0.34792  0.46653  1.0000
  C   C1580     1.0  0.62658  0.06047  0.39347  1.0000
  C   C1581     1.0  0.61885  0.04477  0.36537  1.0000
  C   C1582     1.0  0.61851  0.06328  0.36375  1.0000
  C   C1583     1.0  0.59813  0.10345  0.37794  1.0000
  C   C1584     1.0  0.58865  0.10702  0.36321  1.0000
  C   C1585     1.0  0.57042  0.11328  0.36538  1.0000
  C   C1586     1.0  0.56143  0.11556  0.38230  1.0000
  C   C1587     1.0  0.57067  0.11169  0.39708  1.0000
  C   C1588     1.0  0.58893  0.10552  0.39495  1.0000
  H   H1262     1.0  0.63151  0.14100  0.32316  1.0000
  H   H1263     1.0  0.65581  0.12166  0.30720  1.0000
  H   H1264     1.0  0.66542  0.09089  0.32109  1.0000
  H   H1265     1.0  0.65073  0.07935  0.35059  1.0000
  H   H1266     1.0  0.61668  0.12965  0.35268  1.0000
  H   H1267     1.0  0.61636  0.12965  0.38861  1.0000
  H   H1268     1.0  0.62861  0.06623  0.40494  1.0000
  H   H1269     1.0  0.61544  0.03872  0.35466  1.0000
  H   H1270     1.0  0.61470  0.07139  0.35174  1.0000
  H   H1271     1.0  0.59524  0.10479  0.35006  1.0000
  H   H1272     1.0  0.56315  0.11607  0.35400  1.0000
  H   H1273     1.0  0.54723  0.11993  0.38394  1.0000
  H   H1274     1.0  0.56357  0.11296  0.41025  1.0000
  H   H1275     1.0  0.59578  0.10196  0.40661  1.0000
  C   C1589     1.0  0.75048  0.43801  0.33760  1.0000
  C   C1590     1.0  0.76548  0.43121  0.34625  1.0000
  C   C1591     1.0  0.78222  0.43615  0.33908  1.0000
  C   C1592     1.0  0.78415  0.44784  0.32324  1.0000
  C   C1593     1.0  0.76932  0.45462  0.31454  1.0000
  C   C1594     1.0  0.72779  0.42427  0.37008  1.0000
  C   C1595     1.0  0.71938  0.43551  0.38264  1.0000
  C   C1596     1.0  0.71866  0.42946  0.40086  1.0000
  C   C1597     1.0  0.72653  0.41229  0.40668  1.0000
  C   C1598     1.0  0.73516  0.40115  0.39428  1.0000
  H   H1276     1.0  0.76433  0.42238  0.35865  1.0000
  H   H1277     1.0  0.79365  0.43125  0.34600  1.0000
  H   H1278     1.0  0.79702  0.45208  0.31799  1.0000
  H   H1279     1.0  0.77062  0.46416  0.30258  1.0000
  H   H1280     1.0  0.71364  0.44905  0.37860  1.0000
  H   H1281     1.0  0.71263  0.43839  0.41046  1.0000
  H   H1282     1.0  0.72665  0.40789  0.42079  1.0000
  H   H1283     1.0  0.74205  0.38823  0.39882  1.0000
  C   C1599     1.0  0.63819  0.16428  0.47298  1.0000
  C   C1600     1.0  0.57523  0.33792  0.25529  1.0000
  C   C1601     1.0  0.53187  0.25390  0.27893  1.0000
  S   S220      1.0  0.50521  0.08076  0.35257  1.0000
  C   C1602     1.0  0.94803  0.42541  0.35656  1.0000
  C   C1603     1.0  0.93128  0.32019  0.47324  1.0000
  C   C1604     1.0  0.96638  0.45134  0.36478  1.0000
  P   P53       1.0  0.51633  0.02037  0.47782  1.0000
  C   C1605     1.0  0.58939  0.42667  0.28935  1.0000
  H   H1284     1.0  0.88626  0.45881  0.34541  1.0000
  H   H1285     1.0  0.57005  0.31919  0.27883  1.0000
  C   C1606     1.0  0.51680  0.14024  0.40023  1.0000
  C   C1607     1.0  0.52896  0.15179  0.40134  1.0000
  C   C1608     1.0  0.53130  0.15578  0.41795  1.0000
  C   C1609     1.0  0.52160  0.14806  0.43341  1.0000
  S   S221      1.0  0.64997  0.21212  0.48199  1.0000
  H   H1286     1.0  0.51681  0.17698  0.46287  1.0000
  C   C1610     1.0  0.64261  0.19559  0.47188  1.0000
  C   C1611     1.0  0.53362  0.99944  0.38670  1.0000
  C   C1612     1.0  0.50357  0.18799  0.31759  1.0000
  C   C1613     1.0  0.68018  0.15344  0.44418  1.0000
  H   H1287     1.0  0.53307  0.11701  0.45880  1.0000
  C   C1614     1.0  0.70925  0.14883  0.42687  1.0000
  C   C1615     1.0  0.58215  0.39732  0.28697  1.0000
  H   H1288     1.0  0.53647  0.15773  0.38931  1.0000
  H   H1289     1.0  0.54059  0.16491  0.41878  1.0000
  H   H1290     1.0  0.52340  0.15142  0.44614  1.0000
  C   C1616     1.0  0.64310  0.35353  0.42941  1.0000
  C   C1617     1.0  0.64851  0.33515  0.43051  1.0000
  C   C1618     1.0  0.66613  0.32833  0.43273  1.0000
  C   C1619     1.0  0.67834  0.33983  0.43387  1.0000
  C   C1620     1.0  0.67315  0.35836  0.43238  1.0000
  C   C1621     1.0  0.65533  0.36510  0.43037  1.0000
  P   P54       1.0  0.68902  0.37324  0.43376  1.0000
  C   C1622     1.0  0.71108  0.36436  0.42421  1.0000
  C   C1623     1.0  0.68204  0.39469  0.42151  1.0000
  C   C1624     1.0  0.68789  0.39845  0.40324  1.0000
  C   C1625     1.0  0.68201  0.41488  0.39377  1.0000
  C   C1626     1.0  0.67033  0.42768  0.40244  1.0000
  C   C1627     1.0  0.66423  0.42395  0.42054  1.0000
  C   C1628     1.0  0.66989  0.40747  0.43001  1.0000
  C   C1629     1.0  0.71336  0.35533  0.40921  1.0000
  C   C1630     1.0  0.73039  0.34796  0.40223  1.0000
  C   C1631     1.0  0.74526  0.34961  0.41011  1.0000
  C   C1632     1.0  0.74313  0.35873  0.42491  1.0000
  C   C1633     1.0  0.72614  0.36607  0.43193  1.0000
  C   C1634     1.0  0.68993  0.37522  0.45678  1.0000
  C   C1635     1.0  0.69450  0.39086  0.46148  1.0000
  H   H1291     1.0  0.51248  0.26857  0.30935  1.0000
  C   C1636     1.0  0.83879  0.37007  0.48725  1.0000
  C   C1637     1.0  0.89231  0.47108  0.31837  1.0000
  C   C1638     1.0  0.68785  0.36051  0.46991  1.0000
  H   H1292     1.0  0.62938  0.35876  0.42779  1.0000
  H   H1293     1.0  0.63906  0.32613  0.42973  1.0000
  H   H1294     1.0  0.67027  0.31404  0.43372  1.0000
  H   H1295     1.0  0.69184  0.33420  0.43587  1.0000
  H   H1296     1.0  0.65079  0.37926  0.42951  1.0000
  H   H1297     1.0  0.69709  0.38884  0.39628  1.0000
  H   H1298     1.0  0.68671  0.41787  0.37974  1.0000
  H   H1299     1.0  0.66602  0.44050  0.39512  1.0000
  H   H1300     1.0  0.65507  0.43385  0.42724  1.0000
  H   H1301     1.0  0.66472  0.40471  0.44396  1.0000
  H   H1302     1.0  0.70197  0.35379  0.40304  1.0000
  H   H1303     1.0  0.73206  0.34078  0.39082  1.0000
  H   H1304     1.0  0.75846  0.34384  0.40480  1.0000
  H   H1305     1.0  0.75467  0.36015  0.43099  1.0000
  H   H1306     1.0  0.72493  0.37289  0.44350  1.0000
  H   H1307     1.0  0.69730  0.40202  0.45146  1.0000
  C   C1639     1.0  0.63294  0.10400  0.39044  1.0000
  C   C1640     1.0  0.91319  0.45002  0.33435  1.0000
  H   H1308     1.0  0.51655  0.19143  0.35950  1.0000
  C   C1641     1.0  0.52670  0.01197  0.34225  1.0000
  C   C1642     1.0  0.81676  0.41943  0.47815  1.0000
  C   C1643     1.0  0.73569  0.40703  0.37607  1.0000
  H   H1309     1.0  0.74124  0.42157  0.31057  1.0000
  H   H1310     1.0  0.70901  0.21246  0.35299  1.0000
  Fe  Fe111     1.0  0.50940  0.24385  0.37450  1.0000
  C   C1644     1.0  0.80487  0.43512  0.47590  1.0000
  C   C1645     1.0  0.55614  0.15547  0.49084  1.0000
  C   C1646     1.0  0.75256  0.44975  0.32168  1.0000
  H   H1311     1.0  0.87927  0.47891  0.31806  1.0000
  C   C1647     1.0  0.59011  0.16058  0.42254  1.0000
  H   H1312     1.0  0.52170  0.01862  0.35380  1.0000
  H   H1313     1.0  0.97149  0.40595  0.32917  1.0000
  H   H1314     1.0  0.74267  0.39828  0.36668  1.0000
  C   C1648     1.0  0.50691  0.13275  0.41559  1.0000
  C   C1649     1.0  0.51497  0.02339  0.44109  1.0000
  H   H1315     1.0  0.83075  0.48446  0.39692  1.0000
  H   H1316     1.0  0.97061  0.33353  0.47805  1.0000
  P   P55       1.0  0.72872  0.43169  0.34644  1.0000
  C   C1650     1.0  0.57818  0.41342  0.29434  1.0000
  C   C1651     1.0  0.71470  0.46757  0.34567  1.0000
  C   C1652     1.0  0.62746  0.12152  0.39434  1.0000
  C   C1653     1.0  0.64832  0.34460  0.48177  1.0000
  C   C1654     1.0  0.70957  0.38805  0.33514  1.0000
  H   H1317     1.0  0.74065  0.21382  0.35570  1.0000
  H   H1318     1.0  0.69474  0.43644  0.33127  1.0000
  C   C1655     1.0  0.73256  0.41221  0.31770  1.0000
  H   H1319     1.0  0.73481  0.39772  0.29529  1.0000
  C   C1656     1.0  0.71331  0.21084  0.36603  1.0000
  H   H1320     1.0  0.65313  0.08097  0.39391  1.0000
  H   H1321     1.0  0.95678  0.47877  0.44762  1.0000
  C   C1657     1.0  0.84230  0.47761  0.40287  1.0000
  H   H1322     1.0  0.56948  0.24117  0.46848  1.0000
  H   H1323     1.0  0.78210  0.46193  0.41674  1.0000
  H   H1324     1.0  0.80943  0.41894  0.42491  1.0000
  C   C1658     1.0  0.72493  0.41361  0.33538  1.0000
  C   C1659     1.0  0.73113  0.21161  0.36755  1.0000
  H   H1325     1.0  0.53334  0.08066  0.47455  1.0000
  C   C1660     1.0  0.81166  0.42510  0.41125  1.0000
  H   H1326     1.0  0.72650  0.46924  0.35115  1.0000
  C   C1661     1.0  0.72888  0.39870  0.30893  1.0000
  C   C1662     1.0  0.71215  0.45075  0.34205  1.0000
  H   H1327     1.0  0.71453  0.37620  0.31079  1.0000
  H   H1328     1.0  0.79616  0.45789  0.45790  1.0000
  S   S222      1.0  0.76502  0.48042  0.34891  1.0000
  H   H1329     1.0  0.68727  0.20747  0.37981  1.0000
  H   H1330     1.0  0.62084  0.22705  0.39971  1.0000
  H   H1331     1.0  0.70242  0.47900  0.26702  1.0000
  P   P56       1.0  0.81936  0.45534  0.42383  1.0000
  C   C1663     1.0  0.84072  0.46340  0.41677  1.0000
  C   C1664     1.0  0.87409  0.47435  0.40348  1.0000
  C   C1665     1.0  0.81545  0.44278  0.40690  1.0000
  C   C1666     1.0  0.70100  0.20803  0.38131  1.0000
  S   S223      1.0  0.51193  0.12946  0.35340  1.0000
  H   H1332     1.0  0.63861  0.24797  0.40854  1.0000
  C   C1667     1.0  0.64800  0.09418  0.39731  1.0000
  H   H1333     1.0  0.96329  0.39520  0.41696  1.0000
  C   C1668     1.0  0.63413  0.22229  0.40318  1.0000
  C   C1669     1.0  0.64411  0.23408  0.40820  1.0000
  H   H1334     1.0  0.60058  0.34089  0.33772  1.0000
  H   H1335     1.0  0.55022  0.22144  0.46057  1.0000
  Fe  Fe112     1.0  0.66490  0.27665  0.46461  1.0000
  C   C1670     1.0  0.71321  0.40156  0.34394  1.0000
  C   C1671     1.0  0.97390  0.40329  0.41201  1.0000
  C   C1672     1.0  0.86480  0.42155  0.49115  1.0000
  C   C1673     1.0  0.62321  0.03410  0.38095  1.0000
  C   C1674     1.0  0.73667  0.20952  0.38438  1.0000
  H   H1336     1.0  0.53882  0.01170  0.38120  1.0000
  H   H1337     1.0  0.63346  0.19528  0.39886  1.0000
  H   H1338     1.0  0.97315  0.46168  0.36795  1.0000
  C   C1675     1.0  0.85895  0.47738  0.47167  1.0000
  C   C1676     1.0  0.87263  0.46066  0.41766  1.0000
  C   C1677     1.0  0.85602  0.45530  0.42442  1.0000
  C   C1678     1.0  0.62693  0.04195  0.39502  1.0000
  C   C1679     1.0  0.64127  0.20442  0.40266  1.0000
  C   C1680     1.0  0.66115  0.22800  0.41285  1.0000
  C   C1681     1.0  0.54026  0.02869  0.41870  1.0000
  C   C1682     1.0  0.77009  0.47302  0.48537  1.0000
  C   C1683     1.0  0.81036  0.41505  0.39784  1.0000
  C   C1684     1.0  0.57361  0.01813  0.36782  1.0000
  C   C1685     1.0  0.65819  0.02768  0.42773  1.0000
  C   C1686     1.0  0.81864  0.44153  0.44527  1.0000
  C   C1687     1.0  0.71743  0.38660  0.31765  1.0000
  H   H1339     1.0  0.70679  0.40265  0.35738  1.0000
  C   C1688     1.0  0.70644  0.20602  0.39826  1.0000
  C   C1689     1.0  0.99120  0.44907  0.28257  1.0000
  H   H1340     1.0  0.66865  0.23743  0.41651  1.0000
  H   H1341     1.0  0.52919  0.22697  0.41538  1.0000
  C   C1690     1.0  0.54024  0.20677  0.43493  1.0000
  C   C1691     1.0  0.70808  0.16713  0.42082  1.0000
  H   H1342     1.0  0.92608  0.39327  0.29468  1.0000
  C   C1692     1.0  0.80583  0.44615  0.45955  1.0000
  C   C1693     1.0  0.53978  0.40660  0.28277  1.0000
  S   S224      1.0  0.93956  0.36496  0.49390  1.0000
  C   C1694     1.0  0.66834  0.21000  0.41267  1.0000
  C   C1695     1.0  0.72439  0.20670  0.39968  1.0000
  C   C1696     1.0  0.65832  0.19827  0.40734  1.0000
  H   H1343     1.0  0.94330  0.34241  0.43228  1.0000
  C   C1697     1.0  0.99360  0.47600  0.49532  1.0000
  C   C1698     1.0  0.68710  0.48077  0.33446  1.0000
  C   C1699     1.0  0.95123  0.42531  0.37404  1.0000
  C   C1700     1.0  0.62874  0.01312  0.44729  1.0000
  C   C1701     1.0  0.95867  0.33835  0.45419  1.0000
  H   H1344     1.0  0.83810  0.40211  0.46545  1.0000
  C   C1702     1.0  0.58065  0.17226  0.43407  1.0000
  H   H1345     1.0  0.66360  0.18437  0.40681  1.0000
  C   C1703     1.0  0.56297  0.14909  0.44847  1.0000
  S   S225      1.0  0.53095  0.33244  0.24896  1.0000
  C   C1704     1.0  0.84920  0.49109  0.35088  1.0000
  H   H1346     1.0  0.71901  0.17202  0.41171  1.0000
  H   H1347     1.0  0.50319  0.16317  0.36676  1.0000
  P   P57       1.0  0.69065  0.20237  0.41810  1.0000
  H   H1348     1.0  0.70426  0.23678  0.41522  1.0000
  H   H1349     1.0  0.96842  0.41838  0.43421  1.0000
  H   H1350     1.0  0.62963  0.03372  0.40734  1.0000
  S   S226      1.0  0.64425  0.10103  0.46759  1.0000
  H   H1351     1.0  0.59369  0.13401  0.41539  1.0000
  C   C1705     1.0  0.69637  0.39189  0.47914  1.0000
  C   C1706     1.0  0.71550  0.31302  0.45636  1.0000
  C   C1707     1.0  0.50264  0.17073  0.31424  1.0000
  C   C1708     1.0  0.58959  0.21970  0.47619  1.0000
  H   H1352     1.0  0.81092  0.41491  0.36976  1.0000
  H   H1353     1.0  0.79439  0.43827  0.48658  1.0000
  H   H1354     1.0  0.62343  0.01978  0.38227  1.0000
  H   H1355     1.0  0.84984  0.47773  0.35805  1.0000
  S   S227      1.0  0.61891  0.25731  0.47140  1.0000
  H   H1356     1.0  0.56950  0.12389  0.43814  1.0000
  C   C1709     1.0  0.81495  0.44056  0.37566  1.0000
  C   C1710     1.0  0.51955  0.18809  0.45280  1.0000
  C   C1711     1.0  0.56723  0.24692  0.28648  1.0000
  C   C1712     1.0  0.93580  0.41342  0.30604  1.0000
  H   H1357     1.0  0.91906  0.32618  0.44913  1.0000
  H   H1358     1.0  0.65700  0.12390  0.42258  1.0000
  C   C1713     1.0  0.69515  0.21517  0.43457  1.0000
  H   H1359     1.0  0.57765  0.03929  0.32534  1.0000
  C   C1714     1.0  0.63624  0.12871  0.40573  1.0000
  H   H1360     1.0  0.51502  0.19463  0.31167  1.0000
  H   H1361     1.0  0.73506  0.33113  0.45502  1.0000
  H   H1362     1.0  0.52441  0.19175  0.48811  1.0000
  H   H1363     1.0  0.88699  0.47840  0.39825  1.0000
  H   H1364     1.0  0.89114  0.43254  0.45226  1.0000
  C   C1715     1.0  0.57687  0.02847  0.33621  1.0000
  C   C1716     1.0  0.54628  0.17093  0.48307  1.0000
  H   H1365     1.0  0.58284  0.01863  0.46160  1.0000
  C   C1717     1.0  0.70436  0.24202  0.44185  1.0000
  C   C1718     1.0  0.85893  0.48302  0.39629  1.0000
  C   C1719     1.0  0.96483  0.45045  0.30475  1.0000
  C   C1720     1.0  0.95941  0.33138  0.47204  1.0000
  H   H1366     1.0  0.97677  0.43063  0.46413  1.0000
  H   H1367     1.0  0.54645  0.38421  0.32860  1.0000
  C   C1721     1.0  0.69091  0.20953  0.45282  1.0000
  C   C1722     1.0  0.83020  0.42546  0.44754  1.0000
  H   H1368     1.0  0.68510  0.19735  0.45745  1.0000
  H   H1369     1.0  0.63168  0.14206  0.40909  1.0000
  C   C1723     1.0  0.60923  0.40756  0.27041  1.0000
  H   H1370     1.0  0.80740  0.40143  0.40138  1.0000
  C   C1724     1.0  0.55362  0.24002  0.29856  1.0000
  H   H1371     1.0  0.70897  0.25493  0.43769  1.0000
  C   C1725     1.0  0.60485  0.42378  0.27732  1.0000
  H   H1372     1.0  0.66760  0.09325  0.41493  1.0000
  C   C1726     1.0  0.81658  0.45055  0.38900  1.0000
  C   C1727     1.0  0.84420  0.46810  0.47479  1.0000
  C   C1728     1.0  0.81214  0.42271  0.38005  1.0000
  H   H1373     1.0  0.92578  0.42387  0.30124  1.0000
  C   C1729     1.0  0.57560  0.03193  0.35375  1.0000
  C   C1730     1.0  0.64376  0.17791  0.48049  1.0000
  H   H1374     1.0  0.81860  0.46435  0.38518  1.0000
  C   C1731     1.0  0.56713  0.16653  0.44724  1.0000
  C   C1732     1.0  0.97739  0.47752  0.29147  1.0000
  C   C1733     1.0  0.57251  0.13744  0.43695  1.0000
  H   H1375     1.0  0.57800  0.34773  0.36343  1.0000
  C   C1734     1.0  0.82936  0.41460  0.46394  1.0000
  C   C1735     1.0  0.69288  0.17877  0.42642  1.0000
  C   C1736     1.0  0.57675  0.35573  0.24857  1.0000
  Fe  Fe113     1.0  0.92126  0.48200  0.36827  1.0000
  C   C1737     1.0  0.56331  0.25700  0.27046  1.0000
  H   H1376     1.0  0.57568  0.04540  0.35652  1.0000
  H   H1377     1.0  0.66967  0.03311  0.42007  1.0000
  H   H1378     1.0  0.56778  0.44936  0.25555  1.0000
  C   C1738     1.0  0.70167  0.23166  0.42919  1.0000
  C   C1739     1.0  0.56287  0.21561  0.46487  1.0000
  H   H1379     1.0  0.75049  0.21009  0.38557  1.0000
  C   C1740     1.0  0.67904  0.17174  0.43826  1.0000
  Fe  Fe114     1.0  0.62779  0.27659  0.48647  1.0000
  H   H1380     1.0  0.86769  0.41346  0.46501  1.0000
  H   H1381     1.0  0.55244  0.14442  0.45831  1.0000
  C   C1741     1.0  0.63083  0.03114  0.44796  1.0000
  H   H1382     1.0  0.72889  0.20503  0.41264  1.0000
  S   S228      1.0  0.69098  0.28957  0.45726  1.0000
  C   C1742     1.0  0.65657  0.10129  0.40895  1.0000
  C   C1743     1.0  0.65063  0.11851  0.41325  1.0000
  H   H1383     1.0  0.83955  0.42102  0.43648  1.0000
  C   C1744     1.0  0.53106  0.06834  0.48297  1.0000
  H   H1384     1.0  0.57204  0.02132  0.38130  1.0000
  C   C1745     1.0  0.59462  0.01285  0.48590  1.0000
  H   H1385     1.0  0.60084  0.16496  0.41271  1.0000
  C   C1746     1.0  0.69359  0.21995  0.46544  1.0000
  C   C1747     1.0  0.87190  0.42200  0.47319  1.0000
  P   P58       1.0  0.55437  0.18196  0.46140  1.0000
  C   C1748     1.0  0.56848  0.19713  0.46589  1.0000
  H   H1386     1.0  0.66728  0.18042  0.44281  1.0000
  C   C1749     1.0  0.52646  0.21609  0.42584  1.0000
  H   H1387     1.0  0.61325  0.43427  0.27308  1.0000
  C   C1750     1.0  0.55104  0.02754  0.43203  1.0000
  H   H1388     1.0  0.54991  0.41473  0.27636  1.0000
  S   S229      1.0  0.91433  0.40351  0.48730  1.0000
  H   H1389     1.0  0.64755  0.35242  0.46885  1.0000
  C   C1751     1.0  0.88519  0.43267  0.46601  1.0000
  C   C1752     1.0  0.53671  0.19322  0.44902  1.0000
  C   C1753     1.0  0.59809  0.39426  0.27541  1.0000
  C   C1754     1.0  0.85748  0.49439  0.47667  1.0000
  C   C1755     1.0  0.92649  0.45170  0.31962  1.0000
  H   H1390     1.0  0.58080  0.24444  0.28960  1.0000
  H   H1391     1.0  0.53485  0.22323  0.49318  1.0000
  S   S230      1.0  0.61367  0.07352  0.47792  1.0000
  H   H1392     1.0  0.60193  0.38174  0.27004  1.0000
  C   C1756     1.0  0.52599  0.05436  0.47597  1.0000
  H   H1393     1.0  0.70040  0.40377  0.48264  1.0000
  C   C1757     1.0  0.99060  0.42670  0.41550  1.0000
  H   H1394     1.0  0.71823  0.31183  0.44230  1.0000
  C   C1758     1.0  0.93052  0.32730  0.45542  1.0000
  H   H1395     1.0  0.62111  0.40547  0.26089  1.0000
  S   S231      1.0  0.73442  0.33846  0.49195  1.0000
  H   H1396     1.0  0.63940  0.15073  0.47968  1.0000
  H   H1397     1.0  0.90223  0.48137  0.29160  1.0000
  C   C1759     1.0  0.95394  0.43857  0.34301  1.0000
  C   C1760     1.0  0.65370  0.32623  0.48299  1.0000
  C   C1761     1.0  0.58478  0.19015  0.47203  1.0000
  C   C1762     1.0  0.80615  0.49011  0.43058  1.0000
  S   S232      1.0  0.60218  0.11680  0.48091  1.0000
  C   C1763     1.0  0.96144  0.40330  0.32174  1.0000
  C   C1764     1.0  0.86931  0.37442  0.49021  1.0000
  H   H1398     1.0  0.90251  0.45025  0.47155  1.0000
  C   C1765     1.0  0.69963  0.30486  0.48540  1.0000
  C   C1766     1.0  0.77229  0.48870  0.42195  1.0000
  C   C1767     1.0  0.96155  0.38597  0.31792  1.0000
  H   H1399     1.0  0.81914  0.49079  0.43413  1.0000
  H   H1400     1.0  0.64906  0.17470  0.49306  1.0000
  H   H1401     1.0  0.99302  0.43639  0.42349  1.0000
  C   C1768     1.0  0.70282  0.48777  0.27672  1.0000
  H   H1402     1.0  0.81566  0.41054  0.49062  1.0000
  C   C1769     1.0  0.59500  0.20135  0.47763  1.0000
  H   H1403     1.0  0.54595  0.03135  0.40491  1.0000
  H   H1404     1.0  0.56818  0.14928  0.48359  1.0000
  C   C1770     1.0  0.57180  0.33289  0.27365  1.0000
  S   S233      1.0  0.59924  0.46676  0.24879  1.0000
  H   H1405     1.0  0.51933  0.33198  0.31462  1.0000
  H   H1406     1.0  0.66584  0.00192  0.41878  1.0000
  C   C1771     1.0  0.54574  0.26038  0.26661  1.0000
  H   H1407     1.0  0.50790  0.06847  0.43026  1.0000
  C   C1772     1.0  0.96013  0.43846  0.37820  1.0000
  H   H1408     1.0  0.87693  0.49303  0.35184  1.0000
  H   H1409     1.0  0.56869  0.04902  0.46746  1.0000
  H   H1410     1.0  0.98551  0.46025  0.39911  1.0000
  C   C1773     1.0  0.50254  0.09421  0.43965  1.0000
  C   C1774     1.0  0.94878  0.38234  0.30822  1.0000
  C   C1775     1.0  0.57653  0.04065  0.47694  1.0000
  C   C1776     1.0  0.58434  0.02351  0.47374  1.0000
  H   H1411     1.0  0.96166  0.43900  0.39191  1.0000
  C   C1777     1.0  0.94414  0.33650  0.44594  1.0000
  C   C1778     1.0  0.97831  0.44051  0.29432  1.0000
  C   C1779     1.0  0.82783  0.47594  0.48277  1.0000
  H   H1412     1.0  0.50638  0.01207  0.38990  1.0000
  C   C1780     1.0  0.89163  0.44261  0.47690  1.0000
  H   H1413     1.0  0.69024  0.29719  0.49402  1.0000
  H   H1414     1.0  0.55106  0.36951  0.35878  1.0000
  C   C1781     1.0  0.99219  0.48671  0.39626  1.0000
  S   S234      1.0  0.94524  0.49253  0.37383  1.0000
  H   H1415     1.0  0.61422  0.00172  0.41309  1.0000
  H   H1416     1.0  0.51847  0.42580  0.27323  1.0000
  H   H1417     1.0  0.87154  0.47149  0.46525  1.0000
  C   C1782     1.0  0.57647  0.01115  0.33273  1.0000
  C   C1783     1.0  0.94842  0.41710  0.31602  1.0000
  Fe  Fe115     1.0  0.50731  0.06786  0.38043  1.0000
  H   H1418     1.0  0.96922  0.34562  0.44693  1.0000
  H   H1419     1.0  0.54313  0.26829  0.25413  1.0000
  C   C1784     1.0  0.96393  0.49028  0.44388  1.0000
  H   H1420     1.0  0.84545  0.45477  0.47115  1.0000
  C   C1785     1.0  0.50924  0.21147  0.43023  1.0000
  C   C1786     1.0  0.71898  0.49725  0.29840  1.0000
  H   H1421     1.0  0.96808  0.46172  0.33730  1.0000
  C   C1787     1.0  0.52195  0.41293  0.28088  1.0000
  H   H1422     1.0  0.57519  0.38239  0.25473  1.0000
  S   S235      1.0  0.95761  0.40216  0.48789  1.0000
  H   H1423     1.0  0.94884  0.36890  0.30529  1.0000
  C   C1788     1.0  0.96338  0.45137  0.34727  1.0000
  S   S236      1.0  0.53368  0.38498  0.24800  1.0000
  C   C1789     1.0  0.53603  0.24334  0.29479  1.0000
  C   C1790     1.0  0.50951  0.13629  0.43235  1.0000
  H   H1424     1.0  0.52636  0.22289  0.26702  1.0000
  H   H1425     1.0  0.95432  0.47702  0.31111  1.0000
  H   H1426     1.0  0.51334  0.16403  0.30568  1.0000
  H   H1427     1.0  0.97902  0.42619  0.29524  1.0000
  Fe  Fe116     1.0  0.75005  0.49178  0.37285  1.0000
  C   C1791     1.0  0.52571  0.02228  0.45459  1.0000
  C   C1792     1.0  0.53316  0.11869  0.48647  1.0000
  H   H1428     1.0  0.52570  0.23776  0.30434  1.0000
  C   C1793     1.0  0.96440  0.46905  0.30307  1.0000
  C   C1794     1.0  0.50583  0.19728  0.44348  1.0000
  H   H1429     1.0  0.72926  0.47618  0.28238  1.0000
  H   H1430     1.0  0.57387  0.26240  0.26110  1.0000
  H   H1431     1.0  0.97839  0.49272  0.39848  1.0000
  H   H1432     1.0  0.97154  0.37534  0.32249  1.0000
  H   H1433     1.0  0.68981  0.21570  0.47947  1.0000
  H   H1434     1.0  0.92047  0.31324  0.48032  1.0000
  H   H1435     1.0  0.50280  0.37682  0.30211  1.0000
  C   C1795     1.0  0.50073  0.23720  0.27622  1.0000
  H   H1436     1.0  0.94763  0.28553  0.48362  1.0000
  C   C1796     1.0  0.50952  0.28826  0.24852  1.0000
  S   S237      1.0  0.92581  0.49064  0.33897  1.0000
  C   C1797     1.0  0.82600  0.49335  0.48722  1.0000
  C   C1798     1.0  0.53148  0.17920  0.49339  1.0000
  C   C1799     1.0  0.51527  0.99966  0.39172  1.0000
  H   H1437     1.0  0.63719  0.01709  0.48530  1.0000
  H   H1438     1.0  0.99735  0.40520  0.45291  1.0000
  C   C1800     1.0  0.99636  0.46820  0.39680  1.0000
  H   H1439     1.0  0.61762  0.00743  0.45508  1.0000
  H   H1440     1.0  0.57347  0.06072  0.49438  1.0000
  H   H1441     1.0  0.84876  0.49578  0.43925  1.0000
  C   C1801     1.0  0.65599  0.00993  0.42697  1.0000
  H   H1442     1.0  0.81683  0.46821  0.48556  1.0000
  H   H1443     1.0  0.70439  0.49547  0.34450  1.0000
  C   C1802     1.0  0.57918  0.04722  0.49220  1.0000
  H   H1444     1.0  0.67767  0.49245  0.33114  1.0000
  C   C1803     1.0  0.63985  0.00269  0.48829  1.0000
  C   C1804     1.0  0.88466  0.44210  0.49490  1.0000
  P   P59       1.0  0.50903  0.25840  0.27424  1.0000
  C   C1805     1.0  0.64138  0.00240  0.43681  1.0000
  C   C1806     1.0  0.50866  0.26981  0.25184  1.0000
  C   C1807     1.0  0.57307  0.00065  0.36446  1.0000
  C   C1808     1.0  0.51238  0.22203  0.27167  1.0000
  C   C1809     1.0  0.50609  0.20557  0.27312  1.0000
  H   H1445     1.0  0.51521  0.19390  0.26976  1.0000
  C   C1810     1.0  0.52433  0.99896  0.48962  1.0000
  H   H1446     1.0  0.60060  0.99959  0.48318  1.0000
  H   H1447     1.0  0.64004  0.36711  0.49625  1.0000
  C   C1811     1.0  0.66916  0.25908  0.52969  1.0000
  C   C1812     1.0  0.52405  0.03700  0.50522  1.0000
  S   S238      1.0  0.60936  0.29133  0.50704  1.0000
  H   H1448     1.0  0.50320  0.21361  0.54401  1.0000
  S   S239      1.0  0.93360  0.46808  0.58781  1.0000
  S   S240      1.0  0.93007  0.39378  0.53413  1.0000
  H   H1449     1.0  0.98444  0.40518  0.57281  1.0000
  S   S241      1.0  0.52790  0.10618  0.55768  1.0000
  C   C1813     1.0  0.85946  0.48364  0.59678  1.0000
  Fe  Fe117     1.0  0.53892  0.08305  0.57605  1.0000
  S   S242      1.0  0.56756  0.07542  0.58031  1.0000
  S   S243      1.0  0.51985  0.09045  0.59986  1.0000
  S   S244      1.0  0.62933  0.09114  0.51810  1.0000
  S   S245      1.0  0.52514  0.38484  0.68452  1.0000
  S   S246      1.0  0.52297  0.06380  0.56850  1.0000
  C   C1814     1.0  0.95823  0.32719  0.51591  1.0000
  S   S247      1.0  0.51998  0.28367  0.57924  1.0000
  C   C1815     1.0  0.98065  0.42599  0.62176  1.0000
  Fe  Fe118     1.0  0.50748  0.23810  0.60325  1.0000
  S   S248      1.0  0.51927  0.24172  0.57454  1.0000
  C   C1816     1.0  0.69778  0.47279  0.73238  1.0000
  Fe  Fe119     1.0  0.53779  0.25773  0.58344  1.0000
  S   S249      1.0  0.56787  0.25296  0.57673  1.0000
  S   S250      1.0  0.52739  0.25237  0.61253  1.0000
  Fe  Fe120     1.0  0.54055  0.38737  0.70659  1.0000
  S   S251      1.0  0.56923  0.39288  0.70316  1.0000
  C   C1817     1.0  0.59762  0.01942  0.50115  1.0000
  C   C1818     1.0  0.53717  0.45815  0.66521  1.0000
  Fe  Fe121     1.0  0.75878  0.47090  0.57918  1.0000
  H   H1450     1.0  0.70740  0.31616  0.50679  1.0000
  S   S252      1.0  0.76602  0.44287  0.57171  1.0000
  H   H1451     1.0  0.64450  0.27672  0.53151  1.0000
  H   H1452     1.0  0.95259  0.35863  0.54424  1.0000
  C   C1819     1.0  0.97222  0.26646  0.52445  1.0000
  H   H1453     1.0  0.68874  0.34999  0.49741  1.0000
  S   S253      1.0  0.75883  0.47750  0.60693  1.0000
  C   C1820     1.0  0.64529  0.34268  0.51387  1.0000
  Fe  Fe122     1.0  0.50842  0.27768  0.60806  1.0000
  C   C1821     1.0  0.58846  0.27615  0.61769  1.0000
  Fe  Fe123     1.0  0.60479  0.48131  0.71902  1.0000
  H   H1454     1.0  0.86884  0.46660  0.52428  1.0000
  S   S254      1.0  0.57995  0.47156  0.71312  1.0000
  P   P60       1.0  0.61198  0.00579  0.51605  1.0000
  S   S255      1.0  0.67132  0.48191  0.69679  1.0000
  S   S256      1.0  0.62968  0.46728  0.72986  1.0000
  C   C1822     1.0  0.82055  0.43339  0.68086  1.0000
  H   H1455     1.0  0.96861  0.39131  0.55395  1.0000
  C   C1823     1.0  0.70762  0.48631  0.65172  1.0000
  C   C1824     1.0  0.69894  0.48115  0.66898  1.0000
  S   S257      1.0  0.76433  0.37119  0.50383  1.0000
  C   C1825     1.0  0.71057  0.47591  0.71758  1.0000
  C   C1826     1.0  0.98351  0.44190  0.59185  1.0000
  Fe  Fe124     1.0  0.64344  0.48916  0.71205  1.0000
  H   H1456     1.0  0.70565  0.47078  0.67780  1.0000
  C   C1827     1.0  0.74638  0.42626  0.52372  1.0000
  C   C1828     1.0  0.76300  0.41875  0.52874  1.0000
  C   C1829     1.0  0.76885  0.42393  0.54350  1.0000
  C   C1830     1.0  0.75829  0.43685  0.55315  1.0000
  C   C1831     1.0  0.74167  0.44434  0.54814  1.0000
  C   C1832     1.0  0.73572  0.43899  0.53354  1.0000
  H   H1457     1.0  0.78165  0.41794  0.54739  1.0000
  H   H1458     1.0  0.73332  0.45411  0.55564  1.0000
  H   H1459     1.0  0.72279  0.44470  0.52981  1.0000
  C   C1833     1.0  0.57244  0.41472  0.70583  1.0000
  C   C1834     1.0  0.55867  0.42888  0.70421  1.0000
  C   C1835     1.0  0.56138  0.44615  0.70625  1.0000
  C   C1836     1.0  0.57779  0.44952  0.71014  1.0000
  C   C1837     1.0  0.59164  0.43539  0.71178  1.0000
  C   C1838     1.0  0.58899  0.41805  0.70950  1.0000
  H   H1460     1.0  0.54598  0.42662  0.70109  1.0000
  H   H1461     1.0  0.55059  0.45694  0.70502  1.0000
  H   H1462     1.0  0.60435  0.43782  0.71476  1.0000
  H   H1463     1.0  0.74010  0.48916  0.66964  1.0000
  H   H1464     1.0  0.62904  0.34345  0.59938  1.0000
  H   H1465     1.0  0.56148  0.20689  0.50561  1.0000
  H   H1466     1.0  0.83459  0.44120  0.61886  1.0000
  C   C1839     1.0  0.51881  0.45790  0.66950  1.0000
  C   C1840     1.0  0.50394  0.17834  0.57963  1.0000
  C   C1841     1.0  0.59748  0.27934  0.52533  1.0000
  C   C1842     1.0  0.57931  0.28504  0.53026  1.0000
  C   C1843     1.0  0.56988  0.27663  0.54566  1.0000
  C   C1844     1.0  0.57870  0.26273  0.55644  1.0000
  C   C1845     1.0  0.59684  0.25700  0.55150  1.0000
  C   C1846     1.0  0.60618  0.26516  0.53592  1.0000
  H   H1467     1.0  0.57255  0.29609  0.52219  1.0000
  H   H1468     1.0  0.55591  0.28117  0.54939  1.0000
  H   H1469     1.0  0.60372  0.24621  0.55976  1.0000
  H   H1470     1.0  0.62014  0.26064  0.53225  1.0000
  C   C1847     1.0  0.58369  0.08142  0.56251  1.0000
  C   C1848     1.0  0.60061  0.08297  0.56632  1.0000
  C   C1849     1.0  0.61430  0.08648  0.55253  1.0000
  C   C1850     1.0  0.61132  0.08800  0.53482  1.0000
  C   C1851     1.0  0.59429  0.08677  0.53086  1.0000
  C   C1852     1.0  0.58037  0.08362  0.54477  1.0000
  H   H1471     1.0  0.60317  0.08134  0.58001  1.0000
  H   H1472     1.0  0.62738  0.08765  0.55560  1.0000
  H   H1473     1.0  0.59193  0.08805  0.51715  1.0000
  H   H1474     1.0  0.56726  0.08247  0.54180  1.0000
  C   C1853     1.0  0.55614  0.02255  0.61318  1.0000
  H   H1475     1.0  0.88254  0.34220  0.51380  1.0000
  H   H1476     1.0  0.54532  0.44769  0.65844  1.0000
  C   C1854     1.0  0.98647  0.33709  0.51812  1.0000
  H   H1477     1.0  0.59209  0.04250  0.51555  1.0000
  H   H1478     1.0  0.75664  0.49661  0.63974  1.0000
  C   C1855     1.0  0.94232  0.44992  0.53576  1.0000
  C   C1856     1.0  0.93886  0.44498  0.51994  1.0000
  C   C1857     1.0  0.93419  0.42805  0.51975  1.0000
  C   C1858     1.0  0.93348  0.41574  0.53523  1.0000
  C   C1859     1.0  0.93662  0.42074  0.55118  1.0000
  C   C1860     1.0  0.94103  0.43787  0.55145  1.0000
  H   H1479     1.0  0.62927  0.20386  0.51858  1.0000
  H   H1480     1.0  0.97912  0.26106  0.53582  1.0000
  H   H1481     1.0  0.93612  0.41126  0.56318  1.0000
  H   H1482     1.0  0.94398  0.44150  0.56364  1.0000
  C   C1861     1.0  0.53989  0.03372  0.61225  1.0000
  C   C1862     1.0  0.65060  0.32416  0.51518  1.0000
  H   H1483     1.0  0.55354  0.32801  0.68092  1.0000
  C   C1863     1.0  0.71693  0.49149  0.52377  1.0000
  H   H1484     1.0  0.81842  0.47257  0.59347  1.0000
  C   C1864     1.0  0.58022  0.15492  0.54849  1.0000
  H   H1485     1.0  0.50492  0.20634  0.58036  1.0000
  H   H1486     1.0  0.74945  0.46064  0.50289  1.0000
  C   C1865     1.0  0.83987  0.43951  0.53046  1.0000
  H   H1487     1.0  0.98134  0.48942  0.53602  1.0000
  C   C1866     1.0  0.97682  0.32614  0.51133  1.0000
  H   H1488     1.0  0.60624  0.04561  0.56218  1.0000
  C   C1867     1.0  0.77794  0.45978  0.67375  1.0000
  H   H1489     1.0  0.64723  0.01855  0.51402  1.0000
  H   H1490     1.0  0.57239  0.04246  0.64311  1.0000
  C   C1868     1.0  0.98653  0.40885  0.55853  1.0000
  H   H1491     1.0  0.78348  0.44937  0.68334  1.0000
  H   H1492     1.0  0.84274  0.44452  0.55695  1.0000
  C   C1869     1.0  0.83767  0.49237  0.64344  1.0000
  H   H1493     1.0  0.85054  0.45976  0.59165  1.0000
  C   C1870     1.0  0.58593  0.33652  0.60014  1.0000
  H   H1494     1.0  0.60369  0.33303  0.62021  1.0000
  H   H1495     1.0  0.96756  0.48805  0.50575  1.0000
  C   C1871     1.0  0.82771  0.44048  0.51824  1.0000
  C   C1872     1.0  0.59239  0.23484  0.51823  1.0000
  H   H1496     1.0  0.98518  0.35760  0.53484  1.0000
  C   C1873     1.0  0.92275  0.31619  0.51631  1.0000
  C   C1874     1.0  0.58255  0.16842  0.51775  1.0000
  H   H1497     1.0  0.54797  0.19494  0.61641  1.0000
  C   C1875     1.0  0.59511  0.13765  0.52518  1.0000
  C   C1876     1.0  0.82157  0.43907  0.61652  1.0000
  H   H1498     1.0  0.78634  0.48026  0.63122  1.0000
  H   H1499     1.0  0.52101  0.02516  0.51407  1.0000
  C   C1877     1.0  0.85836  0.46513  0.64345  1.0000
  H   H1500     1.0  0.56324  0.04867  0.54588  1.0000
  C   C1878     1.0  0.97763  0.40082  0.54790  1.0000
  H   H1501     1.0  0.53516  0.48692  0.71427  1.0000
  H   H1502     1.0  0.51124  0.02612  0.58389  1.0000
  H   H1503     1.0  0.57567  0.36279  0.62398  1.0000
  C   C1879     1.0  0.88351  0.37708  0.53546  1.0000
  H   H1504     1.0  0.57211  0.34123  0.57684  1.0000
  H   H1505     1.0  0.87018  0.35456  0.54765  1.0000
  C   C1880     1.0  0.83377  0.44539  0.54712  1.0000
  C   C1881     1.0  0.88617  0.46690  0.54373  1.0000
  C   C1882     1.0  0.61539  0.20953  0.52109  1.0000
  C   C1883     1.0  0.56325  0.03987  0.63464  1.0000
  C   C1884     1.0  0.61660  0.34292  0.59451  1.0000
  H   H1506     1.0  0.66290  0.24773  0.52808  1.0000
  P   P61       1.0  0.86280  0.42955  0.52574  1.0000
  H   H1507     1.0  0.90324  0.46314  0.56428  1.0000
  C   C1885     1.0  0.86488  0.40584  0.53301  1.0000
  C   C1886     1.0  0.82336  0.48252  0.64547  1.0000
  Fe  Fe125     1.0  0.50745  0.11281  0.58090  1.0000
  C   C1887     1.0  0.84650  0.47344  0.59413  1.0000
  H   H1508     1.0  0.50401  0.17995  0.56536  1.0000
  P   P62       1.0  0.80820  0.45068  0.64955  1.0000
  C   C1888     1.0  0.97113  0.25559  0.51166  1.0000
  C   C1889     1.0  0.68765  0.25743  0.52907  1.0000
  H   H1509     1.0  0.97390  0.42476  0.63529  1.0000
  C   C1890     1.0  0.65874  0.27549  0.53182  1.0000
  C   C1891     1.0  0.66669  0.29023  0.53406  1.0000
  C   C1892     1.0  0.68531  0.28848  0.53339  1.0000
  P   P63       1.0  0.65304  0.31138  0.53668  1.0000
  C   C1893     1.0  0.63157  0.30687  0.54861  1.0000
  C   C1894     1.0  0.66398  0.32406  0.54885  1.0000
  C   C1895     1.0  0.67780  0.33347  0.53983  1.0000
  C   C1896     1.0  0.68664  0.34316  0.54896  1.0000
  C   C1897     1.0  0.68173  0.34357  0.56721  1.0000
  C   C1898     1.0  0.66800  0.33425  0.57633  1.0000
  C   C1899     1.0  0.65914  0.32451  0.56722  1.0000
  C   C1900     1.0  0.63072  0.29389  0.56369  1.0000
  C   C1901     1.0  0.61425  0.28950  0.57241  1.0000
  C   C1902     1.0  0.59921  0.31091  0.55120  1.0000
  C   C1903     1.0  0.61567  0.31524  0.54233  1.0000
  C   C1904     1.0  0.76264  0.48644  0.64932  1.0000
  H   H1510     1.0  0.87196  0.45850  0.64198  1.0000
  H   H1511     1.0  0.52073  0.32473  0.57887  1.0000
  H   H1512     1.0  0.54336  0.06178  0.64156  1.0000
  S   S258      1.0  0.51527  0.33359  0.69306  1.0000
  H   H1513     1.0  0.93128  0.42455  0.50751  1.0000
  C   C1905     1.0  0.76319  0.47579  0.51673  1.0000
  S   S259      1.0  0.50104  0.14339  0.57783  1.0000
  H   H1514     1.0  0.50480  0.25459  0.66937  1.0000
  H   H1515     1.0  0.64214  0.34925  0.52573  1.0000
  H   H1516     1.0  0.88690  0.48109  0.54070  1.0000
  H   H1517     1.0  0.68198  0.33306  0.52574  1.0000
  H   H1518     1.0  0.68870  0.35100  0.57429  1.0000
  Fe  Fe126     1.0  0.51547  0.36101  0.70224  1.0000
  H   H1519     1.0  0.51741  0.28565  0.65601  1.0000
  H   H1520     1.0  0.64283  0.28677  0.56837  1.0000
  H   H1521     1.0  0.61370  0.27894  0.58351  1.0000
  H   H1522     1.0  0.61586  0.32454  0.53020  1.0000
  C   C1906     1.0  0.55267  0.17931  0.57651  1.0000
  H   H1523     1.0  0.71888  0.46476  0.71209  1.0000
  P   P64       1.0  0.56775  0.19176  0.54216  1.0000
  H   H1524     1.0  0.97861  0.45293  0.58247  1.0000
  H   H1525     1.0  0.51132  0.01553  0.54555  1.0000
  C   C1907     1.0  0.96446  0.28431  0.52257  1.0000
  Fe  Fe127     1.0  0.77655  0.49803  0.59343  1.0000
  H   H1526     1.0  0.69633  0.37776  0.50566  1.0000
  H   H1527     1.0  0.60693  0.18494  0.53434  1.0000
  H   H1528     1.0  0.56595  0.23043  0.53004  1.0000
  H   H1529     1.0  0.59859  0.30120  0.61020  1.0000
  H   H1530     1.0  0.60245  0.12532  0.52112  1.0000
  C   C1908     1.0  0.97463  0.43994  0.60923  1.0000
  C   C1909     1.0  0.58981  0.03675  0.50421  1.0000
  C   C1910     1.0  0.64409  0.35284  0.49722  1.0000
  C   C1911     1.0  0.89544  0.45684  0.55701  1.0000
  C   C1912     1.0  0.54693  0.05077  0.63378  1.0000
  C   C1913     1.0  0.89977  0.30457  0.53864  1.0000
  H   H1531     1.0  0.62527  0.40618  0.73878  1.0000
  H   H1532     1.0  0.84687  0.44081  0.64660  1.0000
  C   C1914     1.0  0.77667  0.48651  0.51530  1.0000
  H   H1533     1.0  0.69798  0.48298  0.54598  1.0000
  C   C1915     1.0  0.98011  0.49030  0.49768  1.0000
  H   H1534     1.0  0.69193  0.29965  0.53460  1.0000
  C   C1916     1.0  0.59203  0.15253  0.51251  1.0000
  H   H1535     1.0  0.71011  0.27099  0.53002  1.0000
  C   C1917     1.0  0.58439  0.34171  0.58201  1.0000
  C   C1918     1.0  0.56109  0.02982  0.56974  1.0000
  H   H1536     1.0  0.96315  0.44938  0.61306  1.0000
  C   C1919     1.0  0.80822  0.41485  0.66413  1.0000
  C   C1920     1.0  0.71209  0.49335  0.70940  1.0000
  C   C1921     1.0  0.98920  0.48549  0.61438  1.0000
  H   H1537     1.0  0.63704  0.05324  0.55420  1.0000
  H   H1538     1.0  0.56512  0.03873  0.57765  1.0000
  H   H1539     1.0  0.53073  0.03167  0.60357  1.0000
  H   H1540     1.0  0.98382  0.31727  0.50206  1.0000
  C   C1922     1.0  0.63810  0.02407  0.52458  1.0000
  C   C1923     1.0  0.61524  0.03931  0.55190  1.0000
  H   H1541     1.0  0.80203  0.41309  0.65285  1.0000
  H   H1542     1.0  0.52174  0.29819  0.68292  1.0000
  C   C1924     1.0  0.53099  0.20287  0.54278  1.0000
  C   C1925     1.0  0.56775  0.20540  0.57397  1.0000
  H   H1543     1.0  0.54788  0.16926  0.57058  1.0000
  C   C1926     1.0  0.81270  0.43156  0.66595  1.0000
  H   H1544     1.0  0.53655  0.07764  0.50635  1.0000
  H   H1545     1.0  0.52903  0.12000  0.51468  1.0000
  H   H1546     1.0  0.69574  0.24482  0.52698  1.0000
  C   C1927     1.0  0.53373  0.21720  0.50694  1.0000
  S   S260      1.0  0.94864  0.47104  0.53540  1.0000
  C   C1928     1.0  0.50440  0.19336  0.58811  1.0000
  S   S261      1.0  0.73451  0.49037  0.57392  1.0000
  H   H1547     1.0  0.51151  0.36993  0.60775  1.0000
  H   H1548     1.0  0.89575  0.29458  0.54952  1.0000
  H   H1549     1.0  0.62016  0.23567  0.50812  1.0000
  C   C1929     1.0  0.54766  0.20080  0.53216  1.0000
  C   C1930     1.0  0.55248  0.19384  0.60247  1.0000
  C   C1931     1.0  0.60264  0.19886  0.52996  1.0000
  C   C1932     1.0  0.62060  0.01983  0.52882  1.0000
  H   H1550     1.0  0.93542  0.33965  0.53230  1.0000
  C   C1933     1.0  0.54123  0.32698  0.59444  1.0000
  C   C1934     1.0  0.52511  0.33262  0.58759  1.0000
  H   H1551     1.0  0.72279  0.47803  0.52175  1.0000
  C   C1935     1.0  0.99392  0.46443  0.54821  1.0000
  H   H1552     1.0  0.54923  0.31483  0.59070  1.0000
  H   H1553     1.0  0.77783  0.44225  0.63468  1.0000
  C   C1936     1.0  0.85516  0.48369  0.64231  1.0000
  H   H1554     1.0  0.97719  0.24177  0.51310  1.0000
  H   H1555     1.0  0.57464  0.25305  0.62548  1.0000
  C   C1937     1.0  0.51633  0.48429  0.68432  1.0000
  C   C1938     1.0  0.65447  0.31595  0.49962  1.0000
  C   C1939     1.0  0.87616  0.45861  0.53439  1.0000
  Fe  Fe128     1.0  0.50976  0.38058  0.73612  1.0000
  H   H1556     1.0  0.88498  0.41591  0.55480  1.0000
  C   C1940     1.0  0.58456  0.20604  0.53268  1.0000
  C   C1941     1.0  0.51680  0.30703  0.67182  1.0000
  H   H1557     1.0  0.72179  0.49542  0.69776  1.0000
  H   H1558     1.0  0.54102  0.49566  0.68215  1.0000
  C   C1942     1.0  0.81586  0.45218  0.55141  1.0000
  C   C1943     1.0  0.50225  0.01864  0.59332  1.0000
  H   H1559     1.0  0.66437  0.33444  0.59053  1.0000
  H   H1560     1.0  0.62578  0.00729  0.57862  1.0000
  P   P65       1.0  0.56734  0.32907  0.61549  1.0000
  C   C1944     1.0  0.99124  0.41791  0.52153  1.0000
  H   H1561     1.0  0.84045  0.37259  0.55245  1.0000
  H   H1562     1.0  0.59975  0.40717  0.71067  1.0000
  P   P66       1.0  0.94557  0.31448  0.50543  1.0000
  C   C1945     1.0  0.55077  0.00738  0.54876  1.0000
  H   H1563     1.0  0.51476  0.17824  0.51879  1.0000
  C   C1946     1.0  0.82645  0.46382  0.64667  1.0000
  C   C1947     1.0  0.97775  0.34880  0.52995  1.0000
  C   C1948     1.0  0.78724  0.46371  0.65665  1.0000
  H   H1564     1.0  0.98276  0.45752  0.54746  1.0000
  H   H1565     1.0  0.83175  0.42985  0.59125  1.0000
  C   C1949     1.0  0.61493  0.34816  0.57651  1.0000
  H   H1566     1.0  0.50181  0.35224  0.58721  1.0000
  H   H1567     1.0  0.97262  0.39945  0.52137  1.0000
  C   C1950     1.0  0.50221  0.17473  0.61652  1.0000
  H   H1568     1.0  0.81112  0.45662  0.56428  1.0000
  H   H1569     1.0  0.50562  0.22653  0.51222  1.0000
  C   C1951     1.0  0.56009  0.03548  0.55167  1.0000
  H   H1570     1.0  0.82963  0.48828  0.55445  1.0000
  H   H1571     1.0  0.77535  0.43098  0.60693  1.0000
  H   H1572     1.0  0.65731  0.03969  0.53010  1.0000
  C   C1952     1.0  0.50836  0.47109  0.67872  1.0000
  Fe  Fe129     1.0  0.50946  0.08785  0.55299  1.0000
  H   H1573     1.0  0.52961  0.19820  0.55682  1.0000
  C   C1953     1.0  0.55738  0.01268  0.57740  1.0000
  C   C1954     1.0  0.52613  0.17174  0.51085  1.0000
  Fe  Fe130     1.0  0.90726  0.48611  0.59002  1.0000
  H   H1574     1.0  0.59580  0.02435  0.54612  1.0000
  H   H1575     1.0  0.77857  0.49194  0.52699  1.0000
  C   C1955     1.0  0.51423  0.29982  0.65659  1.0000
  C   C1956     1.0  0.52877  0.05123  0.51220  1.0000
  C   C1957     1.0  0.51298  0.32551  0.67286  1.0000
  S   S262      1.0  0.50258  0.08867  0.52564  1.0000
  H   H1576     1.0  0.92702  0.29244  0.53533  1.0000
  C   C1958     1.0  0.88716  0.31853  0.53263  1.0000
  C   C1959     1.0  0.81972  0.40203  0.69168  1.0000
  H   H1577     1.0  0.93973  0.45429  0.50781  1.0000
  C   C1960     1.0  0.51725  0.21910  0.51765  1.0000
  H   H1578     1.0  0.87337  0.31929  0.53871  1.0000
  C   C1961     1.0  0.55539  0.02407  0.54109  1.0000
  C   C1962     1.0  0.82002  0.43258  0.60079  1.0000
  H   H1579     1.0  0.80025  0.44760  0.51349  1.0000
  C   C1963     1.0  0.57965  0.22431  0.52738  1.0000
  H   H1580     1.0  0.80835  0.38726  0.67543  1.0000
  C   C1964     1.0  0.55084  0.14809  0.50835  1.0000
  C   C1965     1.0  0.50298  0.16134  0.58943  1.0000
  C   C1966     1.0  0.56288  0.19181  0.56600  1.0000
  S   S263      1.0  0.51879  0.40541  0.72020  1.0000
  H   H1581     1.0  0.80202  0.42493  0.58504  1.0000
  C   C1967     1.0  0.80637  0.44304  0.62878  1.0000
  C   C1968     1.0  0.88512  0.43012  0.55142  1.0000
  C   C1969     1.0  0.51587  0.21182  0.53554  1.0000
  C   C1970     1.0  0.53584  0.15622  0.51836  1.0000
  H   H1582     1.0  0.90183  0.43088  0.57143  1.0000
  C   C1971     1.0  0.89231  0.33144  0.51864  1.0000
  H   H1583     1.0  0.58841  0.24879  0.51365  1.0000
  H   H1584     1.0  0.58050  0.17984  0.50783  1.0000
  C   C1972     1.0  0.95941  0.34935  0.53525  1.0000
  C   C1973     1.0  0.91750  0.30339  0.53053  1.0000
  S   S264      1.0  0.88169  0.47316  0.59821  1.0000
  H   H1585     1.0  0.82604  0.48329  0.52411  1.0000
  C   C1974     1.0  0.69573  0.27216  0.53083  1.0000
  C   C1975     1.0  0.78827  0.43321  0.60964  1.0000
  H   H1586     1.0  0.52883  0.05065  0.52640  1.0000
  H   H1587     1.0  0.53973  0.17059  0.60265  1.0000
  S   S265      1.0  0.50180  0.21079  0.61788  1.0000
  H   H1588     1.0  0.59754  0.35155  0.55631  1.0000
  H   H1589     1.0  0.64864  0.31735  0.57458  1.0000
  H   H1590     1.0  0.96536  0.29250  0.53266  1.0000
  S   S266      1.0  0.50317  0.30265  0.62283  1.0000
  Fe  Fe131     1.0  0.93848  0.48291  0.56046  1.0000
  C   C1976     1.0  0.75335  0.48227  0.66621  1.0000
  H   H1591     1.0  0.62609  0.35269  0.56737  1.0000
  C   C1977     1.0  0.94969  0.33849  0.52841  1.0000
  C   C1978     1.0  0.80336  0.42974  0.59731  1.0000
  H   H1592     1.0  0.55851  0.13615  0.51427  1.0000
  H   H1593     1.0  0.99146  0.46284  0.50210  1.0000
  H   H1594     1.0  0.53185  0.15055  0.53200  1.0000
  Fe  Fe132     1.0  0.50020  0.26727  0.57283  1.0000
  H   H1595     1.0  0.81006  0.48969  0.64576  1.0000
  C   C1979     1.0  0.50317  0.19175  0.60664  1.0000
  C   C1980     1.0  0.82832  0.48064  0.59516  1.0000
  H   H1596     1.0  0.75510  0.47310  0.52944  1.0000
  H   H1597     1.0  0.55537  0.02814  0.52695  1.0000
  H   H1598     1.0  0.57358  0.37512  0.65235  1.0000
  C   C1981     1.0  0.57661  0.16988  0.53578  1.0000
  C   C1982     1.0  0.54502  0.47191  0.66967  1.0000
  H   H1599     1.0  0.65823  0.30167  0.50020  1.0000
  C   C1983     1.0  0.81176  0.40015  0.67695  1.0000
  C   C1984     1.0  0.82409  0.41865  0.69364  1.0000
  C   C1985     1.0  0.55183  0.00164  0.56681  1.0000
  Fe  Fe133     1.0  0.50310  0.07215  0.59113  1.0000
  C   C1986     1.0  0.59883  0.34758  0.57028  1.0000
  C   C1987     1.0  0.68158  0.48906  0.67483  1.0000
  H   H1600     1.0  0.82396  0.44620  0.68260  1.0000
  H   H1601     1.0  0.56586  0.21726  0.59803  1.0000
  C   C1988     1.0  0.64400  0.03598  0.53382  1.0000
  S   S267      1.0  0.53260  0.36240  0.72357  1.0000
  C   C1989     1.0  0.87594  0.44005  0.53783  1.0000
  C   C1990     1.0  0.84408  0.45520  0.64580  1.0000
  C   C1991     1.0  0.78974  0.43975  0.62532  1.0000
  H   H1602     1.0  0.54532  0.27087  0.63328  1.0000
  S   S268      1.0  0.77810  0.48979  0.56645  1.0000
  C   C1992     1.0  0.56251  0.20642  0.59212  1.0000
  C   C1993     1.0  0.60933  0.02737  0.54273  1.0000
  C   C1994     1.0  0.51988  0.35802  0.60393  1.0000
  C   C1995     1.0  0.59849  0.29808  0.56625  1.0000
  C   C1996     1.0  0.58906  0.13879  0.54314  1.0000
  C   C1997     1.0  0.56373  0.35221  0.66840  1.0000
  C   C1998     1.0  0.57349  0.26749  0.62403  1.0000
  S   S269      1.0  0.96572  0.48531  0.61597  1.0000
  C   C1999     1.0  0.55695  0.27749  0.62827  1.0000
  H   H1603     1.0  0.59169  0.12724  0.55296  1.0000
  C   C2000     1.0  0.54671  0.33673  0.60630  1.0000
  H   H1604     1.0  0.60125  0.26831  0.61446  1.0000
  C   C2001     1.0  0.58686  0.29482  0.61531  1.0000
  H   H1605     1.0  0.69746  0.35017  0.54189  1.0000
  C   C2002     1.0  0.61025  0.22748  0.51511  1.0000
  C   C2003     1.0  0.89470  0.43856  0.56101  1.0000
  H   H1606     1.0  0.58703  0.31687  0.54588  1.0000
  C   C2004     1.0  0.53593  0.35234  0.61095  1.0000
  H   H1607     1.0  0.82251  0.39060  0.70156  1.0000
  H   H1608     1.0  0.58575  0.29420  0.57266  1.0000
  C   C2005     1.0  0.55528  0.29609  0.62574  1.0000
  H   H1609     1.0  0.54229  0.30361  0.62864  1.0000
  H   H1610     1.0  0.57510  0.21560  0.56618  1.0000
  C   C2006     1.0  0.57016  0.30494  0.61922  1.0000
  H   H1611     1.0  0.53972  0.36004  0.62015  1.0000
  H   H1612     1.0  0.77130  0.40889  0.52130  1.0000
  H   H1613     1.0  0.57690  0.15560  0.56257  1.0000
  H   H1614     1.0  0.89654  0.36928  0.53327  1.0000
  C   C2007     1.0  0.56638  0.33783  0.63631  1.0000
  C   C2008     1.0  0.56782  0.02570  0.62449  1.0000
  C   C2009     1.0  0.54777  0.18017  0.59470  1.0000
  C   C2010     1.0  0.85198  0.37902  0.54640  1.0000
  C   C2011     1.0  0.86871  0.36884  0.54359  1.0000
  C   C2012     1.0  0.80978  0.44720  0.52266  1.0000
  H   H1615     1.0  0.72085  0.47997  0.64740  1.0000
  C   C2013     1.0  0.55982  0.32829  0.65250  1.0000
  H   H1616     1.0  0.55541  0.31544  0.65295  1.0000
  H   H1617     1.0  0.83026  0.42011  0.70506  1.0000
  C   C2014     1.0  0.60218  0.33709  0.60629  1.0000
  C   C2015     1.0  0.95561  0.29145  0.50779  1.0000
  C   C2016     1.0  0.85004  0.39748  0.54116  1.0000
  C   C2017     1.0  0.88157  0.39548  0.53007  1.0000
  C   C2018     1.0  0.80389  0.45304  0.53920  1.0000
  H   H1618     1.0  0.83694  0.40506  0.54334  1.0000
  H   H1619     1.0  0.89317  0.40169  0.52382  1.0000
  H   H1620     1.0  0.78996  0.45804  0.54266  1.0000
  C   C2019     1.0  0.55867  0.33541  0.66846  1.0000
  C   C2020     1.0  0.57115  0.35488  0.63633  1.0000
  C   C2021     1.0  0.63257  0.04364  0.54742  1.0000
  H   H1621     1.0  0.98788  0.47993  0.64285  1.0000
  C   C2022     1.0  0.54880  0.20785  0.51405  1.0000
  H   H1622     1.0  0.56266  0.35778  0.68079  1.0000
  C   C2023     1.0  0.56991  0.36197  0.65233  1.0000
  C   C2024     1.0  0.53463  0.48507  0.67898  1.0000
  Fe  Fe134     1.0  0.94572  0.49011  0.59607  1.0000
  C   C2025     1.0  0.91003  0.33040  0.51063  1.0000
  C   C2026     1.0  0.97986  0.40546  0.52946  1.0000
  P   P67       1.0  0.56184  0.00440  0.59990  1.0000
  H   H1623     1.0  0.55927  0.47215  0.66632  1.0000
  H   H1624     1.0  0.75378  0.46578  0.69155  1.0000
  C   C2027     1.0  0.53519  0.04755  0.62273  1.0000
  H   H1625     1.0  0.52242  0.05581  0.62221  1.0000
  H   H1626     1.0  0.51265  0.44733  0.66588  1.0000
  H   H1627     1.0  0.84634  0.37918  0.50990  1.0000
  S   S270      1.0  0.73874  0.42061  0.50493  1.0000
  C   C2028     1.0  0.76105  0.46905  0.67848  1.0000
  H   H1628     1.0  0.59715  0.15174  0.49863  1.0000
  C   C2029     1.0  0.50666  0.33667  0.65830  1.0000
  C   C2030     1.0  0.52295  0.12220  0.50254  1.0000
  H   H1629     1.0  0.59370  0.01808  0.57975  1.0000
  H   H1630     1.0  0.69625  0.45925  0.73836  1.0000
  H   H1631     1.0  0.58047  0.01739  0.62545  1.0000
  H   H1632     1.0  0.86627  0.49138  0.63993  1.0000
  C   C2031     1.0  0.61619  0.99992  0.58749  1.0000
  H   H1633     1.0  0.99528  0.49091  0.58581  1.0000
  C   C2032     1.0  0.77947  0.47717  0.64453  1.0000
  H   H1634     1.0  0.50385  0.35089  0.65868  1.0000
  C   C2033     1.0  0.51442  0.34810  0.59235  1.0000
  C   C2034     1.0  0.99646  0.48241  0.63040  1.0000
  C   C2035     1.0  0.75996  0.46893  0.50181  1.0000
  C   C2036     1.0  0.68656  0.48711  0.73909  1.0000
  C   C2037     1.0  0.54180  0.45506  0.74421  1.0000
  H   H1635     1.0  0.83187  0.43579  0.50548  1.0000
  C   C2038     1.0  0.52525  0.45032  0.74271  1.0000
  C   C2039     1.0  0.59795  0.00594  0.58802  1.0000
  C   C2040     1.0  0.87098  0.43173  0.50217  1.0000
  C   C2041     1.0  0.70287  0.49430  0.53738  1.0000
  H   H1636     1.0  0.51583  0.45968  0.73567  1.0000
  Fe  Fe135     1.0  0.93457  0.39089  0.50509  1.0000
  H   H1637     1.0  0.56634  0.36398  0.73613  1.0000
  C   C2042     1.0  0.78733  0.49022  0.49898  1.0000
  C   C2043     1.0  0.81926  0.49529  0.52927  1.0000
  C   C2044     1.0  0.82288  0.49798  0.59933  1.0000
  H   H1638     1.0  0.89064  0.44922  0.50307  1.0000
  C   C2045     1.0  0.50236  0.15955  0.60796  1.0000
  H   H1639     1.0  0.56303  0.39510  0.74197  1.0000
  H   H1640     1.0  0.50139  0.14661  0.61572  1.0000
  S   S271      1.0  0.59800  0.49843  0.74092  1.0000
  H   H1641     1.0  0.50120  0.17329  0.63087  1.0000
  C   C2046     1.0  0.96224  0.26256  0.49699  1.0000
  H   H1642     1.0  0.50205  0.99961  0.51084  1.0000
  C   C2047     1.0  0.50739  0.31093  0.64226  1.0000
  C   C2048     1.0  0.50371  0.32940  0.64327  1.0000
  C   C2049     1.0  0.53283  0.06663  0.50097  1.0000
  C   C2050     1.0  0.99306  0.48258  0.54169  1.0000
  C   C2051     1.0  0.82138  0.49808  0.54641  1.0000
  H   H1643     1.0  0.54539  0.46796  0.73823  1.0000
  C   C2052     1.0  0.99538  0.41371  0.61684  1.0000
  Fe  Fe136     1.0  0.50247  0.40091  0.69994  1.0000
  H   H1644     1.0  0.99307  0.42129  0.50719  1.0000
  C   C2053     1.0  0.99777  0.42160  0.55071  1.0000
  C   C2054     1.0  0.50467  0.12764  0.50320  1.0000
  H   H1645     1.0  0.91361  0.34054  0.49973  1.0000
  H   H1646     1.0  0.52902  0.00201  0.62589  1.0000
  C   C2055     1.0  0.50262  0.00006  0.59284  1.0000
  H   H1647     1.0  0.87852  0.37820  0.49789  1.0000
  H   H1648     1.0  0.99129  0.37997  0.49938  1.0000
  C   C2056     1.0  0.99845  0.42974  0.58683  1.0000
  Fe  Fe137     1.0  0.73569  0.49852  0.60087  1.0000
  H   H1649     1.0  0.85497  0.41269  0.49660  1.0000
  S   S272      1.0  0.81601  0.37053  0.49686  1.0000
  C   C2057     1.0  0.85104  0.37496  0.49699  1.0000
  Fe  Fe138     1.0  0.52907  0.37308  0.90150  1.0000
  H   H1650     1.0  0.60207  0.40311  0.87043  1.0000
  S   S273      1.0  0.53817  0.35513  0.92574  1.0000
  Fe  Fe139     1.0  0.53127  0.40920  0.87948  1.0000
  S   S274      1.0  0.54103  0.43560  0.87858  1.0000
  S   S275      1.0  0.54787  0.38258  0.87754  1.0000
  C   C2058     1.0  0.55002  0.42595  0.76045  1.0000
  C   C2059     1.0  0.53745  0.42357  0.97853  1.0000
  Fe  Fe140     1.0  0.61815  0.46058  0.90620  1.0000
  S   S276      1.0  0.61179  0.43245  0.91222  1.0000
  S   S277      1.0  0.64503  0.47023  0.90206  1.0000
  C   C2060     1.0  0.69139  0.02428  0.82666  1.0000
  H   H1651     1.0  0.57170  0.41895  0.93623  1.0000
  C   C2061     1.0  0.58615  0.37964  0.98493  1.0000
  H   H1652     1.0  0.73066  0.03355  0.83673  1.0000
  H   H1653     1.0  0.51828  0.46854  0.86395  1.0000
  C   C2062     1.0  0.62738  0.48512  0.79903  1.0000
  H   H1654     1.0  0.55750  0.46031  0.96566  1.0000
  C   C2063     1.0  0.56577  0.41029  0.82700  1.0000
  H   H1655     1.0  0.52508  0.39081  0.97684  1.0000
  C   C2064     1.0  0.51000  0.46874  0.92456  1.0000
  C   C2065     1.0  0.53780  0.35969  0.94789  1.0000
  C   C2066     1.0  0.53057  0.37606  0.95406  1.0000
  C   C2067     1.0  0.56850  0.48961  0.78366  1.0000
  C   C2068     1.0  0.55959  0.43407  0.88989  1.0000
  C   C2069     1.0  0.56395  0.44948  0.89500  1.0000
  C   C2070     1.0  0.57959  0.44882  0.90262  1.0000
  C   C2071     1.0  0.59108  0.43281  0.90491  1.0000
  C   C2072     1.0  0.58622  0.41722  0.90071  1.0000
  C   C2073     1.0  0.57045  0.41782  0.89329  1.0000
  H   H1656     1.0  0.55546  0.46206  0.89271  1.0000
  H   H1657     1.0  0.58282  0.46082  0.90646  1.0000
  H   H1658     1.0  0.59494  0.40482  0.90269  1.0000
  H   H1659     1.0  0.56708  0.40582  0.88964  1.0000
  C   C2074     1.0  0.61685  0.48367  0.81575  1.0000
  H   H1660     1.0  0.52006  0.47694  0.91787  1.0000
  H   H1661     1.0  0.56952  0.34573  0.79154  1.0000
  H   H1662     1.0  0.57152  0.45550  0.80981  1.0000
  C   C2075     1.0  0.64464  0.48956  0.79783  1.0000
  C   C2076     1.0  0.52154  0.36332  0.78693  1.0000
  C   C2077     1.0  0.53183  0.49014  0.79498  1.0000
  H   H1663     1.0  0.60532  0.36116  0.90380  1.0000
  H   H1664     1.0  0.61521  0.48491  0.84383  1.0000
  P   P68       1.0  0.58734  0.39650  0.96566  1.0000
  H   H1665     1.0  0.62886  0.03010  0.79414  1.0000
  S   S278      1.0  0.60464  0.48101  0.92356  1.0000
  C   C2078     1.0  0.57853  0.45320  0.82136  1.0000
  C   C2079     1.0  0.56207  0.48698  0.96773  1.0000
  C   C2080     1.0  0.51161  0.38005  0.78324  1.0000
  H   H1666     1.0  0.52477  0.38687  0.94501  1.0000
  C   C2081     1.0  0.54540  0.34596  0.95975  1.0000
  C   C2082     1.0  0.50990  0.45188  0.91975  1.0000
  C   C2083     1.0  0.56812  0.35280  0.76346  1.0000
  H   H1667     1.0  0.64279  0.46821  0.95557  1.0000
  C   C2084     1.0  0.64249  0.47644  0.96592  1.0000
  H   H1668     1.0  0.57429  0.36401  0.91928  1.0000
  C   C2085     1.0  0.59307  0.38613  0.94550  1.0000
  C   C2086     1.0  0.60275  0.39470  0.86014  1.0000
  C   C2087     1.0  0.63411  0.03902  0.87787  1.0000
  H   H1669     1.0  0.64532  0.03390  0.81831  1.0000
  C   C2088     1.0  0.54600  0.43109  0.94689  1.0000
  C   C2089     1.0  0.56489  0.38831  0.77016  1.0000
  H   H1670     1.0  0.66198  0.43145  0.89100  1.0000
  C   C2090     1.0  0.64085  0.43955  0.85411  1.0000
  C   C2091     1.0  0.63899  0.01956  0.79862  1.0000
  C   C2092     1.0  0.57041  0.40744  0.80921  1.0000
  H   H1671     1.0  0.67105  0.42267  0.77489  1.0000
  C   C2093     1.0  0.51730  0.38779  0.81157  1.0000
  C   C2094     1.0  0.59302  0.43023  0.77442  1.0000
  S   S279      1.0  0.60967  0.47593  0.88103  1.0000
  H   H1672     1.0  0.61745  0.39275  0.81615  1.0000
  H   H1673     1.0  0.58395  0.43763  0.78379  1.0000
  C   C2095     1.0  0.64492  0.46858  0.98339  1.0000
  H   H1674     1.0  0.52297  0.35366  0.77769  1.0000
  H   H1675     1.0  0.65142  0.40212  0.89262  1.0000
  H   H1676     1.0  0.58264  0.48944  0.77930  1.0000
  S   S280      1.0  0.51408  0.39997  0.90438  1.0000
  C   C2096     1.0  0.53342  0.42118  0.75883  1.0000
  C   C2097     1.0  0.58006  0.37869  0.93907  1.0000
  H   H1677     1.0  0.64988  0.39374  0.82408  1.0000
  H   H1678     1.0  0.54310  0.43808  0.93406  1.0000
  H   H1679     1.0  0.52777  0.42458  0.99032  1.0000
  C   C2098     1.0  0.63714  0.43641  0.80598  1.0000
  C   C2099     1.0  0.60397  0.42740  0.95856  1.0000
  H   H1680     1.0  0.62043  0.38825  0.98172  1.0000
  C   C2100     1.0  0.61820  0.43697  0.95827  1.0000
  H   H1681     1.0  0.53624  0.34560  0.80593  1.0000
  C   C2101     1.0  0.53746  0.42649  0.82025  1.0000
  H   H1682     1.0  0.64436  0.43621  0.96562  1.0000
  C   C2102     1.0  0.56227  0.42017  0.94813  1.0000
  H   H1683     1.0  0.58324  0.40010  0.80512  1.0000
  S   S281      1.0  0.51259  0.40526  0.86092  1.0000
  C   C2103     1.0  0.60265  0.37377  0.83332  1.0000
  H   H1684     1.0  0.56415  0.47656  0.76211  1.0000
  C   C2104     1.0  0.64865  0.41245  0.88171  1.0000
  H   H1685     1.0  0.56046  0.47258  0.83527  1.0000
  C   C2105     1.0  0.64943  0.40579  0.81461  1.0000
  H   H1686     1.0  0.60256  0.44430  0.86350  1.0000
  C   C2106     1.0  0.65461  0.42898  0.88082  1.0000
  H   H1687     1.0  0.62478  0.04558  0.88775  1.0000
  S   S282      1.0  0.61906  0.47883  0.78080  1.0000
  C   C2107     1.0  0.60275  0.43733  0.83706  1.0000
  Fe  Fe141     1.0  0.63521  0.48738  0.87770  1.0000
  H   H1688     1.0  0.52085  0.44107  0.96103  1.0000
  C   C2108     1.0  0.53084  0.37835  0.97209  1.0000
  C   C2109     1.0  0.62353  0.48620  0.83116  1.0000
  C   C2110     1.0  0.63886  0.40940  0.86875  1.0000
  H   H1689     1.0  0.58711  0.37604  0.87701  1.0000
  H   H1690     1.0  0.53001  0.40808  0.76442  1.0000
  H   H1691     1.0  0.54599  0.42219  0.84620  1.0000
  C   C2111     1.0  0.61027  0.43468  0.76939  1.0000
  C   C2112     1.0  0.63307  0.42903  0.96645  1.0000
  C   C2113     1.0  0.63451  0.42311  0.85508  1.0000
  H   H1692     1.0  0.62843  0.37475  0.91466  1.0000
  H   H1693     1.0  0.67126  0.39491  0.79642  1.0000
  C   C2114     1.0  0.52683  0.37088  0.81548  1.0000
  C   C2115     1.0  0.66162  0.40645  0.79902  1.0000
  H   H1694     1.0  0.53183  0.47666  0.77211  1.0000
  C   C2116     1.0  0.59372  0.44049  0.82205  1.0000
  H   H1695     1.0  0.55104  0.33331  0.95523  1.0000
  C   C2117     1.0  0.64940  0.43710  0.79047  1.0000
  Fe  Fe142     1.0  0.52775  0.37779  0.86070  1.0000
  P   P69       1.0  0.56503  0.41110  0.77363  1.0000
  C   C2118     1.0  0.61057  0.38464  0.93658  1.0000
  H   H1696     1.0  0.59299  0.43358  0.95143  1.0000
  C   C2119     1.0  0.59412  0.37947  0.86384  1.0000
  C   C2120     1.0  0.54191  0.42354  0.80247  1.0000
  C   C2121     1.0  0.52105  0.43336  0.75004  1.0000
  C   C2122     1.0  0.55371  0.41256  0.97977  1.0000
  C   C2123     1.0  0.65141  0.49191  0.81336  1.0000
  H   H1697     1.0  0.65536  0.05382  0.87980  1.0000
  C   C2124     1.0  0.60195  0.36811  0.91540  1.0000
  C   C2125     1.0  0.56628  0.41079  0.96454  1.0000
  H   H1698     1.0  0.60214  0.36590  0.82283  1.0000
  H   H1699     1.0  0.64702  0.45424  0.98656  1.0000
  C   C2126     1.0  0.59399  0.36903  0.85042  1.0000
  H   H1700     1.0  0.62809  0.44827  0.80867  1.0000
  H   H1701     1.0  0.61795  0.45036  0.95116  1.0000
  H   H1702     1.0  0.56710  0.44677  0.75342  1.0000
  H   H1703     1.0  0.58678  0.35753  0.85317  1.0000
  C   C2127     1.0  0.62890  0.02593  0.86962  1.0000
  C   C2128     1.0  0.63681  0.42066  0.81798  1.0000
  C   C2129     1.0  0.56435  0.38445  0.75295  1.0000
  C   C2130     1.0  0.71914  0.04470  0.81289  1.0000
  H   H1704     1.0  0.62083  0.39054  0.94099  1.0000
  H   H1705     1.0  0.53232  0.42861  0.79334  1.0000
  H   H1706     1.0  0.63794  0.45023  0.84352  1.0000
  C   C2131     1.0  0.56837  0.35652  0.78069  1.0000
  C   C2132     1.0  0.59625  0.44689  0.85147  1.0000
  H   H1707     1.0  0.57125  0.48807  0.95546  1.0000
  H   H1708     1.0  0.56653  0.37970  0.94577  1.0000
  C   C2133     1.0  0.53974  0.48237  0.77974  1.0000
  C   C2134     1.0  0.55432  0.47136  0.97346  1.0000
  H   H1709     1.0  0.51554  0.39727  0.82101  1.0000
  C   C2135     1.0  0.66155  0.42209  0.78691  1.0000
  C   C2136     1.0  0.63361  0.41163  0.97526  1.0000
  H   H1710     1.0  0.56663  0.37669  0.79759  1.0000
  C   C2137     1.0  0.51421  0.47902  0.83690  1.0000
  S   S283      1.0  0.53656  0.36445  0.83550  1.0000
  H   H1711     1.0  0.52463  0.43356  0.82473  1.0000
  C   C2138     1.0  0.64099  0.48998  0.83017  1.0000
  H   H1712     1.0  0.52435  0.46913  0.83135  1.0000
  C   C2139     1.0  0.52897  0.35874  0.80302  1.0000
  C   C2140     1.0  0.61946  0.40198  0.97549  1.0000
  H   H1713     1.0  0.61446  0.44518  0.77508  1.0000
  C   C2141     1.0  0.56670  0.37421  0.78408  1.0000
  C   C2142     1.0  0.55850  0.41401  0.79679  1.0000
  C   C2143     1.0  0.65091  0.44243  0.86689  1.0000
  H   H1714     1.0  0.60353  0.48021  0.81686  1.0000
  H   H1715     1.0  0.64950  0.44939  0.78131  1.0000
  H   H1716     1.0  0.51985  0.44699  0.90935  1.0000
  C   C2144     1.0  0.54585  0.34829  0.97743  1.0000
  H   H1717     1.0  0.64521  0.40553  0.98151  1.0000
  C   C2145     1.0  0.54942  0.41995  0.83244  1.0000
  C   C2146     1.0  0.55421  0.44290  0.75289  1.0000
  H   H1718     1.0  0.58579  0.35754  0.97031  1.0000
  C   C2147     1.0  0.58123  0.45978  0.85063  1.0000
  C   C2148     1.0  0.58745  0.41659  0.76712  1.0000
  H   H1719     1.0  0.59834  0.43296  0.81102  1.0000
  C   C2149     1.0  0.61497  0.37566  0.92158  1.0000
  C   C2150     1.0  0.61147  0.38893  0.82964  1.0000
  C   C2151     1.0  0.65827  0.02207  0.85226  1.0000
  C   C2152     1.0  0.53355  0.43278  0.96208  1.0000
  C   C2153     1.0  0.61191  0.39930  0.84318  1.0000
  H   H1720     1.0  0.65565  0.45521  0.86609  1.0000
  C   C2154     1.0  0.57228  0.46284  0.83567  1.0000
  C   C2155     1.0  0.58447  0.36973  0.92409  1.0000
  H   H1721     1.0  0.57478  0.40512  0.83667  1.0000
  C   C2156     1.0  0.60454  0.40978  0.96709  1.0000
  P   P70       1.0  0.62149  0.41994  0.83836  1.0000
  C   C2157     1.0  0.53863  0.36440  0.98383  1.0000
  H   H1722     1.0  0.63471  0.39640  0.86956  1.0000
  H   H1723     1.0  0.57639  0.46722  0.86174  1.0000
  C   C2158     1.0  0.59919  0.40805  0.75411  1.0000
  C   C2159     1.0  0.55802  0.48222  0.77406  1.0000
  Fe  Fe143     1.0  0.59857  0.49732  0.89796  1.0000
  S   S284      1.0  0.65042  0.49178  0.84960  1.0000
  H   H1724     1.0  0.56929  0.33912  0.76085  1.0000
  H   H1725     1.0  0.61552  0.02234  0.87312  1.0000
  C   C2160     1.0  0.62198  0.42587  0.75675  1.0000
  H   H1726     1.0  0.55180  0.33739  0.98628  1.0000
  C   C2161     1.0  0.51088  0.47867  0.85538  1.0000
  C   C2162     1.0  0.64831  0.02162  0.81235  1.0000
  C   C2163     1.0  0.61639  0.41265  0.74900  1.0000
  H   H1727     1.0  0.68016  0.03582  0.80248  1.0000
  P   P71       1.0  0.50810  0.49137  0.80193  1.0000
  C   C2164     1.0  0.69103  0.03513  0.81016  1.0000
  Fe  Fe144     1.0  0.62383  0.48623  0.75061  1.0000
  H   H1728     1.0  0.67643  0.48467  0.75037  1.0000
  Fe  Fe145     1.0  0.63069  0.49208  0.91789  1.0000
  H   H1729     1.0  0.50830  0.42949  0.74881  1.0000
  C   C2165     1.0  0.58577  0.36169  0.98317  1.0000
  C   C2166     1.0  0.65134  0.04365  0.87339  1.0000
  H   H1730     1.0  0.65298  0.49054  0.78510  1.0000
  C   C2167     1.0  0.64041  0.49499  0.96167  1.0000
  C   C2168     1.0  0.66340  0.03523  0.86064  1.0000
  C   C2169     1.0  0.56621  0.36677  0.74959  1.0000
  H   H1731     1.0  0.67664  0.03909  0.85740  1.0000
  P   P72       1.0  0.67365  0.01105  0.83572  1.0000
  C   C2170     1.0  0.64091  0.01748  0.85687  1.0000
  C   C2171     1.0  0.54244  0.49790  0.80432  1.0000
  H   H1732     1.0  0.59512  0.39801  0.74765  1.0000
  H   H1733     1.0  0.70454  0.05362  0.79058  1.0000
  H   H1734     1.0  0.63666  0.00730  0.85067  1.0000
  H   H1735     1.0  0.63553  0.00235  0.77996  1.0000
  H   H1736     1.0  0.63525  0.42956  0.75268  1.0000
  C   C2172     1.0  0.71959  0.03397  0.82932  1.0000
  C   C2173     1.0  0.56074  0.49740  0.79879  1.0000
  C   C2174     1.0  0.64276  0.00394  0.79061  1.0000
  C   C2175     1.0  0.70487  0.04528  0.80333  1.0000
  C   C2176     1.0  0.50971  0.39230  0.79558  1.0000
  C   C2177     1.0  0.70579  0.02380  0.83620  1.0000
  H   H1737     1.0  0.72985  0.05258  0.80756  1.0000
  H   H1738     1.0  0.70632  0.01561  0.84899  1.0000
  C   C2178     1.0  0.66141  0.00799  0.81827  1.0000
  C   C2179     1.0  0.54282  0.46985  0.98946  1.0000
  C   C2180     1.0  0.50423  0.49174  0.82576  1.0000
  H   H1739     1.0  0.55612  0.40518  0.99255  1.0000
  S   S285      1.0  0.51047  0.36549  0.88454  1.0000
  H   H1740     1.0  0.66491  0.49488  0.81240  1.0000
  H   H1741     1.0  0.51471  0.49616  0.97058  1.0000
  H   H1742     1.0  0.50201  0.40523  0.79292  1.0000
  H   H1743     1.0  0.53731  0.45752  0.99426  1.0000
  C   C2181     1.0  0.64272  0.49773  0.99264  1.0000
  C   C2182     1.0  0.49940  0.47245  0.79632  1.0000
  C   C2183     1.0  0.51429  0.50938  0.03265  1.0000
  C   C2184     1.0  0.72417  0.58328  0.19200  1.0000
  Fe  Fe146     1.0  0.51204  0.62795  0.20758  1.0000
  S   S286      1.0  0.53129  0.55692  0.08158  1.0000
  S   S287      1.0  0.52901  0.60980  0.06271  1.0000
  C   C2185     1.0  0.60243  0.50228  0.14504  1.0000
  C   C2186     1.0  0.65555  0.52800  0.16141  1.0000
  C   C2187     1.0  0.65671  0.52400  0.09386  1.0000
  H   H1744     1.0  0.55867  0.50474  0.13294  1.0000
  H   H1745     1.0  0.67491  0.51529  0.17853  1.0000
  H   H1746     1.0  0.56019  0.50279  0.18769  1.0000
  H   H1747     1.0  0.66423  0.51137  0.09083  1.0000
  S   S288      1.0  0.61406  0.54229  0.05771  1.0000
  H   H1748     1.0  0.54385  0.61620  0.09844  1.0000
  C   C2188     1.0  0.68093  0.54129  0.16610  1.0000
  C   C2189     1.0  0.67539  0.55519  0.21375  1.0000
  C   C2190     1.0  0.67084  0.52710  0.16958  1.0000
  C   C2191     1.0  0.65001  0.52631  0.11147  1.0000
  C   C2192     1.0  0.54832  0.56023  0.16883  1.0000
  C   C2193     1.0  0.57434  0.52299  0.11572  1.0000
  H   H1749     1.0  0.58413  0.55324  0.02721  1.0000
  Fe  Fe147     1.0  0.62900  0.51982  0.22066  1.0000
  S   S289      1.0  0.61710  0.54719  0.20832  1.0000
  C   C2194     1.0  0.55316  0.58225  0.00724  1.0000
  S   S290      1.0  0.65877  0.51273  0.21813  1.0000
  C   C2195     1.0  0.51146  0.65553  0.12747  1.0000
  S   S291      1.0  0.52904  0.63498  0.22648  1.0000
  H   H1750     1.0  0.65686  0.56897  0.13686  1.0000
  H   H1751     1.0  0.60936  0.50526  0.00666  1.0000
  H   H1752     1.0  0.70149  0.57739  0.21094  1.0000
  C   C2196     1.0  0.56668  0.55836  0.16985  1.0000
  C   C2197     1.0  0.51658  0.51052  0.18113  1.0000
  C   C2198     1.0  0.52149  0.54935  0.01026  1.0000
  S   S292      1.0  0.65011  0.49930  0.05691  1.0000
  C   C2199     1.0  0.61744  0.52731  0.14791  1.0000
  C   C2200     1.0  0.59757  0.51463  0.00945  1.0000
  C   C2201     1.0  0.54575  0.61158  0.11219  1.0000
  C   C2202     1.0  0.58240  0.56414  0.06285  1.0000
  H   H1753     1.0  0.55118  0.63708  0.11708  1.0000
  C   C2203     1.0  0.56672  0.53781  0.01832  1.0000
  C   C2204     1.0  0.59905  0.55908  0.22069  1.0000
  C   C2205     1.0  0.59342  0.55300  0.23846  1.0000
  C   C2206     1.0  0.73756  0.54725  0.19960  1.0000
  C   C2207     1.0  0.56925  0.57780  0.23948  1.0000
  C   C2208     1.0  0.57489  0.58395  0.22170  1.0000
  C   C2209     1.0  0.58997  0.57480  0.21245  1.0000
  C   C2210     1.0  0.54297  0.55235  0.20098  1.0000
  H   H1754     1.0  0.53382  0.55025  0.21314  1.0000
  H   H1755     1.0  0.56776  0.59586  0.21518  1.0000
  H   H1756     1.0  0.59430  0.57963  0.19874  1.0000
  H   H1757     1.0  0.62621  0.56768  0.16664  1.0000
  H   H1758     1.0  0.56970  0.66092  0.19578  1.0000
  C   C2211     1.0  0.61117  0.52554  0.16617  1.0000
  C   C2212     1.0  0.56455  0.65864  0.24103  1.0000
  H   H1759     1.0  0.55749  0.58104  0.06808  1.0000
  C   C2213     1.0  0.56720  0.55396  0.12053  1.0000
  H   H1760     1.0  0.74864  0.58551  0.17422  1.0000
  H   H1761     1.0  0.71910  0.59731  0.18926  1.0000
  H   H1762     1.0  0.64810  0.51674  0.16418  1.0000
  C   C2214     1.0  0.51253  0.63980  0.15746  1.0000
  C   C2215     1.0  0.55406  0.55323  0.07377  1.0000
  C   C2216     1.0  0.55126  0.61782  0.14074  1.0000
  C   C2217     1.0  0.64420  0.55424  0.08411  1.0000
  C   C2218     1.0  0.59091  0.54656  0.06331  1.0000
  C   C2219     1.0  0.58091  0.53236  0.06868  1.0000
  C   C2220     1.0  0.56253  0.53569  0.07394  1.0000
  H   H1763     1.0  0.58732  0.51878  0.06913  1.0000
  H   H1764     1.0  0.55495  0.52465  0.07833  1.0000
  P   P73       1.0  0.70814  0.53895  0.22384  1.0000
  C   C2221     1.0  0.51063  0.55862  0.13482  1.0000
  Fe  Fe148     1.0  0.50363  0.64174  0.24458  1.0000
  P   P74       1.0  0.54082  0.56612  0.14718  1.0000
  H   H1765     1.0  0.52149  0.54663  0.02455  1.0000
  H   H1766     1.0  0.54026  0.52805  0.14934  1.0000
  S   S293      1.0  0.51378  0.59892  0.21907  1.0000
  C   C2222     1.0  0.54489  0.58838  0.13764  1.0000
  H   H1767     1.0  0.58655  0.60991  0.14944  1.0000
  H   H1768     1.0  0.65832  0.53592  0.06644  1.0000
  H   H1769     1.0  0.64964  0.56589  0.20572  1.0000
  C   C2223     1.0  0.53275  0.50993  0.03015  1.0000
  H   H1770     1.0  0.50635  0.61295  0.16123  1.0000
  H   H1771     1.0  0.57004  0.56753  0.11692  1.0000
  C   C2224     1.0  0.55342  0.54958  0.13408  1.0000
  C   C2225     1.0  0.74083  0.57665  0.18357  1.0000
  C   C2226     1.0  0.51367  0.51117  0.12668  1.0000
  H   H1772     1.0  0.64179  0.56494  0.07341  1.0000
  C   C2227     1.0  0.54818  0.50175  0.18225  1.0000
  C   C2228     1.0  0.58329  0.54161  0.02109  1.0000
  H   H1773     1.0  0.59010  0.57515  0.05870  1.0000
  C   C2229     1.0  0.70861  0.51757  0.21643  1.0000
  C   C2230     1.0  0.54992  0.62337  0.12271  1.0000
  C   C2231     1.0  0.71107  0.49910  0.19278  1.0000
  C   C2232     1.0  0.57766  0.54068  0.11148  1.0000
  S   S294      1.0  0.50232  0.58643  0.04905  1.0000
  P   P75       1.0  0.63096  0.54465  0.13842  1.0000
  C   C2233     1.0  0.71413  0.57190  0.20416  1.0000
  H   H1774     1.0  0.73465  0.51118  0.23942  1.0000
  C   C2234     1.0  0.65019  0.54322  0.14977  1.0000
  H   H1775     1.0  0.65259  0.51542  0.12193  1.0000
  C   C2235     1.0  0.55051  0.53171  0.13861  1.0000
  C   C2236     1.0  0.56369  0.66329  0.20908  1.0000
  C   C2237     1.0  0.51715  0.56634  0.14758  1.0000
  C   C2238     1.0  0.58919  0.58598  0.99791  1.0000
  H   H1776     1.0  0.58726  0.55186  0.18690  1.0000
  C   C2239     1.0  0.65356  0.53786  0.08015  1.0000
  H   H1777     1.0  0.63341  0.56109  0.23617  1.0000
  H   H1778     1.0  0.55487  0.54658  0.02254  1.0000
  C   C2240     1.0  0.60063  0.51225  0.17379  1.0000
  H   H1779     1.0  0.52607  0.68430  0.23081  1.0000
  C   C2241     1.0  0.56091  0.51848  0.12941  1.0000
  H   H1780     1.0  0.53997  0.67892  0.20027  1.0000
  H   H1781     1.0  0.63106  0.56967  0.10442  1.0000
  Fe  Fe149     1.0  0.50486  0.62172  0.07990  1.0000
  H   H1782     1.0  0.57609  0.56062  0.15795  1.0000
  C   C2242     1.0  0.67582  0.55638  0.15436  1.0000
  H   H1783     1.0  0.55531  0.59183  0.03168  1.0000
  H   H1784     1.0  0.53921  0.58542  0.11145  1.0000
  H   H1785     1.0  0.69278  0.54050  0.17236  1.0000
  P   P76       1.0  0.54394  0.51711  0.00832  1.0000
  C   C2243     1.0  0.63992  0.54246  0.11552  1.0000
  C   C2244     1.0  0.61744  0.57360  0.15688  1.0000
  S   S295      1.0  0.52296  0.61908  0.01167  1.0000
  C   C2245     1.0  0.57309  0.55332  0.18622  1.0000
  C   C2246     1.0  0.59873  0.53010  0.01657  1.0000
  C   C2247     1.0  0.53097  0.53725  0.99899  1.0000
  C   C2248     1.0  0.61256  0.51590  0.13728  1.0000
  C   C2249     1.0  0.71247  0.51540  0.19832  1.0000
  C   C2250     1.0  0.60659  0.58966  0.15951  1.0000
  C   C2251     1.0  0.60418  0.57260  0.13037  1.0000
  C   C2252     1.0  0.56550  0.52245  0.01087  1.0000
  H   H1786     1.0  0.61150  0.53282  0.01923  1.0000
  H   H1787     1.0  0.54935  0.59655  0.16233  1.0000
  C   C2253     1.0  0.65698  0.56045  0.21678  1.0000
  C   C2254     1.0  0.64778  0.55773  0.23396  1.0000
  H   H1788     1.0  0.51965  0.55235  0.12455  1.0000
  H   H1789     1.0  0.60406  0.59404  0.23774  1.0000
  C   C2255     1.0  0.50500  0.57572  0.15966  1.0000
  C   C2256     1.0  0.72059  0.55370  0.20773  1.0000
  H   H1790     1.0  0.58221  0.51280  0.10839  1.0000
  H   H1791     1.0  0.61674  0.51723  0.12308  1.0000
  H   H1792     1.0  0.68376  0.56729  0.15150  1.0000
  C   C2257     1.0  0.54788  0.66913  0.24338  1.0000
  H   H1793     1.0  0.71623  0.52627  0.18843  1.0000
  S   S296      1.0  0.51928  0.63979  0.17866  1.0000
  C   C2258     1.0  0.66057  0.55730  0.14613  1.0000
  H   H1794     1.0  0.55344  0.62730  0.14911  1.0000
  H   H1795     1.0  0.59593  0.51096  0.18793  1.0000
  C   C2259     1.0  0.59479  0.59737  0.14743  1.0000
  C   C2260     1.0  0.56394  0.56748  0.06806  1.0000
  H   H1796     1.0  0.61471  0.53425  0.17460  1.0000
  C   C2261     1.0  0.54300  0.59422  0.11966  1.0000
  H   H1797     1.0  0.60273  0.56587  0.11934  1.0000
  C   C2262     1.0  0.61674  0.56526  0.14192  1.0000
  C   C2263     1.0  0.59661  0.50037  0.16331  1.0000
  C   C2264     1.0  0.53653  0.55680  0.18454  1.0000
  H   H1798     1.0  0.56623  0.54681  0.21455  1.0000
  C   C2265     1.0  0.56234  0.58822  0.01909  1.0000
  Fe  Fe150     1.0  0.52855  0.60668  0.23929  1.0000
  H   H1799     1.0  0.52610  0.50726  0.13201  1.0000
  H   H1800     1.0  0.58823  0.54414  0.10098  1.0000
  H   H1801     1.0  0.52660  0.52262  0.10150  1.0000
  Fe  Fe151     1.0  0.51137  0.61329  0.04089  1.0000
  C   C2266     1.0  0.54876  0.60038  0.14822  1.0000
  H   H1802     1.0  0.55648  0.50566  0.04342  1.0000
  C   C2267     1.0  0.53336  0.50037  0.06181  1.0000
  H   H1803     1.0  0.69917  0.50512  0.24259  1.0000
  H   H1804     1.0  0.60732  0.59613  0.17097  1.0000
  C   C2268     1.0  0.63769  0.55668  0.10176  1.0000
  C   C2269     1.0  0.70300  0.50338  0.22875  1.0000
  C   C2270     1.0  0.56125  0.55043  0.20180  1.0000
  C   C2271     1.0  0.50546  0.50453  0.04964  1.0000
  C   C2272     1.0  0.59349  0.58878  0.13293  1.0000
  H   H1805     1.0  0.58415  0.59466  0.12369  1.0000
  H   H1806     1.0  0.58741  0.59492  0.02357  1.0000
  H   H1807     1.0  0.68214  0.55662  0.20027  1.0000
  H   H1808     1.0  0.57956  0.61845  0.24238  1.0000
  Fe  Fe152     1.0  0.51787  0.58399  0.07191  1.0000
  Fe  Fe153     1.0  0.62200  0.51268  0.06231  1.0000
  C   C2273     1.0  0.57256  0.65599  0.22373  1.0000
  H   H1809     1.0  0.52244  0.55720  0.18437  1.0000
  C   C2274     1.0  0.71880  0.53659  0.24365  1.0000
  H   H1810     1.0  0.76062  0.55358  0.18114  1.0000
  H   H1811     1.0  0.74310  0.53341  0.20274  1.0000
  C   C2275     1.0  0.74756  0.55866  0.18744  1.0000
  C   C2276     1.0  0.54696  0.67353  0.21158  1.0000
  H   H1812     1.0  0.64302  0.50601  0.00280  1.0000
  H   H1813     1.0  0.50438  0.51858  0.18582  1.0000
  S   S297      1.0  0.50531  0.64223  0.09841  1.0000
  H   H1814     1.0  0.58563  0.64841  0.22146  1.0000
  H   H1815     1.0  0.50972  0.58263  0.16897  1.0000
  C   C2277     1.0  0.54222  0.50542  0.04488  1.0000
  C   C2278     1.0  0.58104  0.51062  0.00692  1.0000
  H   H1816     1.0  0.51820  0.66673  0.14922  1.0000
  C   C2279     1.0  0.51429  0.65511  0.14515  1.0000
  H   H1817     1.0  0.53904  0.58157  0.01068  1.0000
  H   H1818     1.0  0.50311  0.67410  0.18771  1.0000
  C   C2280     1.0  0.53911  0.67653  0.22874  1.0000
  C   C2281     1.0  0.68479  0.54751  0.22799  1.0000
  C   C2282     1.0  0.51220  0.56539  0.00318  1.0000
  H   H1819     1.0  0.53162  0.52013  0.19838  1.0000
  H   H1820     1.0  0.50671  0.51285  0.02151  1.0000
  C   C2283     1.0  0.53210  0.51166  0.18818  1.0000
  C   C2284     1.0  0.51402  0.51980  0.10926  1.0000
  C   C2285     1.0  0.58037  0.59004  0.01445  1.0000
  C   C2286     1.0  0.51497  0.50003  0.06422  1.0000
  C   C2287     1.0  0.51691  0.49878  0.16860  1.0000
  C   C2288     1.0  0.60608  0.60510  0.24420  1.0000
  C   C2289     1.0  0.67542  0.54472  0.24518  1.0000
  H   H1821     1.0  0.51302  0.66753  0.11820  1.0000
  H   H1822     1.0  0.50225  0.61319  0.12928  1.0000
  C   C2290     1.0  0.50535  0.62497  0.13373  1.0000
  H   H1823     1.0  0.50532  0.57482  0.01195  1.0000
  C   C2291     1.0  0.50740  0.64043  0.12144  1.0000
  C   C2292     1.0  0.50760  0.62481  0.15184  1.0000
  H   H1824     1.0  0.60034  0.54100  0.24499  1.0000
  C   C2293     1.0  0.58280  0.85378  0.42647  1.0000
  Fe  Fe154     1.0  0.53282  0.90786  0.37626  1.0000
  S   S298      1.0  0.55146  0.89625  0.39632  1.0000
  S   S299      1.0  0.54442  0.91134  0.34753  1.0000
  Fe  Fe155     1.0  0.58897  0.94179  0.45684  1.0000
  S   S300      1.0  0.61077  0.94116  0.43368  1.0000
  S   S301      1.0  0.56012  0.94564  0.45263  1.0000
  H   H1825     1.0  0.89775  0.55174  0.35012  1.0000
  C   C2294     1.0  0.50048  0.82652  0.30640  1.0000
  H   H1826     1.0  0.57758  0.81277  0.45980  1.0000
  Fe  Fe156     1.0  0.62399  0.95728  0.44902  1.0000
  S   S302      1.0  0.64003  0.97964  0.43509  1.0000
  Fe  Fe157     1.0  0.62280  0.91625  0.44981  1.0000
  S   S303      1.0  0.63565  0.89046  0.43871  1.0000
  S   S304      1.0  0.60115  0.95966  0.47110  1.0000
  C   C2295     1.0  0.56395  0.63818  0.29539  1.0000
  Fe  Fe158     1.0  0.93225  0.59011  0.46673  1.0000
  S   S305      1.0  0.93349  0.61342  0.48069  1.0000
  H   H1827     1.0  0.65021  0.62527  0.47488  1.0000
  Fe  Fe159     1.0  0.93645  0.61223  0.43053  1.0000
  S   S306      1.0  0.93836  0.63739  0.44169  1.0000
  S   S307      1.0  0.93709  0.60892  0.40180  1.0000
  Fe  Fe160     1.0  0.95666  0.61944  0.45967  1.0000
  S   S308      1.0  0.98285  0.61956  0.47094  1.0000
  Fe  Fe161     1.0  0.91509  0.62883  0.46159  1.0000
  S   S309      1.0  0.88852  0.64481  0.47127  1.0000
  S   S310      1.0  0.95608  0.59513  0.44681  1.0000
  S   S311      1.0  0.91249  0.60489  0.44928  1.0000
  Fe  Fe162     1.0  0.92679  0.51770  0.37729  1.0000
  S   S312      1.0  0.93154  0.52965  0.34865  1.0000
  S   S313      1.0  0.92759  0.52853  0.40258  1.0000
  H   H1828     1.0  0.90148  0.50862  0.42025  1.0000
  C   C2296     1.0  0.53962  0.99475  0.31232  1.0000
  Fe  Fe163     1.0  0.90818  0.51571  0.34554  1.0000
  S   S314      1.0  0.88358  0.52767  0.33229  1.0000
  H   H1829     1.0  0.51099  0.82572  0.29524  1.0000
  C   C2297     1.0  0.83305  0.49953  0.34513  1.0000
  Fe  Fe164     1.0  0.52966  0.73875  0.36646  1.0000
  S   S315      1.0  0.54159  0.72923  0.39221  1.0000
  S   S316      1.0  0.54348  0.74032  0.33840  1.0000
  Fe  Fe165     1.0  0.75544  0.52961  0.35695  1.0000
  S   S317      1.0  0.77077  0.52100  0.33131  1.0000
  S   S318      1.0  0.75093  0.55883  0.36133  1.0000
  H   H1830     1.0  0.66297  0.79754  0.38697  1.0000
  C   C2298     1.0  0.52701  0.99320  0.34328  1.0000
  H   H1831     1.0  0.54474  0.98827  0.30063  1.0000
  P   P77       1.0  0.57601  0.65029  0.26010  1.0000
  C   C2299     1.0  0.60776  0.79301  0.30957  1.0000
  H   H1832     1.0  0.99804  0.64485  0.44149  1.0000
  Fe  Fe166     1.0  0.78610  0.63222  0.45455  1.0000
  S   S319      1.0  0.76805  0.63474  0.43326  1.0000
  S   S320      1.0  0.81590  0.63342  0.44494  1.0000
  Fe  Fe167     1.0  0.75693  0.61908  0.48334  1.0000
  S   S321      1.0  0.73707  0.62058  0.46429  1.0000
  H   H1833     1.0  0.61057  0.83965  0.32219  1.0000
  Fe  Fe168     1.0  0.75999  0.60832  0.44614  1.0000
  S   S322      1.0  0.75935  0.58207  0.43573  1.0000
  Fe  Fe169     1.0  0.74618  0.64713  0.45287  1.0000
  S   S323      1.0  0.72584  0.66957  0.44135  1.0000
  S   S324      1.0  0.77920  0.60507  0.46619  1.0000
  S   S325      1.0  0.76484  0.64654  0.47327  1.0000
  Fe  Fe170     1.0  0.61978  0.78497  0.46006  1.0000
  S   S326      1.0  0.63997  0.77059  0.44047  1.0000
  S   S327      1.0  0.61200  0.81339  0.46750  1.0000
  Fe  Fe171     1.0  0.60110  0.75170  0.47315  1.0000
  S   S328      1.0  0.61951  0.73455  0.45484  1.0000
  C   C2300     1.0  0.77762  0.61894  0.34188  1.0000
  Fe  Fe172     1.0  0.64171  0.74701  0.46231  1.0000
  S   S329      1.0  0.66663  0.73012  0.47253  1.0000
  Fe  Fe173     1.0  0.61667  0.75865  0.43423  1.0000
  S   S330      1.0  0.61144  0.75780  0.40603  1.0000
  S   S331      1.0  0.62317  0.76238  0.48243  1.0000
  S   S332      1.0  0.59666  0.77470  0.45183  1.0000
  C   C2301     1.0  0.70961  0.68641  0.45038  1.0000
  C   C2302     1.0  0.69785  0.69694  0.43929  1.0000
  C   C2303     1.0  0.68450  0.71016  0.44582  1.0000
  C   C2304     1.0  0.68305  0.71344  0.46348  1.0000
  C   C2305     1.0  0.69504  0.70315  0.47449  1.0000
  C   C2306     1.0  0.70813  0.68967  0.46805  1.0000
  H   H1834     1.0  0.69902  0.69479  0.42552  1.0000
  H   H1835     1.0  0.67552  0.71798  0.43712  1.0000
  H   H1836     1.0  0.69418  0.70560  0.48814  1.0000
  H   H1837     1.0  0.71727  0.68203  0.47666  1.0000
  H   H1838     1.0  0.56046  0.96017  0.35879  1.0000
  H   H1839     1.0  0.78329  0.60789  0.37662  1.0000
  H   H1840     1.0  0.70275  0.62391  0.43784  1.0000
  H   H1841     1.0  0.97670  0.53111  0.39843  1.0000
  C   C2307     1.0  0.79367  0.58992  0.33674  1.0000
  C   C2308     1.0  0.64925  0.68604  0.48912  1.0000
  C   C2309     1.0  0.75303  0.56533  0.38208  1.0000
  C   C2310     1.0  0.75131  0.58357  0.38392  1.0000
  C   C2311     1.0  0.75308  0.58908  0.40025  1.0000
  C   C2312     1.0  0.75671  0.57634  0.41483  1.0000
  C   C2313     1.0  0.75837  0.55816  0.41296  1.0000
  C   C2314     1.0  0.75649  0.55266  0.39673  1.0000
  H   H1842     1.0  0.74846  0.59347  0.37272  1.0000
  H   H1843     1.0  0.75147  0.60314  0.40156  1.0000
  H   H1844     1.0  0.76101  0.54825  0.42419  1.0000
  H   H1845     1.0  0.75764  0.53862  0.39561  1.0000
  C   C2315     1.0  0.56194  0.73575  0.39554  1.0000
  C   C2316     1.0  0.57339  0.74338  0.38142  1.0000
  C   C2317     1.0  0.58888  0.74949  0.38474  1.0000
  C   C2318     1.0  0.59290  0.74829  0.40221  1.0000
  C   C2319     1.0  0.58172  0.74017  0.41626  1.0000
  C   C2320     1.0  0.56646  0.73370  0.41288  1.0000
  H   H1846     1.0  0.57015  0.74491  0.36798  1.0000
  H   H1847     1.0  0.59746  0.75571  0.37378  1.0000
  H   H1848     1.0  0.58475  0.73901  0.42975  1.0000
  H   H1849     1.0  0.55784  0.72753  0.42385  1.0000
  C   C2321     1.0  0.52218  0.67611  0.29866  1.0000
  H   H1850     1.0  0.53127  0.66835  0.30728  1.0000
  H   H1851     1.0  0.67345  0.67550  0.42448  1.0000
  S   S333      1.0  0.51538  0.93433  0.37448  1.0000
  H   H1852     1.0  0.87669  0.57115  0.41816  1.0000
  C   C2322     1.0  0.80233  0.56159  0.38653  1.0000
  C   C2323     1.0  0.97914  0.58195  0.39091  1.0000
  Fe  Fe174     1.0  0.52541  0.93679  0.34527  1.0000
  C   C2324     1.0  0.86415  0.51680  0.33767  1.0000
  C   C2325     1.0  0.84800  0.52524  0.33186  1.0000
  C   C2326     1.0  0.83246  0.51676  0.33577  1.0000
  C   C2327     1.0  0.86459  0.49975  0.34738  1.0000
  H   H1853     1.0  0.81742  0.52113  0.37278  1.0000
  H   H1854     1.0  0.66644  0.96753  0.47172  1.0000
  H   H1855     1.0  0.84753  0.53833  0.32413  1.0000
  H   H1856     1.0  0.82016  0.52336  0.33113  1.0000
  C   C2328     1.0  0.86306  0.57649  0.32743  1.0000
  C   C2329     1.0  0.84107  0.50237  0.48437  1.0000
  C   C2330     1.0  0.65648  0.97477  0.48056  1.0000
  C   C2331     1.0  0.98826  0.62408  0.40474  1.0000
  C   C2332     1.0  0.53263  0.81418  0.46216  1.0000
  H   H1857     1.0  0.78093  0.60702  0.40898  1.0000
  C   C2333     1.0  0.54990  0.81810  0.45534  1.0000
  H   H1858     1.0  0.97881  0.59629  0.38909  1.0000
  H   H1859     1.0  0.55659  0.97749  0.42138  1.0000
  C   C2334     1.0  0.59729  0.67725  0.25858  1.0000
  H   H1860     1.0  0.55057  0.84926  0.47050  1.0000
  H   H1861     1.0  0.51904  0.81264  0.34805  1.0000
  C   C2335     1.0  0.93235  0.58717  0.40164  1.0000
  C   C2336     1.0  0.93019  0.58113  0.38581  1.0000
  C   C2337     1.0  0.92805  0.56315  0.38585  1.0000
  C   C2338     1.0  0.92777  0.55146  0.40180  1.0000
  C   C2339     1.0  0.92862  0.55786  0.41767  1.0000
  C   C2340     1.0  0.93130  0.57550  0.41753  1.0000
  H   H1862     1.0  0.93084  0.59015  0.37349  1.0000
  H   H1863     1.0  0.92716  0.55828  0.37356  1.0000
  H   H1864     1.0  0.92777  0.54904  0.43012  1.0000
  H   H1865     1.0  0.93303  0.57980  0.42977  1.0000
  C   C2341     1.0  0.86838  0.64068  0.46448  1.0000
  C   C2342     1.0  0.86829  0.63533  0.44784  1.0000
  C   C2343     1.0  0.85209  0.63346  0.44215  1.0000
  C   C2344     1.0  0.83572  0.63637  0.45315  1.0000
  C   C2345     1.0  0.83580  0.64120  0.47004  1.0000
  C   C2346     1.0  0.85202  0.64357  0.47556  1.0000
  H   H1866     1.0  0.88067  0.63327  0.43905  1.0000
  H   H1867     1.0  0.85227  0.62974  0.42906  1.0000
  H   H1868     1.0  0.82335  0.64352  0.47868  1.0000
  H   H1869     1.0  0.95634  0.53530  0.43324  1.0000
  C   C2347     1.0  0.50435  0.70384  0.28954  1.0000
  H   H1870     1.0  0.52199  0.80277  0.40225  1.0000
  H   H1871     1.0  0.77176  0.54622  0.45399  1.0000
  H   H1872     1.0  0.74913  0.50852  0.26649  1.0000
  H   H1873     1.0  0.98966  0.57820  0.41573  1.0000
  C   C2348     1.0  0.54483  0.83130  0.41708  1.0000
  C   C2349     1.0  0.67041  0.66496  0.45228  1.0000
  P   P78       1.0  0.99401  0.53948  0.42730  1.0000
  C   C2350     1.0  0.62878  0.86909  0.44643  1.0000
  C   C2351     1.0  0.61220  0.86720  0.45656  1.0000
  C   C2352     1.0  0.60714  0.85007  0.46246  1.0000
  C   C2353     1.0  0.61858  0.83458  0.45835  1.0000
  C   C2354     1.0  0.63507  0.83645  0.44801  1.0000
  C   C2355     1.0  0.64008  0.85361  0.44202  1.0000
  H   H1874     1.0  0.60335  0.87899  0.45978  1.0000
  H   H1875     1.0  0.59436  0.84880  0.47043  1.0000
  H   H1876     1.0  0.64406  0.82468  0.44482  1.0000
  H   H1877     1.0  0.97198  0.51840  0.49113  1.0000
  C   C2356     1.0  0.55356  0.91012  0.41191  1.0000
  C   C2357     1.0  0.53941  0.92277  0.41747  1.0000
  C   C2358     1.0  0.54127  0.93343  0.43032  1.0000
  C   C2359     1.0  0.55746  0.93175  0.43721  1.0000
  C   C2360     1.0  0.57148  0.91891  0.43178  1.0000
  C   C2361     1.0  0.56946  0.90800  0.41931  1.0000
  H   H1878     1.0  0.52701  0.92417  0.41198  1.0000
  H   H1879     1.0  0.53037  0.94322  0.43467  1.0000
  H   H1880     1.0  0.58389  0.91723  0.43728  1.0000
  H   H1881     1.0  0.58040  0.89814  0.41516  1.0000
  P   P79       1.0  0.56888  0.98326  0.38283  1.0000
  C   C2362     1.0  0.56427  0.80938  0.46406  1.0000
  H   H1882     1.0  0.55593  0.82062  0.30048  1.0000
  H   H1883     1.0  0.50996  0.85756  0.39163  1.0000
  C   C2363     1.0  0.97228  0.55551  0.38106  1.0000
  H   H1884     1.0  0.75941  0.57847  0.49218  1.0000
  C   C2364     1.0  0.58214  0.80370  0.36659  1.0000
  C   C2365     1.0  0.60058  0.85505  0.41940  1.0000
  C   C2366     1.0  0.61205  0.83983  0.41508  1.0000
  C   C2367     1.0  0.60571  0.82331  0.41764  1.0000
  C   C2368     1.0  0.58788  0.82203  0.42446  1.0000
  H   H1885     1.0  0.60561  0.86781  0.41768  1.0000
  H   H1886     1.0  0.62594  0.84079  0.41010  1.0000
  H   H1887     1.0  0.61467  0.81145  0.41452  1.0000
  H   H1888     1.0  0.58312  0.80917  0.42617  1.0000
  C   C2369     1.0  0.85023  0.52129  0.42321  1.0000
  H   H1889     1.0  0.55696  0.85276  0.40000  1.0000
  S   S334      1.0  0.50714  0.72600  0.36010  1.0000
  C   C2370     1.0  0.58175  0.67014  0.26676  1.0000
  H   H1890     1.0  0.97461  0.63066  0.40559  1.0000
  Fe  Fe175     1.0  0.78491  0.49921  0.34942  1.0000
  C   C2371     1.0  0.55421  0.62759  0.30872  1.0000
  H   H1891     1.0  0.85279  0.55638  0.34745  1.0000
  C   C2372     1.0  0.61230  0.80689  0.29635  1.0000
  C   C2373     1.0  0.50447  0.67758  0.27436  1.0000
  H   H1892     1.0  0.60700  0.77999  0.30602  1.0000
  H   H1893     1.0  0.54804  0.99338  0.47081  1.0000
  C   C2374     1.0  0.84570  0.60584  0.32608  1.0000
  C   C2375     1.0  0.65104  0.80114  0.38050  1.0000
  P   P80       1.0  0.81317  0.61365  0.34768  1.0000
  H   H1894     1.0  0.54824  0.62821  0.25931  1.0000
  H   H1895     1.0  0.53543  0.60848  0.31437  1.0000
  H   H1896     1.0  0.83876  0.61542  0.37180  1.0000
  C   C2376     1.0  0.64737  0.66785  0.49089  1.0000
  C   C2377     1.0  0.63960  0.86476  0.48913  1.0000
  H   H1897     1.0  0.57291  0.78918  0.48494  1.0000
  C   C2378     1.0  0.54249  0.61722  0.30419  1.0000
  C   C2379     1.0  0.81490  0.67223  0.32239  1.0000
  H   H1898     1.0  0.55907  0.76222  0.45583  1.0000
  H   H1899     1.0  0.72035  0.55878  0.27867  1.0000
  C   C2380     1.0  0.53775  0.81433  0.32410  1.0000
  C   C2381     1.0  0.81263  0.65932  0.31213  1.0000
  H   H1900     1.0  0.79065  0.57157  0.38670  1.0000
  H   H1901     1.0  0.79070  0.54395  0.37355  1.0000
  C   C2382     1.0  0.57766  0.98768  0.40201  1.0000
  C   C2383     1.0  0.65700  0.54983  0.24814  1.0000
  C   C2384     1.0  0.87594  0.50056  0.43092  1.0000
  H   H1902     1.0  0.99133  0.57907  0.48517  1.0000
  C   C2385     1.0  0.54069  0.76158  0.43732  1.0000
  C   C2386     1.0  0.99500  0.50350  0.33906  1.0000
  C   C2387     1.0  0.54516  0.98340  0.38860  1.0000
  C   C2388     1.0  0.53813  0.96757  0.39573  1.0000
  C   C2389     1.0  0.51982  0.96781  0.40090  1.0000
  H   H1903     1.0  0.62841  0.83662  0.35740  1.0000
  C   C2390     1.0  0.99284  0.55211  0.44568  1.0000
  S   S335      1.0  0.54057  0.79149  0.32065  1.0000
  H   H1904     1.0  0.59748  0.95679  0.39692  1.0000
  C   C2391     1.0  0.79349  0.60893  0.40076  1.0000
  C   C2392     1.0  0.97780  0.54522  0.39639  1.0000
  C   C2393     1.0  0.68819  0.50071  0.28041  1.0000
  H   H1905     1.0  0.96691  0.54933  0.37159  1.0000
  H   H1906     1.0  0.54164  0.67165  0.25655  1.0000
  C   C2394     1.0  0.78588  0.52784  0.47295  1.0000
  H   H1907     1.0  0.54680  0.95505  0.39744  1.0000
  C   C2395     1.0  0.51393  0.68946  0.39259  1.0000
  H   H1908     1.0  0.53485  0.87694  0.48170  1.0000
  C   C2396     1.0  0.67529  0.65069  0.46520  1.0000
  H   H1909     1.0  0.96640  0.56229  0.48378  1.0000
  H   H1910     1.0  0.50002  0.71796  0.46210  1.0000
  H   H1911     1.0  0.76602  0.51582  0.42753  1.0000
  C   C2397     1.0  0.57455  0.99729  0.34675  1.0000
  H   H1912     1.0  0.68212  0.53788  0.25624  1.0000
  C   C2398     1.0  0.53402  0.82426  0.38577  1.0000
  H   H1913     1.0  0.70763  0.59275  0.46650  1.0000
  C   C2399     1.0  0.70429  0.58475  0.47918  1.0000
  C   C2400     1.0  0.72353  0.54855  0.26993  1.0000
  C   C2401     1.0  0.53202  0.68200  0.36532  1.0000
  C   C2402     1.0  0.53054  0.68750  0.38210  1.0000
  C   C2403     1.0  0.99184  0.57132  0.47436  1.0000
  C   C2404     1.0  0.95455  0.50736  0.44064  1.0000
  S   S336      1.0  0.50473  0.75679  0.32535  1.0000
  H   H1914     1.0  0.55612  0.62707  0.32250  1.0000
  H   H1915     1.0  0.87448  0.56747  0.32250  1.0000
  C   C2405     1.0  0.85081  0.57021  0.34152  1.0000
  C   C2406     1.0  0.99470  0.61440  0.41991  1.0000
  C   C2407     1.0  0.55630  0.78889  0.36649  1.0000
  S   S337      1.0  0.66862  0.50388  0.26930  1.0000
  H   H1916     1.0  0.49935  0.74920  0.44824  1.0000
  H   H1917     1.0  0.53168  0.60916  0.28278  1.0000
  C   C2408     1.0  0.73140  0.52172  0.24777  1.0000
  H   H1918     1.0  0.55159  0.85293  0.30194  1.0000
  C   C2409     1.0  0.54028  0.61766  0.28639  1.0000
  H   H1919     1.0  0.81737  0.64646  0.36225  1.0000
  H   H1920     1.0  0.96698  0.54552  0.45872  1.0000
  H   H1921     1.0  0.96822  0.58193  0.36667  1.0000
  C   C2410     1.0  0.65320  0.61974  0.48814  1.0000
  C   C2411     1.0  0.79310  0.50502  0.43139  1.0000
  H   H1922     1.0  0.51506  0.84562  0.34996  1.0000
  H   H1923     1.0  0.52088  0.65401  0.28442  1.0000
  C   C2412     1.0  0.99295  0.51864  0.34773  1.0000
  C   C2413     1.0  0.81667  0.66742  0.34041  1.0000
  S   S338      1.0  0.55113  0.58935  0.25198  1.0000
  H   H1924     1.0  0.63290  0.59417  0.24862  1.0000
  C   C2414     1.0  0.85746  0.50503  0.43194  1.0000
  H   H1925     1.0  0.69065  0.62454  0.46948  1.0000
  C   C2415     1.0  0.59263  0.99247  0.43181  1.0000
  C   C2416     1.0  0.98243  0.52010  0.43415  1.0000
  H   H1926     1.0  0.68128  0.57644  0.47153  1.0000
  S   S339      1.0  0.57632  0.74221  0.48969  1.0000
  C   C2417     1.0  0.51755  0.74962  0.46725  1.0000
  C   C2418     1.0  0.54583  0.97204  0.49209  1.0000
  C   C2419     1.0  0.64690  0.81850  0.37208  1.0000
  H   H1927     1.0  0.70572  0.56187  0.25156  1.0000
  H   H1928     1.0  0.74200  0.53207  0.28616  1.0000
  H   H1929     1.0  0.51677  0.79730  0.48121  1.0000
  H   H1930     1.0  0.53440  0.71637  0.48167  1.0000
  H   H1931     1.0  0.50082  0.79806  0.31212  1.0000
  C   C2420     1.0  0.98448  0.55318  0.40890  1.0000
  S   S340      1.0  0.62507  0.50675  0.24893  1.0000
  H   H1932     1.0  0.74977  0.62290  0.33857  1.0000
  C   C2421     1.0  0.88717  0.51227  0.42112  1.0000
  C   C2422     1.0  0.52410  0.88499  0.43960  1.0000
  H   H1933     1.0  0.53869  0.75212  0.48218  1.0000
  H   H1934     1.0  0.57376  0.98418  0.34360  1.0000
  H   H1935     1.0  0.69420  0.64934  0.41529  1.0000
  C   C2423     1.0  0.54453  0.79163  0.48465  1.0000
  H   H1936     1.0  0.51824  0.67488  0.34568  1.0000
  S   S341      1.0  0.77082  0.50892  0.37471  1.0000
  H   H1937     1.0  0.89664  0.60982  0.48661  1.0000
  S   S342      1.0  0.50407  0.61367  0.25852  1.0000
  H   H1938     1.0  0.81117  0.66307  0.29817  1.0000
  H   H1939     1.0  0.54749  0.84636  0.37260  1.0000
  H   H1940     1.0  0.51275  0.69452  0.40524  1.0000
  Fe  Fe176     1.0  0.94861  0.50335  0.34501  1.0000
  H   H1941     1.0  0.61329  0.69850  0.25693  1.0000
  Fe  Fe177     1.0  0.74945  0.50298  0.33264  1.0000
  C   C2424     1.0  0.57639  0.98573  0.43406  1.0000
  H   H1942     1.0  0.49977  0.71775  0.29076  1.0000
  C   C2425     1.0  0.57637  0.83719  0.42924  1.0000
  H   H1943     1.0  0.85188  0.64778  0.48842  1.0000
  H   H1944     1.0  0.57417  0.86580  0.42962  1.0000
  C   C2426     1.0  0.78227  0.54418  0.46239  1.0000
  C   C2427     1.0  0.57873  0.56247  0.24788  1.0000
  H   H1945     1.0  0.57453  0.55775  0.26170  1.0000
  C   C2428     1.0  0.57138  0.95312  0.36565  1.0000
  C   C2429     1.0  0.80234  0.54600  0.37911  1.0000
  C   C2430     1.0  0.59197  0.95122  0.38714  1.0000
  H   H1946     1.0  0.70478  0.51893  0.31183  1.0000
  C   C2431     1.0  0.70431  0.51011  0.30220  1.0000
  S   S343      1.0  0.90244  0.50612  0.37453  1.0000
  C   C2432     1.0  0.67691  0.66424  0.43431  1.0000
  H   H1947     1.0  0.60826  0.92585  0.39197  1.0000
  H   H1948     1.0  0.84409  0.61956  0.31993  1.0000
  H   H1949     1.0  0.81734  0.57675  0.39860  1.0000
  C   C2433     1.0  0.70224  0.64919  0.49518  1.0000
  H   H1950     1.0  0.54983  0.76564  0.42576  1.0000
  C   C2434     1.0  0.88981  0.56015  0.35930  1.0000
  C   C2435     1.0  0.63981  0.78835  0.38053  1.0000
  C   C2436     1.0  0.86902  0.55214  0.48959  1.0000
  C   C2437     1.0  0.81737  0.56434  0.39355  1.0000
  C   C2438     1.0  0.57847  0.96116  0.37782  1.0000
  C   C2439     1.0  0.56161  0.79611  0.47855  1.0000
  H   H1951     1.0  0.51192  0.62346  0.33491  1.0000
  H   H1952     1.0  0.81828  0.67745  0.34842  1.0000
  C   C2440     1.0  0.59818  0.93356  0.38438  1.0000
  H   H1953     1.0  0.60558  0.70396  0.49454  1.0000
  H   H1954     1.0  0.65572  0.82836  0.37190  1.0000
  C   C2441     1.0  0.89540  0.53760  0.47298  1.0000
  C   C2442     1.0  0.61966  0.81052  0.36456  1.0000
  Fe  Fe178     1.0  0.52259  0.89665  0.34312  1.0000
  C   C2443     1.0  0.51650  0.69423  0.30057  1.0000
  H   H1955     1.0  0.84253  0.59963  0.45698  1.0000
  C   C2444     1.0  0.60440  0.81291  0.33208  1.0000
  C   C2445     1.0  0.76210  0.61381  0.33782  1.0000
  C   C2446     1.0  0.54018  0.98878  0.48307  1.0000
  C   C2447     1.0  0.53509  0.81706  0.41747  1.0000
  C   C2448     1.0  0.81741  0.53316  0.37868  1.0000
  H   H1956     1.0  0.66234  0.69031  0.48645  1.0000
  H   H1957     1.0  0.84513  0.55624  0.47673  1.0000
  H   H1958     1.0  0.81646  0.58823  0.44977  1.0000
  H   H1959     1.0  0.82021  0.56699  0.42785  1.0000
  C   C2449     1.0  0.53001  0.80075  0.47652  1.0000
  S   S344      1.0  0.53547  0.96110  0.32798  1.0000
  C   C2450     1.0  0.52642  0.82143  0.33831  1.0000
  C   C2451     1.0  0.59002  0.83956  0.35739  1.0000
  P   P81       1.0  0.59906  0.81677  0.35503  1.0000
  C   C2452     1.0  0.54927  0.84181  0.40074  1.0000
  C   C2453     1.0  0.54394  0.83825  0.38516  1.0000
  C   C2454     1.0  0.83240  0.55132  0.39362  1.0000
  C   C2455     1.0  0.76234  0.59675  0.33331  1.0000
  C   C2456     1.0  0.82959  0.58397  0.44311  1.0000
  C   C2457     1.0  0.83174  0.57243  0.43021  1.0000
  S   S345      1.0  0.93041  0.56172  0.47927  1.0000
  H   H1960     1.0  0.51452  0.95554  0.40636  1.0000
  H   H1961     1.0  0.54645  0.77448  0.39150  1.0000
  C   C2458     1.0  0.79188  0.55812  0.46291  1.0000
  C   C2459     1.0  0.51632  0.66789  0.28565  1.0000
  C   C2460     1.0  0.85909  0.55092  0.47596  1.0000
  H   H1962     1.0  0.85973  0.54226  0.45039  1.0000
  H   H1963     1.0  0.99437  0.63263  0.37672  1.0000
  C   C2461     1.0  0.77812  0.58487  0.33269  1.0000
  H   H1964     1.0  0.77710  0.63208  0.34574  1.0000
  H   H1965     1.0  0.54214  0.69097  0.38668  1.0000
  C   C2462     1.0  0.59115  0.92574  0.37214  1.0000
  C   C2463     1.0  0.82609  0.61348  0.37978  1.0000
  C   C2464     1.0  0.83245  0.53586  0.38574  1.0000
  C   C2465     1.0  0.57790  0.93560  0.36266  1.0000
  C   C2466     1.0  0.61513  0.67577  0.49540  1.0000
  C   C2467     1.0  0.89164  0.57825  0.35734  1.0000
  C   C2468     1.0  0.86735  0.54304  0.46096  1.0000
  C   C2469     1.0  0.68908  0.51177  0.29332  1.0000
  C   C2470     1.0  0.80811  0.61110  0.40868  1.0000
  H   H1966     1.0  0.57174  0.88894  0.36243  1.0000
  H   H1967     1.0  0.98619  0.61384  0.43257  1.0000
  C   C2471     1.0  0.51230  0.75194  0.45017  1.0000
  H   H1968     1.0  0.57247  0.92959  0.35315  1.0000
  C   C2472     1.0  0.87755  0.55294  0.37288  1.0000
  H   H1969     1.0  0.86904  0.50147  0.47444  1.0000
  H   H1970     1.0  0.56087  0.90313  0.46706  1.0000
  H   H1971     1.0  0.57616  0.84382  0.33412  1.0000
  C   C2473     1.0  0.54292  0.85902  0.46189  1.0000
  H   H1972     1.0  0.84412  0.52589  0.38494  1.0000
  C   C2474     1.0  0.51693  0.67830  0.35906  1.0000
  C   C2475     1.0  0.54591  0.75957  0.45424  1.0000
  P   P82       1.0  0.85192  0.55442  0.40287  1.0000
  H   H1973     1.0  0.59581  0.91200  0.37016  1.0000
  C   C2476     1.0  0.86148  0.53313  0.41325  1.0000
  H   H1974     1.0  0.54472  0.68131  0.35683  1.0000
  C   C2477     1.0  0.88001  0.52866  0.41252  1.0000
  H   H1975     1.0  0.97987  0.52613  0.35031  1.0000
  C   C2478     1.0  0.84857  0.56832  0.42047  1.0000
  C   C2479     1.0  0.84430  0.59059  0.44711  1.0000
  Fe  Fe179     1.0  0.52717  0.76755  0.33464  1.0000
  S   S346      1.0  0.52538  0.70410  0.31660  1.0000
  H   H1976     1.0  0.56986  0.98178  0.44730  1.0000
  H   H1977     1.0  0.51734  0.89527  0.43071  1.0000
  C   C2480     1.0  0.54712  0.82586  0.31145  1.0000
  C   C2481     1.0  0.50843  0.98384  0.39897  1.0000
  H   H1978     1.0  0.60068  0.78496  0.33748  1.0000
  H   H1979     1.0  0.54680  0.78500  0.35919  1.0000
  C   C2482     1.0  0.55955  0.90124  0.48147  1.0000
  C   C2483     1.0  0.88085  0.58932  0.36869  1.0000
  C   C2484     1.0  0.52424  0.84008  0.33941  1.0000
  C   C2485     1.0  0.56152  0.63897  0.27748  1.0000
  C   C2486     1.0  0.57656  0.87513  0.36104  1.0000
  H   H1980     1.0  0.77810  0.57148  0.32963  1.0000
  C   C2487     1.0  0.96376  0.52218  0.43585  1.0000
  C   C2488     1.0  0.56890  0.98330  0.41924  1.0000
  C   C2489     1.0  0.50243  0.63537  0.33299  1.0000
  H   H1981     1.0  0.58844  0.87075  0.38522  1.0000
  H   H1982     1.0  0.88900  0.53777  0.40539  1.0000
  C   C2490     1.0  0.80861  0.53959  0.48477  1.0000
  H   H1983     1.0  0.59996  0.83920  0.38239  1.0000
  H   H1984     1.0  0.80672  0.61113  0.42292  1.0000
  C   C2491     1.0  0.65338  0.99337  0.47754  1.0000
  C   C2492     1.0  0.73582  0.53358  0.27410  1.0000
  H   H1985     1.0  0.94013  0.50915  0.44157  1.0000
  C   C2493     1.0  0.53416  0.87472  0.46823  1.0000
  C   C2494     1.0  0.86340  0.57467  0.42497  1.0000
  H   H1986     1.0  0.56483  0.87531  0.33714  1.0000
  C   C2495     1.0  0.52486  0.88777  0.45703  1.0000
  C   C2496     1.0  0.62229  0.60513  0.25043  1.0000
  H   H1987     1.0  0.81168  0.56701  0.47535  1.0000
  C   C2497     1.0  0.86124  0.58581  0.43819  1.0000
  C   C2498     1.0  0.52396  0.75767  0.43524  1.0000
  C   C2499     1.0  0.53258  0.86920  0.43332  1.0000
  H   H1988     1.0  0.81845  0.53836  0.49376  1.0000
  H   H1989     1.0  0.50426  0.64326  0.35829  1.0000
  C   C2500     1.0  0.98496  0.57166  0.40613  1.0000
  H   H1990     1.0  0.80555  0.58030  0.33633  1.0000
  C   C2501     1.0  0.88557  0.53672  0.45931  1.0000
  C   C2502     1.0  0.58623  0.86487  0.37387  1.0000
  S   S347      1.0  0.50450  0.92254  0.33778  1.0000
  H   H1991     1.0  0.87266  0.59100  0.44134  1.0000
  H   H1992     1.0  0.86022  0.59104  0.39078  1.0000
  H   H1993     1.0  0.52122  0.82138  0.45620  1.0000
  Fe  Fe180     1.0  0.51993  0.72922  0.33141  1.0000
  H   H1994     1.0  0.53218  0.80810  0.42950  1.0000
  H   H1995     1.0  0.55721  0.67509  0.28454  1.0000
  H   H1996     1.0  0.64300  0.77484  0.38701  1.0000
  H   H1997     1.0  0.87617  0.53892  0.37402  1.0000
  C   C2503     1.0  0.57288  0.86748  0.34679  1.0000
  C   C2504     1.0  0.86720  0.56381  0.38480  1.0000
  C   C2505     1.0  0.60141  0.99689  0.41473  1.0000
  H   H1998     1.0  0.52024  0.75867  0.42199  1.0000
  H   H1999     1.0  0.67795  0.52186  0.29636  1.0000
  C   C2506     1.0  0.59276  0.84707  0.37218  1.0000
  H   H2000     1.0  0.55780  0.96403  0.48666  1.0000
  C   C2507     1.0  0.68857  0.64948  0.42912  1.0000
  P   P83       1.0  0.50258  0.74297  0.48687  1.0000
  C   C2508     1.0  0.53363  0.98453  0.32823  1.0000
  H   H2001     1.0  0.84031  0.51550  0.48823  1.0000
  S   S348      1.0  0.63831  0.93226  0.46278  1.0000
  H   H2002     1.0  0.89222  0.53139  0.44737  1.0000
  H   H2003     1.0  0.51852  0.90018  0.46171  1.0000
  H   H2004     1.0  0.52239  0.98544  0.35566  1.0000
  C   C2509     1.0  0.86848  0.58220  0.38220  1.0000
  C   C2510     1.0  0.63028  0.88087  0.49389  1.0000
  H   H2005     1.0  0.53012  0.82135  0.37368  1.0000
  C   C2511     1.0  0.81215  0.64160  0.31989  1.0000
  P   P84       1.0  0.55308  0.83551  0.43673  1.0000
  H   H2006     1.0  0.82659  0.57652  0.35864  1.0000
  C   C2512     1.0  0.53437  0.75367  0.46916  1.0000
  H   H2007     1.0  0.57943  0.87825  0.48269  1.0000
  C   C2513     1.0  0.54203  0.85607  0.44444  1.0000
  C   C2514     1.0  0.54470  0.84425  0.31233  1.0000
  C   C2515     1.0  0.54974  0.62850  0.27307  1.0000
  C   C2516     1.0  0.60955  0.82663  0.31881  1.0000
  C   C2517     1.0  0.64854  0.60293  0.49546  1.0000
  H   H2008     1.0  0.61583  0.78278  0.37255  1.0000
  S   S349      1.0  0.51499  0.76646  0.36306  1.0000
  H   H2009     1.0  0.88222  0.60339  0.36715  1.0000
  C   C2518     1.0  0.57368  0.69551  0.28340  1.0000
  H   H2010     1.0  0.78901  0.57073  0.45468  1.0000
  C   C2519     1.0  0.58127  0.79862  0.38502  1.0000
  C   C2520     1.0  0.57942  0.84965  0.34505  1.0000
  C   C2521     1.0  0.56976  0.67967  0.27883  1.0000
  H   H2011     1.0  0.64212  0.59555  0.48784  1.0000
  H   H2012     1.0  0.64979  0.54690  0.26132  1.0000
  H   H2013     1.0  0.90133  0.58371  0.34693  1.0000
  H   H2014     1.0  0.90959  0.53294  0.47167  1.0000
  H   H2015     1.0  0.81521  0.68598  0.31640  1.0000
  C   C2522     1.0  0.69341  0.63518  0.44185  1.0000
  C   C2523     1.0  0.68949  0.57553  0.48204  1.0000
  C   C2524     1.0  0.56837  0.78825  0.39400  1.0000
  S   S350      1.0  0.51209  0.89177  0.37199  1.0000
  H   H2016     1.0  0.61700  0.83437  0.29077  1.0000
  C   C2525     1.0  0.79496  0.60941  0.38233  1.0000
  C   C2526     1.0  0.68666  0.63569  0.45979  1.0000
  C   C2527     1.0  0.97786  0.56181  0.47356  1.0000
  H   H2017     1.0  0.56428  0.70273  0.29278  1.0000
  C   C2528     1.0  0.62429  0.79295  0.37241  1.0000
  H   H2018     1.0  0.56848  0.78370  0.40803  1.0000
  C   C2529     1.0  0.56908  0.79945  0.35752  1.0000
  H   H2019     1.0  0.70604  0.64131  0.48436  1.0000
  C   C2530     1.0  0.81621  0.64970  0.34822  1.0000
  C   C2531     1.0  0.80481  0.55594  0.47433  1.0000
  C   C2532     1.0  0.79937  0.52527  0.48401  1.0000
  C   C2533     1.0  0.83604  0.58168  0.34790  1.0000
  H   H2020     1.0  0.83587  0.52463  0.42422  1.0000
  C   C2534     1.0  0.60403  0.79593  0.32739  1.0000
  C   C2535     1.0  0.79353  0.60698  0.34149  1.0000
  C   C2536     1.0  0.86061  0.59434  0.31984  1.0000
  P   P85       1.0  0.66698  0.65136  0.48851  1.0000
  C   C2537     1.0  0.61334  0.82365  0.30099  1.0000
  H   H2021     1.0  0.81029  0.63174  0.31180  1.0000
  H   H2022     1.0  0.83565  0.61518  0.40454  1.0000
  C   C2538     1.0  0.77617  0.50430  0.42706  1.0000
  H   H2023     1.0  0.59242  0.71452  0.27918  1.0000
  C   C2539     1.0  0.97305  0.57385  0.37826  1.0000
  C   C2540     1.0  0.83313  0.59948  0.34001  1.0000
  H   H2024     1.0  0.65269  0.86455  0.48135  1.0000
  H   H2025     1.0  0.53201  0.86761  0.41968  1.0000
  C   C2541     1.0  0.98267  0.50747  0.48954  1.0000
  C   C2542     1.0  0.97822  0.55237  0.45921  1.0000
  C   C2543     1.0  0.52944  0.81379  0.40192  1.0000
  H   H2026     1.0  0.79610  0.51719  0.43521  1.0000
  C   C2544     1.0  0.53320  0.85161  0.32613  1.0000
  S   S351      1.0  0.60012  0.91616  0.47194  1.0000
  H   H2027     1.0  0.57360  0.64546  0.29906  1.0000
  H   H2028     1.0  0.75019  0.59248  0.33079  1.0000
  C   C2545     1.0  0.63136  0.82315  0.36397  1.0000
  S   S352      1.0  0.52933  0.87534  0.32439  1.0000
  C   C2546     1.0  0.81401  0.63662  0.33798  1.0000
  H   H2029     1.0  0.59087  0.80219  0.39241  1.0000
  C   C2547     1.0  0.55603  0.78313  0.38470  1.0000
  H   H2030     1.0  0.61506  0.80464  0.28253  1.0000
  C   C2548     1.0  0.71517  0.55016  0.25466  1.0000
  C   C2549     1.0  0.82443  0.61331  0.39824  1.0000
  H   H2031     1.0  0.87024  0.59922  0.30902  1.0000
  C   C2550     1.0  0.71510  0.58329  0.49256  1.0000
  C   C2551     1.0  0.81126  0.61184  0.37165  1.0000
  Fe  Fe181     1.0  0.61458  0.93372  0.48385  1.0000
  H   H2032     1.0  0.66194  0.67685  0.45594  1.0000
  S   S353      1.0  0.73322  0.51329  0.35695  1.0000
  H   H2033     1.0  0.56890  0.80396  0.34344  1.0000
  C   C2552     1.0  0.54754  0.91306  0.49108  1.0000
  H   H2034     1.0  0.59872  0.99369  0.44328  1.0000
  C   C2553     1.0  0.58947  0.70218  0.27567  1.0000
  H   H2035     1.0  0.65290  0.85491  0.43412  1.0000
  C   C2554     1.0  0.50024  0.67995  0.36963  1.0000
  C   C2555     1.0  0.63182  0.84904  0.49391  1.0000
  C   C2556     1.0  0.62461  0.61903  0.25943  1.0000
  C   C2557     1.0  0.52900  0.71494  0.49564  1.0000
  C   C2558     1.0  0.59406  0.99434  0.39987  1.0000
  C   C2559     1.0  0.73983  0.52025  0.26297  1.0000
  H   H2036     1.0  0.72669  0.59029  0.49033  1.0000
  C   C2560     1.0  0.61718  0.69384  0.49366  1.0000
  C   C2561     1.0  0.61075  0.63297  0.26211  1.0000
  H   H2037     1.0  0.60137  0.99716  0.38675  1.0000
  H   H2038     1.0  0.77784  0.51755  0.47254  1.0000
  H   H2039     1.0  0.53957  0.92412  0.48411  1.0000
  C   C2562     1.0  0.59461  0.63333  0.25540  1.0000
  H   H2040     1.0  0.61254  0.64314  0.26982  1.0000
  C   C2563     1.0  0.99177  0.50285  0.43717  1.0000
  C   C2564     1.0  0.60123  0.69310  0.26319  1.0000
  C   C2565     1.0  0.63424  0.69893  0.49060  1.0000
  H   H2041     1.0  0.54265  0.78106  0.49565  1.0000
  C   C2566     1.0  0.63015  0.66281  0.49404  1.0000
  H   H2042     1.0  0.88644  0.58141  0.48559  1.0000
  H   H2043     1.0  0.81176  0.60751  0.48687  1.0000
  C   C2567     1.0  0.57014  0.88722  0.49037  1.0000
  H   H2044     1.0  0.63888  0.83663  0.48978  1.0000
  H   H2045     1.0  0.63587  0.71294  0.48914  1.0000
  H   H2046     1.0  0.63626  0.89311  0.49013  1.0000
  H   H2047     1.0  0.84281  0.59367  0.48817  1.0000
  C   C2568     1.0  0.88709  0.54503  0.48817  1.0000
  H   H2048     1.0  0.63701  0.61878  0.26468  1.0000
  H   H2049     1.0  0.62820  0.64896  0.49532  1.0000
  C   C2569     1.0  0.83215  0.58710  0.49619  1.0000
  C   C2570     1.0  0.81458  0.59507  0.49550  1.0000
  C   C2571     1.0  0.64644  0.96550  0.49471  1.0000
  H   H2050     1.0  0.60623  0.67068  0.24847  1.0000
  C   C2572     1.0  0.99901  0.51046  0.47950  1.0000
  C   C2573     1.0  0.59225  0.61906  0.24677  1.0000
  H   H2051     1.0  0.71778  0.57077  0.59053  1.0000
  S   S354      1.0  0.56576  0.91740  0.58062  1.0000
  H   H2052     1.0  0.52691  0.87163  0.62118  1.0000
  H   H2053     1.0  0.54964  0.69369  0.50263  1.0000
  H   H2054     1.0  0.51131  0.59416  0.66406  1.0000
  Fe  Fe182     1.0  0.50366  0.90299  0.59050  1.0000
  Fe  Fe183     1.0  0.92497  0.51866  0.57274  1.0000
  S   S355      1.0  0.92004  0.54801  0.56329  1.0000
  C   C2574     1.0  0.96611  0.59530  0.51337  1.0000
  S   S356      1.0  0.75344  0.51964  0.58919  1.0000
  S   S357      1.0  0.52328  0.90264  0.56561  1.0000
  S   S358      1.0  0.75328  0.52487  0.53513  1.0000
  H   H2055     1.0  0.73489  0.50392  0.50277  1.0000
  C   C2575     1.0  0.68803  0.50455  0.73093  1.0000
  S   S359      1.0  0.60201  0.54654  0.72445  1.0000
  S   S360      1.0  0.54878  0.75958  0.56832  1.0000
  S   S361      1.0  0.52864  0.57730  0.69661  1.0000
  C   C2576     1.0  0.55592  0.75588  0.54605  1.0000
  C   C2577     1.0  0.57214  0.76118  0.53727  1.0000
  C   C2578     1.0  0.57844  0.75752  0.51977  1.0000
  C   C2579     1.0  0.54097  0.50826  0.72670  1.0000
  C   C2580     1.0  0.54583  0.74733  0.53709  1.0000
  H   H2056     1.0  0.58001  0.76784  0.54410  1.0000
  H   H2057     1.0  0.53333  0.74318  0.54370  1.0000
  C   C2581     1.0  0.58044  0.55262  0.71839  1.0000
  C   C2582     1.0  0.57532  0.54594  0.70421  1.0000
  C   C2583     1.0  0.55922  0.55336  0.69767  1.0000
  C   C2584     1.0  0.54813  0.56722  0.70551  1.0000
  C   C2585     1.0  0.55283  0.57317  0.72027  1.0000
  C   C2586     1.0  0.56896  0.56595  0.72660  1.0000
  H   H2058     1.0  0.58408  0.53562  0.69780  1.0000
  H   H2059     1.0  0.55550  0.54854  0.68639  1.0000
  H   H2060     1.0  0.54426  0.58366  0.72658  1.0000
  S   S362      1.0  0.95238  0.50356  0.56842  1.0000
  C   C2587     1.0  0.75379  0.54805  0.52945  1.0000
  C   C2588     1.0  0.75725  0.55492  0.51140  1.0000
  C   C2589     1.0  0.74966  0.57828  0.53699  1.0000
  C   C2590     1.0  0.75036  0.55974  0.54228  1.0000
  H   H2061     1.0  0.61425  0.96340  0.61877  1.0000
  H   H2062     1.0  0.74651  0.58731  0.54693  1.0000
  H   H2063     1.0  0.74777  0.55455  0.55621  1.0000
  H   H2064     1.0  0.50574  0.70008  0.68302  1.0000
  H   H2065     1.0  0.68458  0.51361  0.55083  1.0000
  H   H2066     1.0  0.88550  0.62721  0.51156  1.0000
  C   C2591     1.0  0.51034  0.52789  0.71436  1.0000
  H   H2067     1.0  0.58215  0.97419  0.62023  1.0000
  H   H2068     1.0  0.50689  0.78682  0.52675  1.0000
  H   H2069     1.0  0.67506  0.51798  0.63715  1.0000
  S   S363      1.0  0.51092  0.75396  0.60924  1.0000
  C   C2592     1.0  0.53892  0.84778  0.60990  1.0000
  C   C2593     1.0  0.82195  0.56342  0.51840  1.0000
  C   C2594     1.0  0.74180  0.52832  0.66293  1.0000
  C   C2595     1.0  0.52748  0.84355  0.55415  1.0000
  C   C2596     1.0  0.92182  0.55182  0.53997  1.0000
  C   C2597     1.0  0.92682  0.53758  0.52997  1.0000
  C   C2598     1.0  0.92928  0.54077  0.51135  1.0000
  C   C2599     1.0  0.49992  0.70254  0.65598  1.0000
  C   C2600     1.0  0.92145  0.57243  0.51256  1.0000
  C   C2601     1.0  0.91888  0.56924  0.53123  1.0000
  H   H2070     1.0  0.92925  0.52411  0.53654  1.0000
  H   H2071     1.0  0.61266  0.87153  0.53897  1.0000
  Fe  Fe184     1.0  0.52062  0.75470  0.57984  1.0000
  H   H2072     1.0  0.91497  0.58032  0.53888  1.0000
  C   C2602     1.0  0.60969  0.97524  0.61011  1.0000
  C   C2603     1.0  0.75269  0.58519  0.51890  1.0000
  C   C2604     1.0  0.95241  0.54452  0.59731  1.0000
  S   S364      1.0  0.62152  0.92831  0.51170  1.0000
  C   C2605     1.0  0.50685  0.72362  0.52004  1.0000
  H   H2073     1.0  0.91302  0.63588  0.57101  1.0000
  H   H2074     1.0  0.79379  0.53709  0.54929  1.0000
  C   C2606     1.0  0.79894  0.52282  0.52649  1.0000
  C   C2607     1.0  0.58059  0.91968  0.56087  1.0000
  C   C2608     1.0  0.57474  0.92312  0.54406  1.0000
  C   C2609     1.0  0.58716  0.92558  0.52860  1.0000
  C   C2610     1.0  0.60529  0.92477  0.53014  1.0000
  C   C2611     1.0  0.61097  0.92128  0.54694  1.0000
  C   C2612     1.0  0.59868  0.91874  0.56223  1.0000
  H   H2075     1.0  0.56069  0.92413  0.54303  1.0000
  C   C2613     1.0  0.60024  0.58579  0.68821  1.0000
  H   H2076     1.0  0.62496  0.92066  0.54814  1.0000
  H   H2077     1.0  0.60322  0.91621  0.57518  1.0000
  H   H2078     1.0  0.63339  0.53092  0.52851  1.0000
  C   C2614     1.0  0.52717  0.80078  0.61611  1.0000
  H   H2079     1.0  0.87748  0.55999  0.54090  1.0000
  P   P86       1.0  0.69192  0.54882  0.53248  1.0000
  C   C2615     1.0  0.73282  0.52778  0.68028  1.0000
  H   H2080     1.0  0.53777  0.68996  0.53478  1.0000
  C   C2616     1.0  0.56890  0.88493  0.50900  1.0000
  H   H2081     1.0  0.60187  0.67188  0.49767  1.0000
  C   C2617     1.0  0.98743  0.60177  0.57638  1.0000
  C   C2618     1.0  0.56210  0.84432  0.50883  1.0000
  C   C2619     1.0  0.53169  0.77572  0.63911  1.0000
  C   C2620     1.0  0.96771  0.59304  0.54998  1.0000
  H   H2082     1.0  0.55315  0.50082  0.73102  1.0000
  Fe  Fe185     1.0  0.50667  0.92819  0.55589  1.0000
  H   H2083     1.0  0.67908  0.51547  0.73619  1.0000
  C   C2621     1.0  0.71227  0.54858  0.57899  1.0000
  C   C2622     1.0  0.69533  0.51168  0.54008  1.0000
  P   P87       1.0  0.50298  0.50079  0.69712  1.0000
  H   H2084     1.0  0.89491  0.54576  0.49862  1.0000
  C   C2623     1.0  0.71619  0.52345  0.51569  1.0000
  H   H2085     1.0  0.64197  0.59870  0.65634  1.0000
  C   C2624     1.0  0.71127  0.66271  0.51836  1.0000
  S   S365      1.0  0.61868  0.50205  0.70007  1.0000
  C   C2625     1.0  0.67308  0.50241  0.66319  1.0000
  C   C2626     1.0  0.53086  0.50048  0.71699  1.0000
  H   H2086     1.0  0.97800  0.61846  0.54309  1.0000
  C   C2627     1.0  0.53094  0.69985  0.52558  1.0000
  H   H2087     1.0  0.52627  0.76600  0.64951  1.0000
  C   C2628     1.0  0.64020  0.55979  0.55570  1.0000
  H   H2088     1.0  0.71114  0.52269  0.74279  1.0000
  H   H2089     1.0  0.72183  0.56156  0.69669  1.0000
  C   C2629     1.0  0.68180  0.50765  0.64599  1.0000
  C   C2630     1.0  0.69622  0.56353  0.51190  1.0000
  H   H2090     1.0  0.83186  0.52190  0.60434  1.0000
  C   C2631     1.0  0.56862  0.74833  0.51110  1.0000
  C   C2632     1.0  0.54610  0.91083  0.50962  1.0000
  C   C2633     1.0  0.71408  0.53068  0.68327  1.0000
  C   C2634     1.0  0.86871  0.60785  0.52547  1.0000
  C   C2635     1.0  0.59925  0.99020  0.53089  1.0000
  C   C2636     1.0  0.61308  0.88132  0.50322  1.0000
  C   C2637     1.0  0.54565  0.80055  0.61176  1.0000
  C   C2638     1.0  0.72364  0.50605  0.51298  1.0000
  S   S366      1.0  0.91880  0.50678  0.60127  1.0000
  C   C2639     1.0  0.73216  0.53164  0.64844  1.0000
  C   C2640     1.0  0.85412  0.50137  0.59982  1.0000
  H   H2091     1.0  0.87233  0.50670  0.56555  1.0000
  H   H2092     1.0  0.56517  0.65272  0.69842  1.0000
  H   H2093     1.0  0.62444  0.68130  0.69483  1.0000
  H   H2094     1.0  0.69011  0.53583  0.67038  1.0000
  H   H2095     1.0  0.61169  0.59252  0.72133  1.0000
  C   C2641     1.0  0.53508  0.80845  0.57022  1.0000
  H   H2096     1.0  0.52661  0.84577  0.60567  1.0000
  H   H2097     1.0  0.54672  0.99870  0.54062  1.0000
  C   C2642     1.0  0.57400  0.84598  0.52056  1.0000
  C   C2643     1.0  0.58424  0.86962  0.54280  1.0000
  C   C2644     1.0  0.56887  0.86978  0.55534  1.0000
  C   C2645     1.0  0.56954  0.87254  0.57282  1.0000
  C   C2646     1.0  0.58570  0.87462  0.57804  1.0000
  C   C2647     1.0  0.60120  0.87398  0.56580  1.0000
  C   C2648     1.0  0.60050  0.87154  0.54823  1.0000
  C   C2649     1.0  0.56146  0.81321  0.52096  1.0000
  C   C2650     1.0  0.64537  0.56003  0.70672  1.0000
  H   H2098     1.0  0.63619  0.97978  0.59793  1.0000
  H   H2099     1.0  0.57757  0.80328  0.54187  1.0000
  C   C2651     1.0  0.57944  0.83109  0.53251  1.0000
  Fe  Fe186     1.0  0.61359  0.51788  0.72315  1.0000
  H   H2100     1.0  0.73908  0.57603  0.71376  1.0000
  H   H2101     1.0  0.94059  0.56849  0.58286  1.0000
  C   C2652     1.0  0.98073  0.53689  0.55223  1.0000
  S   S367      1.0  0.75042  0.60857  0.51257  1.0000
  H   H2102     1.0  0.55903  0.76575  0.64233  1.0000
  H   H2103     1.0  0.50060  0.62549  0.65261  1.0000
  S   S368      1.0  0.51854  0.91972  0.60330  1.0000
  C   C2653     1.0  0.53573  0.63671  0.67811  1.0000
  H   H2104     1.0  0.66652  0.67198  0.51815  1.0000
  Fe  Fe187     1.0  0.75391  0.50991  0.56298  1.0000
  H   H2105     1.0  0.55625  0.86847  0.55133  1.0000
  H   H2106     1.0  0.55744  0.87380  0.58217  1.0000
  H   H2107     1.0  0.58605  0.87752  0.59137  1.0000
  C   C2654     1.0  0.63110  0.54950  0.54748  1.0000
  H   H2108     1.0  0.52140  0.94742  0.62838  1.0000
  C   C2655     1.0  0.55418  0.96939  0.60369  1.0000
  H   H2109     1.0  0.74049  0.52503  0.69137  1.0000
  C   C2656     1.0  0.97331  0.60770  0.53819  1.0000
  C   C2657     1.0  0.94791  0.60530  0.58301  1.0000
  H   H2110     1.0  0.58890  0.83202  0.54130  1.0000
  H   H2111     1.0  0.64876  0.95104  0.49694  1.0000
  C   C2658     1.0  0.70073  0.50780  0.71593  1.0000
  C   C2659     1.0  0.52933  0.95814  0.62327  1.0000
  C   C2660     1.0  0.50003  0.78393  0.51637  1.0000
  H   H2112     1.0  0.59108  0.76138  0.51320  1.0000
  H   H2113     1.0  0.55781  0.85547  0.49935  1.0000
  C   C2661     1.0  0.52035  0.53556  0.72424  1.0000
  C   C2662     1.0  0.98608  0.61594  0.58642  1.0000
  H   H2114     1.0  0.79336  0.56554  0.52594  1.0000
  H   H2115     1.0  0.86357  0.61556  0.53631  1.0000
  C   C2663     1.0  0.88738  0.60463  0.49747  1.0000
  C   C2664     1.0  0.92143  0.62685  0.57955  1.0000
  H   H2116     1.0  0.51198  0.96986  0.52628  1.0000
  C   C2665     1.0  0.54894  0.98639  0.60909  1.0000
  H   H2117     1.0  0.61441  0.98909  0.55276  1.0000
  H   H2118     1.0  0.57142  0.78797  0.61874  1.0000
  C   C2666     1.0  0.98327  0.54343  0.60142  1.0000
  H   H2119     1.0  0.52234  0.80110  0.54981  1.0000
  H   H2120     1.0  0.85254  0.58699  0.53548  1.0000
  C   C2667     1.0  0.94291  0.60326  0.60153  1.0000
  C   C2668     1.0  0.54045  0.82237  0.57723  1.0000
  C   C2669     1.0  0.73479  0.55762  0.73773  1.0000
  P   P88       1.0  0.55441  0.81716  0.59481  1.0000
  C   C2670     1.0  0.57609  0.80874  0.58411  1.0000
  C   C2671     1.0  0.57964  0.79087  0.58085  1.0000
  C   C2672     1.0  0.59616  0.78435  0.57203  1.0000
  C   C2673     1.0  0.60920  0.79564  0.56623  1.0000
  C   C2674     1.0  0.60566  0.81353  0.56910  1.0000
  C   C2675     1.0  0.58906  0.82015  0.57774  1.0000
  C   C2676     1.0  0.55460  0.83597  0.60647  1.0000
  H   H2121     1.0  0.54854  0.98851  0.57229  1.0000
  C   C2677     1.0  0.52603  0.81204  0.55528  1.0000
  C   C2678     1.0  0.81269  0.51345  0.55335  1.0000
  C   C2679     1.0  0.56999  0.85283  0.62237  1.0000
  C   C2680     1.0  0.56996  0.83821  0.61339  1.0000
  C   C2681     1.0  0.53761  0.70194  0.50748  1.0000
  C   C2682     1.0  0.80430  0.57138  0.51758  1.0000
  H   H2122     1.0  0.66331  0.59955  0.53564  1.0000
  Fe  Fe188     1.0  0.53685  0.92104  0.57759  1.0000
  H   H2123     1.0  0.56957  0.78197  0.58487  1.0000
  H   H2124     1.0  0.59872  0.77055  0.56950  1.0000
  H   H2125     1.0  0.62194  0.79059  0.55924  1.0000
  H   H2126     1.0  0.61564  0.82239  0.56424  1.0000
  H   H2127     1.0  0.58630  0.83422  0.57910  1.0000
  C   C2683     1.0  0.52402  0.97497  0.62872  1.0000
  H   H2128     1.0  0.58195  0.85467  0.62743  1.0000
  H   H2129     1.0  0.58189  0.82865  0.61200  1.0000
  H   H2130     1.0  0.54385  0.53204  0.73729  1.0000
  H   H2131     1.0  0.60611  0.89391  0.50696  1.0000
  H   H2132     1.0  0.70641  0.52900  0.56441  1.0000
  H   H2133     1.0  0.55690  0.80045  0.52098  1.0000
  C   C2684     1.0  0.55014  0.77556  0.63502  1.0000
  S   S369      1.0  0.49960  0.93299  0.52800  1.0000
  H   H2134     1.0  0.85653  0.50178  0.54139  1.0000
  H   H2135     1.0  0.95608  0.56853  0.55193  1.0000
  H   H2136     1.0  0.94037  0.61889  0.55772  1.0000
  C   C2685     1.0  0.62206  0.98448  0.59840  1.0000
  C   C2686     1.0  0.65880  0.56843  0.71104  1.0000
  H   H2137     1.0  0.58275  0.92830  0.51559  1.0000
  C   C2687     1.0  0.55225  0.74348  0.51976  1.0000
  C   C2688     1.0  0.80125  0.52566  0.54352  1.0000
  H   H2138     1.0  0.53683  0.92004  0.51709  1.0000
  H   H2139     1.0  0.72195  0.53451  0.50751  1.0000
  C   C2689     1.0  0.51548  0.71058  0.53182  1.0000
  C   C2690     1.0  0.66047  0.60518  0.52239  1.0000
  H   H2140     1.0  0.66538  0.56759  0.55786  1.0000
  C   C2691     1.0  0.58579  0.98292  0.52496  1.0000
  C   C2692     1.0  0.57040  0.61474  0.73295  1.0000
  H   H2141     1.0  0.94035  0.53825  0.59925  1.0000
  H   H2142     1.0  0.90440  0.63220  0.60375  1.0000
  C   C2693     1.0  0.60923  0.64187  0.71221  1.0000
  C   C2694     1.0  0.58623  0.60946  0.72205  1.0000
  H   H2143     1.0  0.62387  0.65930  0.72219  1.0000
  H   H2144     1.0  0.97261  0.53444  0.56498  1.0000
  C   C2695     1.0  0.95264  0.56167  0.58795  1.0000
  C   C2696     1.0  0.55682  0.89694  0.51856  1.0000
  H   H2145     1.0  0.84966  0.52628  0.51742  1.0000
  H   H2146     1.0  0.62547  0.96717  0.51649  1.0000
  H   H2147     1.0  0.56618  0.96467  0.53169  1.0000
  C   C2697     1.0  0.86910  0.58169  0.51082  1.0000
  H   H2148     1.0  0.64853  0.58264  0.51824  1.0000
  H   H2149     1.0  0.68638  0.56638  0.71408  1.0000
  C   C2698     1.0  0.88106  0.61440  0.51163  1.0000
  H   H2150     1.0  0.63299  0.56779  0.56567  1.0000
  H   H2151     1.0  0.61684  0.54955  0.55107  1.0000
  H   H2152     1.0  0.69027  0.67809  0.53378  1.0000
  H   H2153     1.0  0.53812  0.79476  0.57616  1.0000
  P   P89       1.0  0.85901  0.56237  0.50905  1.0000
  H   H2154     1.0  0.57291  0.95566  0.56260  1.0000
  C   C2699     1.0  0.52003  0.97536  0.51442  1.0000
  C   C2700     1.0  0.60991  0.66666  0.68133  1.0000
  H   H2155     1.0  0.60794  0.55945  0.68063  1.0000
  H   H2156     1.0  0.99509  0.53625  0.60671  1.0000
  C   C2701     1.0  0.60499  0.86567  0.50771  1.0000
  C   C2702     1.0  0.98354  0.56064  0.59214  1.0000
  H   H2157     1.0  0.51220  0.99332  0.58340  1.0000
  H   H2158     1.0  0.55574  0.89599  0.53283  1.0000
  C   C2703     1.0  0.54442  0.95534  0.61076  1.0000
  H   H2159     1.0  0.56009  0.62452  0.72770  1.0000
  H   H2160     1.0  0.95574  0.57024  0.51977  1.0000
  C   C2704     1.0  0.96822  0.56988  0.58522  1.0000
  P   P90       1.0  0.96791  0.59235  0.57361  1.0000
  H   H2161     1.0  0.56575  0.96697  0.59391  1.0000
  H   H2162     1.0  0.56693  0.60044  0.68274  1.0000
  C   C2705     1.0  0.61456  0.84945  0.50316  1.0000
  P   P91       1.0  0.58291  0.86668  0.52010  1.0000
  H   H2163     1.0  0.59530  0.64944  0.67121  1.0000
  C   C2706     1.0  0.65215  0.59566  0.51259  1.0000
  C   C2707     1.0  0.91656  0.62477  0.59799  1.0000
  C   C2708     1.0  0.52022  0.78843  0.62974  1.0000
  H   H2164     1.0  0.51918  0.52938  0.67369  1.0000
  C   C2709     1.0  0.96116  0.57963  0.54322  1.0000
  C   C2710     1.0  0.96770  0.53542  0.60406  1.0000
  H   H2165     1.0  0.72023  0.57105  0.51858  1.0000
  C   C2711     1.0  0.71530  0.54093  0.71838  1.0000
  H   H2166     1.0  0.72171  0.66528  0.52534  1.0000
  H   H2167     1.0  0.53647  0.66199  0.68683  1.0000
  C   C2712     1.0  0.69909  0.49962  0.64006  1.0000
  C   C2713     1.0  0.65863  0.55962  0.55122  1.0000
  H   H2168     1.0  0.73904  0.53174  0.63497  1.0000
  C   C2714     1.0  0.63026  0.59512  0.66521  1.0000
  S   S370      1.0  0.52273  0.62007  0.72268  1.0000
  C   C2715     1.0  0.59940  0.59688  0.72942  1.0000
  C   C2716     1.0  0.55977  0.64335  0.69216  1.0000
  C   C2717     1.0  0.59145  0.98131  0.61075  1.0000
  H   H2169     1.0  0.97861  0.53907  0.50812  1.0000
  C   C2718     1.0  0.75695  0.57338  0.50615  1.0000
  C   C2719     1.0  0.53373  0.98907  0.62167  1.0000
  H   H2170     1.0  0.78710  0.59362  0.50586  1.0000
  C   C2720     1.0  0.54437  0.61937  0.67710  1.0000
  C   C2721     1.0  0.58540  0.99648  0.59935  1.0000
  C   C2722     1.0  0.61109  0.57303  0.67875  1.0000
  C   C2723     1.0  0.61934  0.60793  0.67464  1.0000
  C   C2724     1.0  0.53899  0.86238  0.61886  1.0000
  H   H2171     1.0  0.50592  0.78867  0.63291  1.0000
  H   H2172     1.0  0.55458  0.87646  0.63172  1.0000
  S   S371      1.0  0.50581  0.73261  0.57615  1.0000
  C   C2725     1.0  0.55589  0.82799  0.50904  1.0000
  H   H2173     1.0  0.60912  0.63249  0.72429  1.0000
  H   H2174     1.0  0.57267  0.57090  0.73774  1.0000
  S   S372      1.0  0.52248  0.94657  0.56525  1.0000
  H   H2175     1.0  0.63892  0.53643  0.69838  1.0000
  H   H2176     1.0  0.91949  0.58591  0.50594  1.0000
  H   H2177     1.0  0.51646  0.54929  0.72672  1.0000
  C   C2726     1.0  0.64042  0.53901  0.53478  1.0000
  H   H2178     1.0  0.66966  0.52075  0.69739  1.0000
  C   C2727     1.0  0.53575  0.96533  0.50773  1.0000
  C   C2728     1.0  0.60351  0.98437  0.54819  1.0000
  P   P92       1.0  0.59010  0.61940  0.69908  1.0000
  C   C2729     1.0  0.66508  0.62204  0.51512  1.0000
  C   C2730     1.0  0.56879  0.62604  0.69084  1.0000
  H   H2179     1.0  0.97637  0.62031  0.51087  1.0000
  H   H2180     1.0  0.65977  0.50863  0.66742  1.0000
  C   C2731     1.0  0.68016  0.66656  0.51401  1.0000
  C   C2732     1.0  0.83599  0.57126  0.50766  1.0000
  H   H2181     1.0  0.65558  0.58163  0.71510  1.0000
  C   C2733     1.0  0.70072  0.55578  0.55056  1.0000
  C   C2734     1.0  0.70096  0.57399  0.55138  1.0000
  C   C2735     1.0  0.70724  0.57935  0.56565  1.0000
  C   C2736     1.0  0.70643  0.54312  0.56453  1.0000
  C   C2737     1.0  0.61765  0.65708  0.71107  1.0000
  C   C2738     1.0  0.60416  0.60334  0.68622  1.0000
  H   H2182     1.0  0.51520  0.83238  0.53569  1.0000
  H   H2183     1.0  0.54841  0.94233  0.60637  1.0000
  H   H2184     1.0  0.95104  0.59408  0.61021  1.0000
  S   S373      1.0  0.70955  0.50738  0.61834  1.0000
  C   C2739     1.0  0.52215  0.82960  0.54729  1.0000
  C   C2740     1.0  0.50552  0.53023  0.67114  1.0000
  H   H2185     1.0  0.67142  0.62925  0.52296  1.0000
  C   C2741     1.0  0.68440  0.65638  0.49977  1.0000
  H   H2186     1.0  0.71642  0.53870  0.58980  1.0000
  H   H2187     1.0  0.69642  0.58408  0.54095  1.0000
  H   H2188     1.0  0.70789  0.59336  0.56592  1.0000
  Fe  Fe189     1.0  0.51259  0.59761  0.71322  1.0000
  C   C2742     1.0  0.71286  0.56665  0.57948  1.0000
  C   C2743     1.0  0.60148  0.65147  0.68243  1.0000
  H   H2189     1.0  0.96066  0.53227  0.53736  1.0000
  C   C2744     1.0  0.62613  0.57768  0.66726  1.0000
  C   C2745     1.0  0.71356  0.53456  0.65130  1.0000
  C   C2746     1.0  0.51439  0.99215  0.50551  1.0000
  H   H2190     1.0  0.81435  0.51566  0.56657  1.0000
  C   C2747     1.0  0.71127  0.57252  0.50870  1.0000
  C   C2748     1.0  0.56080  0.61403  0.68344  1.0000
  H   H2191     1.0  0.96746  0.52217  0.61140  1.0000
  C   C2749     1.0  0.97398  0.53568  0.53665  1.0000
  H   H2192     1.0  0.62292  0.62127  0.67289  1.0000
  C   C2750     1.0  0.86224  0.54533  0.52774  1.0000
  C   C2751     1.0  0.85661  0.52866  0.52793  1.0000
  C   C2752     1.0  0.86035  0.51478  0.54150  1.0000
  C   C2753     1.0  0.86942  0.51751  0.55510  1.0000
  C   C2754     1.0  0.87529  0.53395  0.55489  1.0000
  C   C2755     1.0  0.87196  0.54775  0.54114  1.0000
  S   S374      1.0  0.63932  0.50687  0.73392  1.0000
  H   H2193     1.0  0.82456  0.55151  0.52767  1.0000
  H   H2194     1.0  0.54465  0.73641  0.51315  1.0000
  H   H2195     1.0  0.54069  0.85088  0.57408  1.0000
  H   H2196     1.0  0.59737  0.96750  0.57289  1.0000
  C   C2756     1.0  0.80812  0.50776  0.51913  1.0000
  C   C2757     1.0  0.98419  0.53935  0.52017  1.0000
  C   C2758     1.0  0.96070  0.58065  0.52495  1.0000
  H   H2197     1.0  0.61015  0.67628  0.66939  1.0000
  H   H2198     1.0  0.52285  0.64077  0.67350  1.0000
  C   C2759     1.0  0.57637  0.97047  0.53637  1.0000
  H   H2199     1.0  0.88290  0.53586  0.56513  1.0000
  C   C2760     1.0  0.54343  0.64867  0.68565  1.0000
  H   H2200     1.0  0.61364  0.87613  0.56970  1.0000
  H   H2201     1.0  0.70611  0.53689  0.64004  1.0000
  H   H2202     1.0  0.52454  0.85718  0.54797  1.0000
  H   H2203     1.0  0.75624  0.52599  0.66067  1.0000
  C   C2761     1.0  0.53575  0.52582  0.73026  1.0000
  H   H2204     1.0  0.92345  0.61126  0.62326  1.0000
  C   C2762     1.0  0.70186  0.52639  0.52915  1.0000
  H   H2205     1.0  0.63464  0.56771  0.66008  1.0000
  H   H2206     1.0  0.97336  0.62137  0.59306  1.0000
  C   C2763     1.0  0.66683  0.53414  0.70107  1.0000
  H   H2207     1.0  0.50596  0.98425  0.55606  1.0000
  C   C2764     1.0  0.58028  0.96524  0.55376  1.0000
  C   C2765     1.0  0.59395  0.97205  0.55961  1.0000
  H   H2208     1.0  0.54699  0.82668  0.49975  1.0000
  H   H2209     1.0  0.78970  0.53222  0.51925  1.0000
  C   C2766     1.0  0.97241  0.60884  0.51997  1.0000
  H   H2210     1.0  0.66589  0.53050  0.52049  1.0000
  H   H2211     1.0  0.53816  0.60990  0.67175  1.0000
  C   C2767     1.0  0.63316  0.97478  0.50577  1.0000
  C   C2768     1.0  0.86261  0.59162  0.52500  1.0000
  C   C2769     1.0  0.55712  0.78806  0.62152  1.0000
  C   C2770     1.0  0.68040  0.54240  0.70556  1.0000
  C   C2771     1.0  0.61797  0.66948  0.69566  1.0000
  C   C2772     1.0  0.55457  0.86504  0.62489  1.0000
  H   H2212     1.0  0.58881  0.58195  0.69721  1.0000
  H   H2213     1.0  0.50765  0.55317  0.65121  1.0000
  C   C2773     1.0  0.57315  0.81480  0.53275  1.0000
  C   C2774     1.0  0.93703  0.61717  0.57205  1.0000
  C   C2775     1.0  0.60094  0.63903  0.69793  1.0000
  H   H2214     1.0  0.51813  0.81057  0.60904  1.0000
  C   C2776     1.0  0.53665  0.83994  0.56901  1.0000
  C   C2777     1.0  0.92730  0.61298  0.60897  1.0000
  C   C2778     1.0  0.50138  0.69344  0.67328  1.0000
  C   C2779     1.0  0.64942  0.54298  0.70157  1.0000
  C   C2780     1.0  0.67627  0.55969  0.71045  1.0000
  C   C2781     1.0  0.72323  0.55609  0.71038  1.0000
  H   H2215     1.0  0.63175  0.56659  0.70761  1.0000
  C   C2782     1.0  0.50485  0.76765  0.50959  1.0000
  C   C2783     1.0  0.69358  0.66988  0.52310  1.0000
  P   P93       1.0  0.70267  0.53045  0.70576  1.0000
  C   C2784     1.0  0.70452  0.53394  0.66861  1.0000
  H   H2216     1.0  0.53991  0.95220  0.51450  1.0000
  C   C2785     1.0  0.65885  0.53880  0.53029  1.0000
  C   C2786     1.0  0.92676  0.55821  0.50260  1.0000
  H   H2217     1.0  0.51023  0.70889  0.54583  1.0000
  C   C2787     1.0  0.66811  0.54914  0.53844  1.0000
  C   C2788     1.0  0.73296  0.56436  0.72002  1.0000
  C   C2789     1.0  0.51573  0.51039  0.71035  1.0000
  H   H2218     1.0  0.51193  0.97726  0.63794  1.0000
  H   H2219     1.0  0.58269  0.98655  0.51149  1.0000
  C   C2790     1.0  0.62971  0.99350  0.50259  1.0000
  H   H2220     1.0  0.99570  0.56657  0.59061  1.0000
  C   C2791     1.0  0.88151  0.58837  0.49700  1.0000
  Fe  Fe190     1.0  0.50302  0.94423  0.59017  1.0000
  C   C2792     1.0  0.71556  0.65223  0.50452  1.0000
  H   H2221     1.0  0.75996  0.54595  0.50140  1.0000
  H   H2222     1.0  0.50661  0.88650  0.53395  1.0000
  H   H2223     1.0  0.96512  0.59634  0.49930  1.0000
  S   S375      1.0  0.91172  0.49933  0.56193  1.0000
  H   H2224     1.0  0.60869  0.83716  0.50616  1.0000
  H   H2225     1.0  0.86391  0.50936  0.60196  1.0000
  C   C2793     1.0  0.71715  0.53427  0.73620  1.0000
  C   C2794     1.0  0.83591  0.50842  0.60123  1.0000
  H   H2226     1.0  0.50079  0.89281  0.50257  1.0000
  H   H2227     1.0  0.83523  0.50681  0.64203  1.0000
  C   C2795     1.0  0.51387  0.72623  0.50196  1.0000
  H   H2228     1.0  0.51574  0.75845  0.51452  1.0000
  C   C2796     1.0  0.99782  0.54148  0.55142  1.0000
  C   C2797     1.0  0.80067  0.58723  0.50622  1.0000
  H   H2229     1.0  0.93329  0.52969  0.50372  1.0000
  S   S376      1.0  0.79998  0.50673  0.60359  1.0000
  H   H2230     1.0  0.50328  0.71596  0.65252  1.0000
  H   H2231     1.0  0.72929  0.64661  0.50087  1.0000
  P   P94       1.0  0.80490  0.50399  0.49721  1.0000
  C   C2798     1.0  0.68550  0.56488  0.49829  1.0000
  H   H2232     1.0  0.67420  0.55761  0.50003  1.0000
  C   C2799     1.0  0.66156  0.62940  0.49789  1.0000
  C   C2800     1.0  0.72687  0.54260  0.74581  1.0000
  H   H2233     1.0  0.74231  0.56405  0.74521  1.0000
  C   C2801     1.0  0.56721  0.56183  0.94796  1.0000
  S   S377      1.0  0.55751  0.59327  0.89374  1.0000
  H   H2234     1.0  0.50620  0.60061  0.84021  1.0000
  C   C2802     1.0  0.58467  0.59712  0.94920  1.0000
  H   H2235     1.0  0.56397  0.57735  0.85316  1.0000
  C   C2803     1.0  0.51234  0.56959  0.98480  1.0000
  H   H2236     1.0  0.52220  0.56124  0.95919  1.0000
  H   H2237     1.0  0.62918  0.55176  0.82250  1.0000
  P   P95       1.0  0.59080  0.57688  0.96375  1.0000
  H   H2238     1.0  0.56498  0.51278  0.97375  1.0000
  H   H2239     1.0  0.56897  0.50316  0.80612  1.0000
  C   C2804     1.0  0.57634  0.61272  0.95624  1.0000
  H   H2240     1.0  0.50843  0.52529  0.87072  1.0000
  H   H2241     1.0  0.53355  0.50605  0.85553  1.0000
  H   H2242     1.0  0.60296  0.58826  0.99430  1.0000
  H   H2243     1.0  0.50861  0.56745  0.78736  1.0000
  C   C2805     1.0  0.65181  0.56413  0.96298  1.0000
  H   H2244     1.0  0.55892  0.57466  0.94780  1.0000
  C   C2806     1.0  0.66523  0.99239  0.81002  1.0000
  C   C2807     1.0  0.51160  0.50845  0.96209  1.0000
  H   H2245     1.0  0.59146  0.52642  0.77208  1.0000
  C   C2808     1.0  0.50501  0.54048  0.93974  1.0000
  H   H2246     1.0  0.70615  0.98740  0.82531  1.0000
  C   C2809     1.0  0.50128  0.63155  0.79579  1.0000
  C   C2810     1.0  0.56147  0.57014  0.89362  1.0000
  C   C2811     1.0  0.57863  0.56102  0.89446  1.0000
  C   C2812     1.0  0.58159  0.54242  0.89486  1.0000
  C   C2813     1.0  0.56748  0.53302  0.89407  1.0000
  C   C2814     1.0  0.55044  0.54221  0.89282  1.0000
  C   C2815     1.0  0.54739  0.56067  0.89295  1.0000
  H   H2247     1.0  0.58955  0.56824  0.89513  1.0000
  H   H2248     1.0  0.59470  0.53545  0.89609  1.0000
  H   H2249     1.0  0.53948  0.53504  0.89212  1.0000
  H   H2250     1.0  0.53405  0.56740  0.89271  1.0000
  Fe  Fe191     1.0  0.52807  0.60117  0.89508  1.0000
  C   C2816     1.0  0.65588  0.99038  0.79629  1.0000
  C   C2817     1.0  0.50129  0.55380  0.81366  1.0000
  C   C2818     1.0  0.52104  0.52934  0.93661  1.0000
  C   C2819     1.0  0.55151  0.61698  0.82879  1.0000
  P   P96       1.0  0.56387  0.55676  0.82434  1.0000
  H   H2251     1.0  0.60013  0.56471  0.81248  1.0000
  C   C2820     1.0  0.61698  0.54722  0.82952  1.0000
  C   C2821     1.0  0.58713  0.59704  0.93068  1.0000
  C   C2822     1.0  0.50636  0.52401  0.77947  1.0000
  S   S378      1.0  0.63854  0.50543  0.93963  1.0000
  C   C2823     1.0  0.58474  0.54834  0.83281  1.0000
  C   C2824     1.0  0.54680  0.49966  0.99414  1.0000
  H   H2252     1.0  0.55550  0.58888  0.79786  1.0000
  C   C2825     1.0  0.55833  0.50105  0.97801  1.0000
  H   H2253     1.0  0.53702  0.50498  0.94547  1.0000
  H   H2254     1.0  0.61321  0.55372  0.98773  1.0000
  H   H2255     1.0  0.50531  0.58213  0.97929  1.0000
  H   H2256     1.0  0.70487  0.94339  0.86727  1.0000
  H   H2257     1.0  0.52074  0.52274  0.77844  1.0000
  H   H2258     1.0  0.55034  0.55152  0.93313  1.0000
  C   C2826     1.0  0.50490  0.60938  0.82800  1.0000
  H   H2259     1.0  0.51677  0.58907  0.81167  1.0000
  C   C2827     1.0  0.58558  0.53545  0.84790  1.0000
  C   C2828     1.0  0.64480  0.57621  0.94939  1.0000
  Fe  Fe192     1.0  0.50636  0.61225  0.74898  1.0000
  C   C2829     1.0  0.56195  0.57791  0.99078  1.0000
  H   H2260     1.0  0.59311  0.58508  0.92492  1.0000
  C   C2830     1.0  0.61773  0.53386  0.84410  1.0000
  H   H2261     1.0  0.64579  0.54670  0.98731  1.0000
  H   H2262     1.0  0.58301  0.61202  0.90516  1.0000
  H   H2263     1.0  0.53074  0.53294  0.92532  1.0000
  S   S379      1.0  0.62361  0.51013  0.89316  1.0000
  C   C2831     1.0  0.64036  0.55622  0.97687  1.0000
  H   H2264     1.0  0.54739  0.63092  0.83036  1.0000
  S   S380      1.0  0.51380  0.59399  0.87444  1.0000
  H   H2265     1.0  0.71968  0.95817  0.83903  1.0000
  C   C2832     1.0  0.60203  0.52805  0.85328  1.0000
  H   H2266     1.0  0.57399  0.61321  0.97044  1.0000
  C   C2833     1.0  0.53087  0.55758  0.84590  1.0000
  C   C2834     1.0  0.61472  0.57237  0.96350  1.0000
  C   C2835     1.0  0.57041  0.62786  0.94492  1.0000
  C   C2836     1.0  0.51854  0.53120  0.86116  1.0000
  C   C2837     1.0  0.57952  0.53960  0.79481  1.0000
  C   C2838     1.0  0.52448  0.51350  0.94796  1.0000
  H   H2267     1.0  0.53512  0.61172  0.97576  1.0000
  H   H2268     1.0  0.60646  0.53931  0.96022  1.0000
  H   H2269     1.0  0.54007  0.55714  0.76776  1.0000
  C   C2839     1.0  0.55159  0.61111  0.81239  1.0000
  H   H2270     1.0  0.59747  0.51642  0.94571  1.0000
  C   C2840     1.0  0.68341  0.98960  0.84588  1.0000
  C   C2841     1.0  0.53264  0.52043  0.85256  1.0000
  C   C2842     1.0  0.69890  0.95626  0.86131  1.0000
  C   C2843     1.0  0.55040  0.55669  0.79249  1.0000
  C   C2844     1.0  0.55606  0.59298  0.81058  1.0000
  H   H2271     1.0  0.57372  0.53101  0.85571  1.0000
  H   H2272     1.0  0.57863  0.58887  0.77181  1.0000
  H   H2273     1.0  0.66612  0.56075  0.96265  1.0000
  H   H2274     1.0  0.51976  0.61414  0.94895  1.0000
  H   H2275     1.0  0.59059  0.53419  0.80209  1.0000
  H   H2276     1.0  0.60250  0.51777  0.86461  1.0000
  C   C2845     1.0  0.51136  0.62018  0.99304  1.0000
  C   C2846     1.0  0.59389  0.54213  0.95491  1.0000
  C   C2847     1.0  0.56577  0.54112  0.76812  1.0000
  H   H2277     1.0  0.54748  0.62053  0.80123  1.0000
  H   H2278     1.0  0.55705  0.51975  0.83452  1.0000
  H   H2279     1.0  0.56355  0.63967  0.95045  1.0000
  C   C2848     1.0  0.55098  0.55204  0.77543  1.0000
  H   H2280     1.0  0.65369  0.58221  0.93854  1.0000
  H   H2281     1.0  0.55607  0.60927  0.85611  1.0000
  H   H2282     1.0  0.67535  0.98172  0.81412  1.0000
  H   H2283     1.0  0.55441  0.57380  0.98164  1.0000
  C   C2849     1.0  0.52091  0.61598  0.97668  1.0000
  S   S381      1.0  0.57051  0.50976  0.89540  1.0000
  C   C2850     1.0  0.69954  0.98119  0.83770  1.0000
  H   H2284     1.0  0.55528  0.61122  0.75908  1.0000
  H   H2285     1.0  0.56797  0.63924  0.91776  1.0000
  C   C2851     1.0  0.51223  0.61736  0.96145  1.0000
  C   C2852     1.0  0.70724  0.96460  0.84540  1.0000
  H   H2286     1.0  0.63047  0.52802  0.84836  1.0000
  C   C2853     1.0  0.60053  0.55451  0.82393  1.0000
  C   C2854     1.0  0.54593  0.52824  0.84071  1.0000
  C   C2855     1.0  0.58879  0.52896  0.94666  1.0000
  C   C2856     1.0  0.57298  0.53222  0.93901  1.0000
  C   C2857     1.0  0.56220  0.54864  0.93971  1.0000
  H   H2287     1.0  0.66268  0.98716  0.86850  1.0000
  C   C2858     1.0  0.64056  0.50559  0.97510  1.0000
  S   S382      1.0  0.51797  0.60511  0.77527  1.0000
  C   C2859     1.0  0.67510  0.98110  0.86185  1.0000
  C   C2860     1.0  0.54549  0.54687  0.83781  1.0000
  H   H2288     1.0  0.52974  0.57199  0.84356  1.0000
  H   H2289     1.0  0.50481  0.54857  0.76137  1.0000
  H   H2290     1.0  0.67639  0.95800  0.88185  1.0000
  C   C2861     1.0  0.51068  0.60276  0.81166  1.0000
  H   H2291     1.0  0.56636  0.53751  0.75491  1.0000
  C   C2862     1.0  0.62191  0.56025  0.97709  1.0000
  C   C2863     1.0  0.68285  0.96450  0.86951  1.0000
  H   H2292     1.0  0.65882  0.97829  0.79001  1.0000
  C   C2864     1.0  0.51753  0.54975  0.85755  1.0000
  C   C2865     1.0  0.58085  0.59481  0.75805  1.0000
  C   C2866     1.0  0.62633  0.58035  0.94963  1.0000
  H   H2293     1.0  0.63914  0.51993  0.97184  1.0000
  C   C2867     1.0  0.58009  0.57969  0.98601  1.0000
  C   C2868     1.0  0.56043  0.58055  0.82525  1.0000
  C   C2869     1.0  0.56484  0.55085  0.80219  1.0000
  C   C2870     1.0  0.53118  0.54170  0.98050  1.0000
  S   S383      1.0  0.51372  0.62904  0.89480  1.0000
  C   C2871     1.0  0.58328  0.55882  0.95537  1.0000
  H   H2294     1.0  0.56938  0.52222  0.93209  1.0000
  H   H2295     1.0  0.62125  0.58962  0.93890  1.0000
  C   C2872     1.0  0.58139  0.61230  0.91942  1.0000
  H   H2296     1.0  0.53860  0.53298  0.97138  1.0000
  C   C2873     1.0  0.52186  0.55777  0.97347  1.0000
  C   C2874     1.0  0.50892  0.61376  0.79545  1.0000
  H   H2297     1.0  0.53882  0.56511  0.79800  1.0000
  C   C2875     1.0  0.57289  0.62764  0.92652  1.0000
  H   H2298     1.0  0.53659  0.50445  0.81580  1.0000
  C   C2876     1.0  0.55630  0.60478  0.84331  1.0000
  C   C2877     1.0  0.56082  0.58667  0.84156  1.0000
  S   S384      1.0  0.51030  0.58906  0.91818  1.0000
  C   C2878     1.0  0.58000  0.53491  0.77780  1.0000
  H   H2299     1.0  0.50647  0.55813  0.86395  1.0000
  H   H2300     1.0  0.51421  0.54588  0.81438  1.0000
  H   H2301     1.0  0.50230  0.55272  0.93085  1.0000
  H   H2302     1.0  0.60669  0.57949  0.75278  1.0000
  H   H2303     1.0  0.72823  0.53741  0.75957  1.0000
  C   C2879     1.0  0.56770  0.60735  0.75084  1.0000
  H   H2304     1.0  0.50019  0.64029  0.78341  1.0000
  C   C2880     1.0  0.59670  0.58959  0.74734  1.0000
