data_image0
_chemical_formula_structural       CHSHFeS2HCFeSFeS2HC4FeCFeC2H2C3H2C2H2SC2HCH2CH2C5H2C3FeCHCHCH4CH2CHCH2C2H2C3HC3PHSFeS2HCFeSCFeS2FeS2CSCHC6H4C6H4CH2SCH2PC2PHC3HCHC3HC2H2CHC3HPC7FeS2CH3CH3C2FeCH2PC3HCHCH2CH2C5HC7PC4SC12H19SH2C2FeH2SCH2CH2C3H2C2HCHC4H2CHC5H2C4H2C2H2C3HC3HCH2CH2CH3CH2C3H3CHCHCHC2SH2CHC2H2CHSC3H2SHFeHCH2PCSHSC3HCH2CSC3S2HC2HCHCHC4HC2HC4HCSHC5HC2HCFeH7SH3FeHC2H2C2HCHCHCH2C3HCHC2H2CHCH2SHCSFeS2FeS2FeSFeS3C3HCHC5H2C3PHC6H4CH3FeCH4C2HC4HC3HCSHC3HC4PC4HC5HC8H2CHCH10FeCHC2H2CHCHCHCH3C2HCH2C2HSHFeCH2CHCHSCFeSHFeCSC6H4C2HC4HC3HC2HC2HCHCHFeH4SHCSC4HC2PC3H3C12HCHCH5CH11SHSH2CHC2H2C3H3C2HCHC2H2CHCSC2H2CPHC6HCH3CFe2C6H4C3H4SCHC4HCHSCH6FeS2FeS2FeSFeS3PC2H2C6H4CH4C3H4C7H2C7PC7HCH2CH3CH8C5SHCH4CH3C2H4CHCHCH4C6PC14SHC3H3C2HCHC3H3CH2CHFeS2FeS2FeS2FeSFeS3C2H3C6H4C2H4CHCHCH2SHC3H3CH2C7HCHSC3HC3H3C7PCPHCHC8HC3H5CHC2H5C2H2C5HCH2FeCH2C2PC6HC3HFeC6H9CH2C5H3C2HCH3CH2FeS2FeS2C6H5C2SHC2HCHC3H3CHC2HCHC5HC2H2C5H2C2FeCHCH2CPCHC2HCH2SC3HCH3CH6CHCH2SCH3CHC2HCHC4H2C2H5CHC2HSHC2FeHFeSHCHCHCHCHCHPC2HCHCHSFeS2FeS2FeSFeS3C3H2C2HC7H3C2HCH2C4H4SCH2C2HCHCHC2HCH4CHC2HCH2C5HC2H3C3SCH2C2HPC4HCHC3H2C2H3C2PC5H3C7HCHCH2CH3CHCH3C2H5CHCHC2HC3HC2PC4H2C2HC2H2S2FeCFeSCS3CH2FeC3HC3FeH2C4FePCH2C2HC6PC2SHC10PHC2H11C2H5C3HC2H2CHCH2CSHC2HC3H2C2SCHC2H2FeCHSCFeSHFeS2C2FeSHFeSC7H4CHC6H4C2HC2HFeC2HC2H2C2H4C2H4CH2PCHCPC3HC6SH3CH2CH2CHCH2C7PCHSC5HC2H3CH4CHC2H2CSC2H2CH2C2HC4HCHC4H2CSCH4C4HC2HCHCHCHCHCHC2H2C3SHC2H2SHSCHCS2H2FeCFeH3C2HCPHC2HFeHCH3C2HC3H2CH2C2HSC7H3CHSH3PCHC2HSC2H2CFeC2HCSCS2C3H5CSC2H3C2H3C2HCHC2HC3SH3C3HC3H2PC6HC9H4CH2PH4C6H2CH2CHCH4C3H3FeCHCHC4H2CHC2
_chemical_formula_sum              "C960 H768 S128 Fe64 P32"
_cell_length_a       45.7274
_cell_length_b       45.2056
_cell_length_c       40.458
_cell_angle_alpha    88.8472
_cell_angle_beta     88.7518
_cell_angle_gamma    121.042

_space_group_name_H-M_alt    "P 1"
_space_group_IT_number       1

loop_
  _space_group_symop_operation_xyz
  'x, y, z'

loop_
  _atom_site_type_symbol
  _atom_site_label
  _atom_site_symmetry_multiplicity
  _atom_site_fract_x
  _atom_site_fract_y
  _atom_site_fract_z
  _atom_site_occupancy
  C   C1        1.0  0.46215  0.21146  0.04646  1.0000
  H   H1        1.0  0.37673  0.18699  0.00539  1.0000
  S   S1        1.0  0.12718  0.36959  0.31308  1.0000
  H   H2        1.0  0.07502  0.41877  0.28861  1.0000
  Fe  Fe1       1.0  0.17113  0.37344  0.28355  1.0000
  S   S2        1.0  0.20014  0.41322  0.24062  1.0000
  S   S3        1.0  0.14099  0.31623  0.27269  1.0000
  H   H3        1.0  0.44600  0.03932  0.22211  1.0000
  C   C2        1.0  0.23370  0.47634  0.20612  1.0000
  Fe  Fe2       1.0  0.30359  0.19351  0.29859  1.0000
  S   S4        1.0  0.27939  0.22122  0.27308  1.0000
  Fe  Fe3       1.0  0.36734  0.18635  0.30112  1.0000
  S   S5        1.0  0.42214  0.20016  0.28494  1.0000
  S   S6        1.0  0.31865  0.15892  0.27247  1.0000
  H   H4        1.0  0.23270  0.46144  0.18513  1.0000
  C   C3        1.0  0.45564  0.22783  0.25535  1.0000
  C   C4        1.0  0.12798  0.21250  0.28410  1.0000
  C   C5        1.0  0.45144  0.24690  0.23015  1.0000
  C   C6        1.0  0.11528  0.22715  0.26234  1.0000
  Fe  Fe4       1.0  0.29538  0.12272  0.31741  1.0000
  C   C7        1.0  0.40896  0.21142  0.04636  1.0000
  Fe  Fe5       1.0  0.09823  0.31227  0.30594  1.0000
  C   C8        1.0  0.19311  0.09401  0.30955  1.0000
  C   C9        1.0  0.22018  0.45925  0.23717  1.0000
  H   H5        1.0  0.04740  0.21573  0.30847  1.0000
  H   H6        1.0  0.15135  0.21300  0.27757  1.0000
  C   C10       1.0  0.25279  0.23547  0.29078  1.0000
  C   C11       1.0  0.24656  0.25824  0.27220  1.0000
  C   C12       1.0  0.22559  0.27011  0.28509  1.0000
  H   H7        1.0  0.25835  0.26705  0.24770  1.0000
  H   H8        1.0  0.22151  0.28795  0.27059  1.0000
  C   C13       1.0  0.26430  0.02252  0.28045  1.0000
  C   C14       1.0  0.24481  0.02490  0.30626  1.0000
  H   H9        1.0  0.27036  0.98839  0.24808  1.0000
  H   H10       1.0  0.28636  0.04576  0.27001  1.0000
  S   S7        1.0  0.04043  0.29251  0.30731  1.0000
  C   C15       1.0  0.06945  0.21399  0.30209  1.0000
  C   C16       1.0  0.07471  0.40937  0.31348  1.0000
  H   H11       1.0  0.01151  0.22721  0.27220  1.0000
  C   C17       1.0  0.45430  0.19528  0.01594  1.0000
  H   H12       1.0  0.45107  0.09670  0.22109  1.0000
  H   H13       1.0  0.43900  0.17483  0.10717  1.0000
  C   C18       1.0  0.99076  0.22959  0.28225  1.0000
  H   H14       1.0  0.14510  0.43348  0.21173  1.0000
  H   H15       1.0  0.13088  0.42517  0.27131  1.0000
  C   C19       1.0  0.43971  0.22034  0.06107  1.0000
  C   C20       1.0  0.47102  0.06267  0.22156  1.0000
  C   C21       1.0  0.13914  0.45010  0.25959  1.0000
  C   C22       1.0  0.11156  0.19871  0.31496  1.0000
  C   C23       1.0  0.22195  0.47902  0.26404  1.0000
  H   H16       1.0  0.07672  0.24019  0.25486  1.0000
  H   H17       1.0  0.44034  0.28822  0.00535  1.0000
  C   C24       1.0  0.99789  0.25868  0.29999  1.0000
  C   C25       1.0  0.08609  0.22799  0.27139  1.0000
  C   C26       1.0  0.19123  0.12355  0.31408  1.0000
  Fe  Fe6       1.0  0.16421  0.30935  0.31914  1.0000
  C   C27       1.0  0.47864  0.26780  0.20711  1.0000
  H   H18       1.0  0.20351  0.09088  0.28643  1.0000
  C   C28       1.0  0.46094  0.18534  0.12257  1.0000
  H   H19       1.0  0.42717  0.24546  0.22832  1.0000
  C   C29       1.0  0.14728  0.45475  0.22565  1.0000
  H   H20       1.0  0.43022  0.15882  0.16667  1.0000
  H   H21       1.0  0.12865  0.23874  0.23886  1.0000
  H   H22       1.0  0.42633  0.47764  0.17214  1.0000
  H   H23       1.0  0.20003  0.14330  0.29439  1.0000
  C   C30       1.0  0.45583  0.17568  0.15624  1.0000
  H   H24       1.0  0.44583  0.23381  0.08414  1.0000
  H   H25       1.0  0.21202  0.46644  0.28804  1.0000
  C   C31       1.0  0.14325  0.47778  0.27823  1.0000
  H   H26       1.0  0.47174  0.18944  0.00343  1.0000
  C   C32       1.0  0.40072  0.19417  0.01661  1.0000
  H   H27       1.0  0.03076  0.35902  0.30552  1.0000
  H   H28       1.0  0.47948  0.18213  0.20308  1.0000
  C   C33       1.0  0.42356  0.18647  0.00121  1.0000
  C   C34       1.0  0.21611  0.99432  0.31931  1.0000
  H   H29       1.0  0.47822  0.15178  0.04895  1.0000
  H   H30       1.0  0.39144  0.21772  0.05818  1.0000
  C   C35       1.0  0.04909  0.37569  0.32315  1.0000
  C   C36       1.0  0.47387  0.09498  0.22098  1.0000
  C   C37       1.0  0.25523  0.98990  0.26816  1.0000
  H   H31       1.0  0.47486  0.28224  0.18778  1.0000
  C   C38       1.0  0.21003  0.25890  0.31667  1.0000
  C   C39       1.0  0.16078  0.48736  0.21023  1.0000
  C   C40       1.0  0.23712  0.22417  0.32234  1.0000
  P   P1        1.0  0.13515  0.47252  0.32254  1.0000
  H   H32       1.0  0.37312  0.47966  0.63533  1.0000
  S   S8        1.0  0.13485  0.35401  0.60739  1.0000
  Fe  Fe7       1.0  0.14936  0.35829  0.35700  1.0000
  S   S9        1.0  0.14428  0.37922  0.40581  1.0000
  S   S10       1.0  0.11925  0.30134  0.35107  1.0000
  H   H33       1.0  0.14430  0.26974  0.50927  1.0000
  C   C41       1.0  0.09621  0.01482  0.42545  1.0000
  Fe  Fe8       1.0  0.32743  0.18285  0.36515  1.0000
  S   S11       1.0  0.32461  0.19849  0.41762  1.0000
  C   C42       1.0  0.26996  0.43968  0.56467  1.0000
  Fe  Fe9       1.0  0.17049  0.33753  0.58794  1.0000
  S   S12       1.0  0.14144  0.28502  0.61290  1.0000
  S   S13       1.0  0.19149  0.33834  0.53627  1.0000
  Fe  Fe10      1.0  0.33832  0.14912  0.59682  1.0000
  S   S14       1.0  0.28316  0.12631  0.61142  1.0000
  S   S15       1.0  0.35477  0.13865  0.54729  1.0000
  C   C43       1.0  0.21354  0.42971  0.55494  1.0000
  S   S16       1.0  0.35376  0.20100  0.61646  1.0000
  C   C44       1.0  0.12401  0.21710  0.49518  1.0000
  H   H34       1.0  0.08951  0.07475  0.39720  1.0000
  C   C45       1.0  0.33237  0.18040  0.45300  1.0000
  C   C46       1.0  0.32336  0.18682  0.48419  1.0000
  C   C47       1.0  0.32998  0.17408  0.51324  1.0000
  C   C48       1.0  0.34577  0.15469  0.51124  1.0000
  C   C49       1.0  0.35448  0.14779  0.48000  1.0000
  C   C50       1.0  0.34764  0.16046  0.45090  1.0000
  H   H35       1.0  0.31104  0.20171  0.48585  1.0000
  H   H36       1.0  0.32305  0.17950  0.53715  1.0000
  H   H37       1.0  0.36677  0.13283  0.47828  1.0000
  H   H38       1.0  0.35476  0.15541  0.42694  1.0000
  C   C51       1.0  0.15539  0.36523  0.44179  1.0000
  C   C52       1.0  0.17755  0.35260  0.44004  1.0000
  C   C53       1.0  0.18806  0.34405  0.46925  1.0000
  C   C54       1.0  0.17589  0.34729  0.50031  1.0000
  C   C55       1.0  0.15257  0.35851  0.50200  1.0000
  C   C56       1.0  0.14275  0.36795  0.47280  1.0000
  H   H39       1.0  0.18743  0.35047  0.41622  1.0000
  H   H40       1.0  0.20614  0.33543  0.46775  1.0000
  H   H41       1.0  0.14276  0.36068  0.52583  1.0000
  H   H42       1.0  0.12556  0.37766  0.47428  1.0000
  C   C57       1.0  0.09807  0.41732  0.36795  1.0000
  H   H43       1.0  0.23641  0.09005  0.38196  1.0000
  H   H44       1.0  0.42044  0.21717  0.39557  1.0000
  S   S17       1.0  0.20688  0.36155  0.62912  1.0000
  C   C58       1.0  0.45979  0.32546  0.51165  1.0000
  H   H45       1.0  0.11880  0.08540  0.48983  1.0000
  H   H46       1.0  0.04073  0.27030  0.37403  1.0000
  P   P2        1.0  0.16366  0.04447  0.40080  1.0000
  C   C59       1.0  0.11161  0.23362  0.39606  1.0000
  C   C60       1.0  0.05458  0.21328  0.41845  1.0000
  P   P3        1.0  0.30671  0.47037  0.62064  1.0000
  H   H47       1.0  0.41298  0.26747  0.39862  1.0000
  C   C61       1.0  0.21270  0.24891  0.63302  1.0000
  C   C62       1.0  0.41863  0.25772  0.42076  1.0000
  C   C63       1.0  0.47508  0.28483  0.56748  1.0000
  H   H48       1.0  0.43553  0.21977  0.49984  1.0000
  C   C64       1.0  0.04815  0.36274  0.35505  1.0000
  H   H49       1.0  0.17863  0.15162  0.34804  1.0000
  C   C65       1.0  0.34662  0.04677  0.57144  1.0000
  C   C66       1.0  0.26212  0.01398  0.63511  1.0000
  C   C67       1.0  0.42283  0.22931  0.41902  1.0000
  H   H50       1.0  0.16119  0.42986  0.35045  1.0000
  C   C68       1.0  0.34112  0.99370  0.55270  1.0000
  C   C69       1.0  0.10026  0.42997  0.33543  1.0000
  H   H51       1.0  0.34756  0.07089  0.56619  1.0000
  H   H52       1.0  0.29107  0.02393  0.47965  1.0000
  C   C70       1.0  0.30183  0.38046  0.64945  1.0000
  H   H53       1.0  0.43211  0.19380  0.44631  1.0000
  C   C71       1.0  0.26173  0.08868  0.45986  1.0000
  C   C72       1.0  0.43308  0.21610  0.58994  1.0000
  C   C73       1.0  0.44458  0.26323  0.55150  1.0000
  H   H54       1.0  0.18114  0.99297  0.42311  1.0000
  P   P4        1.0  0.42981  0.27987  0.51905  1.0000
  C   C74       1.0  0.38925  0.27363  0.53368  1.0000
  C   C75       1.0  0.36316  0.26637  0.51179  1.0000
  C   C76       1.0  0.33191  0.26133  0.52364  1.0000
  C   C77       1.0  0.32641  0.26360  0.55733  1.0000
  C   C78       1.0  0.35226  0.27107  0.57926  1.0000
  C   C79       1.0  0.38360  0.27617  0.56755  1.0000
  C   C80       1.0  0.42093  0.27297  0.45107  1.0000
  Fe  Fe11      1.0  0.16903  0.37396  0.65160  1.0000
  S   S18       1.0  0.19585  0.36642  0.32843  1.0000
  S   S19       1.0  0.35152  0.13032  0.64291  1.0000
  C   C81       1.0  0.99537  0.25818  0.40290  1.0000
  H   H55       1.0  0.36621  0.26352  0.48573  1.0000
  H   H56       1.0  0.31166  0.25473  0.50669  1.0000
  H   H57       1.0  0.30192  0.25891  0.56670  1.0000
  C   C82       1.0  0.99348  0.16240  0.63823  1.0000
  H   H58       1.0  0.40311  0.28145  0.58512  1.0000
  H   H59       1.0  0.41789  0.29517  0.45183  1.0000
  H   H60       1.0  0.19112  0.41899  0.54011  1.0000
  C   C83       1.0  0.18069  0.45674  0.35181  1.0000
  C   C84       1.0  0.99176  0.12615  0.35383  1.0000
  Fe  Fe12      1.0  0.10696  0.30224  0.63497  1.0000
  C   C85       1.0  0.20214  0.06135  0.42375  1.0000
  H   H61       1.0  0.22845  0.05979  0.50166  1.0000
  H   H62       1.0  0.01807  0.21143  0.35941  1.0000
  P   P5        1.0  0.05938  0.17900  0.36331  1.0000
  C   C86       1.0  0.13017  0.04206  0.42747  1.0000
  C   C87       1.0  0.08303  0.11563  0.41530  1.0000
  C   C88       1.0  0.22508  0.99252  0.53688  1.0000
  H   H63       1.0  0.16204  0.10878  0.39399  1.0000
  C   C89       1.0  0.21409  0.44518  0.58463  1.0000
  H   H64       1.0  0.16400  0.08908  0.45258  1.0000
  C   C90       1.0  0.08309  0.09410  0.39102  1.0000
  H   H65       1.0  0.19473  0.25238  0.61900  1.0000
  H   H66       1.0  0.31298  0.07450  0.51469  1.0000
  C   C91       1.0  0.16978  0.10373  0.37041  1.0000
  H   H67       1.0  0.02925  0.33614  0.36196  1.0000
  H   H68       1.0  0.21857  0.21816  0.59639  1.0000
  C   C92       1.0  0.28827  0.05170  0.52066  1.0000
  C   C93       1.0  0.29810  0.43208  0.64393  1.0000
  C   C94       1.0  0.00512  0.29133  0.45207  1.0000
  C   C95       1.0  0.42649  0.25932  0.48017  1.0000
  C   C96       1.0  0.22643  0.22960  0.62015  1.0000
  H   H69       1.0  0.24939  0.01781  0.43971  1.0000
  C   C97       1.0  0.12512  0.25911  0.41965  1.0000
  C   C98       1.0  0.24371  0.17016  0.53271  1.0000
  C   C99       1.0  0.24096  0.14834  0.50749  1.0000
  C   C100      1.0  0.23634  0.15584  0.47503  1.0000
  C   C101      1.0  0.23460  0.18526  0.46779  1.0000
  C   C102      1.0  0.23845  0.20801  0.49287  1.0000
  C   C103      1.0  0.24226  0.19975  0.52551  1.0000
  P   P6        1.0  0.23655  0.24633  0.48346  1.0000
  C   C104      1.0  0.26146  0.27977  0.51217  1.0000
  C   C105      1.0  0.25379  0.26288  0.44206  1.0000
  C   C106      1.0  0.28042  0.25935  0.42857  1.0000
  C   C107      1.0  0.29348  0.27195  0.39646  1.0000
  S   S20       1.0  0.27708  0.15552  0.34082  1.0000
  C   C108      1.0  0.25510  0.29360  0.39154  1.0000
  C   C109      1.0  0.24147  0.28043  0.42340  1.0000
  C   C110      1.0  0.24766  0.27910  0.54376  1.0000
  C   C111      1.0  0.26636  0.30544  0.56560  1.0000
  C   C112      1.0  0.29915  0.33243  0.55633  1.0000
  C   C113      1.0  0.31322  0.33324  0.52508  1.0000
  C   C114      1.0  0.29444  0.30716  0.50300  1.0000
  C   C115      1.0  0.19249  0.23521  0.48679  1.0000
  C   C116      1.0  0.16594  0.20160  0.48049  1.0000
  C   C117      1.0  0.13183  0.19263  0.48469  1.0000
  C   C118      1.0  0.15026  0.25071  0.50092  1.0000
  C   C119      1.0  0.18434  0.25990  0.49636  1.0000
  H   H70       1.0  0.24756  0.16449  0.55789  1.0000
  H   H71       1.0  0.24329  0.12614  0.51311  1.0000
  H   H72       1.0  0.23523  0.13949  0.45527  1.0000
  H   H73       1.0  0.23100  0.19056  0.44245  1.0000
  H   H74       1.0  0.24468  0.21624  0.54552  1.0000
  H   H75       1.0  0.29099  0.24655  0.44254  1.0000
  H   H76       1.0  0.31312  0.26800  0.38574  1.0000
  H   H77       1.0  0.22130  0.28396  0.43322  1.0000
  H   H78       1.0  0.22218  0.25853  0.55143  1.0000
  H   H79       1.0  0.25524  0.30509  0.58968  1.0000
  H   H80       1.0  0.31347  0.35278  0.57333  1.0000
  H   H81       1.0  0.33861  0.35423  0.51783  1.0000
  H   H82       1.0  0.30582  0.30854  0.47887  1.0000
  H   H83       1.0  0.17150  0.18223  0.47268  1.0000
  H   H84       1.0  0.11146  0.16661  0.48028  1.0000
  H   H85       1.0  0.41646  0.18959  0.59888  1.0000
  H   H86       1.0  0.20419  0.28619  0.50094  1.0000
  H   H87       1.0  0.47289  0.40464  0.52997  1.0000
  H   H88       1.0  0.09765  0.21015  0.49890  1.0000
  S   S21       1.0  0.34431  0.14793  0.34500  1.0000
  H   H89       1.0  0.12009  0.00177  0.34798  1.0000
  H   H90       1.0  0.07555  0.15758  0.42626  1.0000
  C   C120      1.0  0.06730  0.14487  0.37462  1.0000
  C   C121      1.0  0.17149  0.07385  0.36604  1.0000
  Fe  Fe13      1.0  0.29905  0.17718  0.63487  1.0000
  H   H91       1.0  0.28322  0.03708  0.62332  1.0000
  H   H92       1.0  0.21579  0.44452  0.37374  1.0000
  S   S22       1.0  0.26696  0.20089  0.61933  1.0000
  C   C122      1.0  0.31033  0.41123  0.63226  1.0000
  H   H93       1.0  0.35247  0.05521  0.62320  1.0000
  H   H94       1.0  0.12884  0.23185  0.37862  1.0000
  C   C123      1.0  0.21199  0.46505  0.36482  1.0000
  H   H95       1.0  0.19192  0.44607  0.59315  1.0000
  H   H96       1.0  0.41065  0.00954  0.60513  1.0000
  C   C124      1.0  0.47756  0.38555  0.51939  1.0000
  C   C125      1.0  0.26958  0.05075  0.54883  1.0000
  C   C126      1.0  0.34260  0.02485  0.54582  1.0000
  H   H97       1.0  0.07523  0.08109  0.33973  1.0000
  H   H98       1.0  0.27992  0.07276  0.56466  1.0000
  C   C127      1.0  0.11241  0.06580  0.47170  1.0000
  C   C128      1.0  0.42369  0.22884  0.56300  1.0000
  H   H99       1.0  0.39965  0.21209  0.55158  1.0000
  C   C129      1.0  0.45459  0.02435  0.63391  1.0000
  H   H100      1.0  0.29070  0.43596  0.55729  1.0000
  C   C130      1.0  0.34866  0.00675  0.61101  1.0000
  C   C131      1.0  0.06696  0.12277  0.35048  1.0000
  C   C132      1.0  0.07234  0.38374  0.37757  1.0000
  C   C133      1.0  0.07499  0.09762  0.35865  1.0000
  H   H101      1.0  0.05891  0.03696  0.48611  1.0000
  H   H102      1.0  0.11387  0.28240  0.46007  1.0000
  C   C134      1.0  0.42934  0.21614  0.44763  1.0000
  H   H103      1.0  0.07215  0.37360  0.40211  1.0000
  C   C135      1.0  0.03063  0.27561  0.39610  1.0000
  C   C136      1.0  0.43097  0.23090  0.47813  1.0000
  C   C137      1.0  0.28086  0.28910  0.37796  1.0000
  C   C138      1.0  0.13801  0.06768  0.45064  1.0000
  C   C139      1.0  0.45400  0.35035  0.52542  1.0000
  H   H104      1.0  0.24503  0.30651  0.37692  1.0000
  H   H105      1.0  0.02728  0.19545  0.41887  1.0000
  C   C140      1.0  0.27555  0.02310  0.50064  1.0000
  C   C141      1.0  0.21556  0.23544  0.33495  1.0000
  C   C142      1.0  0.24347  0.99357  0.50814  1.0000
  C   C143      1.0  0.18328  0.06928  0.33535  1.0000
  H   H106      1.0  0.08040  0.31392  0.41189  1.0000
  H   H107      1.0  0.05799  0.32794  0.46162  1.0000
  C   C144      1.0  0.27115  0.45631  0.59399  1.0000
  C   C145      1.0  0.07872  0.03852  0.46963  1.0000
  H   H108      1.0  0.34069  0.03206  0.52064  1.0000
  H   H109      1.0  0.43138  0.34276  0.54077  1.0000
  C   C146      1.0  0.26381  0.09700  0.42612  1.0000
  C   C147      1.0  0.01413  0.16160  0.35831  1.0000
  C   C148      1.0  0.10336  0.26209  0.44230  1.0000
  H   H110      1.0  0.28839  0.11443  0.41384  1.0000
  C   C149      1.0  0.23416  0.08332  0.40808  1.0000
  C   C150      1.0  0.07061  0.01311  0.44646  1.0000
  C   C151      1.0  0.07515  0.14093  0.40719  1.0000
  H   H111      1.0  0.11700  0.43282  0.38563  1.0000
  C   C152      1.0  0.00130  0.18392  0.35675  1.0000
  H   H112      1.0  0.32564  0.41819  0.60950  1.0000
  H   H113      1.0  0.28468  0.09980  0.47391  1.0000
  C   C153      1.0  0.05310  0.30050  0.41735  1.0000
  H   H114      1.0  0.20370  0.22653  0.35939  1.0000
  H   H115      1.0  0.29047  0.29825  0.35279  1.0000
  C   C154      1.0  0.23798  0.02117  0.55693  1.0000
  H   H116      1.0  0.05139  0.24091  0.45994  1.0000
  H   H117      1.0  0.15247  0.27703  0.41985  1.0000
  H   H118      1.0  0.08934  0.11291  0.44038  1.0000
  C   C155      1.0  0.20030  0.05243  0.45753  1.0000
  H   H119      1.0  0.24166  0.20675  0.33701  1.0000
  H   H120      1.0  0.34751  0.27181  0.60554  1.0000
  C   C156      1.0  0.04038  0.30835  0.44536  1.0000
  C   C157      1.0  0.15149  0.00174  0.38729  1.0000
  C   C158      1.0  0.23001  0.06621  0.47551  1.0000
  H   H121      1.0  0.24037  0.41373  0.52254  1.0000
  H   H122      1.0  0.26788  0.03011  0.38083  1.0000
  H   H123      1.0  0.99577  0.29860  0.47336  1.0000
  C   C159      1.0  0.46310  0.23781  0.60607  1.0000
  H   H124      1.0  0.31072  0.36402  0.64025  1.0000
  C   C160      1.0  0.06816  0.23878  0.44209  1.0000
  H   H125      1.0  0.01134  0.17000  0.61725  1.0000
  C   C161      1.0  0.34953  0.03776  0.60392  1.0000
  H   H126      1.0  0.22395  0.02009  0.57936  1.0000
  C   C162      1.0  0.07621  0.21122  0.39457  1.0000
  C   C163      1.0  0.24145  0.42694  0.54498  1.0000
  S   S23       1.0  0.04992  0.26346  0.62585  1.0000
  H   H127      1.0  0.17594  0.03497  0.47002  1.0000
  H   H128      1.0  0.12288  0.18895  0.33190  1.0000
  C   C164      1.0  0.17933  0.12828  0.34443  1.0000
  H   H129      1.0  0.98375  0.21813  0.60066  1.0000
  C   C165      1.0  0.00819  0.25312  0.63999  1.0000
  C   C166      1.0  0.24272  0.45831  0.60415  1.0000
  H   H130      1.0  0.24217  0.46920  0.62757  1.0000
  H   H131      1.0  0.20091  0.99587  0.33920  1.0000
  C   C167      1.0  0.24966  0.22443  0.63795  1.0000
  H   H132      1.0  0.00070  0.10822  0.35470  1.0000
  S   S24       1.0  0.18347  0.27306  0.33464  1.0000
  C   C168      1.0  0.25944  0.00479  0.39197  1.0000
  C   C169      1.0  0.24919  0.99776  0.42544  1.0000
  C   C170      1.0  0.42025  0.01370  0.62985  1.0000
  H   H133      1.0  0.46961  0.22821  0.62778  1.0000
  H   H134      1.0  0.47098  0.02824  0.61248  1.0000
  S   S25       1.0  0.25533  0.06477  0.32424  1.0000
  H   H135      1.0  0.18629  0.04734  0.33159  1.0000
  Fe  Fe14      1.0  0.17574  0.30942  0.65515  1.0000
  H   H136      1.0  0.08934  0.99479  0.40782  1.0000
  C   C171      1.0  0.17513  0.48286  0.34032  1.0000
  H   H137      1.0  0.04448  0.99192  0.44491  1.0000
  H   H138      1.0  0.06100  0.12536  0.32518  1.0000
  P   P7        1.0  0.35460  0.99584  0.65259  1.0000
  C   C172      1.0  0.08156  0.19847  0.32395  1.0000
  S   S26       1.0  0.35370  0.22313  0.32399  1.0000
  H   H139      1.0  0.37714  0.09942  0.71244  1.0000
  S   S27       1.0  0.13912  0.32267  0.68031  1.0000
  C   C173      1.0  0.27621  0.42103  0.67215  1.0000
  C   C174      1.0  0.45457  0.26095  0.93216  1.0000
  C   C175      1.0  0.41237  0.01460  0.68917  1.0000
  H   H140      1.0  0.26291  0.47879  0.76191  1.0000
  C   C176      1.0  0.24931  0.48335  0.74288  1.0000
  H   H141      1.0  0.27341  0.34585  0.69088  1.0000
  H   H142      1.0  0.31910  0.07130  0.73886  1.0000
  C   C177      1.0  0.36780  0.05362  0.68776  1.0000
  S   S28       1.0  0.30923  0.16002  0.68392  1.0000
  C   C178      1.0  0.09975  0.45351  0.90861  1.0000
  C   C179      1.0  0.00242  0.26688  0.66839  1.0000
  C   C180      1.0  0.06756  0.43997  0.89520  1.0000
  S   S29       1.0  0.26001  0.05691  0.68245  1.0000
  S   S30       1.0  0.18289  0.42807  0.66980  1.0000
  H   H143      1.0  0.15388  0.48095  0.89895  1.0000
  C   C181      1.0  0.35905  0.07232  0.70868  1.0000
  C   C182      1.0  0.44981  0.22519  0.70861  1.0000
  H   H144      1.0  0.13878  0.42891  0.72715  1.0000
  C   C183      1.0  0.46783  0.03017  0.66552  1.0000
  H   H145      1.0  0.43458  0.17162  0.70734  1.0000
  C   C184      1.0  0.16322  0.46495  0.80246  1.0000
  H   H146      1.0  0.17521  0.39654  0.80889  1.0000
  C   C185      1.0  0.32645  0.05648  0.72374  1.0000
  C   C186      1.0  0.22181  0.26323  0.66416  1.0000
  C   C187      1.0  0.44670  0.02525  0.69313  1.0000
  C   C188      1.0  0.21077  0.46158  0.69672  1.0000
  H   H147      1.0  0.14360  0.47691  0.75904  1.0000
  C   C189      1.0  0.22889  0.45647  0.72144  1.0000
  C   C190      1.0  0.45406  0.19703  0.71461  1.0000
  H   H148      1.0  0.22650  0.43150  0.72462  1.0000
  C   C191      1.0  0.34393  0.01884  0.68177  1.0000
  C   C192      1.0  0.15654  0.40966  0.76607  1.0000
  C   C193      1.0  0.46123  0.26476  0.84987  1.0000
  C   C194      1.0  0.30263  0.02193  0.71797  1.0000
  H   H149      1.0  0.47269  0.28003  0.71413  1.0000
  C   C195      1.0  0.16832  0.41419  0.79823  1.0000
  S   S31       1.0  0.20468  0.28734  0.68179  1.0000
  H   H150      1.0  0.25183  0.26843  0.70643  1.0000
  C   C196      1.0  0.17124  0.44147  0.81655  1.0000
  C   C197      1.0  0.15081  0.45982  0.77033  1.0000
  C   C198      1.0  0.43672  0.26283  0.95977  1.0000
  C   C199      1.0  0.46953  0.21605  0.81626  1.0000
  C   C200      1.0  0.14757  0.43232  0.75226  1.0000
  H   H151      1.0  0.41738  0.17359  0.97787  1.0000
  C   C201      1.0  0.44110  0.24830  0.82293  1.0000
  C   C202      1.0  0.09432  0.46226  0.84085  1.0000
  H   H152      1.0  0.15472  0.38889  0.75155  1.0000
  C   C203      1.0  0.06485  0.44423  0.86131  1.0000
  Fe  Fe15      1.0  0.29674  0.11052  0.65880  1.0000
  H   H153      1.0  0.17982  0.44431  0.84165  1.0000
  H   H154      1.0  0.42265  0.25479  0.81460  1.0000
  H   H155      1.0  0.04473  0.42584  0.91103  1.0000
  H   H156      1.0  0.25025  0.38146  0.71065  1.0000
  H   H157      1.0  0.99057  0.18408  0.71765  1.0000
  H   H158      1.0  0.27694  0.01039  0.72856  1.0000
  H   H159      1.0  0.10186  0.44977  0.93481  1.0000
  S   S32       1.0  0.41264  0.22101  0.68998  1.0000
  H   H160      1.0  0.44072  0.24112  0.91456  1.0000
  H   H161      1.0  0.45821  0.28414  0.86217  1.0000
  H   H162      1.0  0.03094  0.20062  0.66943  1.0000
  Fe  Fe16      1.0  0.36363  0.18107  0.66415  1.0000
  H   H163      1.0  0.02390  0.28503  0.68238  1.0000
  C   C204      1.0  0.26786  0.39036  0.68934  1.0000
  C   C205      1.0  0.45413  0.28707  0.98375  1.0000
  H   H164      1.0  0.03990  0.43325  0.85082  1.0000
  H   H165      1.0  0.43033  0.21184  0.78466  1.0000
  C   C206      1.0  0.24479  0.25779  0.68218  1.0000
  C   C207      1.0  0.24612  0.01659  0.66384  1.0000
  H   H166      1.0  0.39635  0.01096  0.71085  1.0000
  C   C208      1.0  0.12674  0.47654  0.85425  1.0000
  H   H167      1.0  0.27642  0.23487  0.68332  1.0000
  C   C209      1.0  0.28076  0.37015  0.67806  1.0000
  H   H168      1.0  0.09189  0.46489  0.81452  1.0000
  C   C210      1.0  0.44530  0.22398  0.80609  1.0000
  H   H169      1.0  0.39286  0.06665  0.67552  1.0000
  H   H170      1.0  0.45696  0.02983  0.71765  1.0000
  C   C211      1.0  0.12927  0.47151  0.88820  1.0000
  C   C212      1.0  0.00465  0.17967  0.66776  1.0000
  C   C213      1.0  0.25872  0.23864  0.66918  1.0000
  H   H171      1.0  0.40939  0.24525  0.96273  1.0000
  C   C214      1.0  0.39886  0.00883  0.65746  1.0000
  H   H172      1.0  0.26467  0.43552  0.68017  1.0000
  C   C215      1.0  0.31111  0.00324  0.69671  1.0000
  C   C216      1.0  0.47560  0.25801  0.71848  1.0000
  H   H173      1.0  0.47337  0.19780  0.80272  1.0000
  H   H174      1.0  0.20652  0.98782  0.70135  1.0000
  C   C217      1.0  0.48329  0.20164  0.73065  1.0000
  H   H175      1.0  0.32656  0.48715  0.68978  1.0000
  C   C218      1.0  0.14084  0.80575  0.07188  1.0000
  H   H176      1.0  0.22089  0.68369  0.14776  1.0000
  H   H177      1.0  0.41967  0.49733  0.22707  1.0000
  S   S33       1.0  0.21647  0.91865  0.26549  1.0000
  H   H178      1.0  0.44323  0.62813  0.24746  1.0000
  C   C219      1.0  0.12963  0.77887  0.04987  1.0000
  S   S34       1.0  0.14747  0.81502  0.27144  1.0000
  Fe  Fe17      1.0  0.30483  0.69301  0.17048  1.0000
  S   S35       1.0  0.27077  0.64062  0.14901  1.0000
  S   S36       1.0  0.29102  0.73470  0.18075  1.0000
  Fe  Fe18      1.0  0.36740  0.68342  0.17146  1.0000
  S   S37       1.0  0.33674  0.63002  0.15097  1.0000
  S   S38       1.0  0.42612  0.71047  0.17661  1.0000
  Fe  Fe19      1.0  0.31569  0.65256  0.11430  1.0000
  S   S39       1.0  0.31374  0.63634  0.05921  1.0000
  Fe  Fe20      1.0  0.29399  0.62135  0.18627  1.0000
  S   S40       1.0  0.26170  0.57667  0.22428  1.0000
  S   S41       1.0  0.34831  0.70624  0.13337  1.0000
  S   S42       1.0  0.32607  0.67349  0.20921  1.0000
  C   C220      1.0  0.31047  0.64231  0.01531  1.0000
  C   C221      1.0  0.45886  0.87034  0.27373  1.0000
  C   C222      1.0  0.46277  0.85617  0.30312  1.0000
  H   H179      1.0  0.30664  0.68769  0.01801  1.0000
  C   C223      1.0  0.02076  0.74036  0.28698  1.0000
  H   H180      1.0  0.43087  0.51155  0.12123  1.0000
  C   C224      1.0  0.23557  0.51493  0.25959  1.0000
  C   C225      1.0  0.24799  0.53184  0.22840  1.0000
  C   C226      1.0  0.24762  0.51239  0.20174  1.0000
  C   C227      1.0  0.02287  0.75532  0.31744  1.0000
  C   C228      1.0  0.46464  0.63994  0.22979  1.0000
  H   H181      1.0  0.23598  0.52974  0.28033  1.0000
  H   H182      1.0  0.25713  0.52490  0.17758  1.0000
  C   C229      1.0  0.47049  0.72543  0.26721  1.0000
  C   C230      1.0  0.45593  0.72195  0.20906  1.0000
  C   C231      1.0  0.44587  0.71597  0.24266  1.0000
  P   P8        1.0  0.41916  0.59927  0.18186  1.0000
  H   H183      1.0  0.41910  0.70408  0.24977  1.0000
  C   C232      1.0  0.21617  0.74633  0.25145  1.0000
  C   C233      1.0  0.24137  0.77439  0.23221  1.0000
  C   C234      1.0  0.26419  0.77042  0.21117  1.0000
  C   C235      1.0  0.26291  0.73862  0.20964  1.0000
  C   C236      1.0  0.23858  0.71090  0.22996  1.0000
  C   C237      1.0  0.21517  0.71465  0.25033  1.0000
  H   H184      1.0  0.24290  0.79900  0.23318  1.0000
  H   H185      1.0  0.28292  0.79215  0.19581  1.0000
  H   H186      1.0  0.23715  0.68628  0.22920  1.0000
  H   H187      1.0  0.19593  0.69269  0.26509  1.0000
  C   C238      1.0  0.22707  0.95922  0.28192  1.0000
  H   H188      1.0  0.37984  0.69684  0.04122  1.0000
  H   H189      1.0  0.40450  0.64685  0.21528  1.0000
  H   H190      1.0  0.38183  0.63977  0.06347  1.0000
  Fe  Fe21      1.0  0.17715  0.79279  0.29474  1.0000
  C   C239      1.0  0.37235  0.59732  0.09618  1.0000
  H   H191      1.0  0.41687  0.55027  0.23126  1.0000
  H   H192      1.0  0.46222  0.72045  0.29302  1.0000
  H   H193      1.0  0.35032  0.57856  0.08308  1.0000
  H   H194      1.0  0.12258  0.78197  0.02521  1.0000
  C   C240      1.0  0.20823  0.69843  0.14862  1.0000
  C   C241      1.0  0.43374  0.73434  0.03715  1.0000
  H   H195      1.0  0.31032  0.52824  0.24685  1.0000
  C   C242      1.0  0.42577  0.54983  0.14740  1.0000
  C   C243      1.0  0.33223  0.58259  0.25414  1.0000
  C   C244      1.0  0.40934  0.61193  0.14299  1.0000
  C   C245      1.0  0.38170  0.58737  0.12517  1.0000
  H   H196      1.0  0.03869  0.69705  0.23937  1.0000
  C   C246      1.0  0.39012  0.63191  0.08510  1.0000
  C   C247      1.0  0.41729  0.65657  0.10298  1.0000
  C   C248      1.0  0.42684  0.64667  0.13184  1.0000
  H   H197      1.0  0.43416  0.86670  0.26808  1.0000
  C   C249      1.0  0.20752  0.96169  0.30758  1.0000
  S   S43       1.0  0.18442  0.74879  0.27605  1.0000
  H   H198      1.0  0.35607  0.53640  0.20766  1.0000
  C   C250      1.0  0.06137  0.70982  0.22319  1.0000
  C   C251      1.0  0.16617  0.51536  0.22878  1.0000
  C   C252      1.0  0.15771  0.51070  0.26268  1.0000
  H   H199      1.0  0.09610  0.72945  0.26330  1.0000
  C   C253      1.0  0.18278  0.69046  0.17287  1.0000
  C   C254      1.0  0.16793  0.71074  0.17536  1.0000
  C   C255      1.0  0.17785  0.73870  0.15289  1.0000
  C   C256      1.0  0.20332  0.74641  0.12842  1.0000
  P   P9        1.0  0.15858  0.76492  0.15519  1.0000
  C   C257      1.0  0.14770  0.77079  0.11388  1.0000
  C   C258      1.0  0.12021  0.74325  0.18140  1.0000
  C   C259      1.0  0.08770  0.72485  0.16797  1.0000
  C   C260      1.0  0.05840  0.70828  0.18886  1.0000
  H   H200      1.0  0.35822  0.63813  0.25422  1.0000
  C   C261      1.0  0.10270  0.51032  0.31710  1.0000
  C   C262      1.0  0.12288  0.74472  0.21587  1.0000
  C   C263      1.0  0.13634  0.74387  0.09163  1.0000
  C   C264      1.0  0.42134  0.51196  0.20481  1.0000
  C   C265      1.0  0.40248  0.70948  0.02491  1.0000
  H   H201      1.0  0.17863  0.54104  0.21718  1.0000
  C   C266      1.0  0.14985  0.80178  0.10377  1.0000
  C   C267      1.0  0.18730  0.80623  0.17258  1.0000
  C   C268      1.0  0.17432  0.82606  0.18531  1.0000
  C   C269      1.0  0.19611  0.85782  0.19924  1.0000
  C   C270      1.0  0.23093  0.86992  0.20094  1.0000
  C   C271      1.0  0.24411  0.85044  0.18828  1.0000
  C   C272      1.0  0.22243  0.81873  0.17409  1.0000
  C   C273      1.0  0.35850  0.61598  0.24484  1.0000
  H   H202      1.0  0.14922  0.70472  0.19515  1.0000
  H   H203      1.0  0.08478  0.72328  0.14152  1.0000
  C   C274      1.0  0.33159  0.55405  0.24070  1.0000
  H   H204      1.0  0.03334  0.69436  0.17847  1.0000
  C   C275      1.0  0.12741  0.74795  0.05974  1.0000
  H   H205      1.0  0.14771  0.75876  0.22667  1.0000
  H   H206      1.0  0.13421  0.71962  0.09898  1.0000
  H   H207      1.0  0.04397  0.74622  0.27363  1.0000
  H   H208      1.0  0.21182  0.76822  0.11123  1.0000
  H   H209      1.0  0.11868  0.72706  0.04272  1.0000
  H   H210      1.0  0.14726  0.81682  0.18489  1.0000
  H   H211      1.0  0.18593  0.87283  0.20948  1.0000
  H   H212      1.0  0.24752  0.89417  0.21259  1.0000
  H   H213      1.0  0.27104  0.85956  0.19011  1.0000
  H   H214      1.0  0.23320  0.80384  0.16522  1.0000
  Fe  Fe22      1.0  0.18684  0.86592  0.29312  1.0000
  C   C276      1.0  0.46039  0.63147  0.19630  1.0000
  H   H215      1.0  0.43530  0.74086  0.06298  1.0000
  C   C277      1.0  0.46282  0.75082  0.01605  1.0000
  C   C278      1.0  0.21859  0.72647  0.12649  1.0000
  H   H216      1.0  0.15840  0.82294  0.12035  1.0000
  H   H217      1.0  0.23910  0.73315  0.10842  1.0000
  C   C279      1.0  0.35768  0.55884  0.21851  1.0000
  H   H218      1.0  0.18567  0.93847  0.31826  1.0000
  C   C280      1.0  0.42515  0.50091  0.17387  1.0000
  H   H219      1.0  0.16365  0.53308  0.27681  1.0000
  C   C281      1.0  0.38495  0.59232  0.21013  1.0000
  H   H220      1.0  0.36670  0.56075  0.13425  1.0000
  C   C282      1.0  0.42080  0.56043  0.17834  1.0000
  H   H221      1.0  0.31157  0.57886  0.27073  1.0000
  H   H222      1.0  0.17561  0.66937  0.19065  1.0000
  H   H223      1.0  0.14250  0.82972  0.06428  1.0000
  C   C283      1.0  0.42760  0.51996  0.14519  1.0000
  C   C284      1.0  0.09362  0.72804  0.23668  1.0000
  H   H224      1.0  0.07919  0.54094  0.31220  1.0000
  C   C285      1.0  0.40025  0.70105  0.99164  1.0000
  H   H225      1.0  0.44685  0.66648  0.14610  1.0000
  H   H226      1.0  0.43002  0.68364  0.09539  1.0000
  C   C286      1.0  0.41954  0.54182  0.20709  1.0000
  C   C287      1.0  0.38463  0.62084  0.22273  1.0000
  H   H227      1.0  0.42824  0.56452  0.12497  1.0000
  S   S44       1.0  0.21796  0.84415  0.31277  1.0000
  H   H228      1.0  0.31407  0.59814  0.00295  1.0000
  Fe  Fe23      1.0  0.11888  0.80368  0.32081  1.0000
  C   C288      1.0  0.30760  0.66953  0.00169  1.0000
  H   H229      1.0  0.16876  0.49131  0.18430  1.0000
  H   H230      1.0  0.98724  0.70681  0.25001  1.0000
  C   C289      1.0  0.98855  0.71799  0.27370  1.0000
  H   H231      1.0  0.09448  0.49884  0.29328  1.0000
  C   C290      1.0  0.31176  0.61925  0.99316  1.0000
  H   H232      1.0  0.44112  0.84167  0.32029  1.0000
  S   S45       1.0  0.14599  0.77866  0.34290  1.0000
  C   C291      1.0  0.01584  0.72556  0.50958  1.0000
  Fe  Fe24      1.0  0.18476  0.83156  0.35882  1.0000
  S   S46       1.0  0.21017  0.84625  0.40805  1.0000
  H   H233      1.0  0.32905  0.50667  0.55561  1.0000
  Fe  Fe25      1.0  0.13671  0.78825  0.58724  1.0000
  C   C292      1.0  0.11782  0.71889  0.41912  1.0000
  S   S47       1.0  0.11925  0.76737  0.53659  1.0000
  C   C293      1.0  0.18451  0.82530  0.44382  1.0000
  C   C294      1.0  0.14988  0.80059  0.44163  1.0000
  C   C295      1.0  0.13011  0.78334  0.47041  1.0000
  C   C296      1.0  0.14463  0.79118  0.50151  1.0000
  C   C297      1.0  0.17913  0.81648  0.50381  1.0000
  C   C298      1.0  0.19915  0.83309  0.47493  1.0000
  H   H234      1.0  0.13849  0.79441  0.41770  1.0000
  H   H235      1.0  0.10353  0.76366  0.46865  1.0000
  H   H236      1.0  0.19059  0.82259  0.52770  1.0000
  H   H237      1.0  0.22600  0.85208  0.47669  1.0000
  C   C299      1.0  0.25869  0.97914  0.37264  1.0000
  C   C300      1.0  0.30576  0.53015  0.63379  1.0000
  H   H238      1.0  0.16487  0.93531  0.40419  1.0000
  C   C301      1.0  0.12634  0.92290  0.48520  1.0000
  C   C302      1.0  0.16197  0.94386  0.48531  1.0000
  C   C303      1.0  0.27716  0.89796  0.52930  1.0000
  C   C304      1.0  0.22633  0.76196  0.34980  1.0000
  H   H239      1.0  0.08327  0.87058  0.48589  1.0000
  C   C305      1.0  0.99129  0.70175  0.48854  1.0000
  C   C306      1.0  0.23828  0.49955  0.36588  1.0000
  C   C307      1.0  0.99665  0.78215  0.42834  1.0000
  H   H240      1.0  0.13124  0.55162  0.40242  1.0000
  C   C308      1.0  0.37514  0.49093  0.61088  1.0000
  C   C309      1.0  0.15268  0.60097  0.46313  1.0000
  H   H241      1.0  0.10444  0.94390  0.32914  1.0000
  C   C310      1.0  0.13097  0.87190  0.48629  1.0000
  C   C311      1.0  0.18096  0.62960  0.47608  1.0000
  H   H242      1.0  0.07408  0.84965  0.40112  1.0000
  C   C312      1.0  0.11084  0.88691  0.48582  1.0000
  H   H243      1.0  0.05031  0.75355  0.44759  1.0000
  C   C313      1.0  0.40991  0.52282  0.56218  1.0000
  H   H244      1.0  0.24433  0.92567  0.37098  1.0000
  Fe  Fe26      1.0  0.17117  0.85314  0.62877  1.0000
  H   H245      1.0  0.01268  0.83120  0.40373  1.0000
  H   H246      1.0  0.26268  0.50587  0.37553  1.0000
  H   H247      1.0  0.09262  0.81087  0.42340  1.0000
  H   H248      1.0  0.11074  0.93452  0.48465  1.0000
  S   S48       1.0  0.11887  0.75136  0.63150  1.0000
  H   H249      1.0  0.02160  0.67007  0.56322  1.0000
  C   C314      1.0  0.27497  0.93324  0.48465  1.0000
  S   S49       1.0  0.11922  0.82276  0.60684  1.0000
  C   C315      1.0  0.20856  0.72598  0.35367  1.0000
  C   C316      1.0  0.06706  0.67795  0.46708  1.0000
  C   C317      1.0  0.23323  0.52576  0.35399  1.0000
  C   C318      1.0  0.98985  0.69680  0.39456  1.0000
  H   H250      1.0  0.07930  0.72536  0.39614  1.0000
  C   C319      1.0  0.12564  0.70398  0.44569  1.0000
  C   C320      1.0  0.09986  0.68319  0.46950  1.0000
  P   P10       1.0  0.16768  0.70953  0.44832  1.0000
  C   C321      1.0  0.19078  0.73550  0.48276  1.0000
  C   C322      1.0  0.16227  0.66718  0.45361  1.0000
  C   C323      1.0  0.18577  0.66259  0.47138  1.0000
  H   H251      1.0  0.42855  0.50821  0.60412  1.0000
  H   H252      1.0  0.99362  0.75941  0.35767  1.0000
  H   H253      1.0  0.25122  0.88086  0.63967  1.0000
  C   C324      1.0  0.13420  0.63833  0.44019  1.0000
  C   C325      1.0  0.22670  0.75364  0.48183  1.0000
  C   C326      1.0  0.24476  0.77273  0.50880  1.0000
  C   C327      1.0  0.22714  0.77359  0.53706  1.0000
  C   C328      1.0  0.19150  0.75540  0.53832  1.0000
  C   C329      1.0  0.17339  0.73654  0.51132  1.0000
  C   C330      1.0  0.19173  0.72981  0.41011  1.0000
  C   C331      1.0  0.20941  0.76593  0.40585  1.0000
  C   C332      1.0  0.22676  0.78191  0.37588  1.0000
  C   C333      1.0  0.05955  0.69290  0.44058  1.0000
  C   C334      1.0  0.16382  0.98251  0.40308  1.0000
  C   C335      1.0  0.19129  0.70987  0.38370  1.0000
  H   H254      1.0  0.04755  0.66243  0.48587  1.0000
  C   C336      1.0  0.40661  0.50724  0.59334  1.0000
  H   H255      1.0  0.43436  0.53575  0.54873  1.0000
  C   C337      1.0  0.00695  0.75995  0.44112  1.0000
  H   H256      1.0  0.10511  0.67103  0.48999  1.0000
  H   H257      1.0  0.20775  0.68434  0.48180  1.0000
  H   H258      1.0  0.10729  0.58318  0.43527  1.0000
  H   H259      1.0  0.03416  0.68882  0.43880  1.0000
  H   H260      1.0  0.30993  0.91470  0.48535  1.0000
  C   C338      1.0  0.34428  0.98470  0.58512  1.0000
  H   H261      1.0  0.24083  0.75293  0.46033  1.0000
  H   H262      1.0  0.27241  0.78680  0.50781  1.0000
  H   H263      1.0  0.24098  0.78836  0.55802  1.0000
  H   H264      1.0  0.17774  0.75637  0.56006  1.0000
  H   H265      1.0  0.14590  0.72339  0.51294  1.0000
  H   H266      1.0  0.20935  0.78180  0.42550  1.0000
  H   H267      1.0  0.23993  0.80979  0.37266  1.0000
  H   H268      1.0  0.02618  0.75304  0.50603  1.0000
  H   H269      1.0  0.26341  0.97982  0.59935  1.0000
  H   H270      1.0  0.25386  0.55247  0.35410  1.0000
  H   H271      1.0  0.22661  0.91311  0.43004  1.0000
  S   S50       1.0  0.18953  0.82050  0.60537  1.0000
  H   H272      1.0  0.99090  0.53155  0.65168  1.0000
  S   S51       1.0  0.21050  0.91078  0.61827  1.0000
  H   H273      1.0  0.04612  0.73261  0.55202  1.0000
  H   H274      1.0  0.18168  0.88077  0.48594  1.0000
  C   C339      1.0  0.16653  0.89282  0.48626  1.0000
  H   H275      1.0  0.11913  0.84401  0.48668  1.0000
  C   C340      1.0  0.12932  0.60535  0.44517  1.0000
  C   C341      1.0  0.00839  0.73047  0.62609  1.0000
  H   H276      1.0  0.13709  0.73504  0.40043  1.0000
  H   H277      1.0  0.99991  0.68365  0.34648  1.0000
  C   C342      1.0  0.25087  0.98140  0.62167  1.0000
  C   C343      1.0  0.28939  0.91530  0.49855  1.0000
  C   C344      1.0  0.25060  0.89870  0.54619  1.0000
  H   H278      1.0  0.09774  0.56774  0.36658  1.0000
  H   H279      1.0  0.03141  0.73601  0.61254  1.0000
  H   H280      1.0  0.28815  0.88392  0.54006  1.0000
  C   C345      1.0  0.23607  0.93893  0.41975  1.0000
  C   C346      1.0  0.10426  0.54907  0.35850  1.0000
  H   H281      1.0  0.11600  0.64130  0.42598  1.0000
  C   C347      1.0  0.24746  0.93309  0.50104  1.0000
  H   H282      1.0  0.17724  0.68198  0.38592  1.0000
  C   C348      1.0  0.12315  0.54009  0.37864  1.0000
  C   C349      1.0  0.23574  0.91610  0.53214  1.0000
  H   H283      1.0  0.33770  0.97663  0.53284  1.0000
  H   H284      1.0  0.28650  0.94401  0.63082  1.0000
  C   C350      1.0  0.23894  0.96516  0.43990  1.0000
  H   H285      1.0  0.01475  0.72014  0.39449  1.0000
  C   C351      1.0  0.08490  0.71335  0.41657  1.0000
  S   S52       1.0  0.15619  0.85616  0.34035  1.0000
  C   C352      1.0  0.12967  0.98738  0.36078  1.0000
  C   C353      1.0  0.02085  0.81460  0.41439  1.0000
  H   H286      1.0  0.24130  0.88565  0.57019  1.0000
  H   H287      1.0  0.19861  0.53803  0.33128  1.0000
  C   C354      1.0  0.22347  0.95099  0.63667  1.0000
  P   P11       1.0  0.22819  0.95582  0.48355  1.0000
  H   H288      1.0  0.28530  0.94697  0.46111  1.0000
  C   C355      1.0  0.18227  0.92890  0.48644  1.0000
  C   C356      1.0  0.12059  0.95453  0.35014  1.0000
  C   C357      1.0  0.15458  0.94964  0.39246  1.0000
  C   C358      1.0  0.02696  0.71403  0.53605  1.0000
  C   C359      1.0  0.38179  0.52229  0.54862  1.0000
  C   C360      1.0  0.01311  0.67872  0.54233  1.0000
  H   H289      1.0  0.38448  0.53486  0.52471  1.0000
  C   C361      1.0  0.06591  0.80314  0.42548  1.0000
  H   H290      1.0  0.21502  0.91620  0.54557  1.0000
  H   H291      1.0  0.19911  0.62625  0.49000  1.0000
  H   H292      1.0  0.23910  0.77432  0.32627  1.0000
  C   C362      1.0  0.98809  0.65480  0.52202  1.0000
  Fe  Fe27      1.0  0.17082  0.78687  0.65208  1.0000
  Fe  Fe28      1.0  0.10330  0.78739  0.65206  1.0000
  C   C363      1.0  0.13203  0.51642  0.36798  1.0000
  C   C364      1.0  0.24615  0.94597  0.38630  1.0000
  C   C365      1.0  0.13301  0.93567  0.36597  1.0000
  C   C366      1.0  0.04180  0.77066  0.43928  1.0000
  C   C367      1.0  0.29589  0.93098  0.64615  1.0000
  C   C368      1.0  0.05544  0.82505  0.41292  1.0000
  H   H293      1.0  0.14889  0.57542  0.46713  1.0000
  H   H294      1.0  0.29842  0.52961  0.60844  1.0000
  H   H295      1.0  0.12658  0.91054  0.35721  1.0000
  H   H296      1.0  0.17370  0.97168  0.48444  1.0000
  C   C369      1.0  0.99237  0.74793  0.33417  1.0000
  C   C370      1.0  0.27572  0.89511  0.65115  1.0000
  C   C371      1.0  0.35031  0.50604  0.56612  1.0000
  H   H297      1.0  0.20765  0.71070  0.33295  1.0000
  H   H298      1.0  0.20127  0.96930  0.54443  1.0000
  H   H299      1.0  0.30483  0.57636  0.64382  1.0000
  H   H300      1.0  0.34353  0.96066  0.58993  1.0000
  S   S53       1.0  0.06258  0.78234  0.33637  1.0000
  C   C372      1.0  0.31099  0.50424  0.64674  1.0000
  H   H301      1.0  0.14652  0.50960  0.38397  1.0000
  C   C373      1.0  0.12255  0.50201  0.33679  1.0000
  C   C374      1.0  0.20180  0.51747  0.34119  1.0000
  C   C375      1.0  0.30964  0.55685  0.65362  1.0000
  C   C376      1.0  0.34664  0.48970  0.59712  1.0000
  H   H302      1.0  0.26717  0.98476  0.34683  1.0000
  C   C377      1.0  0.09384  0.53400  0.32784  1.0000
  H   H303      1.0  0.08884  0.78798  0.74105  1.0000
  S   S54       1.0  0.15425  0.82086  0.67621  1.0000
  C   C378      1.0  0.23212  0.52026  0.84060  1.0000
  H   H304      1.0  0.17981  0.82005  0.92568  1.0000
  H   H305      1.0  0.29173  0.97711  0.69121  1.0000
  H   H306      1.0  0.46277  0.67084  0.91064  1.0000
  H   H307      1.0  0.20985  0.58528  0.73526  1.0000
  H   H308      1.0  0.27148  0.77220  0.68470  1.0000
  H   H309      1.0  0.37821  0.58512  0.96669  1.0000
  Fe  Fe29      1.0  0.35010  0.68079  0.77789  1.0000
  S   S55       1.0  0.33833  0.63588  0.81248  1.0000
  S   S56       1.0  0.40355  0.72673  0.76206  1.0000
  Fe  Fe30      1.0  0.27479  0.66167  0.77836  1.0000
  S   S57       1.0  0.25851  0.61547  0.81335  1.0000
  S   S58       1.0  0.23198  0.67153  0.76298  1.0000
  Fe  Fe31      1.0  0.30503  0.64946  0.84297  1.0000
  S   S59       1.0  0.30566  0.65628  0.90047  1.0000
  Fe  Fe32      1.0  0.29231  0.60437  0.78080  1.0000
  S   S60       1.0  0.27912  0.54909  0.76773  1.0000
  S   S61       1.0  0.31898  0.69611  0.80973  1.0000
  S   S62       1.0  0.30634  0.64878  0.74445  1.0000
  P   P12       1.0  0.16432  0.49828  0.82720  1.0000
  C   C379      1.0  0.30733  0.65026  0.94473  1.0000
  C   C380      1.0  0.31026  0.62317  0.95844  1.0000
  H   H310      1.0  0.13040  0.79887  0.88927  1.0000
  H   H311      1.0  0.31138  0.60505  0.94234  1.0000
  C   C381      1.0  0.21718  0.74651  0.69497  1.0000
  C   C382      1.0  0.18940  0.71808  0.71150  1.0000
  C   C383      1.0  0.19443  0.69534  0.73179  1.0000
  C   C384      1.0  0.22715  0.69993  0.73512  1.0000
  C   C385      1.0  0.25469  0.72730  0.71717  1.0000
  C   C386      1.0  0.24976  0.75061  0.69761  1.0000
  H   H312      1.0  0.16412  0.71394  0.70901  1.0000
  H   H313      1.0  0.17282  0.67409  0.74516  1.0000
  H   H314      1.0  0.27995  0.73110  0.71909  1.0000
  H   H315      1.0  0.20185  0.75797  0.81510  1.0000
  C   C387      1.0  0.31936  0.55822  0.68630  1.0000
  H   H316      1.0  0.19974  0.49858  0.67512  1.0000
  H   H317      1.0  0.30365  0.69443  0.95702  1.0000
  H   H318      1.0  0.45385  0.70753  0.80715  1.0000
  H   H319      1.0  0.24321  0.73856  0.80900  1.0000
  C   C388      1.0  0.23422  0.52110  0.71524  1.0000
  C   C389      1.0  0.25218  0.51592  0.74007  1.0000
  C   C390      1.0  0.20306  0.52165  0.84957  1.0000
  H   H320      1.0  0.23628  0.54594  0.71230  1.0000
  H   H321      1.0  0.13829  0.79695  0.82922  1.0000
  H   H322      1.0  0.32682  0.88232  0.70171  1.0000
  H   H323      1.0  0.12834  0.58070  0.79411  1.0000
  C   C391      1.0  0.20765  0.95353  0.66555  1.0000
  C   C392      1.0  0.09728  0.74556  0.73724  1.0000
  C   C393      1.0  0.19056  0.57308  0.75508  1.0000
  C   C394      1.0  0.43999  0.73316  0.73829  1.0000
  C   C395      1.0  0.44454  0.70589  0.72981  1.0000
  C   C396      1.0  0.13680  0.79990  0.76148  1.0000
  C   C397      1.0  0.46611  0.76717  0.72919  1.0000
  H   H324      1.0  0.42491  0.67963  0.73668  1.0000
  H   H325      1.0  0.33239  0.53396  0.72469  1.0000
  C   C398      1.0  0.32152  0.50625  0.67939  1.0000
  C   C399      1.0  0.39709  0.74786  0.85255  1.0000
  C   C400      1.0  0.37438  0.75519  0.86870  1.0000
  C   C401      1.0  0.36747  0.74814  0.90267  1.0000
  C   C402      1.0  0.38336  0.73389  0.92058  1.0000
  C   C403      1.0  0.40637  0.72657  0.90460  1.0000
  C   C404      1.0  0.41279  0.73332  0.87030  1.0000
  P   P13       1.0  0.42554  0.70624  0.92711  1.0000
  C   C405      1.0  0.11946  0.73363  0.74339  1.0000
  C   C406      1.0  0.39941  0.65990  0.92407  1.0000
  C   C407      1.0  0.38136  0.64549  0.89538  1.0000
  C   C408      1.0  0.36277  0.60966  0.89226  1.0000
  C   C409      1.0  0.36161  0.58789  0.91793  1.0000
  C   C410      1.0  0.14282  0.54381  0.80816  1.0000
  C   C411      1.0  0.39848  0.63785  0.94961  1.0000
  H   H326      1.0  0.23752  0.83954  0.90145  1.0000
  C   C412      1.0  0.32543  0.53303  0.69912  1.0000
  H   H327      1.0  0.12509  0.53377  0.82928  1.0000
  H   H328      1.0  0.32166  0.57848  0.70195  1.0000
  C   C413      1.0  0.46061  0.74254  0.98266  1.0000
  H   H329      1.0  0.23712  0.94085  0.78699  1.0000
  H   H330      1.0  0.47833  0.69135  0.70706  1.0000
  H   H331      1.0  0.16742  0.74525  0.76244  1.0000
  C   C414      1.0  0.23632  0.56531  0.88919  1.0000
  H   H332      1.0  0.07367  0.72952  0.72477  1.0000
  H   H333      1.0  0.40176  0.75255  0.82603  1.0000
  H   H334      1.0  0.36141  0.76540  0.85468  1.0000
  H   H335      1.0  0.34892  0.75263  0.91498  1.0000
  H   H336      1.0  0.37682  0.72788  0.94664  1.0000
  H   H337      1.0  0.42937  0.72677  0.85702  1.0000
  H   H338      1.0  0.38135  0.66178  0.87542  1.0000
  H   H339      1.0  0.34667  0.56012  0.91567  1.0000
  C   C415      1.0  0.47499  0.71266  0.71305  1.0000
  C   C416      1.0  0.37937  0.60199  0.94664  1.0000
  C   C417      1.0  0.10585  0.77859  0.74648  1.0000
  C   C418      1.0  0.28682  0.87760  0.67118  1.0000
  C   C419      1.0  0.14466  0.57053  0.78839  1.0000
  S   S63       1.0  0.21309  0.77839  0.67189  1.0000
  H   H340      1.0  0.20684  0.53815  0.77002  1.0000
  C   C420      1.0  0.26300  0.54117  0.85590  1.0000
  H   H341      1.0  0.14325  0.82568  0.76787  1.0000
  H   H342      1.0  0.29489  0.77166  0.77267  1.0000
  H   H343      1.0  0.21183  0.84144  0.71790  1.0000
  H   H344      1.0  0.18387  0.54740  0.87990  1.0000
  C   C421      1.0  0.16841  0.58503  0.76179  1.0000
  H   H345      1.0  0.17048  0.60634  0.74698  1.0000
  H   H346      1.0  0.46298  0.78851  0.73557  1.0000
  H   H347      1.0  0.48344  0.75572  0.96688  1.0000
  C   C422      1.0  0.18876  0.54639  0.77476  1.0000
  C   C423      1.0  0.20549  0.54465  0.87372  1.0000
  H   H348      1.0  0.18654  0.93044  0.67736  1.0000
  H   H349      1.0  0.26331  0.84283  0.74540  1.0000
  H   H350      1.0  0.30445  0.82332  0.74045  1.0000
  H   H351      1.0  0.11288  0.70812  0.73591  1.0000
  C   C424      1.0  0.32783  0.94964  0.66063  1.0000
  H   H352      1.0  0.34888  0.59878  0.87005  1.0000
  C   C425      1.0  0.30597  0.67335  0.96687  1.0000
  H   H353      1.0  0.37582  0.68178  0.98253  1.0000
  C   C426      1.0  0.42920  0.71755  0.97016  1.0000
  H   H354      1.0  0.24606  0.83816  0.84118  1.0000
  H   H355      1.0  0.28559  0.54087  0.84785  1.0000
  H   H356      1.0  0.22172  0.88508  0.81391  1.0000
  H   H357      1.0  0.23810  0.94676  0.72588  1.0000
  C   C427      1.0  0.24786  0.76190  0.79597  1.0000
  C   C428      1.0  0.27705  0.78057  0.77539  1.0000
  C   C429      1.0  0.28236  0.80966  0.75722  1.0000
  C   C430      1.0  0.25870  0.82041  0.75989  1.0000
  C   C431      1.0  0.22955  0.80211  0.78099  1.0000
  C   C432      1.0  0.22431  0.77273  0.79895  1.0000
  P   P14       1.0  0.19951  0.81647  0.78658  1.0000
  C   C433      1.0  0.19284  0.81744  0.83063  1.0000
  C   C434      1.0  0.21564  0.85899  0.76785  1.0000
  C   C435      1.0  0.21751  0.86306  0.73323  1.0000
  C   C436      1.0  0.22563  0.89465  0.71820  1.0000
  C   C437      1.0  0.23264  0.92260  0.73759  1.0000
  C   C438      1.0  0.23185  0.91913  0.77204  1.0000
  C   C439      1.0  0.22322  0.88741  0.78720  1.0000
  C   C440      1.0  0.22068  0.82949  0.85140  1.0000
  C   C441      1.0  0.21596  0.83039  0.88555  1.0000
  C   C442      1.0  0.18345  0.81938  0.89921  1.0000
  C   C443      1.0  0.15563  0.80744  0.87870  1.0000
  C   C444      1.0  0.16024  0.80643  0.84453  1.0000
  C   C445      1.0  0.15940  0.78821  0.76759  1.0000
  C   C446      1.0  0.15044  0.75485  0.75849  1.0000
  S   S64       1.0  0.05063  0.76660  0.67767  1.0000
  H   H358      1.0  0.23845  0.58370  0.90724  1.0000
  C   C447      1.0  0.16454  0.53119  0.80109  1.0000
  C   C448      1.0  0.46738  0.72107  0.90853  1.0000
  C   C449      1.0  0.26507  0.56366  0.88017  1.0000
  H   H359      1.0  0.28917  0.58075  0.89121  1.0000
  H   H360      1.0  0.48180  0.67333  0.80001  1.0000
  H   H361      1.0  0.22562  0.89725  0.69149  1.0000
  C   C450      1.0  0.33872  0.93184  0.68097  1.0000
  C   C451      1.0  0.47870  0.69790  0.90333  1.0000
  H   H362      1.0  0.36300  0.94538  0.69271  1.0000
  C   C452      1.0  0.31824  0.89598  0.68621  1.0000
  H   H363      1.0  0.41244  0.64825  0.97187  1.0000
  C   C453      1.0  0.01068  0.74267  0.65803  1.0000
  C   C454      1.0  0.21362  0.49414  0.69395  1.0000
  C   C455      1.0  0.48129  0.72051  0.80271  1.0000
  H   H364      1.0  0.48044  0.77426  0.90230  1.0000
  H   H365      1.0  0.23159  0.50432  0.82074  1.0000
  H   H366      1.0  0.27100  0.84977  0.67501  1.0000
  C   C456      1.0  0.21902  0.98613  0.67907  1.0000
  H   H367      1.0  0.95875  0.39252  0.31347  1.0000
  H   H368      1.0  0.81695  0.48541  0.22412  1.0000
  C   C457      1.0  0.52187  0.22055  0.13002  1.0000
  H   H369      1.0  0.53807  0.15440  0.15969  1.0000
  Fe  Fe33      1.0  0.77155  0.16900  0.27916  1.0000
  S   S65       1.0  0.75032  0.18800  0.23764  1.0000
  S   S66       1.0  0.78769  0.13043  0.26733  1.0000
  Fe  Fe34      1.0  0.59994  0.31205  0.16737  1.0000
  S   S67       1.0  0.62761  0.35229  0.12581  1.0000
  S   S68       1.0  0.54389  0.29665  0.17865  1.0000
  Fe  Fe35      1.0  0.66323  0.30523  0.17856  1.0000
  S   S69       1.0  0.69417  0.34470  0.13771  1.0000
  S   S70       1.0  0.68417  0.28298  0.21735  1.0000
  Fe  Fe36      1.0  0.67276  0.37592  0.15919  1.0000
  S   S71       1.0  0.70778  0.43486  0.16378  1.0000
  Fe  Fe37      1.0  0.64683  0.31850  0.10679  1.0000
  S   S72       1.0  0.64619  0.30039  0.05255  1.0000
  S   S73       1.0  0.64412  0.33796  0.20134  1.0000
  S   S74       1.0  0.61689  0.27696  0.14710  1.0000
  C   C458      1.0  0.64625  0.30998  0.00871  1.0000
  C   C459      1.0  0.64029  0.46823  0.22342  1.0000
  H   H370      1.0  0.55406  0.34162  0.10614  1.0000
  H   H371      1.0  0.90258  0.33905  0.30965  1.0000
  H   H372      1.0  0.94140  0.43321  0.22403  1.0000
  C   C460      1.0  0.73302  0.21553  0.23282  1.0000
  C   C461      1.0  0.72370  0.22839  0.25970  1.0000
  C   C462      1.0  0.70892  0.24890  0.25441  1.0000
  C   C463      1.0  0.70337  0.25716  0.22224  1.0000
  C   C464      1.0  0.71333  0.24487  0.19537  1.0000
  C   C465      1.0  0.72776  0.22407  0.20066  1.0000
  H   H373      1.0  0.72713  0.22190  0.28460  1.0000
  H   H374      1.0  0.70146  0.25820  0.27547  1.0000
  H   H375      1.0  0.70981  0.25128  0.17047  1.0000
  H   H376      1.0  0.73488  0.21445  0.17961  1.0000
  C   C466      1.0  0.51059  0.27025  0.20891  1.0000
  C   C467      1.0  0.51478  0.25126  0.23413  1.0000
  H   H377      1.0  0.66111  0.23137  0.12927  1.0000
  H   H378      1.0  0.53828  0.22111  0.17960  1.0000
  H   H379      1.0  0.53892  0.25260  0.23573  1.0000
  H   H380      1.0  0.61764  0.21666  0.08719  1.0000
  C   C468      1.0  0.64983  0.13524  0.22683  1.0000
  H   H381      1.0  0.61269  0.23814  0.21576  1.0000
  C   C469      1.0  0.57447  0.24217  0.28691  1.0000
  H   H382      1.0  0.64355  0.20852  0.18671  1.0000
  C   C470      1.0  0.56738  0.34140  0.05464  1.0000
  H   H383      1.0  0.61738  0.13538  0.18944  1.0000
  H   H384      1.0  0.91318  0.25528  0.24975  1.0000
  S   S75       1.0  0.81956  0.20285  0.30668  1.0000
  H   H385      1.0  0.75660  0.02756  0.27592  1.0000
  C   C471      1.0  0.70410  0.45241  0.22927  1.0000
  C   C472      1.0  0.71900  0.46352  0.19741  1.0000
  C   C473      1.0  0.55068  0.32590  0.08499  1.0000
  H   H386      1.0  0.68503  0.42548  0.23417  1.0000
  H   H387      1.0  0.57632  0.33292  0.00417  1.0000
  H   H388      1.0  0.49128  0.21557  0.27622  1.0000
  C   C474      1.0  0.57580  0.20642  0.02933  1.0000
  H   H389      1.0  0.77186  0.43838  0.19284  1.0000
  H   H390      1.0  0.88517  0.38034  0.22006  1.0000
  C   C475      1.0  0.79446  0.46147  0.27232  1.0000
  C   C476      1.0  0.61905  0.16082  0.26855  1.0000
  C   C477      1.0  0.93615  0.23553  0.30693  1.0000
  C   C478      1.0  0.94234  0.38998  0.29342  1.0000
  C   C479      1.0  0.71365  0.47627  0.25484  1.0000
  C   C480      1.0  0.48757  0.23017  0.25700  1.0000
  C   C481      1.0  0.50536  0.16739  0.04290  1.0000
  H   H391      1.0  0.55604  0.17795  0.10263  1.0000
  C   C482      1.0  0.80112  0.26522  0.30563  1.0000
  H   H392      1.0  0.54002  0.26949  0.00998  1.0000
  S   S76       1.0  0.88649  0.17270  0.28169  1.0000
  C   C483      1.0  0.74406  0.40744  0.23622  1.0000
  C   C484      1.0  0.52243  0.15163  0.03004  1.0000
  C   C485      1.0  0.77103  0.43646  0.21966  1.0000
  H   H393      1.0  0.60802  0.17129  0.28505  1.0000
  C   C486      1.0  0.82669  0.30011  0.30111  1.0000
  C   C487      1.0  0.95659  0.20372  0.27687  1.0000
  C   C488      1.0  0.79622  0.46334  0.23756  1.0000
  H   H394      1.0  0.65196  0.02777  0.31100  1.0000
  H   H395      1.0  0.72425  0.38699  0.22218  1.0000
  H   H396      1.0  0.61874  0.45971  0.27295  1.0000
  C   C489      1.0  0.50610  0.12510  0.22045  1.0000
  C   C490      1.0  0.89074  0.25599  0.24301  1.0000
  C   C491      1.0  0.86591  0.22947  0.22465  1.0000
  C   C492      1.0  0.83670  0.22993  0.21624  1.0000
  C   C493      1.0  0.83208  0.25667  0.22650  1.0000
  C   C494      1.0  0.85679  0.28343  0.24513  1.0000
  C   C495      1.0  0.88617  0.28273  0.25342  1.0000
  P   P15       1.0  0.84888  0.31590  0.26132  1.0000
  C   C496      1.0  0.82192  0.32298  0.23424  1.0000
  P   P16       1.0  0.50134  0.22271  0.06636  1.0000
  H   H397      1.0  0.65178  0.26754  0.99385  1.0000
  C   C497      1.0  0.52691  0.26919  0.06185  1.0000
  H   H398      1.0  0.58392  0.36923  0.05226  1.0000
  C   C498      1.0  0.54271  0.28497  0.03107  1.0000
  C   C499      1.0  0.50043  0.06049  0.22148  1.0000
  C   C500      1.0  0.79691  0.32907  0.24750  1.0000
  C   C501      1.0  0.77584  0.33418  0.22659  1.0000
  C   C502      1.0  0.77937  0.33305  0.19235  1.0000
  C   C503      1.0  0.80438  0.32733  0.17891  1.0000
  C   C504      1.0  0.82574  0.32252  0.19973  1.0000
  C   C505      1.0  0.88933  0.35582  0.26490  1.0000
  H   H399      1.0  0.63387  0.44171  0.22095  1.0000
  C   C506      1.0  0.93261  0.41285  0.24302  1.0000
  C   C507      1.0  0.90065  0.38269  0.24083  1.0000
  C   C508      1.0  0.56313  0.32094  0.02761  1.0000
  H   H400      1.0  0.86902  0.20819  0.21759  1.0000
  H   H401      1.0  0.81700  0.20891  0.20266  1.0000
  H   H402      1.0  0.80864  0.25573  0.22065  1.0000
  H   H403      1.0  0.90546  0.30227  0.26828  1.0000
  H   H404      1.0  0.79407  0.24778  0.28537  1.0000
  C   C509      1.0  0.62446  0.14076  0.21495  1.0000
  H   H405      1.0  0.51771  0.27863  0.11234  1.0000
  C   C510      1.0  0.53034  0.28996  0.08856  1.0000
  C   C511      1.0  0.73670  0.00364  0.28771  1.0000
  H   H406      1.0  0.79309  0.32930  0.27395  1.0000
  H   H407      1.0  0.75589  0.33785  0.23690  1.0000
  H   H408      1.0  0.76216  0.33588  0.17635  1.0000
  H   H409      1.0  0.80679  0.32608  0.15235  1.0000
  H   H410      1.0  0.84488  0.31795  0.18892  1.0000
  C   C512      1.0  0.91047  0.35975  0.29122  1.0000
  C   C513      1.0  0.55405  0.18264  0.27417  1.0000
  H   H411      1.0  0.57096  0.15903  0.01327  1.0000
  H   H412      1.0  0.95146  0.18144  0.26297  1.0000
  C   C514      1.0  0.59595  0.25318  0.25856  1.0000
  C   C515      1.0  0.55884  0.22221  0.04226  1.0000
  C   C516      1.0  0.52329  0.20303  0.04816  1.0000
  C   C517      1.0  0.55341  0.20689  0.29463  1.0000
  C   C518      1.0  0.55763  0.17121  0.02304  1.0000
  H   H413      1.0  0.57379  0.24925  0.04802  1.0000
  C   C519      1.0  0.74232  0.40518  0.27077  1.0000
  H   H414      1.0  0.91075  0.45785  0.26975  1.0000
  H   H415      1.0  0.97839  0.43970  0.27068  1.0000
  Fe  Fe38      1.0  0.83361  0.16264  0.29843  1.0000
  C   C520      1.0  0.71647  0.00457  0.31362  1.0000
  H   H416      1.0  0.65247  0.16110  0.30553  1.0000
  H   H417      1.0  0.76602  0.42968  0.31555  1.0000
  C   C521      1.0  0.53578  0.12314  0.22085  1.0000
  C   C522      1.0  0.64424  0.15500  0.28039  1.0000
  P   P17       1.0  0.57724  0.16233  0.21965  1.0000
  C   C523      1.0  0.57527  0.19355  0.24535  1.0000
  C   C524      1.0  0.60898  0.15382  0.23566  1.0000
  C   C525      1.0  0.65963  0.14225  0.25955  1.0000
  C   C526      1.0  0.51671  0.21050  0.16356  1.0000
  C   C527      1.0  0.53274  0.09060  0.22101  1.0000
  C   C528      1.0  0.64351  0.33772  0.99649  1.0000
  H   H418      1.0  0.50845  0.12415  0.02583  1.0000
  C   C529      1.0  0.59605  0.22899  0.23765  1.0000
  C   C530      1.0  0.95344  0.41651  0.26930  1.0000
  C   C531      1.0  0.63477  0.00036  0.30773  1.0000
  H   H419      1.0  0.61244  0.28052  0.25260  1.0000
  Fe  Fe39      1.0  0.76026  0.10174  0.31501  1.0000
  C   C532      1.0  0.58959  0.17919  0.17747  1.0000
  C   C533      1.0  0.56500  0.17081  0.15345  1.0000
  C   C534      1.0  0.57509  0.18404  0.12092  1.0000
  C   C535      1.0  0.60973  0.20561  0.11213  1.0000
  C   C536      1.0  0.63430  0.21399  0.13586  1.0000
  C   C537      1.0  0.62427  0.20106  0.16842  1.0000
  H   H420      1.0  0.70164  0.46730  0.27922  1.0000
  H   H421      1.0  0.50791  0.14995  0.21990  1.0000
  H   H422      1.0  0.55515  0.08832  0.22093  1.0000
  H   H423      1.0  0.67985  0.13866  0.26846  1.0000
  H   H424      1.0  0.54753  0.23846  0.12036  1.0000
  H   H425      1.0  0.66256  0.12625  0.21057  1.0000
  H   H426      1.0  0.60324  0.22160  0.02478  1.0000
  H   H427      1.0  0.65983  0.00027  0.26216  1.0000
  H   H428      1.0  0.64186  0.35479  0.01378  1.0000
  C   C538      1.0  0.92903  0.20640  0.28921  1.0000
  H   H429      1.0  0.57395  0.26101  0.30267  1.0000
  H   H430      1.0  0.72127  0.38266  0.28350  1.0000
  C   C539      1.0  0.89404  0.45855  0.28867  1.0000
  C   C540      1.0  0.89039  0.44285  0.31983  1.0000
  C   C541      1.0  0.97033  0.26142  0.31229  1.0000
  C   C542      1.0  0.76752  0.43198  0.28879  1.0000
  C   C543      1.0  0.49397  0.20866  0.10942  1.0000
  H   H431      1.0  0.53819  0.15545  0.28103  1.0000
  H   H432      1.0  0.50295  0.32828  0.99875  1.0000
  H   H433      1.0  0.91530  0.23822  0.31621  1.0000
  C   C544      1.0  0.85403  0.47594  0.30603  1.0000
  C   C545      1.0  0.87575  0.47482  0.28169  1.0000
  H   H434      1.0  0.49820  0.03542  0.22186  1.0000
  C   C546      1.0  0.63182  0.47843  0.25271  1.0000
  H   H435      1.0  0.87815  0.48614  0.25716  1.0000
  H   H436      1.0  0.53661  0.19837  0.31652  1.0000
  H   H437      1.0  0.66527  0.48458  0.17524  1.0000
  C   C547      1.0  0.48366  0.18850  0.17677  1.0000
  H   H438      1.0  0.69741  0.22088  0.59144  1.0000
  H   H439      1.0  0.87919  0.24189  0.47678  1.0000
  Fe  Fe40      1.0  0.78971  0.16963  0.35154  1.0000
  S   S77       1.0  0.78761  0.19503  0.39863  1.0000
  S   S78       1.0  0.80687  0.13157  0.34543  1.0000
  Fe  Fe41      1.0  0.80949  0.16129  0.58744  1.0000
  S   S79       1.0  0.82125  0.15059  0.53574  1.0000
  S   S80       1.0  0.82672  0.13724  0.62579  1.0000
  C   C548      1.0  0.79704  0.18265  0.43671  1.0000
  C   C549      1.0  0.79019  0.19404  0.46635  1.0000
  C   C550      1.0  0.79728  0.18436  0.49707  1.0000
  C   C551      1.0  0.81156  0.16348  0.49819  1.0000
  C   C552      1.0  0.81885  0.15257  0.46855  1.0000
  C   C553      1.0  0.81166  0.16210  0.43792  1.0000
  H   H440      1.0  0.77905  0.21011  0.46556  1.0000
  H   H441      1.0  0.79169  0.19296  0.51982  1.0000
  H   H442      1.0  0.82979  0.13635  0.46933  1.0000
  H   H443      1.0  0.81738  0.15347  0.41530  1.0000
  H   H444      1.0  0.70165  0.00024  0.40093  1.0000
  C   C554      1.0  0.88982  0.12200  0.59759  1.0000
  C   C555      1.0  0.84605  0.06208  0.60891  1.0000
  S   S81       1.0  0.75515  0.22103  0.64691  1.0000
  H   H445      1.0  0.88339  0.15906  0.35232  1.0000
  C   C556      1.0  0.89423  0.03497  0.64437  1.0000
  C   C557      1.0  0.72611  0.05122  0.41951  1.0000
  H   H446      1.0  0.96866  0.23670  0.49820  1.0000
  C   C558      1.0  0.79263  0.27428  0.36295  1.0000
  H   H447      1.0  0.80800  0.03856  0.57209  1.0000
  C   C559      1.0  0.90479  0.17256  0.44508  1.0000
  C   C560      1.0  0.88766  0.23701  0.52786  1.0000
  C   C561      1.0  0.51304  0.37150  0.48605  1.0000
  H   H448      1.0  0.54127  0.03227  0.60972  1.0000
  H   H449      1.0  0.95120  0.12295  0.61261  1.0000
  H   H450      1.0  0.72696  0.06317  0.39571  1.0000
  C   C562      1.0  0.94516  0.13607  0.34512  1.0000
  H   H451      1.0  0.83378  0.09130  0.53538  1.0000
  C   C563      1.0  0.90846  0.23401  0.55081  1.0000
  C   C564      1.0  0.88691  0.13915  0.43308  1.0000
  H   H452      1.0  0.53588  0.37966  0.47075  1.0000
  C   C565      1.0  0.95743  0.11350  0.34727  1.0000
  H   H453      1.0  0.97852  0.23952  0.38566  1.0000
  C   C566      1.0  0.92606  0.24152  0.48288  1.0000
  C   C567      1.0  0.91481  0.20136  0.42371  1.0000
  C   C568      1.0  0.69371  0.17361  0.57673  1.0000
  C   C569      1.0  0.73911  0.05652  0.47744  1.0000
  C   C570      1.0  0.73960  0.07170  0.44689  1.0000
  H   H454      1.0  0.97545  0.28382  0.32597  1.0000
  C   C571      1.0  0.89630  0.24064  0.49402  1.0000
  C   C572      1.0  0.92143  0.26948  0.41777  1.0000
  H   H455      1.0  0.75047  0.09937  0.44436  1.0000
  H   H456      1.0  0.88532  0.14477  0.55203  1.0000
  C   C573      1.0  0.85005  0.45967  0.33712  1.0000
  C   C574      1.0  0.89808  0.30748  0.38330  1.0000
  C   C575      1.0  0.82967  0.48217  0.65102  1.0000
  C   C576      1.0  0.94637  0.23760  0.50610  1.0000
  C   C577      1.0  0.71161  0.01542  0.42269  1.0000
  H   H457      1.0  0.52522  0.42341  0.49495  1.0000
  H   H458      1.0  0.75005  0.07265  0.49855  1.0000
  C   C578      1.0  0.71032  0.99965  0.45348  1.0000
  C   C579      1.0  0.94608  0.21958  0.63270  1.0000
  Fe  Fe42      1.0  0.78113  0.18929  0.64044  1.0000
  C   C580      1.0  0.68662  0.19367  0.59745  1.0000
  H   H459      1.0  0.78003  0.26384  0.38699  1.0000
  C   C581      1.0  0.68105  0.13887  0.58521  1.0000
  H   H460      1.0  0.90988  0.17562  0.47117  1.0000
  H   H461      1.0  0.68719  0.12354  0.56948  1.0000
  C   C582      1.0  0.94384  0.30464  0.40937  1.0000
  P   P18       1.0  0.93660  0.24463  0.43907  1.0000
  C   C583      1.0  0.72454  0.02068  0.48078  1.0000
  H   H462      1.0  0.86518  0.43086  0.36807  1.0000
  C   C584      1.0  0.97970  0.22928  0.62239  1.0000
  C   C585      1.0  0.87558  0.09223  0.61842  1.0000
  H   H463      1.0  0.82260  0.32653  0.37869  1.0000
  C   C586      1.0  0.87902  0.13426  0.39971  1.0000
  H   H464      1.0  0.70971  0.18519  0.55452  1.0000
  H   H465      1.0  0.91497  0.21793  0.37315  1.0000
  S   S82       1.0  0.83191  0.21228  0.61214  1.0000
  C   C587      1.0  0.66155  0.12426  0.61454  1.0000
  C   C588      1.0  0.88719  0.25365  0.40879  1.0000
  C   C589      1.0  0.50703  0.39613  0.49968  1.0000
  H   H466      1.0  0.95377  0.23177  0.55772  1.0000
  C   C590      1.0  0.84589  0.09122  0.55810  1.0000
  H   H467      1.0  0.76728  0.33749  0.62618  1.0000
  H   H468      1.0  0.88890  0.32199  0.37015  1.0000
  H   H469      1.0  0.49146  0.31163  0.55963  1.0000
  C   C591      1.0  0.90741  0.19619  0.39010  1.0000
  H   H470      1.0  0.89804  0.04387  0.61871  1.0000
  H   H471      1.0  0.89653  0.98977  0.63323  1.0000
  H   H472      1.0  0.86932  0.22661  0.41499  1.0000
  H   H473      1.0  0.72461  0.00979  0.50476  1.0000
  H   H474      1.0  0.83239  0.45899  0.35584  1.0000
  H   H475      1.0  0.86455  0.10839  0.39048  1.0000
  C   C592      1.0  0.87513  0.12139  0.56745  1.0000
  H   H476      1.0  0.87847  0.11701  0.44984  1.0000
  C   C593      1.0  0.93780  0.23432  0.53991  1.0000
  H   H477      1.0  0.97033  0.31759  0.41594  1.0000
  H   H478      1.0  0.49459  0.31747  0.48135  1.0000
  S   S83       1.0  0.75748  0.14049  0.61147  1.0000
  C   C594      1.0  0.81688  0.30946  0.35828  1.0000
  H   H479      1.0  0.84924  0.25998  0.38452  1.0000
  H   H480      1.0  0.91138  0.14604  0.60511  1.0000
  H   H481      1.0  0.92458  0.20156  0.61876  1.0000
  C   C595      1.0  0.88946  0.16280  0.37823  1.0000
  H   H482      1.0  0.86425  0.23552  0.53627  1.0000
  C   C596      1.0  0.87567  0.27256  0.39152  1.0000
  C   C597      1.0  0.65460  0.14435  0.63572  1.0000
  H   H483      1.0  0.90156  0.23093  0.57701  1.0000
  C   C598      1.0  0.93217  0.32353  0.39219  1.0000
  H   H484      1.0  0.77907  0.03921  0.64794  1.0000
  C   C599      1.0  0.78447  0.25230  0.33652  1.0000
  C   C600      1.0  0.96704  0.17119  0.35017  1.0000
  C   C601      1.0  0.57978  0.07297  0.63819  1.0000
  C   C602      1.0  0.83135  0.06158  0.57882  1.0000
  H   H485      1.0  0.76551  0.22502  0.34010  1.0000
  H   H486      1.0  0.83373  0.03923  0.62517  1.0000
  C   C603      1.0  0.66721  0.17917  0.62687  1.0000
  C   C604      1.0  0.83367  0.32246  0.32737  1.0000
  H   H487      1.0  0.94962  0.35060  0.38582  1.0000
  H   H488      1.0  0.79161  0.42798  0.64800  1.0000
  H   H489      1.0  0.58576  0.09277  0.61922  1.0000
  H   H490      1.0  0.65272  0.09752  0.62108  1.0000
  H   H491      1.0  0.94042  0.08628  0.34313  1.0000
  C   C605      1.0  0.75327  0.01741  0.65071  1.0000
  H   H492      1.0  0.66308  0.19558  0.64296  1.0000
  C   C606      1.0  0.48422  0.27209  0.59471  1.0000
  C   C607      1.0  0.86837  0.44338  0.34403  1.0000
  H   H493      1.0  0.95769  0.18877  0.34788  1.0000
  S   S84       1.0  0.72162  0.04415  0.32777  1.0000
  H   H494      1.0  0.50731  0.28893  0.60752  1.0000
  C   C608      1.0  0.55444  0.03877  0.63280  1.0000
  C   C609      1.0  0.95933  0.13619  0.63561  1.0000
  Fe  Fe43      1.0  0.84647  0.18729  0.65185  1.0000
  H   H495      1.0  0.84014  0.48392  0.62630  1.0000
  Fe  Fe44      1.0  0.77566  0.11882  0.65113  1.0000
  S   S85       1.0  0.74112  0.13817  0.32463  1.0000
  H   H496      1.0  0.91886  0.12651  0.33895  1.0000
  C   C610      1.0  0.98230  0.26559  0.43121  1.0000
  H   H497      1.0  0.85186  0.34984  0.32403  1.0000
  C   C611      1.0  0.89361  0.00443  0.65253  1.0000
  H   H498      1.0  0.71705  0.34096  0.64499  1.0000
  C   C612      1.0  0.48956  0.33629  0.49204  1.0000
  H   H499      1.0  0.72295  0.26079  0.65550  1.0000
  C   C613      1.0  0.76408  0.34173  0.65193  1.0000
  H   H500      1.0  0.60543  0.99267  0.35271  1.0000
  C   C614      1.0  0.54650  0.01290  0.65694  1.0000
  H   H501      1.0  0.90439  0.43003  0.32508  1.0000
  P   P19       1.0  0.51360  0.28038  0.89332  1.0000
  C   C615      1.0  0.64114  0.46956  0.71180  1.0000
  C   C616      1.0  0.61750  0.19969  0.71690  1.0000
  H   H502      1.0  0.85246  0.16083  0.72088  1.0000
  C   C617      1.0  0.56874  0.37021  0.83667  1.0000
  H   H503      1.0  0.78888  0.28733  0.70845  1.0000
  C   C618      1.0  0.59764  0.08147  0.66767  1.0000
  H   H504      1.0  0.88457  0.05738  0.72207  1.0000
  S   S86       1.0  0.79661  0.16685  0.68157  1.0000
  Fe  Fe45      1.0  0.59740  0.28052  0.77935  1.0000
  S   S87       1.0  0.64240  0.29966  0.74355  1.0000
  S   S88       1.0  0.54398  0.23788  0.76322  1.0000
  Fe  Fe46      1.0  0.64475  0.31746  0.83866  1.0000
  S   S89       1.0  0.69257  0.33894  0.80532  1.0000
  S   S90       1.0  0.64552  0.33136  0.89449  1.0000
  Fe  Fe47      1.0  0.66434  0.35138  0.76763  1.0000
  S   S91       1.0  0.68818  0.39652  0.72856  1.0000
  Fe  Fe48      1.0  0.66769  0.28625  0.78294  1.0000
  S   S92       1.0  0.69433  0.25528  0.77529  1.0000
  S   S93       1.0  0.61751  0.33289  0.80155  1.0000
  S   S94       1.0  0.62167  0.26410  0.81825  1.0000
  C   C619      1.0  0.88669  0.04256  0.70243  1.0000
  C   C620      1.0  0.64584  0.32230  0.93840  1.0000
  C   C621      1.0  0.64871  0.29466  0.95065  1.0000
  H   H505      1.0  0.64134  0.36540  0.95314  1.0000
  H   H506      1.0  0.65126  0.27809  0.93341  1.0000
  C   C622      1.0  0.50900  0.23445  0.74070  1.0000
  C   C623      1.0  0.70245  0.12401  0.75195  1.0000
  H   H507      1.0  0.52418  0.28801  0.74198  1.0000
  C   C624      1.0  0.87632  0.45799  0.71433  1.0000
  C   C625      1.0  0.73721  0.22900  0.68283  1.0000
  C   C626      1.0  0.73757  0.21590  0.71437  1.0000
  C   C627      1.0  0.72464  0.22447  0.74228  1.0000
  C   C628      1.0  0.71099  0.24608  0.73916  1.0000
  C   C629      1.0  0.71034  0.25891  0.70759  1.0000
  C   C630      1.0  0.72337  0.25044  0.67969  1.0000
  H   H508      1.0  0.74815  0.19946  0.71731  1.0000
  H   H509      1.0  0.72512  0.21416  0.76649  1.0000
  H   H510      1.0  0.69949  0.27506  0.70463  1.0000
  C   C631      1.0  0.88611  0.01203  0.71053  1.0000
  C   C632      1.0  0.63940  0.44309  0.73182  1.0000
  H   H511      1.0  0.63323  0.13260  0.74663  1.0000
  C   C633      1.0  0.78800  0.34475  0.67467  1.0000
  H   H512      1.0  0.81572  0.25469  0.69026  1.0000
  H   H513      1.0  0.93059  0.13712  0.71388  1.0000
  C   C634      1.0  0.57693  0.34154  0.89502  1.0000
  C   C635      1.0  0.72234  0.46373  0.75221  1.0000
  C   C636      1.0  0.71185  0.44270  0.72480  1.0000
  C   C637      1.0  0.76044  0.31343  0.83981  1.0000
  H   H514      1.0  0.78247  0.05115  0.72140  1.0000
  H   H515      1.0  0.71633  0.45199  0.77688  1.0000
  H   H516      1.0  0.88014  0.47543  0.69373  1.0000
  H   H517      1.0  0.71933  0.12359  0.77008  1.0000
  S   S95       1.0  0.73462  0.06447  0.67073  1.0000
  C   C638      1.0  0.60279  0.37419  0.88313  1.0000
  H   H518      1.0  0.56118  0.11533  0.67069  1.0000
  H   H519      1.0  0.58122  0.33047  0.91703  1.0000
  C   C639      1.0  0.59873  0.38854  0.85398  1.0000
  C   C640      1.0  0.72008  0.45870  0.69292  1.0000
  H   H520      1.0  0.62653  0.38775  0.89598  1.0000
  C   C641      1.0  0.50499  0.26268  0.73423  1.0000
  H   H521      1.0  0.50939  0.22693  0.84929  1.0000
  C   C642      1.0  0.68597  0.12061  0.69503  1.0000
  H   H522      1.0  0.56588  0.38100  0.81366  1.0000
  C   C643      1.0  0.86611  0.29362  0.70424  1.0000
  C   C644      1.0  0.54278  0.33753  0.84850  1.0000
  H   H523      1.0  0.65829  0.18994  0.70905  1.0000
  C   C645      1.0  0.83560  0.33100  0.72449  1.0000
  H   H524      1.0  0.53453  0.32586  0.94992  1.0000
  H   H525      1.0  0.70930  0.34959  0.70402  1.0000
  H   H526      1.0  0.71233  0.44280  0.67149  1.0000
  H   H527      1.0  0.53651  0.14916  0.69135  1.0000
  C   C646      1.0  0.70725  0.11949  0.71866  1.0000
  H   H528      1.0  0.80985  0.34344  0.66594  1.0000
  C   C647      1.0  0.78363  0.30468  0.78902  1.0000
  C   C648      1.0  0.76677  0.29228  0.81993  1.0000
  H   H529      1.0  0.79538  0.38556  0.78967  1.0000
  C   C649      1.0  0.64324  0.34371  0.96184  1.0000
  H   H530      1.0  0.72750  0.11505  0.71104  1.0000
  H   H531      1.0  0.67217  0.13260  0.78759  1.0000
  C   C650      1.0  0.65921  0.12574  0.70460  1.0000
  C   C651      1.0  0.67586  0.12898  0.76178  1.0000
  C   C652      1.0  0.84660  0.39998  0.73936  1.0000
  C   C653      1.0  0.89059  0.44802  0.76905  1.0000
  C   C654      1.0  0.54660  0.32292  0.87792  1.0000
  H   H532      1.0  0.79216  0.47381  0.73996  1.0000
  C   C655      1.0  0.53365  0.25760  0.90888  1.0000
  C   C656      1.0  0.65403  0.12937  0.73831  1.0000
  H   H533      1.0  0.78714  0.28735  0.77371  1.0000
  H   H534      1.0  0.75735  0.26573  0.82783  1.0000
  H   H535      1.0  0.74646  0.30339  0.86330  1.0000
  C   C657      1.0  0.89542  0.47065  0.74260  1.0000
  C   C658      1.0  0.86642  0.41277  0.76739  1.0000
  C   C659      1.0  0.75498  0.35096  0.71870  1.0000
  S   S96       1.0  0.89819  0.22073  0.67599  1.0000
  C   C660      1.0  0.56661  0.22439  0.93388  1.0000
  H   H536      1.0  0.52841  0.20495  0.97333  1.0000
  H   H537      1.0  0.49447  0.03857  0.66865  1.0000
  C   C661      1.0  0.58319  0.18823  0.71198  1.0000
  C   C662      1.0  0.87009  0.13151  0.69491  1.0000
  H   H538      1.0  0.61916  0.41349  0.84450  1.0000
  P   P20       1.0  0.63056  0.12563  0.67430  1.0000
  C   C663      1.0  0.63170  0.18079  0.70509  1.0000
  C   C664      1.0  0.96871  0.25674  0.67900  1.0000
  C   C665      1.0  0.85210  0.42278  0.71261  1.0000
  C   C666      1.0  0.83116  0.06955  0.69613  1.0000
  H   H539      1.0  0.60149  0.24792  0.89175  1.0000
  C   C667      1.0  0.80285  0.47613  0.71519  1.0000
  H   H540      1.0  0.88659  0.36969  0.73842  1.0000
  C   C668      1.0  0.73135  0.34834  0.69580  1.0000
  C   C669      1.0  0.58913  0.05544  0.69203  1.0000
  C   C670      1.0  0.93593  0.12756  0.66241  1.0000
  H   H541      1.0  0.63542  0.41961  0.72089  1.0000
  H   H542      1.0  0.82425  0.04399  0.68852  1.0000
  C   C671      1.0  0.94770  0.14416  0.69240  1.0000
  C   C672      1.0  0.53770  0.22047  0.95059  1.0000
  H   H543      1.0  0.96466  0.26734  0.70116  1.0000
  H   H544      1.0  0.63312  0.22317  0.73005  1.0000
  H   H545      1.0  0.88324  0.00330  0.73618  1.0000
  C   C673      1.0  0.52115  0.23688  0.93813  1.0000
  C   C674      1.0  0.77122  0.34716  0.82894  1.0000
  P   P21       1.0  0.81527  0.35446  0.73744  1.0000
  C   C675      1.0  0.78808  0.35968  0.79805  1.0000
  C   C676      1.0  0.50721  0.30833  0.95208  1.0000
  C   C677      1.0  0.57873  0.24436  0.90448  1.0000
  C   C678      1.0  0.84663  0.13524  0.71438  1.0000
  C   C679      1.0  0.56240  0.26095  0.89201  1.0000
  H   H546      1.0  0.76564  0.36326  0.84411  1.0000
  H   H547      1.0  0.63750  0.46567  0.68557  1.0000
  H   H548      1.0  0.83761  0.41355  0.69049  1.0000
  C   C680      1.0  0.88994  0.05378  0.66923  1.0000
  C   C681      1.0  0.81598  0.29839  0.71101  1.0000
  C   C682      1.0  0.78353  0.34915  0.70833  1.0000
  C   C683      1.0  0.83114  0.27982  0.70084  1.0000
  C   C684      1.0  0.61171  0.15005  0.68858  1.0000
  C   C685      1.0  0.86282  0.09857  0.68617  1.0000
  C   C686      1.0  0.81519  0.10626  0.72417  1.0000
  H   H549      1.0  0.79645  0.10931  0.73807  1.0000
  C   C687      1.0  0.79446  0.33852  0.77782  1.0000
  H   H550      1.0  0.91303  0.33660  0.72049  1.0000
  C   C688      1.0  0.64385  0.44716  0.76580  1.0000
  H   H551      1.0  0.89344  0.15448  0.68602  1.0000
  H   H552      1.0  0.86305  0.39550  0.78803  1.0000
  C   C689      1.0  0.88591  0.32605  0.71782  1.0000
  H   H553      1.0  0.57222  0.20294  0.72126  1.0000
  H   H554      1.0  0.75057  0.35418  0.74438  1.0000
  H   H555      1.0  0.90551  0.45778  0.79093  1.0000
  C   C690      1.0  0.80742  0.07345  0.71494  1.0000
  H   H556      1.0  0.64347  0.42689  0.78093  1.0000
  C   C691      1.0  0.78881  0.44748  0.69525  1.0000
  H   H557      1.0  0.87779  0.27908  0.69636  1.0000
  H   H558      1.0  0.65333  0.48086  0.80624  1.0000
  H   H559      1.0  0.57990  0.21231  0.94382  1.0000
  C   C692      1.0  0.87077  0.34472  0.72794  1.0000
  C   C693      1.0  0.56309  0.15784  0.69520  1.0000
  H   H560      1.0  0.57265  0.27689  0.86948  1.0000
  H   H561      1.0  0.76712  0.42315  0.70456  1.0000
  H   H562      1.0  0.52024  0.32371  0.83417  1.0000
  H   H563      1.0  0.49888  0.23357  0.95152  1.0000
  H   H564      1.0  0.55777  0.00117  0.70520  1.0000
  C   C694      1.0  0.56374  0.02127  0.68657  1.0000
  H   H565      1.0  0.60235  0.06131  0.71505  1.0000
  C   C695      1.0  0.57723  0.13876  0.68352  1.0000
  H   H566      1.0  0.69061  0.11729  0.66945  1.0000
  C   C696      1.0  0.94029  0.23309  0.66122  1.0000
  C   C697      1.0  0.73579  0.34358  0.66249  1.0000
  H   H567      1.0  0.67247  0.99815  0.66919  1.0000
  C   C698      1.0  0.69324  0.99423  0.66254  1.0000
  C   C699      1.0  0.48576  0.25697  0.86021  1.0000
  C   C700      1.0  0.48997  0.23270  0.84291  1.0000
  H   H568      1.0  0.52357  0.46986  0.68565  1.0000
  C   C701      1.0  0.48992  0.28412  0.92777  1.0000
  C   C702      1.0  0.48937  0.30970  0.97997  1.0000
  P   P22       1.0  0.89180  0.09371  0.65902  1.0000
  C   C703      1.0  0.72677  0.02299  0.65947  1.0000
  C   C704      1.0  0.98182  0.17046  0.69487  1.0000
  C   C705      1.0  0.64888  0.28863  0.98525  1.0000
  C   C706      1.0  0.88938  0.99286  0.68558  1.0000
  H   H569      1.0  0.58209  0.48080  0.67732  1.0000
  H   H570      1.0  0.48586  0.17950  0.73562  1.0000
  C   C707      1.0  0.64963  0.47762  0.77992  1.0000
  C   C708      1.0  0.80244  0.45038  0.66329  1.0000
  H   H571      1.0  0.68058  0.54523  0.18053  1.0000
  C   C709      1.0  0.95801  0.71007  0.29076  1.0000
  C   C710      1.0  0.63863  0.58399  0.29318  1.0000
  H   H572      1.0  0.80768  0.53285  0.25423  1.0000
  H   H573      1.0  0.60440  0.83172  0.18785  1.0000
  S   S97       1.0  0.74920  0.54032  0.28262  1.0000
  S   S98       1.0  0.81642  0.64690  0.27209  1.0000
  Fe  Fe49      1.0  0.65858  0.77232  0.28813  1.0000
  C   C711      1.0  0.88865  0.60015  0.24017  1.0000
  Fe  Fe50      1.0  0.66479  0.84389  0.29388  1.0000
  S   S99       1.0  0.69914  0.90065  0.27611  1.0000
  C   C712      1.0  0.55225  0.84519  0.23845  1.0000
  S   S100      1.0  0.53528  0.75146  0.29112  1.0000
  S   S101      1.0  0.63689  0.79967  0.25905  1.0000
  S   S102      1.0  0.67740  0.73857  0.26512  1.0000
  C   C713      1.0  0.51567  0.74709  0.22517  1.0000
  H   H574      1.0  0.48649  0.63993  0.14869  1.0000
  H   H575      1.0  0.54241  0.75868  0.21811  1.0000
  Fe  Fe51      1.0  0.86469  0.65820  0.29787  1.0000
  C   C714      1.0  0.70511  0.94012  0.29150  1.0000
  C   C715      1.0  0.90615  0.58797  0.25843  1.0000
  C   C716      1.0  0.51846  0.89322  0.25858  1.0000
  H   H576      1.0  0.64636  0.86832  0.22881  1.0000
  C   C717      1.0  0.73850  0.51149  0.24918  1.0000
  C   C718      1.0  0.52514  0.67973  0.21884  1.0000
  C   C719      1.0  0.75357  0.52254  0.21737  1.0000
  Fe  Fe52      1.0  0.79125  0.59435  0.29852  1.0000
  H   H577      1.0  0.77262  0.54941  0.21242  1.0000
  H   H578      1.0  0.49928  0.74221  0.17479  1.0000
  C   C720      1.0  0.48910  0.64665  0.17444  1.0000
  C   C721      1.0  0.57610  0.86664  0.26136  1.0000
  C   C722      1.0  0.59218  0.92892  0.30032  1.0000
  C   C723      1.0  0.88822  0.55542  0.27463  1.0000
  Fe  Fe53      1.0  0.59366  0.77756  0.29754  1.0000
  P   P23       1.0  0.56333  0.88317  0.29550  1.0000
  C   C724      1.0  0.73775  0.69730  0.27993  1.0000
  H   H579      1.0  0.74676  0.97136  0.25658  1.0000
  H   H580      1.0  0.62166  0.93818  0.25436  1.0000
  C   C725      1.0  0.60984  0.87402  0.25818  1.0000
  C   C726      1.0  0.74381  0.49876  0.19175  1.0000
  H   H581      1.0  0.54399  0.81644  0.19433  1.0000
  C   C727      1.0  0.75718  0.66481  0.19185  1.0000
  C   C728      1.0  0.78033  0.65339  0.19157  1.0000
  C   C729      1.0  0.77014  0.62030  0.20408  1.0000
  C   C730      1.0  0.73696  0.59875  0.21721  1.0000
  C   C731      1.0  0.71318  0.60961  0.21666  1.0000
  C   C732      1.0  0.72372  0.64303  0.20426  1.0000
  P   P24       1.0  0.67053  0.58198  0.23439  1.0000
  C   C733      1.0  0.64141  0.59082  0.21286  1.0000
  C   C734      1.0  0.52129  0.67093  0.18563  1.0000
  S   S103      1.0  0.91803  0.68143  0.27295  1.0000
  H   H582      1.0  0.62834  0.88924  0.27630  1.0000
  C   C735      1.0  0.71431  0.70561  0.26683  1.0000
  C   C736      1.0  0.85318  0.58002  0.23840  1.0000
  C   C737      1.0  0.56255  0.83304  0.21182  1.0000
  C   C738      1.0  0.62191  0.57009  0.18716  1.0000
  C   C739      1.0  0.59963  0.57744  0.17073  1.0000
  C   C740      1.0  0.59673  0.60555  0.17975  1.0000
  C   C741      1.0  0.61608  0.62633  0.20524  1.0000
  C   C742      1.0  0.63824  0.61898  0.22177  1.0000
  C   C743      1.0  0.66958  0.59173  0.27733  1.0000
  C   C744      1.0  0.83523  0.54760  0.25465  1.0000
  P   P25       1.0  0.82849  0.49440  0.29568  1.0000
  H   H583      1.0  0.65302  0.63543  0.24147  1.0000
  C   C745      1.0  0.70873  0.73043  0.28139  1.0000
  C   C746      1.0  0.69986  0.60890  0.29464  1.0000
  H   H584      1.0  0.76529  0.69077  0.18285  1.0000
  H   H585      1.0  0.80637  0.67041  0.18227  1.0000
  H   H586      1.0  0.78828  0.61168  0.20454  1.0000
  H   H587      1.0  0.61409  0.64831  0.21222  1.0000
  H   H588      1.0  0.70646  0.65267  0.20457  1.0000
  H   H589      1.0  0.52557  0.83725  0.24125  1.0000
  H   H590      1.0  0.90246  0.62570  0.22827  1.0000
  H   H591      1.0  0.73007  0.57379  0.22811  1.0000
  H   H592      1.0  0.54324  0.68323  0.16856  1.0000
  H   H593      1.0  0.70047  0.69286  0.24523  1.0000
  H   H594      1.0  0.57956  0.61129  0.16696  1.0000
  C   C747      1.0  0.72778  0.74765  0.30861  1.0000
  C   C748      1.0  0.85261  0.53477  0.27234  1.0000
  H   H595      1.0  0.61490  0.57050  0.28035  1.0000
  H   H596      1.0  0.63445  0.52022  0.27922  1.0000
  H   H597      1.0  0.58464  0.56134  0.15093  1.0000
  H   H598      1.0  0.72419  0.76715  0.31971  1.0000
  H   H599      1.0  0.72409  0.61501  0.28325  1.0000
  C   C749      1.0  0.59648  0.84152  0.20821  1.0000
  C   C750      1.0  0.65825  0.53729  0.23014  1.0000
  C   C751      1.0  0.75601  0.71380  0.30783  1.0000
  H   H600      1.0  0.62374  0.54825  0.17969  1.0000
  C   C752      1.0  0.50561  0.74110  0.25875  1.0000
  C   C753      1.0  0.66673  0.52678  0.20078  1.0000
  H   H601      1.0  0.49986  0.67149  0.26653  1.0000
  H   H602      1.0  0.83948  0.59000  0.22527  1.0000
  C   C754      1.0  0.73098  0.97166  0.27674  1.0000
  H   H603      1.0  0.75558  0.50774  0.16727  1.0000
  C   C755      1.0  0.62010  0.86204  0.23137  1.0000
  H   H604      1.0  0.53984  0.90755  0.24107  1.0000
  H   H605      1.0  0.93351  0.60430  0.26068  1.0000
  C   C756      1.0  0.63918  0.98483  0.28011  1.0000
  S   S104      1.0  0.68970  0.81810  0.31907  1.0000
  H   H606      1.0  0.64271  0.67909  0.31595  1.0000
  C   C757      1.0  0.61781  0.94933  0.27619  1.0000
  C   C758      1.0  0.75121  0.73938  0.32169  1.0000
  H   H607      1.0  0.74179  0.67830  0.26839  1.0000
  C   C759      1.0  0.52240  0.87838  0.28768  1.0000
  C   C760      1.0  0.68485  0.94100  0.31748  1.0000
  C   C761      1.0  0.65789  0.49243  0.19755  1.0000
  H   H608      1.0  0.90203  0.54694  0.28958  1.0000
  H   H609      1.0  0.54988  0.69909  0.22751  1.0000
  C   C762      1.0  0.49446  0.86032  0.31023  1.0000
  C   C763      1.0  0.49686  0.66413  0.24090  1.0000
  S   S105      1.0  0.84029  0.60450  0.32082  1.0000
  C   C764      1.0  0.96016  0.72524  0.32113  1.0000
  H   H610      1.0  0.48703  0.77015  0.02562  1.0000
  C   C765      1.0  0.64080  0.51283  0.25614  1.0000
  C   C766      1.0  0.48674  0.88903  0.25156  1.0000
  H   H611      1.0  0.48368  0.89996  0.22875  1.0000
  H   H612      1.0  0.52280  0.80942  0.31108  1.0000
  Fe  Fe54      1.0  0.80300  0.66521  0.31845  1.0000
  C   C767      1.0  0.49104  0.73757  0.20060  1.0000
  H   H613      1.0  0.76275  0.48828  0.31270  1.0000
  S   S106      1.0  0.77564  0.61237  0.34385  1.0000
  C   C768      1.0  0.92502  0.53860  0.62349  1.0000
  Fe  Fe55      1.0  0.82645  0.62636  0.36364  1.0000
  S   S107      1.0  0.84248  0.62052  0.41492  1.0000
  H   H614      1.0  0.87413  0.79962  0.65720  1.0000
  Fe  Fe56      1.0  0.61753  0.81856  0.58405  1.0000
  S   S108      1.0  0.67143  0.83512  0.59582  1.0000
  S   S109      1.0  0.59999  0.82536  0.53393  1.0000
  C   C769      1.0  0.94907  0.64669  0.36522  1.0000
  C   C770      1.0  0.76865  0.79415  0.50154  1.0000
  Fe  Fe57      1.0  0.64384  0.79466  0.35399  1.0000
  S   S110      1.0  0.65840  0.79110  0.40649  1.0000
  H   H615      1.0  0.85479  0.83847  0.63621  1.0000
  Fe  Fe58      1.0  0.78105  0.61344  0.59396  1.0000
  S   S111      1.0  0.75333  0.58771  0.54777  1.0000
  C   C771      1.0  0.57286  0.90052  0.45738  1.0000
  C   C772      1.0  0.61693  0.81675  0.49839  1.0000
  C   C773      1.0  0.60339  0.81620  0.46740  1.0000
  C   C774      1.0  0.61634  0.80898  0.43881  1.0000
  C   C775      1.0  0.64280  0.80231  0.44115  1.0000
  C   C776      1.0  0.65679  0.80361  0.47194  1.0000
  C   C777      1.0  0.64380  0.81063  0.50054  1.0000
  H   H616      1.0  0.58246  0.82072  0.46563  1.0000
  H   H617      1.0  0.60573  0.80804  0.41502  1.0000
  H   H618      1.0  0.67750  0.79878  0.47367  1.0000
  H   H619      1.0  0.65434  0.81110  0.52430  1.0000
  C   C778      1.0  0.60370  0.66512  0.35415  1.0000
  H   H620      1.0  0.52720  0.98631  0.65259  1.0000
  C   C779      1.0  0.81721  0.61273  0.45121  1.0000
  C   C780      1.0  0.78163  0.59543  0.45066  1.0000
  C   C781      1.0  0.76217  0.58779  0.48044  1.0000
  C   C782      1.0  0.77828  0.59805  0.51077  1.0000
  C   C783      1.0  0.81390  0.61590  0.51120  1.0000
  C   C784      1.0  0.83323  0.62255  0.48157  1.0000
  H   H621      1.0  0.76924  0.58700  0.42739  1.0000
  H   H622      1.0  0.73459  0.57371  0.48003  1.0000
  H   H623      1.0  0.82652  0.62400  0.53446  1.0000
  H   H624      1.0  0.86076  0.63557  0.48215  1.0000
  C   C785      1.0  0.68151  0.71048  0.46751  1.0000
  C   C786      1.0  0.71948  0.61899  0.42396  1.0000
  H   H625      1.0  0.89975  0.61509  0.38967  1.0000
  C   C787      1.0  0.64440  0.93311  0.45815  1.0000
  C   C788      1.0  0.62900  0.94572  0.43698  1.0000
  H   H626      1.0  0.58173  0.93940  0.42029  1.0000
  Fe  Fe59      1.0  0.79028  0.66789  0.64245  1.0000
  C   C789      1.0  0.58792  0.88754  0.47818  1.0000
  C   C790      1.0  0.62345  0.90347  0.47831  1.0000
  H   H627      1.0  0.63647  0.54056  0.57930  1.0000
  C   C791      1.0  0.97624  0.71093  0.61171  1.0000
  C   C792      1.0  0.73313  0.91806  0.52467  1.0000
  H   H628      1.0  0.68375  0.53062  0.56543  1.0000
  H   H629      1.0  0.54528  0.88791  0.45718  1.0000
  C   C793      1.0  0.68482  0.64084  0.44581  1.0000
  C   C794      1.0  0.85215  0.83119  0.48942  1.0000
  H   H630      1.0  0.72314  0.63415  0.33917  1.0000
  H   H631      1.0  0.57217  0.86485  0.49414  1.0000
  H   H632      1.0  0.63432  0.89215  0.49399  1.0000
  H   H633      1.0  0.71538  0.52259  0.61011  1.0000
  C   C795      1.0  0.85160  0.81732  0.62150  1.0000
  C   C796      1.0  0.59339  0.92951  0.43666  1.0000
  H   H634      1.0  0.82796  0.82879  0.58208  1.0000
  H   H635      1.0  0.60121  0.89985  0.35802  1.0000
  H   H636      1.0  0.86274  0.76314  0.50593  1.0000
  H   H637      1.0  0.59408  0.86397  0.40766  1.0000
  C   C797      1.0  0.86404  0.58463  0.54963  1.0000
  H   H638      1.0  0.84202  0.55129  0.40184  1.0000
  H   H639      1.0  0.76732  0.71437  0.57570  1.0000
  P   P26       1.0  0.69195  0.70360  0.42621  1.0000
  C   C798      1.0  0.73033  0.67502  0.40505  1.0000
  H   H640      1.0  0.65752  0.72383  0.55642  1.0000
  C   C799      1.0  0.73107  0.95709  0.40282  1.0000
  P   P27       1.0  0.97547  0.71632  0.45525  1.0000
  C   C800      1.0  0.83723  0.55494  0.56554  1.0000
  C   C801      1.0  0.77146  0.68247  0.48840  1.0000
  C   C802      1.0  0.72570  0.75911  0.64789  1.0000
  H   H641      1.0  0.81937  0.52296  0.60977  1.0000
  C   C803      1.0  0.76064  0.78645  0.56109  1.0000
  C   C804      1.0  0.78716  0.78923  0.40935  1.0000
  C   C805      1.0  0.78038  0.81115  0.39052  1.0000
  C   C806      1.0  0.74685  0.80038  0.38253  1.0000
  C   C807      1.0  0.72015  0.76751  0.39280  1.0000
  C   C808      1.0  0.89932  0.83582  0.45639  1.0000
  S   S112      1.0  0.81404  0.59862  0.62126  1.0000
  H   H642      1.0  0.74137  0.81727  0.36801  1.0000
  H   H643      1.0  0.69442  0.75949  0.38594  1.0000
  H   H644      1.0  0.86078  0.59265  0.52529  1.0000
  C   C809      1.0  0.63707  0.67736  0.34235  1.0000
  H   H645      1.0  0.91997  0.84970  0.43806  1.0000
  H   H646      1.0  0.83996  0.74097  0.56975  1.0000
  C   C810      1.0  0.84290  0.76227  0.58399  1.0000
  H   H647      1.0  0.86702  0.75129  0.62362  1.0000
  H   H648      1.0  0.81302  0.54039  0.55362  1.0000
  C   C811      1.0  0.93692  0.71421  0.47081  1.0000
  H   H649      1.0  0.67168  0.95323  0.52755  1.0000
  C   C812      1.0  0.69382  0.52549  0.61627  1.0000
  H   H650      1.0  0.86125  0.52948  0.35570  1.0000
  H   H651      1.0  0.91191  0.53620  0.60082  1.0000
  C   C813      1.0  0.71316  0.95455  0.65117  1.0000
  C   C814      1.0  0.92519  0.63748  0.39137  1.0000
  C   C815      1.0  0.93038  0.71358  0.50505  1.0000
  C   C816      1.0  0.89950  0.70944  0.51700  1.0000
  C   C817      1.0  0.87501  0.70623  0.49494  1.0000
  C   C818      1.0  0.88158  0.70760  0.46085  1.0000
  C   C819      1.0  0.91238  0.71159  0.44880  1.0000
  P   P28       1.0  0.69042  0.95301  0.45778  1.0000
  C   C820      1.0  0.86670  0.78685  0.49449  1.0000
  H   H652      1.0  0.94862  0.71554  0.52282  1.0000
  S   S113      1.0  0.78463  0.70336  0.32693  1.0000
  C   C821      1.0  0.96571  0.68820  0.42068  1.0000
  C   C822      1.0  0.83605  0.81149  0.59098  1.0000
  C   C823      1.0  0.55378  0.81700  0.38794  1.0000
  C   C824      1.0  0.84109  0.54496  0.59736  1.0000
  C   C825      1.0  0.71991  0.92120  0.55500  1.0000
  H   H653      1.0  0.58344  0.65753  0.33688  1.0000
  C   C826      1.0  0.98158  0.67599  0.36709  1.0000
  C   C827      1.0  0.86267  0.79557  0.63329  1.0000
  H   H654      1.0  0.55081  0.80117  0.40968  1.0000
  H   H655      1.0  0.62040  0.54192  0.63762  1.0000
  H   H656      1.0  0.91430  0.65054  0.43883  1.0000
  C   C828      1.0  0.68911  0.94374  0.52643  1.0000
  H   H657      1.0  0.89424  0.70778  0.54350  1.0000
  H   H658      1.0  0.85052  0.70150  0.50431  1.0000
  H   H659      1.0  0.86220  0.70399  0.44370  1.0000
  H   H660      1.0  0.91651  0.71150  0.42231  1.0000
  C   C829      1.0  0.69789  0.93398  0.55587  1.0000
  H   H661      1.0  0.77308  0.67329  0.46431  1.0000
  C   C830      1.0  0.75163  0.65880  0.51394  1.0000
  C   C831      1.0  0.69376  0.70419  0.62196  1.0000
  H   H662      1.0  0.97694  0.62739  0.52724  1.0000
  H   H663      1.0  0.75944  0.65272  0.38843  1.0000
  C   C832      1.0  0.70248  0.94094  0.49580  1.0000
  S   S114      1.0  0.60795  0.84325  0.62746  1.0000
  C   C833      1.0  0.83071  0.78328  0.57246  1.0000
  C   C834      1.0  0.57789  0.85243  0.38686  1.0000
  H   H664      1.0  0.61682  0.67186  0.43661  1.0000
  H   H665      1.0  0.67133  0.68556  0.60935  1.0000
  C   C835      1.0  0.68963  0.88713  0.38945  1.0000
  H   H666      1.0  0.78378  0.54179  0.40346  1.0000
  H   H667      1.0  0.65930  0.88362  0.43212  1.0000
  C   C836      1.0  0.89457  0.60469  0.56565  1.0000
  C   C837      1.0  0.59661  0.66312  0.38819  1.0000
  H   H668      1.0  0.63530  0.73934  0.50812  1.0000
  C   C838      1.0  0.71947  0.69670  0.62882  1.0000
  C   C839      1.0  0.76034  0.75661  0.42027  1.0000
  C   C840      1.0  0.73855  0.64927  0.40450  1.0000
  C   C841      1.0  0.73556  0.79535  0.55986  1.0000
  H   H669      1.0  0.65183  0.73280  0.45144  1.0000
  C   C842      1.0  0.62302  0.67406  0.41041  1.0000
  H   H670      1.0  0.80105  0.83638  0.38189  1.0000
  C   C843      1.0  0.72671  0.74529  0.41156  1.0000
  C   C844      1.0  0.60873  0.98048  0.33135  1.0000
  C   C845      1.0  0.67609  0.53024  0.59106  1.0000
  C   C846      1.0  0.81268  0.50520  0.33187  1.0000
  H   H671      1.0  0.76580  0.74011  0.43526  1.0000
  H   H672      1.0  0.66866  0.62142  0.36674  1.0000
  C   C847      1.0  0.65687  0.68788  0.39857  1.0000
  S   S115      1.0  0.81843  0.67035  0.59510  1.0000
  C   C848      1.0  0.85868  0.76831  0.61435  1.0000
  H   H673      1.0  0.92221  0.61104  0.60962  1.0000
  H   H674      1.0  0.74977  0.90763  0.52407  1.0000
  H   H675      1.0  0.81318  0.79748  0.41539  1.0000
  H   H676      1.0  0.76554  0.75275  0.34290  1.0000
  C   C849      1.0  0.83514  0.52369  0.35692  1.0000
  C   C850      1.0  0.87215  0.56439  0.61321  1.0000
  C   C851      1.0  0.75026  0.67038  0.54536  1.0000
  C   C852      1.0  0.64945  0.53585  0.59892  1.0000
  H   H677      1.0  0.88388  0.87351  0.45499  1.0000
  C   C853      1.0  0.65187  0.72902  0.50440  1.0000
  C   C854      1.0  0.66098  0.72487  0.47237  1.0000
  H   H678      1.0  0.70726  0.81005  0.52875  1.0000
  C   C855      1.0  0.69665  0.73540  0.63139  1.0000
  H   H679      1.0  0.73758  0.63141  0.50950  1.0000
  C   C856      1.0  0.66345  0.68836  0.36450  1.0000
  H   H680      1.0  0.73581  0.80785  0.47665  1.0000
  C   C857      1.0  0.74326  0.80258  0.50031  1.0000
  H   H681      1.0  0.74428  0.69738  0.38835  1.0000
  C   C858      1.0  0.70406  0.67145  0.42647  1.0000
  H   H682      1.0  0.96994  0.77417  0.42822  1.0000
  C   C859      1.0  0.70163  0.93600  0.42286  1.0000
  H   H683      1.0  0.57072  0.65363  0.39732  1.0000
  C   C860      1.0  0.76842  0.70573  0.55117  1.0000
  C   C861      1.0  0.72706  0.80368  0.52955  1.0000
  H   H684      1.0  0.72217  0.79517  0.58239  1.0000
  H   H685      1.0  0.68911  0.69755  0.35504  1.0000
  C   C862      1.0  0.53425  0.80167  0.36047  1.0000
  C   C863      1.0  0.69522  0.70315  0.49507  1.0000
  C   C864      1.0  0.69266  0.61478  0.44468  1.0000
  S   S116      1.0  0.59629  0.76734  0.61063  1.0000
  H   H686      1.0  0.90954  0.79468  0.46406  1.0000
  C   C865      1.0  0.66444  0.72030  0.53169  1.0000
  C   C866      1.0  0.68660  0.70797  0.52705  1.0000
  H   H687      1.0  0.71265  0.69389  0.49199  1.0000
  H   H688      1.0  0.76580  0.77871  0.58470  1.0000
  S   S117      1.0  0.75059  0.61153  0.63940  1.0000
  H   H689      1.0  0.66357  0.63701  0.46153  1.0000
  S   S118      1.0  0.62070  0.82329  0.33092  1.0000
  C   C867      1.0  0.94591  0.70336  0.62890  1.0000
  H   H690      1.0  0.80396  0.73575  0.47368  1.0000
  C   C868      1.0  0.71817  0.90851  0.36888  1.0000
  S   S119      1.0  0.90621  0.67837  0.60922  1.0000
  S   S120      1.0  0.66312  0.74303  0.62186  1.0000
  H   H691      1.0  0.72523  0.59864  0.42268  1.0000
  H   H692      1.0  0.69721  0.70238  0.54829  1.0000
  Fe  Fe60      1.0  0.66133  0.85783  0.64087  1.0000
  C   C869      1.0  0.89340  0.80481  0.47094  1.0000
  Fe  Fe61      1.0  0.64972  0.78553  0.62647  1.0000
  H   H693      1.0  0.67786  0.59123  0.45971  1.0000
  H   H694      1.0  0.73556  0.65185  0.56536  1.0000
  H   H695      1.0  0.78058  0.79296  0.47872  1.0000
  C   C870      1.0  0.77846  0.78729  0.53203  1.0000
  C   C871      1.0  0.93351  0.65792  0.41913  1.0000
  H   H696      1.0  0.67376  0.85997  0.38441  1.0000
  C   C872      1.0  0.84523  0.79935  0.50317  1.0000
  P   P29       1.0  0.81048  0.77525  0.53316  1.0000
  H   H697      1.0  0.68736  0.93593  0.57947  1.0000
  C   C873      1.0  0.78932  0.71786  0.49400  1.0000
  C   C874      1.0  0.68141  0.90073  0.41637  1.0000
  H   H698      1.0  0.72391  0.89810  0.34743  1.0000
  Fe  Fe62      1.0  0.85007  0.65599  0.62604  1.0000
  H   H699      1.0  0.51674  0.77394  0.36057  1.0000
  C   C875      1.0  0.78818  0.72970  0.52556  1.0000
  H   H700      1.0  0.95753  0.64736  0.47996  1.0000
  H   H701      1.0  0.76078  0.96006  0.35932  1.0000
  H   H702      1.0  0.71667  0.67248  0.62161  1.0000
  C   C876      1.0  0.79154  0.53096  0.38388  1.0000
  C   C877      1.0  0.87889  0.84915  0.46584  1.0000
  H   H703      1.0  0.83718  0.84237  0.49699  1.0000
  C   C878      1.0  0.95248  0.53313  0.62305  1.0000
  C   C879      1.0  0.76926  0.51309  0.35877  1.0000
  C   C880      1.0  0.69059  0.97300  0.32847  1.0000
  H   H704      1.0  0.67453  0.97323  0.34833  1.0000
  H   H705      1.0  0.91465  0.62877  0.55414  1.0000
  C   C881      1.0  0.73895  0.94345  0.37564  1.0000
  H   H706      1.0  0.94212  0.63166  0.34314  1.0000
  H   H707      1.0  0.73491  0.92510  0.47194  1.0000
  C   C882      1.0  0.72455  0.92795  0.49515  1.0000
  C   C883      1.0  0.89866  0.59461  0.59727  1.0000
  H   H708      1.0  0.72638  0.91343  0.57793  1.0000
  S   S121      1.0  0.85313  0.68032  0.34173  1.0000
  C   C884      1.0  0.64029  0.53636  0.63203  1.0000
  C   C885      1.0  0.82445  0.53623  0.38298  1.0000
  C   C886      1.0  0.58169  0.87274  0.35865  1.0000
  C   C887      1.0  0.97725  0.66624  0.49516  1.0000
  C   C888      1.0  0.74850  0.72035  0.64539  1.0000
  C   C889      1.0  0.74660  0.98341  0.64729  1.0000
  C   C890      1.0  0.77981  0.50040  0.33277  1.0000
  H   H709      1.0  0.96055  0.52691  0.60018  1.0000
  H   H710      1.0  0.97483  0.70165  0.58705  1.0000
  H   H711      1.0  0.74426  0.51033  0.35858  1.0000
  C   C891      1.0  0.58728  0.94496  0.32750  1.0000
  H   H712      1.0  0.74779  0.98412  0.40774  1.0000
  S   S122      1.0  0.70696  0.91208  0.65079  1.0000
  H   H713      1.0  0.72834  0.78319  0.65534  1.0000
  H   H714      1.0  0.64423  0.96783  0.42046  1.0000
  H   H715      1.0  0.93702  0.71956  0.33456  1.0000
  P   P30       1.0  0.87831  0.55247  0.65424  1.0000
  C   C892      1.0  0.75141  0.75158  0.65483  1.0000
  H   H716      1.0  0.76758  0.97939  0.64212  1.0000
  C   C893      1.0  0.91471  0.54706  0.65298  1.0000
  C   C894      1.0  0.68471  0.52600  0.64937  1.0000
  H   H717      1.0  0.66483  0.91708  0.32912  1.0000
  S   S123      1.0  0.78134  0.71192  0.65567  1.0000
  C   C895      1.0  0.63827  0.59452  0.32540  1.0000
  C   C896      1.0  0.53788  0.82187  0.33234  1.0000
  H   H718      1.0  0.49685  0.84924  0.33321  1.0000
  H   H719      1.0  0.56697  0.92990  0.34581  1.0000
  C   C897      1.0  0.56088  0.85770  0.33156  1.0000
  Fe  Fe63      1.0  0.58984  0.79242  0.65541  1.0000
  C   C898      1.0  0.96952  0.53565  0.65209  1.0000
  C   C899      1.0  0.66873  0.61258  0.34206  1.0000
  H   H720      1.0  0.61450  0.58923  0.33724  1.0000
  C   C900      1.0  0.69940  0.61959  0.32669  1.0000
  S   S124      1.0  0.61360  0.74740  0.32433  1.0000
  C   C901      1.0  0.56636  0.54236  0.73008  1.0000
  S   S125      1.0  0.64289  0.80869  0.67266  1.0000
  S   S126      1.0  0.53932  0.75334  0.68361  1.0000
  C   C902      1.0  0.59482  0.82347  0.73612  1.0000
  C   C903      1.0  0.60900  0.85488  0.71814  1.0000
  C   C904      1.0  0.50074  0.75654  0.80024  1.0000
  H   H721      1.0  0.69046  0.89320  0.74381  1.0000
  H   H722      1.0  0.51589  0.80014  0.70499  1.0000
  H   H723      1.0  0.70581  0.66135  0.69234  1.0000
  H   H724      1.0  0.90457  0.66697  0.73172  1.0000
  H   H725      1.0  0.94207  0.61544  0.67214  1.0000
  C   C905      1.0  0.74021  0.50012  0.74772  1.0000
  S   S127      1.0  0.77048  0.56221  0.71192  1.0000
  C   C906      1.0  0.63342  0.75890  0.86484  1.0000
  C   C907      1.0  0.68066  0.57722  0.71040  1.0000
  H   H726      1.0  0.65466  0.90406  0.70677  1.0000
  H   H727      1.0  0.64134  0.71066  0.68870  1.0000
  H   H728      1.0  0.92322  0.55432  0.70538  1.0000
  C   C908      1.0  0.53218  0.71805  0.79107  1.0000
  C   C909      1.0  0.74819  0.51609  0.71585  1.0000
  H   H729      1.0  0.77372  0.77007  0.66767  1.0000
  H   H730      1.0  0.74778  0.51602  0.76915  1.0000
  H   H731      1.0  0.65525  0.52737  0.77132  1.0000
  C   C910      1.0  0.65111  0.50407  0.76000  1.0000
  C   C911      1.0  0.95894  0.54336  0.68167  1.0000
  H   H732      1.0  0.75591  0.67083  0.72302  1.0000
  C   C912      1.0  0.53590  0.77339  0.79300  1.0000
  H   H733      1.0  0.65124  0.79067  0.90742  1.0000
  C   C913      1.0  0.73465  0.64475  0.72013  1.0000
  C   C914      1.0  0.64757  0.50053  0.72567  1.0000
  H   H734      1.0  0.63754  0.73913  0.87532  1.0000
  C   C915      1.0  0.52088  0.76749  0.88363  1.0000
  C   C916      1.0  0.66356  0.87396  0.74240  1.0000
  C   C917      1.0  0.51082  0.70948  0.88828  1.0000
  S   S128      1.0  0.82457  0.65731  0.67383  1.0000
  H   H735      1.0  0.75846  0.62055  0.74524  1.0000
  H   H736      1.0  0.66041  0.93873  0.66003  1.0000
  H   H737      1.0  0.71142  0.56141  0.73670  1.0000
  C   C918      1.0  0.57799  0.49837  0.69177  1.0000
  C   C919      1.0  0.50108  0.74665  0.70389  1.0000
  C   C920      1.0  0.55171  0.75422  0.78717  1.0000
  H   H738      1.0  0.84488  0.62035  0.72250  1.0000
  C   C921      1.0  0.70638  0.63936  0.70268  1.0000
  C   C922      1.0  0.49703  0.70128  0.79838  1.0000
  C   C923      1.0  0.85976  0.59129  0.69232  1.0000
  H   H739      1.0  0.61425  0.73255  0.81962  1.0000
  H   H740      1.0  0.51928  0.69143  0.88401  1.0000
  P   P31       1.0  0.59739  0.77590  0.77931  1.0000
  C   C924      1.0  0.61471  0.81734  0.75794  1.0000
  C   C925      1.0  0.61549  0.78109  0.81938  1.0000
  C   C926      1.0  0.62269  0.80987  0.83791  1.0000
  C   C927      1.0  0.63564  0.81332  0.86953  1.0000
  C   C928      1.0  0.86611  0.61897  0.71191  1.0000
  C   C929      1.0  0.62047  0.75536  0.83321  1.0000
  H   H741      1.0  0.88888  0.96919  0.69188  1.0000
  C   C930      1.0  0.64936  0.84268  0.76063  1.0000
  C   C931      1.0  0.61015  0.75246  0.75285  1.0000
  C   C932      1.0  0.58764  0.72945  0.73005  1.0000
  C   C933      1.0  0.59881  0.71425  0.70720  1.0000
  C   C934      1.0  0.63251  0.72176  0.70703  1.0000
  C   C935      1.0  0.65515  0.74464  0.72961  1.0000
  C   C936      1.0  0.64411  0.76012  0.75233  1.0000
  C   C937      1.0  0.60565  0.52707  0.70574  1.0000
  C   C938      1.0  0.59955  0.54869  0.72545  1.0000
  H   H742      1.0  0.55049  0.80133  0.79146  1.0000
  H   H743      1.0  0.84052  0.52947  0.71927  1.0000
  H   H744      1.0  0.64147  0.83575  0.88362  1.0000
  H   H745      1.0  0.66566  0.83802  0.77614  1.0000
  C   C939      1.0  0.73831  0.49507  0.68844  1.0000
  H   H746      1.0  0.56177  0.72410  0.72898  1.0000
  H   H747      1.0  0.58163  0.69767  0.68877  1.0000
  P   P32       1.0  0.64804  0.53409  0.70024  1.0000
  H   H748      1.0  0.68155  0.75119  0.72867  1.0000
  H   H749      1.0  0.66234  0.77881  0.76876  1.0000
  H   H750      1.0  0.83362  0.57193  0.68745  1.0000
  H   H751      1.0  0.55658  0.75304  0.86656  1.0000
  C   C940      1.0  0.70914  0.58286  0.72789  1.0000
  C   C941      1.0  0.49628  0.77389  0.71189  1.0000
  C   C942      1.0  0.64335  0.88010  0.72130  1.0000
  C   C943      1.0  0.84293  0.51156  0.67038  1.0000
  C   C944      1.0  0.53188  0.74423  0.87845  1.0000
  C   C945      1.0  0.73602  0.61650  0.73272  1.0000
  H   H752      1.0  0.53710  0.79437  0.87571  1.0000
  H   H753      1.0  0.56861  0.80374  0.73226  1.0000
  C   C946      1.0  0.89967  0.64506  0.71725  1.0000
  H   H754      1.0  0.65870  0.60206  0.68258  1.0000
  H   H755      1.0  0.91400  0.49797  0.74403  1.0000
  C   C947      1.0  0.67967  0.60575  0.69743  1.0000
  H   H756      1.0  0.54396  0.70273  0.78798  1.0000
  C   C948      1.0  0.64110  0.78791  0.88296  1.0000
  H   H757      1.0  0.97215  0.54526  0.70417  1.0000
  H   H758      1.0  0.61820  0.82957  0.82797  1.0000
  H   H759      1.0  0.59359  0.85921  0.70098  1.0000
  H   H760      1.0  0.62025  0.57023  0.73755  1.0000
  C   C949      1.0  0.94819  0.71584  0.66071  1.0000
  C   C950      1.0  0.54482  0.49204  0.69653  1.0000
  C   C951      1.0  0.88689  0.58867  0.67911  1.0000
  H   H761      1.0  0.48828  0.77130  0.80307  1.0000
  H   H762      1.0  0.56180  0.55926  0.74514  1.0000
  H   H763      1.0  0.98172  0.74451  0.69987  1.0000
  Fe  Fe64      1.0  0.78642  0.60040  0.66707  1.0000
  C   C952      1.0  0.92059  0.61552  0.68379  1.0000
  H   H764      1.0  0.95292  0.66432  0.70616  1.0000
  C   C953      1.0  0.92690  0.64344  0.70301  1.0000
  H   H765      1.0  0.74460  0.50680  0.66377  1.0000
  C   C954      1.0  0.68634  0.96036  0.65762  1.0000
  C   C955      1.0  0.82999  0.50794  0.70301  1.0000
  C   C956      1.0  0.53902  0.51412  0.71555  1.0000
  C   C957      1.0  0.93141  0.54872  0.68221  1.0000
  H   H766      1.0  0.69954  0.52372  0.66869  1.0000
  H   H767      1.0  0.51331  0.50916  0.71929  1.0000
  C   C958      1.0  0.98033  0.73516  0.67522  1.0000
  H   H768      1.0  0.92519  0.71055  0.67415  1.0000
  C   C959      1.0  0.48875  0.75599  0.89860  1.0000
  C   C960      1.0  0.65737  0.53060  0.65749  1.0000
