data_image0
_chemical_formula_structural       FeS2FeS2FeSFeS3FeHSFeS2C3H3C2H2C7H4C6H6CHC3H4C3H2CH2C3HC2H4C3HCHC4H3C2H2C2H2CHC11SC2PHCHC5HCHCHCHC2HCH4C5H8C3HPH2C3H3C8HSCFeCSCHSHSC3H2CHCHC2HC2H2C3H2C2H2CH2C3H3C8HCSC6HCH2C4HCH2CH5SC2HSCHPH4CFeHCHC2H2C2H3C2H2C2H2C3HCHFeHCHC2PC3PHS3FeHSFeSHCHC2H2C6HCH2CSH2C3HC4HC2PH2C15H2CH2CH4C3H9CH2SCSC7H2CPH3CHC2HCSC2HC3H3CH2FeS2FeS2FeSFeS3H2SCSC4H2C2H3C6H4C6H3C7HC3H3C2HC2H4C3H2PH2PC3HCHCHCH5C6FeH3SCFeC2H2CH2SH2C7HCH2CH2CHCH5CH4CHFeS2CHCS3FeCSCHCH2CHC7H6C4Fe2CHCH2CH3CH2CH2SCHCHC7HC2HCH2C2H3CH2CHCH2CH3CH2C5HPSHC2HC2H3CPHC2SHC5HCH2C3HFeH3CFeS2CH3S2FeHSC3H3C8H4C2HCH4CHC2HC2SHC2H7CH2CH2C2HFeHC4PC4HC3H2Fe2H2SC3H3SHC4H3PC4HCHCHC3H2CHCHC3H4PCHC5HCHC2HCH2CHCHCHFeS2FeS2FeSFeS3FeS2FeS2CH4C6H4C6H4C2H2C2PH2C2PC3HC2H2CH6CH2CHCHC4HCH2CHC3HC9HCHCHCH3C3HCHCH2CH4CH2CHC6PHC3HC3H2C2H2CH3C2HCHCHC7HCHC3HC3HCHC2H2CH3C2HS3C2SCHSHCHC3H3C6H3C2H3CHFeH2C6HC3HPHFeHCHSC3HCHC2H2CFeH2PC3HCFeHC5H4C2HCHC2SHCH2CHC2FeS2HSFeS2FeS2C5H2SC6H2FeHCFeHC2HCH5C2H3C2HC5H2C4HC2PCH2CH3C4HC7HCH2CHC5HCH6CH2CHCHC3HC3HC2HCHCH3CHCH2FeS2FeS2FeSFeS3HSH3SC2H2C6H4C6H4C2HCHC3HCHC4HCHC8H2C2FeC5HCHC2PH2C4HCHCH3CHCFeCH2C4HC3H9C3H2CPCH2C3HCH2CHCHCSH2CSCHCH5C4HC2HPC3HC3HC2HCH2C2HCHPC
_chemical_formula_sum              "Fe48 S96 H576 C720 P24"
_cell_length_a       46.4404
_cell_length_b       41.2169
_cell_length_c       27.0161
_cell_angle_alpha    89.9957
_cell_angle_beta     89.9096
_cell_angle_gamma    89.8286

_space_group_name_H-M_alt    "P 1"
_space_group_IT_number       1

loop_
  _space_group_symop_operation_xyz
  'x, y, z'

loop_
  _atom_site_type_symbol
  _atom_site_label
  _atom_site_symmetry_multiplicity
  _atom_site_fract_x
  _atom_site_fract_y
  _atom_site_fract_z
  _atom_site_occupancy
  Fe  Fe1       1.0  0.14525  0.19707  0.25902  1.0000
  S   S1        1.0  0.11839  0.20646  0.32763  1.0000
  S   S2        1.0  0.15783  0.14426  0.24217  1.0000
  Fe  Fe2       1.0  0.15390  0.26999  0.24099  1.0000
  S   S3        1.0  0.12849  0.28340  0.30905  1.0000
  S   S4        1.0  0.17985  0.30082  0.18582  1.0000
  Fe  Fe3       1.0  0.15287  0.24292  0.34827  1.0000
  S   S5        1.0  0.17111  0.24559  0.42886  1.0000
  Fe  Fe4       1.0  0.09594  0.24574  0.28372  1.0000
  S   S6        1.0  0.04730  0.26051  0.27891  1.0000
  S   S7        1.0  0.17992  0.23195  0.28149  1.0000
  S   S8        1.0  0.12097  0.23402  0.21361  1.0000
  Fe  Fe5       1.0  0.22299  0.02732  0.02085  1.0000
  H   H1        1.0  0.24292  0.16332  0.46253  1.0000
  S   S9        1.0  0.20639  0.07770  0.04429  1.0000
  Fe  Fe6       1.0  0.21908  0.47264  0.05971  1.0000
  S   S10       1.0  0.19215  0.44986  0.12209  1.0000
  S   S11       1.0  0.26744  0.47266  0.05315  1.0000
  C   C1        1.0  0.00941  0.25073  0.28367  1.0000
  C   C2        1.0  0.99927  0.22121  0.30279  1.0000
  C   C3        1.0  0.98872  0.27374  0.26818  1.0000
  H   H2        1.0  0.01460  0.20307  0.31485  1.0000
  H   H3        1.0  0.99598  0.29662  0.25312  1.0000
  H   H4        1.0  0.27657  0.22633  0.45044  1.0000
  C   C4        1.0  0.23089  0.23457  0.44012  1.0000
  C   C5        1.0  0.20440  0.24142  0.46288  1.0000
  H   H5        1.0  0.17041  0.16969  0.14304  1.0000
  H   H6        1.0  0.23176  0.23167  0.40038  1.0000
  C   C6        1.0  0.13179  0.29256  0.07631  1.0000
  C   C7        1.0  0.18343  0.34287  0.17181  1.0000
  C   C8        1.0  0.20654  0.35262  0.14161  1.0000
  C   C9        1.0  0.20935  0.38504  0.12564  1.0000
  C   C10       1.0  0.18933  0.40847  0.14061  1.0000
  C   C11       1.0  0.16662  0.39895  0.17204  1.0000
  C   C12       1.0  0.16351  0.36630  0.18725  1.0000
  H   H7        1.0  0.22230  0.33484  0.13038  1.0000
  H   H8        1.0  0.22715  0.39205  0.10220  1.0000
  H   H9        1.0  0.15108  0.41688  0.18414  1.0000
  H   H10       1.0  0.14550  0.35925  0.21026  1.0000
  C   C13       1.0  0.17090  0.12616  0.18651  1.0000
  C   C14       1.0  0.17706  0.09267  0.18591  1.0000
  C   C15       1.0  0.18797  0.07737  0.14294  1.0000
  C   C16       1.0  0.19270  0.09540  0.09982  1.0000
  C   C17       1.0  0.18626  0.12883  0.10030  1.0000
  C   C18       1.0  0.17548  0.14412  0.14332  1.0000
  H   H11       1.0  0.17326  0.07842  0.21888  1.0000
  H   H12       1.0  0.19250  0.05161  0.14306  1.0000
  H   H13       1.0  0.18945  0.14298  0.06706  1.0000
  H   H14       1.0  0.26275  0.20251  0.06983  1.0000
  H   H15       1.0  0.10912  0.13839  0.39282  1.0000
  H   H16       1.0  0.23785  0.47461  0.23534  1.0000
  C   C19       1.0  0.14436  0.42355  0.02183  1.0000
  H   H17       1.0  0.25477  0.28808  0.07107  1.0000
  C   C20       1.0  0.24511  0.27911  0.23364  1.0000
  C   C21       1.0  0.27438  0.27655  0.22225  1.0000
  C   C22       1.0  0.29423  0.29652  0.24619  1.0000
  H   H18       1.0  0.16634  0.32655  0.07348  1.0000
  H   H19       1.0  0.22957  0.26395  0.21485  1.0000
  H   H20       1.0  0.28161  0.25918  0.19481  1.0000
  H   H21       1.0  0.25897  0.29781  0.39734  1.0000
  C   C23       1.0  0.27790  0.21125  0.32202  1.0000
  C   C24       1.0  0.21279  0.33775  0.00034  1.0000
  C   C25       1.0  0.24007  0.20863  0.07002  1.0000
  H   H22       1.0  0.23246  0.41901  0.36944  1.0000
  H   H23       1.0  0.23103  0.06424  0.21768  1.0000
  C   C26       1.0  0.28473  0.31923  0.28110  1.0000
  H   H24       1.0  0.09767  0.25773  0.06879  1.0000
  H   H25       1.0  0.00355  0.32703  0.39433  1.0000
  C   C27       1.0  0.20599  0.34781  0.35187  1.0000
  C   C28       1.0  0.23147  0.36437  0.99698  1.0000
  C   C29       1.0  0.15092  0.15839  0.40854  1.0000
  H   H26       1.0  0.28118  0.39940  0.38844  1.0000
  C   C30       1.0  0.24516  0.39192  0.30424  1.0000
  C   C31       1.0  0.22753  0.22000  0.11382  1.0000
  H   H27       1.0  0.24031  0.22220  0.14709  1.0000
  H   H28       1.0  0.15856  0.37857  0.05215  1.0000
  H   H29       1.0  0.16285  0.31948  0.44457  1.0000
  H   H30       1.0  0.21276  0.30326  0.27693  1.0000
  C   C32       1.0  0.28249  0.37596  0.40618  1.0000
  C   C33       1.0  0.19794  0.33310  0.39673  1.0000
  C   C34       1.0  0.24186  0.08943  0.33653  1.0000
  H   H31       1.0  0.18108  0.08122  0.34456  1.0000
  C   C35       1.0  0.13220  0.13487  0.39000  1.0000
  H   H32       1.0  0.15868  0.22936  0.07426  1.0000
  C   C36       1.0  0.25096  0.20306  0.30284  1.0000
  C   C37       1.0  0.23551  0.45000  0.30578  1.0000
  C   C38       1.0  0.23628  0.17589  0.32066  1.0000
  C   C39       1.0  0.25530  0.32196  0.29249  1.0000
  H   H33       1.0  0.28895  0.23268  0.30879  1.0000
  H   H34       1.0  0.98403  0.02139  0.19940  1.0000
  H   H35       1.0  0.30026  0.33503  0.29873  1.0000
  C   C40       1.0  0.18063  0.15469  0.40278  1.0000
  C   C41       1.0  0.14777  0.34490  0.37991  1.0000
  H   H36       1.0  0.24131  0.21775  0.27423  1.0000
  H   H37       1.0  0.19474  0.17344  0.41682  1.0000
  C   C42       1.0  0.17303  0.10308  0.36193  1.0000
  C   C43       1.0  0.19826  0.22777  0.11510  1.0000
  H   H38       1.0  0.21539  0.16984  0.30529  1.0000
  H   H39       1.0  0.24980  0.42497  0.18843  1.0000
  C   C44       1.0  0.15367  0.31168  0.99968  1.0000
  H   H40       1.0  0.23062  0.06090  0.43761  1.0000
  C   C45       1.0  0.29061  0.19167  0.35816  1.0000
  C   C46       1.0  0.15199  0.31176  0.05165  1.0000
  C   C47       1.0  0.26357  0.13834  0.02426  1.0000
  C   C48       1.0  0.19392  0.21281  0.02871  1.0000
  C   C49       1.0  0.23760  0.42019  0.33034  1.0000
  C   C50       1.0  0.19191  0.12701  0.37941  1.0000
  C   C51       1.0  0.22181  0.30977  0.02578  1.0000
  C   C52       1.0  0.24852  0.30915  0.04965  1.0000
  C   C53       1.0  0.14326  0.10729  0.36656  1.0000
  C   C54       1.0  0.24005  0.06508  0.25463  1.0000
  C   C55       1.0  0.26672  0.33604  0.04708  1.0000
  S   S12       1.0  0.27100  0.02268  0.00998  1.0000
  C   C56       1.0  0.24864  0.15658  0.35771  1.0000
  C   C57       1.0  0.26168  0.04317  0.26804  1.0000
  P   P1        1.0  0.23029  0.12075  0.37887  1.0000
  H   H41       1.0  0.00175  0.26705  0.39706  1.0000
  C   C58       1.0  0.24717  0.42367  0.22829  1.0000
  H   H42       1.0  0.21381  0.10546  0.27718  1.0000
  C   C59       1.0  0.11538  0.27142  0.99788  1.0000
  C   C60       1.0  0.23027  0.08827  0.28856  1.0000
  C   C61       1.0  0.27621  0.16417  0.37553  1.0000
  C   C62       1.0  0.23848  0.11256  0.44279  1.0000
  C   C63       1.0  0.24951  0.39386  0.25274  1.0000
  H   H43       1.0  0.21368  0.32274  0.42150  1.0000
  C   C64       1.0  0.22331  0.20477  0.02715  1.0000
  H   H44       1.0  0.13056  0.29316  0.11645  1.0000
  C   C65       1.0  0.11334  0.27255  0.04946  1.0000
  H   H45       1.0  0.12529  0.34331  0.39041  1.0000
  C   C66       1.0  0.26795  0.16127  0.98656  1.0000
  H   H46       1.0  0.24339  0.13756  0.04444  1.0000
  C   C67       1.0  0.27034  0.31891  0.41110  1.0000
  C   C68       1.0  0.23557  0.30154  0.26892  1.0000
  H   H47       1.0  0.27477  0.06966  0.38484  1.0000
  C   C69       1.0  0.25827  0.36350  0.02046  1.0000
  H   H48       1.0  0.18037  0.20990  0.99654  1.0000
  H   H49       1.0  0.18834  0.23592  0.14929  1.0000
  H   H50       1.0  0.12873  0.08941  0.35124  1.0000
  H   H51       1.0  0.20812  0.28860  0.02797  1.0000
  C   C70       1.0  0.18149  0.22411  0.07264  1.0000
  C   C71       1.0  0.15551  0.35909  0.33487  1.0000
  C   C72       1.0  0.24024  0.45171  0.25476  1.0000
  C   C73       1.0  0.23594  0.08098  0.46176  1.0000
  C   C74       1.0  0.28476  0.11527  0.03498  1.0000
  H   H52       1.0  0.13295  0.46711  0.98231  1.0000
  H   H53       1.0  0.13860  0.43340  0.05777  1.0000
  H   H54       1.0  0.14240  0.18004  0.42618  1.0000
  H   H55       1.0  0.13903  0.36867  0.31050  1.0000
  H   H56       1.0  0.18990  0.37118  0.28539  1.0000
  H   H57       1.0  0.28066  0.09696  0.06296  1.0000
  H   H58       1.0  0.25358  0.37237  0.23080  1.0000
  H   H59       1.0  0.28657  0.14896  0.40294  1.0000
  C   C75       1.0  0.26432  0.06809  0.34917  1.0000
  C   C76       1.0  0.18443  0.36031  0.32068  1.0000
  C   C77       1.0  0.27392  0.04479  0.31520  1.0000
  H   H60       1.0  0.26658  0.25052  0.00252  1.0000
  P   P2        1.0  0.24342  0.35294  0.33499  1.0000
  H   H61       1.0  0.28726  0.33582  0.06599  1.0000
  H   H62       1.0  0.27233  0.38441  0.01850  1.0000
  C   C78       1.0  0.15583  0.39223  0.01841  1.0000
  C   C79       1.0  0.26684  0.34934  0.38823  1.0000
  C   C80       1.0  0.16894  0.33155  0.41046  1.0000
  H   H63       1.0  0.26918  0.02521  0.24158  1.0000
  H   H64       1.0  0.22948  0.47169  0.32601  1.0000
  H   H65       1.0  0.29108  0.02816  0.32516  1.0000
  C   C81       1.0  0.98304  0.31495  0.39923  1.0000
  C   C82       1.0  0.24283  0.13849  0.47562  1.0000
  C   C83       1.0  0.25638  0.23154  0.46878  1.0000
  C   C84       1.0  0.30042  0.37242  0.44746  1.0000
  C   C85       1.0  0.28811  0.31552  0.45252  1.0000
  C   C86       1.0  0.98209  0.28110  0.40100  1.0000
  C   C87       1.0  0.14125  0.44256  0.97940  1.0000
  C   C88       1.0  0.30307  0.34229  0.47082  1.0000
  H   H66       1.0  0.29018  0.29215  0.47074  1.0000
  S   S13       1.0  0.27943  0.24301  0.70241  1.0000
  C   C89       1.0  0.23967  0.07524  0.51238  1.0000
  Fe  Fe7       1.0  0.26028  0.00764  0.93237  1.0000
  C   C90       1.0  0.26207  0.37322  0.81764  1.0000
  S   S14       1.0  0.21253  0.01374  0.94172  1.0000
  C   C91       1.0  0.28549  0.09920  0.66992  1.0000
  H   H67       1.0  0.24966  0.15310  0.55076  1.0000
  S   S15       1.0  0.28972  0.42482  0.93810  1.0000
  H   H68       1.0  0.24879  0.20172  0.86498  1.0000
  S   S16       1.0  0.28404  0.32668  0.75476  1.0000
  C   C92       1.0  0.15808  0.06112  0.77300  1.0000
  C   C93       1.0  0.28702  0.39695  0.88801  1.0000
  C   C94       1.0  0.26258  0.39496  0.85799  1.0000
  H   H69       1.0  0.29789  0.17804  0.93045  1.0000
  H   H70       1.0  0.23793  0.05080  0.52685  1.0000
  C   C95       1.0  0.18239  0.15356  0.60684  1.0000
  H   H71       1.0  0.13386  0.21717  0.74084  1.0000
  C   C96       1.0  0.17646  0.22812  0.76746  1.0000
  H   H72       1.0  0.27749  0.45629  0.74997  1.0000
  C   C97       1.0  0.27244  0.12427  0.85700  1.0000
  C   C98       1.0  0.27129  0.09174  0.87273  1.0000
  H   H73       1.0  0.24327  0.37238  0.79410  1.0000
  C   C99       1.0  0.20396  0.06745  0.81407  1.0000
  C   C100      1.0  0.15602  0.20901  0.74329  1.0000
  H   H74       1.0  0.26056  0.14248  0.87724  1.0000
  H   H75       1.0  0.25898  0.08525  0.90530  1.0000
  C   C101      1.0  0.18644  0.12620  0.63721  1.0000
  C   C102      1.0  0.25613  0.23540  0.52076  1.0000
  C   C103      1.0  0.22961  0.24213  0.54352  1.0000
  H   H76       1.0  0.22873  0.24523  0.58325  1.0000
  H   H77       1.0  0.18393  0.25038  0.53325  1.0000
  C   C104      1.0  0.20411  0.24504  0.51488  1.0000
  C   C105      1.0  0.16417  0.17940  0.72208  1.0000
  H   H78       1.0  0.28955  0.29527  0.95628  1.0000
  H   H79       1.0  0.15054  0.09188  0.71020  1.0000
  C   C106      1.0  0.17729  0.05210  0.81039  1.0000
  H   H80       1.0  0.26580  0.46539  0.84813  1.0000
  H   H81       1.0  0.23529  0.17988  0.75295  1.0000
  C   C107      1.0  0.24095  0.12945  0.68180  1.0000
  C   C108      1.0  0.21236  0.16927  0.93444  1.0000
  C   C109      1.0  0.13545  0.29084  0.97303  1.0000
  H   H82       1.0  0.17151  0.03331  0.83673  1.0000
  H   H83       1.0  0.15435  0.12510  0.85545  1.0000
  H   H84       1.0  0.13644  0.28943  0.93323  1.0000
  C   C110      1.0  0.15029  0.43052  0.93360  1.0000
  C   C111      1.0  0.17369  0.17110  0.87377  1.0000
  C   C112      1.0  0.16223  0.39937  0.93014  1.0000
  C   C113      1.0  0.28243  0.27346  0.88504  1.0000
  C   C114      1.0  0.19445  0.18700  0.90233  1.0000
  C   C115      1.0  0.18766  0.11982  0.91008  1.0000
  C   C116      1.0  0.30656  0.41663  0.73870  1.0000
  C   C117      1.0  0.28567  0.35272  0.80734  1.0000
  H   H85       1.0  0.24750  0.09669  0.58366  1.0000
  C   C118      1.0  0.29413  0.16116  0.96043  1.0000
  S   S17       1.0  0.28935  0.17508  0.79871  1.0000
  C   C119      1.0  0.18418  0.32704  0.90415  1.0000
  C   C120      1.0  0.21145  0.31700  0.88731  1.0000
  C   C121      1.0  0.21601  0.31044  0.83711  1.0000
  C   C122      1.0  0.19357  0.31397  0.80325  1.0000
  C   C123      1.0  0.16626  0.32345  0.81967  1.0000
  C   C124      1.0  0.16155  0.32993  0.86988  1.0000
  H   H86       1.0  0.29807  0.07731  0.67531  1.0000
  C   C125      1.0  0.19307  0.09956  0.74090  1.0000
  H   H87       1.0  0.13724  0.04944  0.77065  1.0000
  H   H88       1.0  0.29069  0.40186  0.71984  1.0000
  C   C126      1.0  0.30173  0.07668  0.80382  1.0000
  C   C127      1.0  0.20857  0.13555  0.93827  1.0000
  C   C128      1.0  0.24503  0.10110  0.54447  1.0000
  C   C129      1.0  0.17236  0.15000  0.55834  1.0000
  H   H89       1.0  0.16005  0.18479  0.84891  1.0000
  C   C130      1.0  0.28119  0.15387  0.63835  1.0000
  H   H90       1.0  0.22160  0.12104  0.96291  1.0000
  H   H91       1.0  0.17013  0.25103  0.78384  1.0000
  C   C131      1.0  0.17060  0.09178  0.56947  1.0000
  H   H92       1.0  0.22950  0.31506  0.91239  1.0000
  H   H93       1.0  0.23728  0.30371  0.82401  1.0000
  H   H94       1.0  0.19756  0.30981  0.76417  1.0000
  H   H95       1.0  0.14891  0.32654  0.79328  1.0000
  H   H96       1.0  0.14048  0.33820  0.88185  1.0000
  S   S18       1.0  0.28466  0.02626  0.86423  1.0000
  C   C132      1.0  0.17039  0.13749  0.87748  1.0000
  C   C133      1.0  0.21318  0.18789  0.74970  1.0000
  H   H97       1.0  0.15886  0.11642  0.50194  1.0000
  S   S19       1.0  0.28941  0.23112  0.55485  1.0000
  C   C134      1.0  0.28868  0.13342  0.81539  1.0000
  H   H98       1.0  0.24421  0.41039  0.86550  1.0000
  P   P3        1.0  0.20317  0.13069  0.69717  1.0000
  H   H99       1.0  0.14811  0.16479  0.70354  1.0000
  H   H100      1.0  0.17030  0.39147  0.89463  1.0000
  H   H101      1.0  0.24096  0.17795  0.65066  1.0000
  H   H102      1.0  0.27274  0.24595  0.81955  1.0000
  C   C135      1.0  0.29906  0.44735  0.75658  1.0000
  Fe  Fe8       1.0  0.30737  0.23799  0.63505  1.0000
  H   H103      1.0  0.16966  0.17119  0.53488  1.0000
  C   C136      1.0  0.20502  0.21754  0.77071  1.0000
  H   H104      1.0  0.23204  0.10379  0.78439  1.0000
  C   C137      1.0  0.24637  0.13274  0.52610  1.0000
  C   C138      1.0  0.16638  0.11913  0.53970  1.0000
  H   H105      1.0  0.24802  0.07949  0.70467  1.0000
  H   H106      1.0  0.18516  0.07368  0.63965  1.0000
  C   C139      1.0  0.18092  0.09522  0.61786  1.0000
  C   C140      1.0  0.25323  0.15594  0.65704  1.0000
  H   H107      1.0  0.21292  0.47110  0.85474  1.0000
  H   H108      1.0  0.14894  0.44589  0.90112  1.0000
  H   H109      1.0  0.18767  0.17764  0.62003  1.0000
  C   C141      1.0  0.21155  0.09163  0.78021  1.0000
  C   C142      1.0  0.16581  0.08497  0.73857  1.0000
  H   H110      1.0  0.22092  0.23233  0.78931  1.0000
  H   H111      1.0  0.18487  0.09381  0.91394  1.0000
  C   C143      1.0  0.27075  0.24721  0.85950  1.0000
  C   C144      1.0  0.28050  0.27478  0.93659  1.0000
  H   H112      1.0  0.29000  0.17401  0.61760  1.0000
  H   H113      1.0  0.16635  0.06783  0.55468  1.0000
  C   C145      1.0  0.25707  0.22224  0.88539  1.0000
  C   C146      1.0  0.28574  0.06766  0.84597  1.0000
  C   C147      1.0  0.19290  0.16889  0.72456  1.0000
  H   H114      1.0  0.21878  0.06056  0.84328  1.0000
  C   C148      1.0  0.25717  0.10083  0.68754  1.0000
  H   H115      1.0  0.29304  0.29266  0.86473  1.0000
  Fe  Fe9       1.0  0.25989  0.46362  0.97164  1.0000
  H   H116      1.0  0.19651  0.21309  0.89934  1.0000
  C   C149      1.0  0.25486  0.22338  0.93715  1.0000
  H   H117      1.0  0.10120  0.25564  0.97716  1.0000
  C   C150      1.0  0.29747  0.12573  0.64525  1.0000
  C   C151      1.0  0.30359  0.10950  0.78904  1.0000
  P   P4        1.0  0.17871  0.33852  0.96830  1.0000
  C   C152      1.0  0.16433  0.37947  0.97236  1.0000
  C   C153      1.0  0.26709  0.24962  0.96261  1.0000
  C   C154      1.0  0.25533  0.48661  0.83265  1.0000
  P   P5        1.0  0.23961  0.18963  0.97088  1.0000
  H   H118      1.0  0.22540  0.38591  0.97641  1.0000
  S   S20       1.0  0.21176  0.46142  0.97918  1.0000
  S   S21       1.0  0.28727  0.74297  0.28569  1.0000
  S   S22       1.0  0.28980  0.76235  0.43092  1.0000
  Fe  Fe10      1.0  0.26577  0.96981  0.03126  1.0000
  H   H119      1.0  0.18066  0.72258  0.39657  1.0000
  S   S23       1.0  0.21852  0.97559  0.04801  1.0000
  Fe  Fe11      1.0  0.26349  0.52595  0.03503  1.0000
  S   S24       1.0  0.21581  0.52695  0.04809  1.0000
  H   H120      1.0  0.16835  0.86133  0.19908  1.0000
  C   C155      1.0  0.16767  0.74265  0.40951  1.0000
  H   H121      1.0  0.16560  0.78604  0.01891  1.0000
  C   C156      1.0  0.27259  0.58759  0.14460  1.0000
  C   C157      1.0  0.27295  0.60742  0.18714  1.0000
  H   H122      1.0  0.25765  0.56757  0.14208  1.0000
  H   H123      1.0  0.25820  0.60242  0.21719  1.0000
  C   C158      1.0  0.13080  0.83264  0.21553  1.0000
  C   C159      1.0  0.27259  0.88600  0.10645  1.0000
  C   C160      1.0  0.11949  0.80751  0.24424  1.0000
  C   C161      1.0  0.27023  0.83585  0.36873  1.0000
  C   C162      1.0  0.26637  0.82400  0.32082  1.0000
  C   C163      1.0  0.25930  0.75148  0.46917  1.0000
  H   H124      1.0  0.25463  0.89391  0.08405  1.0000
  C   C164      1.0  0.22495  0.85161  0.00679  1.0000
  H   H125      1.0  0.12789  0.77187  0.30043  1.0000
  H   H126      1.0  0.25297  0.84039  0.12666  1.0000
  C   C165      1.0  0.29661  0.76263  0.07965  1.0000
  S   S25       1.0  0.29480  0.56668  0.05437  1.0000
  H   H127      1.0  0.28295  0.82772  0.29312  1.0000
  H   H128      1.0  0.26528  0.71373  0.01262  1.0000
  C   C166      1.0  0.22006  0.80137  0.34462  1.0000
  C   C167      1.0  0.28680  0.78739  0.99985  1.0000
  C   C168      1.0  0.13696  0.79139  0.27854  1.0000
  H   H129      1.0  0.24948  0.68069  0.32414  1.0000
  C   C169      1.0  0.27170  0.85567  0.13088  1.0000
  C   C170      1.0  0.18334  0.59989  0.11624  1.0000
  C   C171      1.0  0.16634  0.58351  0.08174  1.0000
  C   C172      1.0  0.29463  0.84516  0.16111  1.0000
  H   H130      1.0  0.23499  0.61547  0.99456  1.0000
  C   C173      1.0  0.19413  0.64135  0.05500  1.0000
  C   C174      1.0  0.19731  0.62863  0.10296  1.0000
  P   P6        1.0  0.21322  0.67738  0.03580  1.0000
  H   H131      1.0  0.25267  0.83857  0.44233  1.0000
  H   H132      1.0  0.24069  0.87070  0.00236  1.0000
  C   C175      1.0  0.22230  0.72320  0.32599  1.0000
  C   C176      1.0  0.24157  0.80654  0.30890  1.0000
  C   C177      1.0  0.16594  0.80028  0.28442  1.0000
  C   C178      1.0  0.16681  0.77229  0.38388  1.0000
  C   C179      1.0  0.18995  0.69913  0.99365  1.0000
  C   C180      1.0  0.16124  0.70540  0.00721  1.0000
  C   C181      1.0  0.21810  0.68005  0.26562  1.0000
  C   C182      1.0  0.23019  0.82011  0.98914  1.0000
  C   C183      1.0  0.15010  0.79791  0.40293  1.0000
  C   C184      1.0  0.22234  0.70256  0.08841  1.0000
  C   C185      1.0  0.24466  0.69290  0.12029  1.0000
  C   C186      1.0  0.25239  0.71234  0.16049  1.0000
  C   C187      1.0  0.23833  0.74184  0.16876  1.0000
  C   C188      1.0  0.21644  0.75194  0.13689  1.0000
  C   C189      1.0  0.20840  0.73240  0.09689  1.0000
  H   H133      1.0  0.18624  0.58986  0.15298  1.0000
  H   H134      1.0  0.15611  0.56081  0.09169  1.0000
  C   C190      1.0  0.17740  0.62438  0.02030  1.0000
  H   H135      1.0  0.28994  0.84832  0.37829  1.0000
  H   H136      1.0  0.21082  0.64035  0.13006  1.0000
  C   C191      1.0  0.15957  0.84172  0.22118  1.0000
  H   H137      1.0  0.19912  0.83356  0.25931  1.0000
  H   H138      1.0  0.15309  0.69734  0.04274  1.0000
  H   H139      1.0  0.18525  0.68643  0.21043  1.0000
  H   H140      1.0  0.19460  0.88377  0.04189  1.0000
  C   C192      1.0  0.23142  0.69325  0.30726  1.0000
  C   C193      1.0  0.19870  0.85916  0.02944  1.0000
  C   C194      1.0  0.19532  0.69658  0.24305  1.0000
  H   H141      1.0  0.25617  0.67031  0.11412  1.0000
  H   H142      1.0  0.26956  0.70472  0.18504  1.0000
  H   H143      1.0  0.24475  0.75702  0.19957  1.0000
  H   H144      1.0  0.20595  0.77513  0.14300  1.0000
  H   H145      1.0  0.19162  0.74099  0.07259  1.0000
  H   H146      1.0  0.09715  0.80053  0.24001  1.0000
  H   H147      1.0  0.25658  0.78537  0.06127  1.0000
  H   H148      1.0  0.23941  0.79682  0.27185  1.0000
  H   H149      1.0  0.22591  0.65729  0.25047  1.0000
  C   C195      1.0  0.20876  0.79639  0.99431  1.0000
  H   H150      1.0  0.11726  0.84521  0.18904  1.0000
  H   H151      1.0  0.23338  0.73350  0.35755  1.0000
  S   S26       1.0  0.29903  0.94468  0.08129  1.0000
  C   C196      1.0  0.18598  0.72646  0.26193  1.0000
  S   S27       1.0  0.29357  0.65548  0.24779  1.0000
  C   C197      1.0  0.22420  0.81326  0.39288  1.0000
  C   C198      1.0  0.17708  0.82572  0.25554  1.0000
  C   C199      1.0  0.18235  0.80416  0.01633  1.0000
  C   C200      1.0  0.29233  0.59295  0.10635  1.0000
  C   C201      1.0  0.24915  0.83049  0.40472  1.0000
  C   C202      1.0  0.16355  0.59563  0.03370  1.0000
  C   C203      1.0  0.27776  0.77888  0.04774  1.0000
  H   H152      1.0  0.15131  0.58226  0.00631  1.0000
  H   H153      1.0  0.16851  0.73891  0.24355  1.0000
  C   C204      1.0  0.17733  0.83557  0.03389  1.0000
  P   P7        1.0  0.18810  0.77866  0.32862  1.0000
  H   H154      1.0  0.20879  0.80855  0.42204  1.0000
  H   H155      1.0  0.14948  0.82113  0.38419  1.0000
  H   H156      1.0  0.24911  0.70654  0.43287  1.0000
  C   C205      1.0  0.19949  0.74003  0.30358  1.0000
  H   H157      1.0  0.15670  0.84194  0.04998  1.0000
  C   C206      1.0  0.29279  0.63298  0.19173  1.0000
  C   C207      1.0  0.13477  0.79401  0.44716  1.0000
  H   H158      1.0  0.28994  0.75690  0.11702  1.0000
  C   C208      1.0  0.24651  0.66597  0.00591  1.0000
  S   S28       1.0  0.29184  0.80687  0.19173  1.0000
  C   C209      1.0  0.29662  0.90616  0.11143  1.0000
  C   C210      1.0  0.25115  0.63406  0.98958  1.0000
  H   H159      1.0  0.15343  0.71619  0.47392  1.0000
  C   C211      1.0  0.15216  0.73883  0.45353  1.0000
  C   C212      1.0  0.26840  0.68907  0.99988  1.0000
  C   C213      1.0  0.13594  0.76452  0.47259  1.0000
  H   H160      1.0  0.30002  0.85315  0.01680  1.0000
  H   H161      1.0  0.12059  0.72632  0.98517  1.0000
  H   H162      1.0  0.12235  0.81398  0.46228  1.0000
  C   C214      1.0  0.24326  0.72305  0.46233  1.0000
  H   H163      1.0  0.17556  0.63287  0.98242  1.0000
  H   H164      1.0  0.21234  0.77207  0.98062  1.0000
  Fe  Fe12      1.0  0.15010  0.78252  0.73839  1.0000
  S   S29       1.0  0.12558  0.77456  0.66676  1.0000
  S   S30       1.0  0.16949  0.83188  0.75890  1.0000
  Fe  Fe13      1.0  0.15703  0.70911  0.75767  1.0000
  S   S31       1.0  0.13312  0.69688  0.68747  1.0000
  S   S32       1.0  0.18642  0.67826  0.80819  1.0000
  Fe  Fe14      1.0  0.15912  0.73615  0.64891  1.0000
  S   S33       1.0  0.18193  0.72487  0.57331  1.0000
  Fe  Fe15      1.0  0.10092  0.73625  0.71001  1.0000
  S   S34       1.0  0.05152  0.72441  0.70389  1.0000
  S   S35       1.0  0.18408  0.74615  0.71800  1.0000
  S   S36       1.0  0.12419  0.74643  0.78260  1.0000
  H   H165      1.0  0.28343  0.79871  0.75400  1.0000
  H   H166      1.0  0.28078  0.60048  0.95623  1.0000
  S   S37       1.0  0.17991  0.92148  0.95113  1.0000
  C   C215      1.0  0.27165  0.51094  0.80965  1.0000
  S   S38       1.0  0.17727  0.54173  0.92146  1.0000
  C   C216      1.0  0.22543  0.48975  0.83649  1.0000
  C   C217      1.0  0.01376  0.73601  0.70638  1.0000
  C   C218      1.0  0.00436  0.76713  0.72036  1.0000
  C   C219      1.0  0.99240  0.71292  0.69468  1.0000
  H   H167      1.0  0.02015  0.78536  0.72964  1.0000
  H   H168      1.0  0.99903  0.68877  0.68378  1.0000
  C   C220      1.0  0.21197  0.73598  0.53401  1.0000
  C   C221      1.0  0.22806  0.76436  0.54088  1.0000
  H   H169      1.0  0.14452  0.82649  0.85902  1.0000
  H   H170      1.0  0.22238  0.78062  0.57072  1.0000
  H   H171      1.0  0.21794  0.64746  0.72009  1.0000
  C   C222      1.0  0.18311  0.64040  0.83979  1.0000
  C   C223      1.0  0.15786  0.62199  0.83871  1.0000
  C   C224      1.0  0.15644  0.59204  0.86411  1.0000
  C   C225      1.0  0.18021  0.57996  0.89074  1.0000
  C   C226      1.0  0.20551  0.59832  0.89173  1.0000
  C   C227      1.0  0.20687  0.62839  0.86665  1.0000
  H   H172      1.0  0.13939  0.63081  0.81831  1.0000
  H   H173      1.0  0.13676  0.57809  0.86294  1.0000
  H   H174      1.0  0.22405  0.58923  0.91159  1.0000
  H   H175      1.0  0.22652  0.64238  0.86793  1.0000
  C   C228      1.0  0.17416  0.85416  0.81482  1.0000
  C   C229      1.0  0.19293  0.88093  0.81465  1.0000
  C   C230      1.0  0.19590  0.90092  0.85673  1.0000
  C   C231      1.0  0.17973  0.89469  0.89938  1.0000
  C   C232      1.0  0.16165  0.86729  0.90014  1.0000
  C   C233      1.0  0.15904  0.84695  0.85828  1.0000
  H   H176      1.0  0.20476  0.88672  0.78130  1.0000
  H   H177      1.0  0.20988  0.92186  0.85554  1.0000
  H   H178      1.0  0.14909  0.86220  0.93295  1.0000
  C   C234      1.0  0.19968  0.70879  0.94669  1.0000
  C   C235      1.0  0.22561  0.77916  0.83031  1.0000
  C   C236      1.0  0.23844  0.74897  0.82188  1.0000
  C   C237      1.0  0.25915  0.73717  0.85473  1.0000
  C   C238      1.0  0.26723  0.75564  0.89587  1.0000
  C   C239      1.0  0.25452  0.78616  0.90451  1.0000
  C   C240      1.0  0.23335  0.79754  0.87167  1.0000
  H   H179      1.0  0.27004  0.55930  0.77793  1.0000
  C   C241      1.0  0.25144  0.77189  0.50896  1.0000
  C   C242      1.0  0.26927  0.71880  0.68678  1.0000
  C   C243      1.0  0.18116  0.72527  0.91451  1.0000
  H   H180      1.0  0.20797  0.69333  0.48837  1.0000
  H   H181      1.0  0.28283  0.74557  0.92115  1.0000
  H   H182      1.0  0.28126  0.71520  0.58086  1.0000
  C   C244      1.0  0.28158  0.85988  0.89490  1.0000
  C   C245      1.0  0.99913  0.69151  0.82158  1.0000
  H   H183      1.0  0.20781  0.82528  0.68164  1.0000
  C   C246      1.0  0.25786  0.53934  0.79320  1.0000
  C   C247      1.0  0.21173  0.51744  0.81809  1.0000
  H   H184      1.0  0.20908  0.78802  0.80541  1.0000
  H   H185      1.0  0.23167  0.73426  0.79072  1.0000
  H   H186      1.0  0.26843  0.71335  0.84876  1.0000
  H   H187      1.0  0.22249  0.82051  0.87827  1.0000
  C   C248      1.0  0.15278  0.73181  0.92848  1.0000
  C   C249      1.0  0.27545  0.69835  0.72712  1.0000
  C   C250      1.0  0.25703  0.67267  0.73898  1.0000
  H   H188      1.0  0.26855  0.84898  0.86635  1.0000
  H   H189      1.0  0.21725  0.56447  0.78502  1.0000
  P   P8        1.0  0.29249  0.75266  0.67184  1.0000
  H   H190      1.0  0.12472  0.76161  0.50757  1.0000
  H   H191      1.0  0.23734  0.77834  0.70708  1.0000
  P   P9        1.0  0.26360  0.80998  0.95859  1.0000
  C   C251      1.0  0.21990  0.71548  0.49431  1.0000
  C   C252      1.0  0.22794  0.54244  0.79717  1.0000
  C   C253      1.0  0.22837  0.82083  0.66397  1.0000
  H   H192      1.0  0.26125  0.65753  0.77094  1.0000
  C   C254      1.0  0.26448  0.83597  0.60382  1.0000
  H   H193      1.0  0.26355  0.79386  0.51498  1.0000
  C   C255      1.0  0.24454  0.71284  0.65848  1.0000
  H   H194      1.0  0.23887  0.72856  0.62797  1.0000
  C   C256      1.0  0.28103  0.80896  0.61726  1.0000
  H   H195      1.0  0.20729  0.68257  0.64802  1.0000
  H   H196      1.0  0.29338  0.52328  0.70404  1.0000
  H   H197      1.0  0.27195  0.85207  0.57487  1.0000
  H   H198      1.0  0.18848  0.73219  0.87795  1.0000
  H   H199      1.0  0.13844  0.74405  0.90285  1.0000
  C   C257      1.0  0.30342  0.78580  0.76017  1.0000
  C   C258      1.0  0.23261  0.66685  0.71026  1.0000
  C   C259      1.0  0.22652  0.68676  0.66982  1.0000
  C   C260      1.0  0.23806  0.84179  0.62699  1.0000
  C   C261      1.0  0.27113  0.78743  0.65387  1.0000
  C   C262      1.0  0.24494  0.79397  0.67778  1.0000
  Fe  Fe16      1.0  0.21207  0.51588  0.96702  1.0000
  H   H200      1.0  0.22497  0.86241  0.61624  1.0000
  H   H201      1.0  0.03288  0.72688  0.81426  1.0000
  H   H202      1.0  0.29495  0.89902  0.84722  1.0000
  S   S39       1.0  0.25951  0.95433  0.95222  1.0000
  C   C263      1.0  0.99648  0.74595  0.85470  1.0000
  Fe  Fe17      1.0  0.21250  0.96161  0.96753  1.0000
  C   C264      1.0  0.28299  0.84649  0.94266  1.0000
  C   C265      1.0  0.29665  0.88831  0.88374  1.0000
  H   H203      1.0  0.18857  0.52007  0.82162  1.0000
  H   H204      1.0  0.01075  0.67323  0.80063  1.0000
  C   C266      1.0  0.01166  0.72184  0.82927  1.0000
  H   H205      1.0  0.00608  0.76966  0.85958  1.0000
  H   H206      1.0  0.22128  0.70325  0.93425  1.0000
  S   S40       1.0  0.25970  0.51704  0.95294  1.0000
  H   H207      1.0  0.29414  0.70233  0.75001  1.0000
  H   H208      1.0  0.30122  0.80479  0.59829  1.0000
  C   C267      1.0  0.30305  0.72429  0.57954  1.0000
  C   C268      1.0  0.29467  0.68026  0.97828  1.0000
  C   C269      1.0  0.29913  0.64840  0.96218  1.0000
  C   C270      1.0  0.27729  0.62542  0.96754  1.0000
  C   C271      1.0  0.29931  0.86230  0.97917  1.0000
  C   C272      1.0  0.14279  0.72181  0.97480  1.0000
  C   C273      1.0  0.61818  0.16516  0.99565  1.0000
  H   H209      1.0  0.41140  0.05485  0.99855  1.0000
  C   C274      1.0  0.51798  0.27897  0.05032  1.0000
  H   H210      1.0  0.47611  0.30088  0.04199  1.0000
  H   H211      1.0  0.31694  0.29470  0.23734  1.0000
  C   C275      1.0  0.54149  0.26491  0.02601  1.0000
  H   H212      1.0  0.51825  0.28168  0.09024  1.0000
  H   H213      1.0  0.56001  0.25676  0.04705  1.0000
  C   C276      1.0  0.49424  0.28978  0.02311  1.0000
  H   H214      1.0  0.32692  0.09709  0.01685  1.0000
  C   C277      1.0  0.31070  0.11525  0.00876  1.0000
  H   H215      1.0  0.31159  0.19783  0.37288  1.0000
  H   H216      1.0  0.36115  0.03458  0.99431  1.0000
  H   H217      1.0  0.59852  0.15283  0.00601  1.0000
  H   H218      1.0  0.58468  0.00493  0.36158  1.0000
  H   H219      1.0  0.60740  0.01134  0.44409  1.0000
  C   C278      1.0  0.61350  0.99120  0.42043  1.0000
  H   H220      1.0  0.59865  0.35107  0.44730  1.0000
  H   H221      1.0  0.64145  0.14828  0.05926  1.0000
  H   H222      1.0  0.31227  0.39309  0.46145  1.0000
  H   H223      1.0  0.58848  0.29536  0.47758  1.0000
  C   C279      1.0  0.61561  0.33693  0.46447  1.0000
  H   H224      1.0  0.39608  0.16277  0.75916  1.0000
  Fe  Fe18      1.0  0.36410  0.24198  0.69952  1.0000
  S   S41       1.0  0.33809  0.24837  0.76996  1.0000
  S   S42       1.0  0.41283  0.22839  0.70697  1.0000
  C   C280      1.0  0.53510  0.30950  0.80379  1.0000
  H   H225      1.0  0.42524  0.22573  0.81616  1.0000
  C   C281      1.0  0.56089  0.31613  0.88092  1.0000
  S   S43       1.0  0.61791  0.25346  0.77848  1.0000
  S   S44       1.0  0.33623  0.20058  0.67247  1.0000
  S   S45       1.0  0.33711  0.27917  0.65742  1.0000
  Fe  Fe19      1.0  0.59586  0.25285  0.70380  1.0000
  C   C282      1.0  0.61934  0.18296  0.95161  1.0000
  S   S46       1.0  0.54782  0.26888  0.69345  1.0000
  C   C283      1.0  0.37152  0.10009  0.68958  1.0000
  H   H226      1.0  0.42791  0.17229  0.91209  1.0000
  C   C284      1.0  0.38949  0.09462  0.89424  1.0000
  H   H227      1.0  0.31674  0.33959  0.50307  1.0000
  H   H228      1.0  0.33974  0.38031  0.73304  1.0000
  C   C285      1.0  0.49936  0.11865  0.81454  1.0000
  H   H229      1.0  0.52194  0.11733  0.80445  1.0000
  C   C286      1.0  0.35070  0.06243  0.92934  1.0000
  C   C287      1.0  0.45026  0.24034  0.70327  1.0000
  C   C288      1.0  0.45896  0.27189  0.69102  1.0000
  C   C289      1.0  0.48865  0.27993  0.68829  1.0000
  C   C290      1.0  0.51044  0.25679  0.69793  1.0000
  C   C291      1.0  0.50174  0.22535  0.71105  1.0000
  C   C292      1.0  0.47203  0.21726  0.71348  1.0000
  H   H230      1.0  0.44282  0.29013  0.68318  1.0000
  H   H231      1.0  0.49479  0.30435  0.67826  1.0000
  H   H232      1.0  0.51792  0.20709  0.71851  1.0000
  H   H233      1.0  0.46584  0.19273  0.72268  1.0000
  H   H234      1.0  0.62743  0.26284  0.51647  1.0000
  H   H235      1.0  0.32959  0.37777  0.90077  1.0000
  C   C293      1.0  0.52923  0.20264  0.89504  1.0000
  C   C294      1.0  0.51747  0.27243  0.94685  1.0000
  C   C295      1.0  0.31056  0.37637  0.87785  1.0000
  C   C296      1.0  0.36189  0.17263  0.85708  1.0000
  Fe  Fe20      1.0  0.30964  0.20857  0.74096  1.0000
  Fe  Fe21      1.0  0.63898  0.20642  0.75498  1.0000
  C   C297      1.0  0.53294  0.22957  0.86373  1.0000
  H   H236      1.0  0.32858  0.05405  0.92809  1.0000
  C   C298      1.0  0.45499  0.14937  0.82117  1.0000
  H   H237      1.0  0.36089  0.24416  0.91988  1.0000
  H   H238      1.0  0.31309  0.05823  0.78301  1.0000
  C   C299      1.0  0.40674  0.18062  0.90106  1.0000
  H   H239      1.0  0.32836  0.33907  0.83017  1.0000
  H   H240      1.0  0.47435  0.22010  0.85060  1.0000
  H   H241      1.0  0.57079  0.14752  0.83335  1.0000
  C   C300      1.0  0.35155  0.20211  0.87560  1.0000
  H   H242      1.0  0.60079  0.18431  0.92742  1.0000
  H   H243      1.0  0.48125  0.32448  0.85636  1.0000
  C   C301      1.0  0.38968  0.16186  0.86923  1.0000
  H   H244      1.0  0.59419  0.35254  0.88060  1.0000
  H   H245      1.0  0.33004  0.21023  0.86591  1.0000
  S   S47       1.0  0.63598  0.16793  0.81638  1.0000
  C   C302      1.0  0.33430  0.40446  0.74609  1.0000
  H   H246      1.0  0.55190  0.24591  0.79473  1.0000
  C   C303      1.0  0.44144  0.30549  0.82869  1.0000
  H   H247      1.0  0.47543  0.29531  0.95123  1.0000
  C   C304      1.0  0.53945  0.30039  0.85327  1.0000
  C   C305      1.0  0.39646  0.21034  0.91902  1.0000
  C   C306      1.0  0.38784  0.11431  0.78717  1.0000
  C   C307      1.0  0.48433  0.14788  0.80959  1.0000
  C   C308      1.0  0.35480  0.42325  0.77065  1.0000
  C   C309      1.0  0.34741  0.45407  0.78844  1.0000
  C   C310      1.0  0.38064  0.13132  0.70196  1.0000
  H   H248      1.0  0.33019  0.46288  0.88448  1.0000
  C   C311      1.0  0.38863  0.13850  0.75058  1.0000
  C   C312      1.0  0.57753  0.34060  0.85929  1.0000
  H   H249      1.0  0.56502  0.30967  0.91897  1.0000
  C   C313      1.0  0.36903  0.05158  0.96680  1.0000
  H   H250      1.0  0.44465  0.07019  0.85280  1.0000
  H   H251      1.0  0.54896  0.33970  0.74340  1.0000
  C   C314      1.0  0.55195  0.33369  0.78214  1.0000
  C   C315      1.0  0.57307  0.34936  0.80992  1.0000
  H   H252      1.0  0.57528  0.19381  0.77590  1.0000
  H   H253      1.0  0.40986  0.22503  0.94290  1.0000
  H   H254      1.0  0.51904  0.29745  0.78144  1.0000
  C   C316      1.0  0.54267  0.17306  0.88406  1.0000
  H   H255      1.0  0.37915  0.06344  0.80134  1.0000
  H   H256      1.0  0.54032  0.15254  0.90877  1.0000
  C   C317      1.0  0.55954  0.17004  0.84142  1.0000
  H   H257      1.0  0.38207  0.14999  0.67377  1.0000
  C   C318      1.0  0.48503  0.09087  0.83090  1.0000
  H   H258      1.0  0.49530  0.16918  0.79545  1.0000
  H   H259      1.0  0.36564  0.09452  0.65176  1.0000
  C   C319      1.0  0.54906  0.22590  0.82011  1.0000
  H   H260      1.0  0.49656  0.06802  0.83345  1.0000
  H   H261      1.0  0.34607  0.09286  0.86553  1.0000
  H   H262      1.0  0.44338  0.17172  0.81451  1.0000
  C   C320      1.0  0.45567  0.09230  0.84246  1.0000
  H   H263      1.0  0.63434  0.12321  0.89804  1.0000
  H   H264      1.0  0.51630  0.20460  0.92829  1.0000
  C   C321      1.0  0.56227  0.19625  0.80909  1.0000
  C   C322      1.0  0.36076  0.08416  0.89359  1.0000
  C   C323      1.0  0.43748  0.24705  0.82617  1.0000
  C   C324      1.0  0.46535  0.24405  0.84530  1.0000
  C   C325      1.0  0.48157  0.27189  0.85585  1.0000
  H   H265      1.0  0.36372  0.05161  0.71619  1.0000
  P   P10       1.0  0.51770  0.26856  0.88023  1.0000
  S   S48       1.0  0.61540  0.20478  0.68169  1.0000
  H   H266      1.0  0.36358  0.46848  0.80704  1.0000
  C   C326      1.0  0.31924  0.46597  0.78282  1.0000
  C   C327      1.0  0.37057  0.07591  0.72581  1.0000
  H   H267      1.0  0.58622  0.36800  0.79294  1.0000
  C   C328      1.0  0.63171  0.28724  0.50329  1.0000
  C   C329      1.0  0.42564  0.27768  0.81744  1.0000
  H   H268      1.0  0.43234  0.32924  0.82136  1.0000
  H   H269      1.0  0.40448  0.27974  0.80078  1.0000
  H   H270      1.0  0.42930  0.09361  0.93601  1.0000
  C   C330      1.0  0.44060  0.12182  0.83910  1.0000
  P   P11       1.0  0.40205  0.12282  0.84783  1.0000
  H   H271      1.0  0.37636  0.41384  0.77609  1.0000
  C   C331      1.0  0.37906  0.08284  0.77433  1.0000
  C   C332      1.0  0.40750  0.08463  0.93314  1.0000
  S   S49       1.0  0.63248  0.28132  0.66814  1.0000
  H   H272      1.0  0.34809  0.15819  0.83351  1.0000
  C   C333      1.0  0.46921  0.30265  0.84818  1.0000
  C   C334      1.0  0.36889  0.22113  0.90616  1.0000
  C   C335      1.0  0.39735  0.06293  0.96899  1.0000
  C   C336      1.0  0.30990  0.35432  0.83791  1.0000
  C   C337      1.0  0.60985  0.30555  0.48137  1.0000
  H   H273      1.0  0.31925  0.12452  0.63104  1.0000
  C   C338      1.0  0.54127  0.26165  0.97449  1.0000
  H   H274      1.0  0.33537  0.13796  0.95078  1.0000
  H   H275      1.0  0.63557  0.35005  0.81150  1.0000
  C   C339      1.0  0.33112  0.48766  0.89747  1.0000
  C   C340      1.0  0.31544  0.13826  0.97163  1.0000
  C   C341      1.0  0.49395  0.28656  0.97155  1.0000
  H   H276      1.0  0.63042  0.40062  0.86172  1.0000
  Fe  Fe22      1.0  0.30970  0.28250  0.72698  1.0000
  H   H277      1.0  0.31646  0.11628  0.75732  1.0000
  H   H278      1.0  0.55983  0.25106  0.95610  1.0000
  H   H279      1.0  0.34364  0.47303  0.97085  1.0000
  C   C342      1.0  0.57976  0.60433  0.11867  1.0000
  Fe  Fe23      1.0  0.37065  0.74268  0.29672  1.0000
  S   S50       1.0  0.34751  0.73412  0.22358  1.0000
  S   S51       1.0  0.42035  0.73674  0.31029  1.0000
  C   C343      1.0  0.58506  0.57553  0.09287  1.0000
  H   H280      1.0  0.53938  0.86705  0.33020  1.0000
  H   H281      1.0  0.33651  0.85763  0.18898  1.0000
  H   H282      1.0  0.59251  0.82092  0.22073  1.0000
  S   S52       1.0  0.34247  0.78604  0.31766  1.0000
  S   S53       1.0  0.34169  0.70793  0.33920  1.0000
  Fe  Fe24      1.0  0.60720  0.74983  0.28576  1.0000
  H   H283      1.0  0.56604  0.67994  0.34835  1.0000
  S   S54       1.0  0.55766  0.75607  0.27149  1.0000
  C   C344      1.0  0.31509  0.78004  0.98498  1.0000
  C   C345      1.0  0.33379  0.76368  0.01702  1.0000
  C   C346      1.0  0.59230  0.63887  0.32773  1.0000
  H   H284      1.0  0.60285  0.63731  0.36340  1.0000
  H   H285      1.0  0.54760  0.65846  0.06925  1.0000
  H   H286      1.0  0.58479  0.75747  0.15107  1.0000
  C   C347      1.0  0.53643  0.55778  0.11015  1.0000
  C   C348      1.0  0.46869  0.64178  0.24499  1.0000
  C   C349      1.0  0.45847  0.74255  0.29866  1.0000
  C   C350      1.0  0.47893  0.72813  0.33050  1.0000
  C   C351      1.0  0.50902  0.73206  0.32300  1.0000
  C   C352      1.0  0.51953  0.75038  0.28308  1.0000
  C   C353      1.0  0.49910  0.76461  0.25098  1.0000
  C   C354      1.0  0.46899  0.76088  0.25872  1.0000
  H   H287      1.0  0.47141  0.71390  0.36155  1.0000
  H   H288      1.0  0.52407  0.72097  0.34839  1.0000
  H   H289      1.0  0.50659  0.77879  0.21988  1.0000
  H   H290      1.0  0.45387  0.77224  0.23368  1.0000
  C   C355      1.0  0.59977  0.61736  0.28984  1.0000
  C   C356      1.0  0.31868  0.86528  0.16602  1.0000
  H   H291      1.0  0.59240  0.60240  0.21534  1.0000
  C   C357      1.0  0.49630  0.63417  0.22762  1.0000
  H   H292      1.0  0.59691  0.62201  0.12203  1.0000
  H   H293      1.0  0.54247  0.68430  0.26720  1.0000
  H   H294      1.0  0.57929  0.75588  0.05971  1.0000
  H   H295      1.0  0.45869  0.62702  0.27336  1.0000
  C   C358      1.0  0.55844  0.66547  0.27300  1.0000
  H   H296      1.0  0.63482  0.77464  0.06562  1.0000
  C   C359      1.0  0.57420  0.73466  0.08167  1.0000
  C   C360      1.0  0.57087  0.70821  0.16155  1.0000
  H   H297      1.0  0.56771  0.52978  0.06902  1.0000
  C   C361      1.0  0.56342  0.55222  0.08867  1.0000
  C   C362      1.0  0.55286  0.60985  0.14120  1.0000
  S   S55       1.0  0.63513  0.75150  0.21655  1.0000
  H   H298      1.0  0.45641  0.71050  0.17881  1.0000
  C   C363      1.0  0.57752  0.73550  0.13302  1.0000
  C   C364      1.0  0.32451  0.75494  0.06436  1.0000
  H   H299      1.0  0.51011  0.59026  0.15277  1.0000
  H   H300      1.0  0.63556  0.57686  0.16139  1.0000
  H   H301      1.0  0.32680  0.62360  0.08069  1.0000
  H   H302      1.0  0.57982  0.90224  0.35437  1.0000
  H   H303      1.0  0.33838  0.91079  0.14540  1.0000
  H   H304      1.0  0.56117  0.70600  0.01902  1.0000
  H   H305      1.0  0.43333  0.67581  0.24192  1.0000
  C   C365      1.0  0.58963  0.83945  0.24878  1.0000
  H   H306      1.0  0.60616  0.57102  0.07686  1.0000
  H   H307      1.0  0.62182  0.91834  0.21490  1.0000
  C   C366      1.0  0.56583  0.64404  0.23458  1.0000
  H   H308      1.0  0.50761  0.61356  0.24325  1.0000
  H   H309      1.0  0.57357  0.70943  0.20118  1.0000
  C   C367      1.0  0.58641  0.61969  0.24360  1.0000
  C   C368      1.0  0.57158  0.66287  0.31931  1.0000
  H   H310      1.0  0.50493  0.69762  0.14780  1.0000
  Fe  Fe25      1.0  0.31223  0.75030  0.35548  1.0000
  H   H311      1.0  0.33909  0.74292  0.08984  1.0000
  C   C369      1.0  0.53111  0.58650  0.13636  1.0000
  C   C370      1.0  0.56393  0.70660  0.05881  1.0000
  C   C371      1.0  0.56016  0.68009  0.13905  1.0000
  C   C372      1.0  0.55655  0.67956  0.08740  1.0000
  P   P12       1.0  0.54705  0.64672  0.17607  1.0000
  C   C373      1.0  0.50970  0.65387  0.19197  1.0000
  C   C374      1.0  0.49495  0.68127  0.17394  1.0000
  C   C375      1.0  0.46736  0.68878  0.19147  1.0000
  C   C376      1.0  0.45431  0.66920  0.22716  1.0000
  H   H312      1.0  0.51967  0.53968  0.10681  1.0000
  C   C377      1.0  0.56319  0.84244  0.27307  1.0000
  C   C378      1.0  0.60926  0.88288  0.29926  1.0000
  C   C379      1.0  0.55974  0.86538  0.31069  1.0000
  H   H313      1.0  0.35569  0.75838  0.00568  1.0000
  H   H314      1.0  0.54557  0.82637  0.26357  1.0000
  Fe  Fe26      1.0  0.31837  0.77581  0.24638  1.0000
  Fe  Fe27      1.0  0.31745  0.70225  0.26732  1.0000
  H   H315      1.0  0.32705  0.65881  0.15557  1.0000
  H   H316      1.0  0.34365  0.52916  0.00420  1.0000
  S   S56       1.0  0.63424  0.78779  0.32503  1.0000
  C   C380      1.0  0.58272  0.88544  0.32403  1.0000
  C   C381      1.0  0.31966  0.89548  0.14121  1.0000
  C   C382      1.0  0.61263  0.85947  0.26196  1.0000
  H   H317      1.0  0.32597  0.90336  0.99680  1.0000
  H   H318      1.0  0.59882  0.95932  0.30718  1.0000
  H   H319      1.0  0.63656  0.87578  0.08250  1.0000
  S   S57       1.0  0.63291  0.70798  0.31880  1.0000
  H   H320      1.0  0.61608  0.59895  0.29612  1.0000
  C   C383      1.0  0.31173  0.63921  0.15256  1.0000
  C   C384      1.0  0.31155  0.61918  0.11019  1.0000
  C   C385      1.0  0.63441  0.96904  0.43616  1.0000
  C   C386      1.0  0.60867  0.96169  0.34335  1.0000
  H   H321      1.0  0.63993  0.63180  0.19975  1.0000
  H   H322      1.0  0.63327  0.85625  0.24387  1.0000
  H   H323      1.0  0.63169  0.86722  0.40671  1.0000
  P   P13       1.0  0.63995  0.90652  0.31839  1.0000
  C   C387      1.0  0.62930  0.93904  0.35924  1.0000
  C   C388      1.0  0.60069  0.98757  0.37398  1.0000
  C   C389      1.0  0.31423  0.89076  0.96792  1.0000
  C   C390      1.0  0.35071  0.55093  0.77037  1.0000
  H   H324      1.0  0.36163  0.54791  0.80545  1.0000
  C   C391      1.0  0.32290  0.54522  0.88586  1.0000
  H   H325      1.0  0.34678  0.72699  0.71133  1.0000
  C   C392      1.0  0.35468  0.75236  0.77940  1.0000
  H   H326      1.0  0.35143  0.77064  0.64249  1.0000
  C   C393      1.0  0.33089  0.55083  0.93506  1.0000
  C   C394      1.0  0.34467  0.77572  0.81282  1.0000
  C   C395      1.0  0.36254  0.57178  0.73492  1.0000
  H   H327      1.0  0.35678  0.78095  0.84613  1.0000
  H   H328      1.0  0.61683  0.62183  0.89738  1.0000
  C   C396      1.0  0.33908  0.74566  0.73634  1.0000
  H   H329      1.0  0.37451  0.73935  0.78693  1.0000
  C   C397      1.0  0.31901  0.71925  0.53630  1.0000
  H   H330      1.0  0.35855  0.72892  0.49754  1.0000
  C   C398      1.0  0.32432  0.55797  0.67794  1.0000
  C   C399      1.0  0.63245  0.59225  0.95732  1.0000
  C   C400      1.0  0.34666  0.73212  0.53181  1.0000
  H   H331      1.0  0.61677  0.57319  0.95170  1.0000
  H   H332      1.0  0.31965  0.64131  0.94641  1.0000
  H   H333      1.0  0.37964  0.76059  0.56657  1.0000
  H   H334      1.0  0.35848  0.59151  0.66130  1.0000
  P   P14       1.0  0.31018  0.50618  0.80469  1.0000
  C   C401      1.0  0.34247  0.75531  0.61395  1.0000
  H   H335      1.0  0.38215  0.58493  0.74303  1.0000
  C   C402      1.0  0.35844  0.75002  0.57069  1.0000
  C   C403      1.0  0.34928  0.57542  0.68882  1.0000
  C   C404      1.0  0.31250  0.53703  0.71324  1.0000
  C   C405      1.0  0.32529  0.53387  0.76005  1.0000
  C   C406      1.0  0.32327  0.51356  0.86654  1.0000
  H   H336      1.0  0.31108  0.81025  0.82935  1.0000
  C   C407      1.0  0.31900  0.79232  0.80329  1.0000
  H   H337      1.0  0.31173  0.69797  0.97494  1.0000
  C   C408      1.0  0.31308  0.90364  0.92014  1.0000
  C   C409      1.0  0.31350  0.76263  0.72605  1.0000
  H   H338      1.0  0.31563  0.56537  0.86337  1.0000
  C   C410      1.0  0.31468  0.74221  0.61897  1.0000
  H   H339      1.0  0.31421  0.56050  0.64199  1.0000
  H   H340      1.0  0.32276  0.78741  0.94881  1.0000
  C   C411      1.0  0.63259  0.61956  0.92669  1.0000
  H   H341      1.0  0.32405  0.92619  0.91188  1.0000
  C   C412      1.0  0.33870  0.52488  0.96552  1.0000
  H   H342      1.0  0.32995  0.57505  0.95052  1.0000
  C   C413      1.0  0.33878  0.49333  0.94673  1.0000
  H   H343      1.0  0.30947  0.70647  0.50531  1.0000
  Fe  Fe28      1.0  0.86111  0.23992  0.29243  1.0000
  S   S58       1.0  0.83853  0.25165  0.22055  1.0000
  S   S59       1.0  0.91059  0.22984  0.30009  1.0000
  Fe  Fe29      1.0  0.80165  0.23404  0.34935  1.0000
  S   S60       1.0  0.77630  0.24411  0.27976  1.0000
  S   S61       1.0  0.78415  0.23239  0.43052  1.0000
  Fe  Fe30      1.0  0.80777  0.21122  0.24010  1.0000
  S   S62       1.0  0.79629  0.18262  0.17005  1.0000
  Fe  Fe31      1.0  0.80844  0.28355  0.26410  1.0000
  S   S63       1.0  0.78845  0.33314  0.24635  1.0000
  S   S64       1.0  0.83133  0.19791  0.31042  1.0000
  S   S65       1.0  0.83290  0.27501  0.33524  1.0000
  Fe  Fe32      1.0  0.75230  0.01125  0.05134  1.0000
  S   S66       1.0  0.70649  0.01606  0.02498  1.0000
  S   S67       1.0  0.76580  0.03428  0.12495  1.0000
  Fe  Fe33      1.0  0.75263  0.46244  0.02851  1.0000
  S   S68       1.0  0.70448  0.45985  0.03485  1.0000
  S   S69       1.0  0.78328  0.42141  0.05183  1.0000
  C   C414      1.0  0.69658  0.14178  0.09355  1.0000
  H   H344      1.0  0.90979  0.27048  0.40933  1.0000
  H   H345      1.0  0.88942  0.30452  0.23356  1.0000
  H   H346      1.0  0.67339  0.12974  0.21214  1.0000
  H   H347      1.0  0.72268  0.21708  0.41033  1.0000
  C   C415      1.0  0.78270  0.39598  0.10507  1.0000
  C   C416      1.0  0.76645  0.40354  0.14716  1.0000
  C   C417      1.0  0.76816  0.38369  0.18965  1.0000
  C   C418      1.0  0.78571  0.35577  0.19040  1.0000
  C   C419      1.0  0.80126  0.34762  0.14776  1.0000
  C   C420      1.0  0.80002  0.36787  0.10565  1.0000
  H   H348      1.0  0.75315  0.42514  0.14739  1.0000
  H   H349      1.0  0.75605  0.39027  0.22240  1.0000
  H   H350      1.0  0.81482  0.32626  0.14765  1.0000
  H   H351      1.0  0.81283  0.36202  0.07343  1.0000
  C   C421      1.0  0.78701  0.14139  0.15890  1.0000
  C   C422      1.0  0.78626  0.13024  0.10974  1.0000
  C   C423      1.0  0.77881  0.09794  0.09853  1.0000
  C   C424      1.0  0.77292  0.07599  0.13670  1.0000
  C   C425      1.0  0.77375  0.08710  0.18595  1.0000
  C   C426      1.0  0.78025  0.11976  0.19696  1.0000
  H   H352      1.0  0.79200  0.14654  0.08016  1.0000
  H   H353      1.0  0.77840  0.08982  0.06046  1.0000
  H   H354      1.0  0.76922  0.07038  0.21579  1.0000
  H   H355      1.0  0.78017  0.12814  0.23485  1.0000
  C   C427      1.0  0.64263  0.16256  0.02570  1.0000
  C   C428      1.0  0.94854  0.23838  0.29191  1.0000
  H   H356      1.0  0.67985  0.21366  0.46563  1.0000
  H   H357      1.0  0.84763  0.13455  0.23962  1.0000
  C   C429      1.0  0.86926  0.15757  0.14894  1.0000
  C   C430      1.0  0.84156  0.06364  0.01869  1.0000
  P   P15       1.0  0.88015  0.09267  0.16993  1.0000
  H   H358      1.0  0.88980  0.11587  0.06891  1.0000
  H   H359      1.0  0.68921  0.07359  0.19238  1.0000
  C   C431      1.0  0.87179  0.32019  0.44726  1.0000
  C   C432      1.0  0.84224  0.32099  0.43626  1.0000
  P   P16       1.0  0.89764  0.34040  0.40780  1.0000
  C   C433      1.0  0.90412  0.38096  0.43036  1.0000
  C   C434      1.0  0.75738  0.17850  0.01368  1.0000
  C   C435      1.0  0.95566  0.26534  0.40592  1.0000
  H   H360      1.0  0.86057  0.03193  0.21475  1.0000
  C   C436      1.0  0.89311  0.32033  0.30919  1.0000
  C   C437      1.0  0.93089  0.31739  0.40696  1.0000
  H   H361      1.0  0.67759  0.17297  0.14952  1.0000
  H   H362      1.0  0.76148  0.19469  0.04421  1.0000
  C   C438      1.0  0.91473  0.40488  0.39814  1.0000
  H   H363      1.0  0.85923  0.20776  0.13589  1.0000
  H   H364      1.0  0.91908  0.39921  0.35965  1.0000
  H   H365      1.0  0.83429  0.33348  0.40386  1.0000
  H   H366      1.0  0.83259  0.05670  0.98321  1.0000
  H   H367      1.0  0.93884  0.18912  0.21166  1.0000
  H   H368      1.0  0.90789  0.30098  0.31833  1.0000
  C   C439      1.0  0.73285  0.23987  0.14693  1.0000
  H   H369      1.0  0.74964  0.38019  0.45031  1.0000
  H   H370      1.0  0.78914  0.23520  0.09440  1.0000
  C   C440      1.0  0.92341  0.06442  0.22701  1.0000
  H   H371      1.0  0.80130  0.18089  0.98820  1.0000
  C   C441      1.0  0.93014  0.28331  0.40824  1.0000
  H   H372      1.0  0.64705  0.37442  0.45662  1.0000
  C   C442      1.0  0.88403  0.34270  0.34521  1.0000
  C   C443      1.0  0.88256  0.32220  0.26086  1.0000
  C   C444      1.0  0.71878  0.26865  0.13411  1.0000
  C   C445      1.0  0.68460  0.14864  0.14025  1.0000
  H   H373      1.0  0.72332  0.29078  0.15440  1.0000
  C   C446      1.0  0.86405  0.36687  0.33211  1.0000
  H   H374      1.0  0.74831  0.23962  0.17699  1.0000
  H   H375      1.0  0.68157  0.39300  0.08088  1.0000
  C   C447      1.0  0.86268  0.34627  0.24816  1.0000
  H   H376      1.0  0.95480  0.23906  0.40572  1.0000
  C   C448      1.0  0.84404  0.10938  0.24920  1.0000
  C   C449      1.0  0.72492  0.22204  0.44942  1.0000
  C   C450      1.0  0.85338  0.36854  0.28377  1.0000
  H   H377      1.0  0.85638  0.38413  0.35934  1.0000
  C   C451      1.0  0.86417  0.08177  0.11112  1.0000
  C   C452      1.0  0.74565  0.35712  0.43255  1.0000
  C   C453      1.0  0.80858  0.30662  0.00697  1.0000
  C   C454      1.0  0.70764  0.21131  0.08127  1.0000
  C   C455      1.0  0.71506  0.35673  0.08235  1.0000
  C   C456      1.0  0.69901  0.26883  0.09512  1.0000
  C   C457      1.0  0.69352  0.24035  0.06859  1.0000
  C   C458      1.0  0.95352  0.03927  0.14586  1.0000
  C   C459      1.0  0.83321  0.04497  0.27571  1.0000
  H   H378      1.0  0.70901  0.06094  0.10977  1.0000
  C   C460      1.0  0.82109  0.07027  0.30322  1.0000
  H   H379      1.0  0.73823  0.18917  0.13151  1.0000
  C   C461      1.0  0.84334  0.05723  0.10780  1.0000
  H   H380      1.0  0.71831  0.35856  0.12197  1.0000
  C   C462      1.0  0.69246  0.44485  0.46515  1.0000
  H   H381      1.0  0.96197  0.19244  0.32239  1.0000
  H   H382      1.0  0.82879  0.02002  0.28570  1.0000
  H   H383      1.0  0.75281  0.25644  0.03550  1.0000
  C   C463      1.0  0.79459  0.25487  0.06945  1.0000
  C   C464      1.0  0.87488  0.19083  0.15065  1.0000
  C   C465      1.0  0.95758  0.33309  0.40239  1.0000
  H   H384      1.0  0.67821  0.24126  0.03855  1.0000
  C   C466      1.0  0.95872  0.26758  0.27177  1.0000
  H   H385      1.0  0.80725  0.06502  0.33451  1.0000
  C   C467      1.0  0.94905  0.04719  0.23429  1.0000
  H   H386      1.0  0.71433  0.10365  0.04705  1.0000
  H   H387      1.0  0.80004  0.30326  0.45588  1.0000
  C   C468      1.0  0.91414  0.14687  0.19163  1.0000
  H   H388      1.0  0.81614  0.02924  0.05962  1.0000
  H   H389      1.0  0.94356  0.28567  0.25914  1.0000
  H   H390      1.0  0.83754  0.25978  0.09818  1.0000
  H   H391      1.0  0.74909  0.32246  0.07313  1.0000
  C   C469      1.0  0.73250  0.33604  0.05420  1.0000
  H   H392      1.0  0.85396  0.34731  0.21101  1.0000
  H   H393      1.0  0.84924  0.14927  0.13280  1.0000
  C   C470      1.0  0.90000  0.20217  0.17311  1.0000
  H   H394      1.0  0.95886  0.35922  0.40021  1.0000
  C   C471      1.0  0.86215  0.08820  0.02156  1.0000
  C   C472      1.0  0.70503  0.10986  0.08255  1.0000
  C   C473      1.0  0.78019  0.17054  0.98201  1.0000
  C   C474      1.0  0.85097  0.05182  0.23520  1.0000
  C   C475      1.0  0.72918  0.33430  0.00250  1.0000
  C   C476      1.0  0.87355  0.09711  0.06750  1.0000
  P   P17       1.0  0.70063  0.17387  0.04848  1.0000
  H   H395      1.0  0.83735  0.38659  0.27390  1.0000
  C   C477      1.0  0.82195  0.26870  0.07162  1.0000
  C   C478      1.0  0.69141  0.37524  0.00784  1.0000
  C   C479      1.0  0.76337  0.34746  0.39327  1.0000
  H   H396      1.0  0.78042  0.36315  0.38007  1.0000
  C   C480      1.0  0.69443  0.37621  0.05923  1.0000
  C   C481      1.0  0.72719  0.21131  0.12087  1.0000
  C   C482      1.0  0.75210  0.22994  0.46846  1.0000
  H   H397      1.0  0.90397  0.22800  0.17605  1.0000
  H   H398      1.0  0.68796  0.29112  0.08531  1.0000
  C   C483      1.0  0.82899  0.29446  0.04028  1.0000
  C   C484      1.0  0.85618  0.08409  0.22111  1.0000
  H   H399      1.0  0.92827  0.45459  0.39042  1.0000
  H   H400      1.0  0.77330  0.30951  0.34116  1.0000
  C   C485      1.0  0.70199  0.08540  0.11803  1.0000
  H   H401      1.0  0.83505  0.04529  0.14037  1.0000
  H   H402      1.0  0.81730  0.12210  0.31147  1.0000
  H   H403      1.0  0.92943  0.13047  0.20854  1.0000
  C   C486      1.0  0.82673  0.10243  0.29024  1.0000
  C   C487      1.0  0.73750  0.29678  0.38762  1.0000
  H   H404      1.0  0.85006  0.30558  0.04259  1.0000
  C   C488      1.0  0.75932  0.31727  0.37099  1.0000
  H   H405      1.0  0.91226  0.07450  0.25879  1.0000
  C   C489      1.0  0.92003  0.43627  0.41547  1.0000
  H   H406      1.0  0.73493  0.27305  0.37096  1.0000
  C   C490      1.0  0.82261  0.30421  0.46601  1.0000
  C   C491      1.0  0.83235  0.04807  0.06173  1.0000
  C   C492      1.0  0.73005  0.16482  0.00664  1.0000
  C   C493      1.0  0.78095  0.29294  0.00467  1.0000
  C   C494      1.0  0.77415  0.26689  0.03609  1.0000
  C   C495      1.0  0.88882  0.13534  0.16945  1.0000
  C   C496      1.0  0.91483  0.44400  0.46506  1.0000
  H   H407      1.0  0.92028  0.06009  0.10099  1.0000
  C   C497      1.0  0.91967  0.18018  0.19332  1.0000
  H   H408      1.0  0.86932  0.10027  0.98816  1.0000
  C   C498      1.0  0.92790  0.05654  0.13842  1.0000
  C   C499      1.0  0.96923  0.21520  0.30696  1.0000
  C   C500      1.0  0.91252  0.06902  0.17901  1.0000
  H   H409      1.0  0.67639  0.39149  0.98950  1.0000
  C   C501      1.0  0.72324  0.33686  0.44889  1.0000
  C   C502      1.0  0.71951  0.30646  0.42646  1.0000
  C   C503      1.0  0.69566  0.41115  0.46201  1.0000
  H   H410      1.0  0.70315  0.28985  0.43940  1.0000
  C   C504      1.0  0.69078  0.09256  0.16474  1.0000
  H   H411      1.0  0.96529  0.02967  0.11440  1.0000
  C   C505      1.0  0.66840  0.17778  0.01167  1.0000
  C   C506      1.0  0.68197  0.12416  0.17581  1.0000
  H   H412      1.0  0.95738  0.04386  0.27140  1.0000
  H   H413      1.0  0.69024  0.45914  0.43167  1.0000
  C   C507      1.0  0.96408  0.03459  0.19375  1.0000
  H   H414      1.0  0.91903  0.46831  0.47849  1.0000
  H   H415      1.0  0.69567  0.39970  0.42588  1.0000
  H   H416      1.0  0.81431  0.32718  0.98414  1.0000
  C   C508      1.0  0.64316  0.35013  0.46997  1.0000
  C   C509      1.0  0.70884  0.35461  0.97964  1.0000
  H   H417      1.0  0.86879  0.27408  0.55212  1.0000
  S   S70       1.0  0.67795  0.23093  0.72241  1.0000
  S   S71       1.0  0.67073  0.22288  0.57057  1.0000
  S   S72       1.0  0.68650  0.31479  0.77659  1.0000
  C   C510      1.0  0.75414  0.23583  0.51986  1.0000
  C   C511      1.0  0.86139  0.28741  0.51997  1.0000
  S   S73       1.0  0.72042  0.05248  0.88234  1.0000
  C   C512      1.0  0.79441  0.38103  0.85334  1.0000
  H   H418      1.0  0.75868  0.32339  0.52604  1.0000
  S   S74       1.0  0.67119  0.44388  0.90619  1.0000
  H   H419      1.0  0.70516  0.13179  0.96127  1.0000
  C   C513      1.0  0.68165  0.35027  0.81333  1.0000
  H   H420      1.0  0.74775  0.20157  0.88632  1.0000
  C   C514      1.0  0.67605  0.40762  0.87115  1.0000
  C   C515      1.0  0.70335  0.39524  0.85970  1.0000
  C   C516      1.0  0.70607  0.36680  0.83089  1.0000
  H   H421      1.0  0.72237  0.40767  0.87279  1.0000
  H   H422      1.0  0.72725  0.35767  0.82182  1.0000
  H   H423      1.0  0.70111  0.21253  0.84499  1.0000
  C   C517      1.0  0.68549  0.12962  0.80876  1.0000
  C   C518      1.0  0.73684  0.22446  0.89262  1.0000
  C   C519      1.0  0.69683  0.08496  0.86589  1.0000
  C   C520      1.0  0.75623  0.30789  0.60158  1.0000
  C   C521      1.0  0.69169  0.46002  0.51139  1.0000
  C   C522      1.0  0.77603  0.36951  0.93533  1.0000
  H   H424      1.0  0.69359  0.45321  0.59045  1.0000
  H   H425      1.0  0.75574  0.01404  0.72875  1.0000
  H   H426      1.0  0.74446  0.99883  0.81536  1.0000
  C   C523      1.0  0.72973  0.23410  0.55145  1.0000
  C   C524      1.0  0.70263  0.22593  0.53248  1.0000
  H   H427      1.0  0.77485  0.24149  0.53563  1.0000
  H   H428      1.0  0.73197  0.23860  0.59067  1.0000
  H   H429      1.0  0.79369  0.14193  0.91922  1.0000
  C   C525      1.0  0.78841  0.34919  0.83891  1.0000
  H   H430      1.0  0.77137  0.37786  0.97251  1.0000
  Fe  Fe34      1.0  0.70424  0.47122  0.95346  1.0000
  H   H431      1.0  0.66651  0.07825  0.92521  1.0000
  H   H432      1.0  0.69940  0.39406  0.58546  1.0000
  C   C526      1.0  0.74885  0.13485  0.93601  1.0000
  C   C527      1.0  0.70350  0.10382  0.82393  1.0000
  C   C528      1.0  0.65377  0.11807  0.87740  1.0000
  C   C529      1.0  0.70887  0.28380  0.90738  1.0000
  C   C530      1.0  0.77596  0.14858  0.94333  1.0000
  C   C531      1.0  0.76372  0.99127  0.74349  1.0000
  H   H433      1.0  0.67657  0.26532  0.85766  1.0000
  C   C532      1.0  0.73536  0.27801  0.93097  1.0000
  C   C533      1.0  0.76975  0.33754  0.92109  1.0000
  C   C534      1.0  0.67195  0.09246  0.89289  1.0000
  H   H434      1.0  0.68901  0.20730  0.95613  1.0000
  P   P18       1.0  0.75346  0.31006  0.96493  1.0000
  H   H435      1.0  0.77830  0.29935  0.60232  1.0000
  Fe  Fe35      1.0  0.65345  0.23308  0.65026  1.0000
  H   H436      1.0  0.69653  0.31145  0.67430  1.0000
  C   C535      1.0  0.78834  0.39112  0.90161  1.0000
  H   H437      1.0  0.67587  0.28575  0.52569  1.0000
  S   S75       1.0  0.75252  0.47197  0.94600  1.0000
  C   C536      1.0  0.66513  0.33206  0.49286  1.0000
  C   C537      1.0  0.74928  0.24806  0.92307  1.0000
  C   C538      1.0  0.69438  0.44153  0.55451  1.0000
  H   H438      1.0  0.77134  0.30303  0.86054  1.0000
  C   C539      1.0  0.71014  0.31460  0.64212  1.0000
  H   H439      1.0  0.69796  0.30682  0.91062  1.0000
  C   C540      1.0  0.65439  0.36250  0.82501  1.0000
  C   C541      1.0  0.74497  0.32159  0.55831  1.0000
  H   H440      1.0  0.77019  0.24314  0.93904  1.0000
  H   H441      1.0  0.67641  0.33581  0.59883  1.0000
  C   C542      1.0  0.71059  0.23061  0.86921  1.0000
  Fe  Fe36      1.0  0.65541  0.27799  0.74174  1.0000
  H   H442      1.0  0.74563  0.11754  0.90633  1.0000
  H   H443      1.0  0.72267  0.09828  0.80273  1.0000
  P   P19       1.0  0.70089  0.34860  0.50067  1.0000
  C   C543      1.0  0.69766  0.40782  0.55150  1.0000
  C   C544      1.0  0.69882  0.32841  0.59913  1.0000
  C   C545      1.0  0.66032  0.13672  0.83512  1.0000
  H   H444      1.0  0.69083  0.14361  0.77614  1.0000
  C   C546      1.0  0.69658  0.26020  0.87684  1.0000
  Fe  Fe37      1.0  0.72542  0.01736  0.94790  1.0000
  H   H445      1.0  0.68878  0.48608  0.51382  1.0000
  C   C547      1.0  0.71612  0.33199  0.55680  1.0000
  C   C548      1.0  0.69827  0.39233  0.50517  1.0000
  C   C549      1.0  0.65162  0.39110  0.85348  1.0000
  C   C550      1.0  0.73880  0.30436  0.64345  1.0000
  C   C551      1.0  0.77616  0.32744  0.87266  1.0000
  H   H446      1.0  0.79294  0.41578  0.91308  1.0000
  H   H447      1.0  0.79281  0.34146  0.80133  1.0000
  H   H448      1.0  0.74726  0.29330  0.67683  1.0000
  H   H449      1.0  0.80360  0.39800  0.82712  1.0000
  C   C552      1.0  0.66928  0.19564  0.96753  1.0000
  C   C553      1.0  0.83221  0.28723  0.50756  1.0000
  H   H450      1.0  0.70732  0.35581  0.93985  1.0000
  C   C554      1.0  0.72595  0.14298  0.96735  1.0000
  H   H451      1.0  0.90038  0.42629  0.53587  1.0000
  C   C555      1.0  0.65923  0.30035  0.50870  1.0000
  C   C556      1.0  0.70055  0.22002  0.48110  1.0000
  S   S76       1.0  0.77139  0.01516  0.97499  1.0000
  H   H452      1.0  0.81706  0.27343  0.52953  1.0000
  C   C557      1.0  0.88111  0.30398  0.49014  1.0000
  H   H453      1.0  0.90370  0.30359  0.50005  1.0000
  H   H454      1.0  0.64591  0.21142  0.90295  1.0000
  C   C558      1.0  0.64486  0.19829  0.93770  1.0000
  H   H455      1.0  0.89101  0.37090  0.50588  1.0000
  C   C559      1.0  0.90434  0.42031  0.49738  1.0000
  C   C560      1.0  0.89902  0.38888  0.48017  1.0000
  Fe  Fe38      1.0  0.66145  0.74624  0.35443  1.0000
  S   S77       1.0  0.69139  0.74748  0.28974  1.0000
  S   S78       1.0  0.67686  0.74238  0.43612  1.0000
  H   H456      1.0  0.70894  0.81033  0.41239  1.0000
  S   S79       1.0  0.68969  0.82713  0.22319  1.0000
  Fe  Fe39      1.0  0.70803  0.96134  0.01839  1.0000
  S   S80       1.0  0.67242  0.92746  0.04551  1.0000
  S   S81       1.0  0.75271  0.95650  0.04839  1.0000
  Fe  Fe40      1.0  0.70543  0.51407  0.04760  1.0000
  S   S82       1.0  0.67434  0.53768  0.10333  1.0000
  S   S83       1.0  0.75385  0.51580  0.04758  1.0000
  C   C561      1.0  0.68355  0.63858  0.17609  1.0000
  C   C562      1.0  0.70667  0.62466  0.14992  1.0000
  C   C563      1.0  0.70417  0.59401  0.12721  1.0000
  C   C564      1.0  0.67846  0.57661  0.13091  1.0000
  C   C565      1.0  0.73200  0.81574  0.98281  1.0000
  H   H457      1.0  0.69843  0.67272  0.35335  1.0000
  H   H458      1.0  0.72224  0.58369  0.10730  1.0000
  S   S84       1.0  0.68833  0.67755  0.20317  1.0000
  C   C566      1.0  0.73859  0.68204  0.05768  1.0000
  C   C567      1.0  0.67813  0.89794  0.09259  1.0000
  C   C568      1.0  0.70345  0.89733  0.12050  1.0000
  C   C569      1.0  0.70653  0.87526  0.15990  1.0000
  C   C570      1.0  0.68460  0.85314  0.17156  1.0000
  C   C571      1.0  0.78438  0.77373  0.98367  1.0000
  H   H459      1.0  0.72029  0.91459  0.11292  1.0000
  H   H460      1.0  0.72593  0.87568  0.18201  1.0000
  Fe  Fe41      1.0  0.66309  0.78641  0.25760  1.0000
  H   H461      1.0  0.81853  0.91672  0.08328  1.0000
  C   C572      1.0  0.69641  0.95856  0.23337  1.0000
  Fe  Fe42      1.0  0.66187  0.71223  0.25164  1.0000
  H   H462      1.0  0.73699  0.75819  0.40734  1.0000
  C   C573      1.0  0.73473  0.67816  0.40209  1.0000
  C   C574      1.0  0.70869  0.66447  0.38716  1.0000
  H   H463      1.0  0.67517  0.63059  0.40507  1.0000
  C   C575      1.0  0.74424  0.63182  0.01213  1.0000
  H   H464      1.0  0.67203  0.67942  0.07414  1.0000
  H   H465      1.0  0.91534  0.62460  0.05846  1.0000
  H   H466      1.0  0.65267  0.56813  0.01874  1.0000
  H   H467      1.0  0.81284  0.83795  0.98119  1.0000
  H   H468      1.0  0.65910  0.92667  0.41815  1.0000
  C   C576      1.0  0.69637  0.82937  0.39520  1.0000
  C   C577      1.0  0.74767  0.66838  0.44640  1.0000
  H   H469      1.0  0.72683  0.63750  0.14781  1.0000
  H   H470      1.0  0.74944  0.57709  0.46448  1.0000
  H   H471      1.0  0.71964  0.85386  0.03415  1.0000
  C   C578      1.0  0.73633  0.75456  0.44697  1.0000
  C   C579      1.0  0.65706  0.92612  0.26624  1.0000
  H   H472      1.0  0.68887  0.61064  0.03176  1.0000
  C   C580      1.0  0.65282  0.86168  0.39192  1.0000
  C   C581      1.0  0.70644  0.84471  0.35249  1.0000
  C   C582      1.0  0.68982  0.86872  0.32955  1.0000
  C   C583      1.0  0.66823  0.70150  0.05316  1.0000
  C   C584      1.0  0.72927  0.66093  0.02014  1.0000
  H   H473      1.0  0.72670  0.83723  0.33607  1.0000
  H   H474      1.0  0.69754  0.87913  0.29530  1.0000
  C   C585      1.0  0.76193  0.67351  0.08772  1.0000
  C   C586      1.0  0.78547  0.88166  0.09913  1.0000
  C   C587      1.0  0.81858  0.87771  0.03030  1.0000
  C   C588      1.0  0.71506  0.84188  0.99943  1.0000
  H   H475      1.0  0.87662  0.79172  0.98301  1.0000
  C   C589      1.0  0.78165  0.83659  0.04117  1.0000
  C   C590      1.0  0.77201  0.85313  0.08370  1.0000
  P   P20       1.0  0.76202  0.80135  0.01968  1.0000
  C   C591      1.0  0.68371  0.94162  0.27261  1.0000
  H   H476      1.0  0.69470  0.94049  0.30789  1.0000
  H   H477      1.0  0.79387  0.63701  0.10423  1.0000
  C   C592      1.0  0.65536  0.59035  0.15761  1.0000
  H   H478      1.0  0.69224  0.97355  0.15718  1.0000
  H   H479      1.0  0.76736  0.68016  0.45773  1.0000
  H   H480      1.0  0.66147  0.82493  0.44703  1.0000
  C   C593      1.0  0.66296  0.87757  0.34932  1.0000
  C   C594      1.0  0.65952  0.85301  0.14290  1.0000
  C   C595      1.0  0.94226  0.64404  0.00063  1.0000
  C   C596      1.0  0.80867  0.89404  0.07230  1.0000
  H   H481      1.0  0.74450  0.69706  0.37987  1.0000
  C   C597      1.0  0.74956  0.78134  0.07523  1.0000
  C   C598      1.0  0.76974  0.77104  0.11067  1.0000
  C   C599      1.0  0.76057  0.75617  0.15442  1.0000
  C   C600      1.0  0.73122  0.75209  0.16355  1.0000
  C   C601      1.0  0.71101  0.76329  0.12936  1.0000
  C   C602      1.0  0.72007  0.77771  0.08515  1.0000
  C   C603      1.0  0.76742  0.62326  0.04243  1.0000
  H   H482      1.0  0.80757  0.69491  0.98071  1.0000
  C   C604      1.0  0.77623  0.64402  0.08029  1.0000
  H   H483      1.0  0.77840  0.60030  0.03661  1.0000
  H   H484      1.0  0.75363  0.84447  0.10455  1.0000
  C   C605      1.0  0.66957  0.83779  0.41488  1.0000
  H   H485      1.0  0.78006  0.73244  0.03308  1.0000
  C   C606      1.0  0.69560  0.64075  0.41640  1.0000
  C   C607      1.0  0.65778  0.62132  0.17969  1.0000
  C   C608      1.0  0.64244  0.94313  0.40561  1.0000
  C   C609      1.0  0.71015  0.74656  0.46978  1.0000
  C   C610      1.0  0.67992  0.70529  0.00552  1.0000
  H   H486      1.0  0.76840  0.68936  0.11763  1.0000
  C   C611      1.0  0.91617  0.63968  0.02561  1.0000
  H   H487      1.0  0.72789  0.70497  0.06424  1.0000
  H   H488      1.0  0.79256  0.77465  0.10446  1.0000
  H   H489      1.0  0.77612  0.74817  0.18169  1.0000
  H   H490      1.0  0.72405  0.74066  0.19749  1.0000
  H   H491      1.0  0.73785  0.61557  0.98262  1.0000
  H   H492      1.0  0.70401  0.78652  0.05955  1.0000
  C   C612      1.0  0.80509  0.84924  0.01457  1.0000
  H   H493      1.0  0.77739  0.89464  0.13118  1.0000
  H   H494      1.0  0.78169  0.76440  0.45709  1.0000
  C   C613      1.0  0.78906  0.74149  0.99898  1.0000
  H   H495      1.0  0.87085  0.65088  0.02707  1.0000
  C   C614      1.0  0.65627  0.87546  0.10375  1.0000
  H   H496      1.0  0.71727  0.96988  0.23802  1.0000
  C   C615      1.0  0.73480  0.64433  0.47585  1.0000
  C   C616      1.0  0.68225  0.96089  0.18793  1.0000
  C   C617      1.0  0.65274  0.58936  0.99515  1.0000
  H   H497      1.0  0.68831  0.76128  0.13791  1.0000
  C   C618      1.0  0.65804  0.75885  0.00068  1.0000
  C   C619      1.0  0.89113  0.65454  0.00797  1.0000
  C   C620      1.0  0.65533  0.94645  0.18178  1.0000
  H   H498      1.0  0.74590  0.51791  0.47678  1.0000
  C   C621      1.0  0.70857  0.63067  0.46056  1.0000
  C   C622      1.0  0.65178  0.72628  0.07445  1.0000
  H   H499      1.0  0.83598  0.88795  0.00860  1.0000
  C   C623      1.0  0.67348  0.61344  0.00209  1.0000
  H   H500      1.0  0.96165  0.63240  0.01421  1.0000
  C   C624      1.0  0.64697  0.75512  0.04851  1.0000
  H   H501      1.0  0.64321  0.72316  0.11152  1.0000
  H   H502      1.0  0.64452  0.94810  0.14630  1.0000
  H   H503      1.0  0.64246  0.83611  0.15146  1.0000
  C   C625      1.0  0.64272  0.92917  0.22070  1.0000
  H   H504      1.0  0.65419  0.78119  0.98053  1.0000
  C   C626      1.0  0.76177  0.75802  0.47542  1.0000
  H   H505      1.0  0.64457  0.97208  0.47196  1.0000
  H   H506      1.0  0.67919  0.87348  0.98375  1.0000
  Fe  Fe43      1.0  0.80826  0.77287  0.75053  1.0000
  S   S85       1.0  0.83508  0.78791  0.68499  1.0000
  S   S86       1.0  0.77973  0.80418  0.80085  1.0000
  Fe  Fe44      1.0  0.81610  0.70070  0.72718  1.0000
  S   S87       1.0  0.84410  0.71120  0.66031  1.0000
  S   S88       1.0  0.79977  0.64909  0.74149  1.0000
  Fe  Fe45      1.0  0.86658  0.74840  0.70844  1.0000
  S   S89       1.0  0.91530  0.76309  0.71423  1.0000
  Fe  Fe46      1.0  0.81092  0.74971  0.64141  1.0000
  S   S90       1.0  0.79483  0.75843  0.56105  1.0000
  S   S91       1.0  0.84015  0.73523  0.77666  1.0000
  S   S92       1.0  0.78242  0.73728  0.70549  1.0000
  H   H507      1.0  0.74193  0.49515  0.56166  1.0000
  S   S93       1.0  0.72224  0.96293  0.93832  1.0000
  H   H508      1.0  0.74059  0.53202  0.63422  1.0000
  H   H509      1.0  0.70678  0.63602  0.88544  1.0000
  H   H510      1.0  0.89900  0.67911  0.70764  1.0000
  S   S94       1.0  0.77691  0.56911  0.94066  1.0000
  C   C627      1.0  0.76177  0.75330  0.52717  1.0000
  C   C628      1.0  0.73569  0.74494  0.54993  1.0000
  H   H511      1.0  0.73509  0.74110  0.58952  1.0000
  H   H512      1.0  0.69018  0.73585  0.53985  1.0000
  C   C629      1.0  0.79191  0.62842  0.79781  1.0000
  C   C630      1.0  0.79968  0.64080  0.84414  1.0000
  C   C631      1.0  0.79439  0.62257  0.88745  1.0000
  C   C632      1.0  0.78084  0.59204  0.88518  1.0000
  C   C633      1.0  0.77225  0.58018  0.83902  1.0000
  C   C634      1.0  0.77800  0.59816  0.79563  1.0000
  H   H513      1.0  0.81027  0.66407  0.84645  1.0000
  H   H514      1.0  0.80103  0.63202  0.92298  1.0000
  H   H515      1.0  0.76196  0.55673  0.83663  1.0000
  H   H516      1.0  0.77189  0.58833  0.76006  1.0000
  C   C635      1.0  0.78693  0.83946  0.83656  1.0000
  C   C636      1.0  0.76370  0.85558  0.85932  1.0000
  C   C637      1.0  0.76818  0.88249  0.89053  1.0000
  C   C638      1.0  0.79607  0.89390  0.89903  1.0000
  C   C639      1.0  0.81939  0.87758  0.87669  1.0000
  C   C640      1.0  0.81487  0.85068  0.84525  1.0000
  H   H517      1.0  0.74202  0.84728  0.85263  1.0000
  H   H518      1.0  0.75000  0.89458  0.90760  1.0000
  H   H519      1.0  0.84103  0.88616  0.88316  1.0000
  H   H520      1.0  0.83290  0.83867  0.82776  1.0000
  C   C641      1.0  0.79988  0.86616  0.62761  1.0000
  C   C642      1.0  0.95312  0.75172  0.71057  1.0000
  H   H521      1.0  0.92294  0.70738  0.77619  1.0000
  C   C643      1.0  0.74512  0.53400  0.50849  1.0000
  H   H522      1.0  0.94687  0.70243  0.68674  1.0000
  C   C644      1.0  0.71017  0.74184  0.52152  1.0000
  C   C645      1.0  0.83864  0.62445  0.51682  1.0000
  C   C646      1.0  0.84336  0.89888  0.73208  1.0000
  H   H523      1.0  0.78857  0.93467  0.60154  1.0000
  C   C647      1.0  0.76394  0.82462  0.64083  1.0000
  H   H524      1.0  0.69732  0.80114  0.87372  1.0000
  C   C648      1.0  0.72513  0.80099  0.93744  1.0000
  C   C649      1.0  0.89051  0.87469  0.78589  1.0000
  C   C650      1.0  0.95580  0.70947  0.86439  1.0000
  C   C651      1.0  0.77190  0.86582  0.70334  1.0000
  H   H525      1.0  0.79072  0.80759  0.92369  1.0000
  C   C652      1.0  0.88150  0.79040  0.85751  1.0000
  H   H526      1.0  0.85447  0.61836  0.81137  1.0000
  C   C653      1.0  0.70677  0.66755  0.57889  1.0000
  C   C654      1.0  0.94334  0.66313  0.95783  1.0000
  C   C655      1.0  0.78509  0.83874  0.61114  1.0000
  C   C656      1.0  0.79532  0.78358  0.93764  1.0000
  C   C657      1.0  0.88239  0.65450  0.84327  1.0000
  C   C658      1.0  0.74395  0.57551  0.59039  1.0000
  C   C659      1.0  0.86939  0.63797  0.80403  1.0000
  C   C660      1.0  0.74853  0.65654  0.62992  1.0000
  H   H527      1.0  0.73793  0.78138  0.92288  1.0000
  H   H528      1.0  0.80803  0.96539  0.53056  1.0000
  C   C661      1.0  0.70804  0.68638  0.66382  1.0000
  C   C662      1.0  0.78414  0.93269  0.78202  1.0000
  Fe  Fe47      1.0  0.76698  0.96073  0.96905  1.0000
  C   C663      1.0  0.87518  0.64693  0.75521  1.0000
  C   C664      1.0  0.81060  0.94326  0.60270  1.0000
  C   C665      1.0  0.78057  0.97067  0.71400  1.0000
  C   C666      1.0  0.91824  0.67807  0.93973  1.0000
  C   C667      1.0  0.85709  0.86998  0.71762  1.0000
  H   H529      1.0  0.90012  0.75223  0.81449  1.0000
  C   C668      1.0  0.71699  0.65945  0.88131  1.0000
  H   H530      1.0  0.79189  0.91015  0.79751  1.0000
  C   C669      1.0  0.73063  0.66669  0.83649  1.0000
  C   C670      1.0  0.75740  0.83812  0.68694  1.0000
  P   P21       1.0  0.81358  0.91455  0.69609  1.0000
  H   H531      1.0  0.74166  0.82659  0.71074  1.0000
  H   H532      1.0  0.87009  0.94467  0.67670  1.0000
  C   C671      1.0  0.79117  0.94125  0.73323  1.0000
  C   C672      1.0  0.96867  0.73983  0.87235  1.0000
  C   C673      1.0  0.89494  0.75254  0.94020  1.0000
  C   C674      1.0  0.87733  0.90380  0.80007  1.0000
  H   H533      1.0  0.66778  0.84754  0.90367  1.0000
  C   C675      1.0  0.89450  0.67201  0.74548  1.0000
  H   H534      1.0  0.81703  0.87572  0.60478  1.0000
  C   C676      1.0  0.79316  0.88024  0.67364  1.0000
  H   H535      1.0  0.69788  0.61269  0.48322  1.0000
  H   H536      1.0  0.82760  0.71353  0.90022  1.0000
  H   H537      1.0  0.74391  0.59099  0.62272  1.0000
  C   C677      1.0  0.69376  0.68383  0.61852  1.0000
  H   H538      1.0  0.88511  0.91691  0.83211  1.0000
  C   C678      1.0  0.82796  0.93703  0.64420  1.0000
  Fe  Fe48      1.0  0.74978  0.52531  0.96530  1.0000
  C   C679      1.0  0.81113  0.76211  0.90811  1.0000
  H   H539      1.0  0.87651  0.80494  0.82521  1.0000
  H   H540      1.0  0.76693  0.87518  0.73973  1.0000
  C   C680      1.0  0.85629  0.94884  0.64506  1.0000
  C   C681      1.0  0.90783  0.68826  0.78455  1.0000
  C   C682      1.0  0.74677  0.71784  0.87016  1.0000
  C   C683      1.0  0.97136  0.68524  0.83919  1.0000
  H   H541      1.0  0.96375  0.66594  0.93899  1.0000
  C   C684      1.0  0.85389  0.91594  0.77323  1.0000
  C   C685      1.0  0.90180  0.67991  0.83385  1.0000
  C   C686      1.0  0.86715  0.96630  0.60476  1.0000
  H   H542      1.0  0.83499  0.70420  0.54867  1.0000
  H   H543      1.0  0.69809  0.69922  0.69440  1.0000
  H   H544      1.0  0.73057  0.64915  0.80659  1.0000
  H   H545      1.0  0.85421  0.60598  0.50674  1.0000
  H   H546      1.0  0.81900  0.76999  0.87228  1.0000
  H   H547      1.0  0.84994  0.85684  0.68529  1.0000
  H   H548      1.0  0.79055  0.82780  0.57583  1.0000
  H   H549      1.0  0.67274  0.69486  0.61380  1.0000
  H   H550      1.0  0.89079  0.83536  0.73319  1.0000
  C   C687      1.0  0.81587  0.73028  0.92382  1.0000
  C   C688      1.0  0.73329  0.71055  0.91522  1.0000
  C   C689      1.0  0.73436  0.65390  0.58417  1.0000
  H   H551      1.0  0.87723  0.64695  0.88043  1.0000
  H   H552      1.0  0.86444  0.63462  0.72499  1.0000
  C   C690      1.0  0.71749  0.68182  0.92057  1.0000
  P   P22       1.0  0.91906  0.70202  0.88361  1.0000
  C   C691      1.0  0.90104  0.74062  0.89251  1.0000
  H   H553      1.0  0.75866  0.74024  0.86561  1.0000
  H   H554      1.0  0.75652  0.70112  0.79642  1.0000
  C   C692      1.0  0.88044  0.85784  0.74457  1.0000
  C   C693      1.0  0.74540  0.69593  0.83083  1.0000
  C   C694      1.0  0.89468  0.76014  0.85143  1.0000
  H   H555      1.0  0.88907  0.97524  0.60557  1.0000
  C   C695      1.0  0.87480  0.80170  0.90489  1.0000
  H   H556      1.0  0.75313  0.80279  0.62845  1.0000
  H   H557      1.0  0.90862  0.86524  0.80669  1.0000
  C   C696      1.0  0.76746  0.95342  0.81146  1.0000
  H   H558      1.0  0.74638  0.67445  0.70467  1.0000
  C   C697      1.0  0.73531  0.67257  0.66954  1.0000
  H   H559      1.0  0.76982  0.64621  0.63520  1.0000
  C   C698      1.0  0.70192  0.81217  0.90925  1.0000
  S   S95       1.0  0.80266  0.92908  0.93543  1.0000
  H   H560      1.0  0.76262  0.94694  0.84942  1.0000
  H   H561      1.0  0.69538  0.66636  0.54406  1.0000
  C   C699      1.0  0.84980  0.97221  0.56349  1.0000
  S   S96       1.0  0.70126  0.52547  0.96648  1.0000
  C   C700      1.0  0.88159  0.78280  0.94624  1.0000
  H   H562      1.0  0.80260  0.59254  0.50983  1.0000
  C   C701      1.0  0.96254  0.72062  0.69654  1.0000
  H   H563      1.0  0.84411  0.93861  0.78474  1.0000
  H   H564      1.0  0.68196  0.73702  0.94151  1.0000
  H   H565      1.0  0.65312  0.66485  0.90966  1.0000
  H   H566      1.0  0.78338  0.69087  0.55360  1.0000
  H   H567      1.0  0.86440  0.82509  0.90951  1.0000
  C   C702      1.0  0.97448  0.77478  0.72252  1.0000
  C   C703      1.0  0.69191  0.85304  0.97104  1.0000
  C   C704      1.0  0.67419  0.64057  0.97076  1.0000
  C   C705      1.0  0.78904  0.64078  0.53214  1.0000
  H   H568      1.0  0.96789  0.79892  0.73343  1.0000
  C   C706      1.0  0.82152  0.96074  0.56250  1.0000
  C   C707      1.0  0.74214  0.54193  0.59711  1.0000
  H   H569      1.0  0.87249  0.68486  0.95184  1.0000
  P   P23       1.0  0.75098  0.63180  0.53374  1.0000
  C   C708      1.0  0.74635  0.58863  0.54257  1.0000
  C   C709      1.0  0.68539  0.83832  0.92593  1.0000
  C   C710      1.0  0.89215  0.67374  0.96533  1.0000
  H   H570      1.0  0.73532  0.72704  0.94611  1.0000
  C   C711      1.0  0.84793  0.65587  0.52770  1.0000
  C   C712      1.0  0.82789  0.67971  0.54066  1.0000
  C   C713      1.0  0.80929  0.61692  0.51878  1.0000
  H   H571      1.0  0.90078  0.73887  0.97284  1.0000
  C   C714      1.0  0.79862  0.67215  0.54331  1.0000
  C   C715      1.0  0.75728  0.98272  0.79229  1.0000
  H   H572      1.0  0.87063  0.66183  0.52609  1.0000
  C   C716      1.0  0.74284  0.52117  0.55623  1.0000
  H   H573      1.0  0.96179  0.66177  0.83209  1.0000
  H   H574      1.0  0.78535  0.97810  0.67658  1.0000
  C   C717      1.0  0.65326  0.64376  0.93359  1.0000
  C   C718      1.0  0.80470  0.71992  0.96916  1.0000
  H   H575      1.0  0.95717  0.75907  0.89120  1.0000
  C   C719      1.0  0.74695  0.56758  0.50164  1.0000
  H   H576      1.0  0.85826  0.98575  0.53232  1.0000
  P   P24       1.0  0.70043  0.67232  0.97894  1.0000
  C   C720      1.0  0.67421  0.73390  0.97895  1.0000
