data_image0
_chemical_formula_structural       CHS2FeSHC2HC6H6C2PHC2HC2H3C5HCHCHC2H3SCHC2HC2HC2HC2H2FeC4H2C2HCH2FeH5CH3S2H2FeS2FeHSCH2C6H4C6H8SCH2C2HCHC6PCH6SC2HPCH2C3HC12SHC2H3C2HCHCHFeC2HCSC2H2C4H2CSCHC2H3SFeSCHS2FeHSFeC2FeSCSC7HCH2C5H3CSPC4HC8SC2FeC2H3CH3FeHCHCH2CHC2HC3HCH2SH3PC3HC2HC2H2CSCHCH3CH4C2HC2SFeHSFeHSFeS2C8H2SC6H10CHC4HCPHC2H2C4HCHC3H2C3HS2H2C2HC2HCHC4H2C4S2CSFeS2FeS2FeS2C6H6C6H5C2H2CH6CH2CH2C5H2C3HC3HCH4PC5PC2HC7HPHCH2SH7CH2CH2C3HC2HC8H5CH2FeCHC2H2C5FeC2HC2H3C2H2Fe2HCH2CHFeC3HC3FeSHC4H2C6H2CH2CHCSCH2PCHC4HCH2C2HCH3CHCH2C2H3SHC3H2C5HSH5CH2C3H3C5H2SCPCHCSHCHFeS2CFeSFeS2HCPC7H4C6HC2HCHC2H2C7HC2HSHCH2C2SC2H2C2H2CHC3HC2PHC3H3C5H2C2H5SH2C2HCHCHCHC4H2CH3C2HPHC3S2FeS2FeS2FeSC3HCS2PH2C6H4C6H5CH2SCH3C2HC2HSH3CHC5PC5HC4HC7H5C2FeH11C2FeC4H3CH2SFeC2HCHC3HC2FeHC4H2CHCH4CHCFeCFeSCH2C3HC2H4C2H4C4H5C4HC3H2CH3C3H2CH2CH2CHCPC5H6C2HC2SH3C3H2C5SCH2CHCHCH3CHCFeS2FeSC6H4CH4CH3CH3C6PC2PC3H2C7HCH9C2H3C4H3CH2C3H2SCHCHCHCSH2C2HCH2C3H2FeHCHC2HC3SHCH2C2FeCSFeS2H2SH2C3H2S2HSH3C6H4C6HSCH8CHC2FeHCH3CHC6PC18SCH19C2H2C7PC7HCH2Fe2SCHC3H2C2HFeSHFeSCSH3C6HCH3C2H3C5FeHCHPC2H2CH3FeC4HC2H2C2HC6HCHCHC2HSH3C4HCHCHCPCHC2PC5SHSC3H3C2HSC2H2C2HCH2CHSC3HC2
_chemical_formula_sum              "C720 H576 S96 Fe48 P24"
_cell_length_a       37.97
_cell_length_b       30.8291
_cell_length_c       45.263
_cell_angle_alpha    89.8893
_cell_angle_beta     90.1922
_cell_angle_gamma    89.8226

_space_group_name_H-M_alt    "P 1"
_space_group_IT_number       1

loop_
  _space_group_symop_operation_xyz
  'x, y, z'

loop_
  _atom_site_type_symbol
  _atom_site_label
  _atom_site_symmetry_multiplicity
  _atom_site_fract_x
  _atom_site_fract_y
  _atom_site_fract_z
  _atom_site_occupancy
  C   C1        1.0  0.05386  0.19188  0.13156  1.0000
  H   H1        1.0  0.11132  0.01318  0.20758  1.0000
  S   S1        1.0  0.04452  0.19295  0.05575  1.0000
  S   S2        1.0  0.26897  0.05579  0.02411  1.0000
  Fe  Fe1       1.0  0.21120  0.04027  0.01814  1.0000
  S   S3        1.0  0.16464  0.04756  0.04975  1.0000
  H   H2        1.0  0.09047  0.23613  0.11153  1.0000
  C   C2        1.0  0.04944  0.15142  0.14502  1.0000
  C   C3        1.0  0.01947  0.45937  0.13882  1.0000
  H   H3        1.0  0.01801  0.27301  0.03343  1.0000
  C   C4        1.0  0.07682  0.15123  0.05183  1.0000
  C   C5        1.0  0.10967  0.16107  0.03919  1.0000
  C   C6        1.0  0.13637  0.12919  0.03695  1.0000
  C   C7        1.0  0.13055  0.08717  0.04763  1.0000
  C   C8        1.0  0.09738  0.07707  0.05939  1.0000
  C   C9        1.0  0.07070  0.10876  0.06146  1.0000
  H   H4        1.0  0.11474  0.19367  0.03148  1.0000
  H   H5        1.0  0.16181  0.13751  0.02790  1.0000
  H   H6        1.0  0.09239  0.04451  0.06716  1.0000
  H   H7        1.0  0.04562  0.10029  0.07088  1.0000
  H   H8        1.0  0.33059  0.42207  0.30399  1.0000
  H   H9        1.0  0.14269  0.19035  0.12258  1.0000
  C   C10       1.0  0.15824  0.01032  0.13163  1.0000
  C   C11       1.0  0.08737  0.20569  0.12320  1.0000
  P   P1        1.0  0.07234  0.07197  0.16725  1.0000
  H   H10       1.0  0.13577  0.12064  0.14816  1.0000
  C   C12       1.0  0.00412  0.29131  0.05021  1.0000
  C   C13       1.0  0.03893  0.02376  0.12285  1.0000
  H   H11       1.0  0.08197  0.14667  0.20741  1.0000
  C   C14       1.0  0.32638  0.45434  0.29515  1.0000
  C   C15       1.0  0.06971  0.12051  0.21954  1.0000
  H   H12       1.0  0.01131  0.13223  0.01254  1.0000
  H   H13       1.0  0.06476  0.15894  0.25916  1.0000
  H   H14       1.0  0.01275  0.99110  0.08688  1.0000
  C   C16       1.0  0.00082  0.05206  0.16104  1.0000
  C   C17       1.0  0.10462  0.98420  0.99483  1.0000
  C   C18       1.0  0.12850  0.03651  0.13538  1.0000
  C   C19       1.0  0.99273  0.20006  0.24092  1.0000
  C   C20       1.0  0.03485  0.04664  0.14946  1.0000
  H   H15       1.0  0.17159  0.00985  0.11045  1.0000
  C   C21       1.0  0.06264  0.08046  0.20598  1.0000
  H   H16       1.0  0.98911  0.20229  0.19309  1.0000
  C   C22       1.0  0.11115  0.03821  0.16276  1.0000
  H   H17       1.0  0.00456  0.41955  0.10205  1.0000
  C   C23       1.0  0.06021  0.12761  0.24897  1.0000
  C   C24       1.0  0.07866  0.12449  0.15031  1.0000
  H   H18       1.0  0.46040  0.47268  0.04263  1.0000
  H   H19       1.0  0.04079  0.01640  0.21257  1.0000
  H   H20       1.0  0.04937  0.29624  0.07863  1.0000
  S   S4        1.0  0.99765  0.19882  0.30174  1.0000
  C   C25       1.0  0.03702  0.05478  0.25200  1.0000
  H   H21       1.0  0.02319  0.14114  0.15114  1.0000
  C   C26       1.0  0.12396  0.01270  0.18623  1.0000
  C   C27       1.0  0.04367  0.09492  0.26513  1.0000
  H   H22       1.0  0.27318  0.44111  0.28107  1.0000
  C   C28       1.0  0.99897  0.42784  0.12480  1.0000
  C   C29       1.0  0.04657  0.04746  0.22259  1.0000
  H   H23       1.0  0.03121  0.21203  0.12673  1.0000
  C   C30       1.0  0.11671  0.17973  0.12922  1.0000
  C   C31       1.0  0.11251  0.13963  0.14322  1.0000
  H   H24       1.0  0.03553  0.10115  0.28769  1.0000
  C   C32       1.0  0.15374  0.98642  0.18240  1.0000
  C   C33       1.0  0.17089  0.98528  0.15513  1.0000
  H   H25       1.0  0.11948  0.05601  0.11691  1.0000
  H   H26       1.0  0.06447  0.01994  0.11283  1.0000
  Fe  Fe2       1.0  0.98943  0.17925  0.07358  1.0000
  C   C34       1.0  0.00388  0.32797  0.09753  1.0000
  C   C35       1.0  0.29403  0.46502  0.28218  1.0000
  C   C36       1.0  0.00958  0.00692  0.10808  1.0000
  C   C37       1.0  0.01400  0.13174  0.98871  1.0000
  H   H27       1.0  0.01065  0.22719  0.24226  1.0000
  H   H28       1.0  0.02397  0.02962  0.26455  1.0000
  C   C38       1.0  0.02186  0.30478  0.07568  1.0000
  C   C39       1.0  0.44567  0.47652  0.99654  1.0000
  H   H29       1.0  0.01777  0.33725  0.11745  1.0000
  C   C40       1.0  0.01218  0.47136  0.16794  1.0000
  H   H30       1.0  0.04096  0.47463  0.12706  1.0000
  H   H31       1.0  0.45274  0.44324  0.99185  1.0000
  Fe  Fe3       1.0  0.27971  0.98692  0.00853  1.0000
  H   H32       1.0  0.99647  0.07119  0.18074  1.0000
  H   H33       1.0  0.37826  0.47574  0.30620  1.0000
  H   H34       1.0  0.12573  0.98493  0.01101  1.0000
  H   H35       1.0  0.42795  0.38093  0.30695  1.0000
  H   H36       1.0  0.05066  0.07908  0.98965  1.0000
  C   C41       1.0  0.25482  0.39182  0.42421  1.0000
  H   H37       1.0  0.25294  0.46109  0.41917  1.0000
  H   H38       1.0  0.32939  0.33097  0.42801  1.0000
  H   H39       1.0  0.31712  0.47003  0.41939  1.0000
  S   S5        1.0  0.01364  0.28426  0.43880  1.0000
  S   S6        1.0  0.02443  0.17420  0.38419  1.0000
  H   H40       1.0  0.34784  0.35956  0.37190  1.0000
  H   H41       1.0  0.00204  0.31462  0.50249  1.0000
  Fe  Fe4       1.0  0.43681  0.35411  0.58865  1.0000
  S   S7        1.0  0.38215  0.33322  0.57404  1.0000
  S   S8        1.0  0.44636  0.41806  0.61071  1.0000
  Fe  Fe5       1.0  0.17042  0.45449  0.48350  1.0000
  H   H42       1.0  0.44512  0.36245  0.42540  1.0000
  S   S9        1.0  0.15670  0.38924  0.46174  1.0000
  C   C42       1.0  0.01202  0.29456  0.52039  1.0000
  H   H43       1.0  0.99221  0.10075  0.48026  1.0000
  H   H44       1.0  0.14422  0.16151  0.43623  1.0000
  C   C43       1.0  0.34752  0.37191  0.57295  1.0000
  C   C44       1.0  0.31952  0.36652  0.55285  1.0000
  C   C45       1.0  0.29170  0.39690  0.55150  1.0000
  C   C46       1.0  0.29113  0.43215  0.57096  1.0000
  C   C47       1.0  0.31877  0.43707  0.59136  1.0000
  C   C48       1.0  0.34711  0.40754  0.59205  1.0000
  H   H45       1.0  0.31941  0.33889  0.53818  1.0000
  H   H46       1.0  0.27034  0.39257  0.53593  1.0000
  H   H47       1.0  0.11243  0.13676  0.62867  1.0000
  H   H48       1.0  0.36813  0.41171  0.60792  1.0000
  C   C49       1.0  0.05371  0.31366  0.44342  1.0000
  C   C50       1.0  0.08644  0.29695  0.43491  1.0000
  C   C51       1.0  0.11757  0.32051  0.44075  1.0000
  C   C52       1.0  0.11647  0.36105  0.45510  1.0000
  C   C53       1.0  0.08377  0.37757  0.46379  1.0000
  C   C54       1.0  0.05269  0.35397  0.45802  1.0000
  H   H49       1.0  0.08780  0.26571  0.42411  1.0000
  H   H50       1.0  0.14270  0.30724  0.43408  1.0000
  H   H51       1.0  0.08241  0.40857  0.47489  1.0000
  H   H52       1.0  0.02760  0.36721  0.46484  1.0000
  H   H53       1.0  0.16351  0.18839  0.55292  1.0000
  H   H54       1.0  0.03375  0.13704  0.44581  1.0000
  H   H55       1.0  0.10669  0.29694  0.51509  1.0000
  H   H56       1.0  0.37066  0.34893  0.32157  1.0000
  S   S10       1.0  0.47348  0.31599  0.61880  1.0000
  C   C55       1.0  0.41807  0.38554  0.32917  1.0000
  H   H57       1.0  0.08826  0.13175  0.41642  1.0000
  H   H58       1.0  0.22635  0.38851  0.42504  1.0000
  C   C56       1.0  0.37293  0.37366  0.36605  1.0000
  C   C57       1.0  0.19128  0.29102  0.53890  1.0000
  H   H59       1.0  0.03415  0.17207  0.49464  1.0000
  C   C58       1.0  0.39568  0.36777  0.44899  1.0000
  H   H60       1.0  0.05131  0.26454  0.49332  1.0000
  C   C59       1.0  0.37749  0.35505  0.47454  1.0000
  C   C60       1.0  0.39301  0.32626  0.49458  1.0000
  C   C61       1.0  0.42717  0.31098  0.48992  1.0000
  C   C62       1.0  0.01002  0.27101  0.57134  1.0000
  C   C63       1.0  0.43007  0.35226  0.44439  1.0000
  C   C64       1.0  0.27644  0.35527  0.42672  1.0000
  P   P2        1.0  0.09150  0.20616  0.53137  1.0000
  C   C65       1.0  0.42509  0.41506  0.37838  1.0000
  H   H61       1.0  0.06670  0.11521  0.52702  1.0000
  H   H62       1.0  0.35148  0.36765  0.47934  1.0000
  H   H63       1.0  0.37872  0.31628  0.51409  1.0000
  H   H64       1.0  0.08725  0.06580  0.61367  1.0000
  H   H65       1.0  0.21468  0.31104  0.54038  1.0000
  H   H66       1.0  0.26463  0.32353  0.42927  1.0000
  S   S11       1.0  0.00830  0.98332  0.55358  1.0000
  C   C66       1.0  0.03990  0.26598  0.51515  1.0000
  C   C67       1.0  0.12112  0.18260  0.47723  1.0000
  H   H67       1.0  0.14594  0.19452  0.48568  1.0000
  P   P3        1.0  0.37599  0.40635  0.42370  1.0000
  C   C68       1.0  0.31309  0.35975  0.42623  1.0000
  H   H68       1.0  0.47247  0.31262  0.46149  1.0000
  H   H69       1.0  0.99988  0.03113  0.64447  1.0000
  C   C69       1.0  0.13038  0.23963  0.53514  1.0000
  C   C70       1.0  0.12036  0.16366  0.44919  1.0000
  C   C71       1.0  0.40215  0.46848  0.46291  1.0000
  H   H70       1.0  0.36684  0.42883  0.52670  1.0000
  C   C72       1.0  0.32848  0.40106  0.42379  1.0000
  C   C73       1.0  0.05354  0.24020  0.53802  1.0000
  C   C74       1.0  0.39235  0.39783  0.38669  1.0000
  C   C75       1.0  0.99695  0.29700  0.54843  1.0000
  C   C76       1.0  0.05842  0.17007  0.48219  1.0000
  C   C77       1.0  0.13001  0.28281  0.52504  1.0000
  C   C78       1.0  0.08887  0.14710  0.43795  1.0000
  C   C79       1.0  0.05800  0.15028  0.45447  1.0000
  C   C80       1.0  0.10390  0.16662  0.58611  1.0000
  C   C81       1.0  0.09012  0.18585  0.49399  1.0000
  C   C82       1.0  0.07555  0.08667  0.56933  1.0000
  C   C83       1.0  0.30648  0.43763  0.42112  1.0000
  S   S12       1.0  0.47740  0.36361  0.55296  1.0000
  H   H71       1.0  0.99845  0.27308  0.59313  1.0000
  C   C84       1.0  0.09130  0.16110  0.55714  1.0000
  C   C85       1.0  0.03832  0.24282  0.56623  1.0000
  H   H72       1.0  0.32242  0.44152  0.48717  1.0000
  H   H73       1.0  0.40571  0.44256  0.47878  1.0000
  H   H74       1.0  0.04835  0.22359  0.58438  1.0000
  C   C86       1.0  0.43775  0.40915  0.34969  1.0000
  C   C87       1.0  0.26986  0.43283  0.42106  1.0000
  H   H75       1.0  0.21644  0.23432  0.55714  1.0000
  C   C88       1.0  0.99607  0.06632  0.48348  1.0000
  H   H76       1.0  0.06422  0.05577  0.56282  1.0000
  C   C89       1.0  0.16028  0.30834  0.52705  1.0000
  H   H77       1.0  0.48302  0.19353  0.32828  1.0000
  Fe  Fe6       1.0  0.99668  0.22519  0.41136  1.0000
  C   C90       1.0  0.07701  0.12077  0.54896  1.0000
  C   C91       1.0  0.00324  0.00416  0.51705  1.0000
  H   H78       1.0  0.11438  0.19760  0.59313  1.0000
  C   C92       1.0  0.19218  0.24785  0.54839  1.0000
  S   S13       1.0  0.99997  0.05863  0.42182  1.0000
  C   C93       1.0  0.16197  0.22208  0.54627  1.0000
  C   C94       1.0  0.10261  0.13232  0.60638  1.0000
  H   H79       1.0  0.43929  0.28962  0.50608  1.0000
  H   H80       1.0  0.15977  0.34157  0.51903  1.0000
  C   C95       1.0  0.38839  0.46044  0.43464  1.0000
  C   C96       1.0  0.00385  0.99424  0.46367  1.0000
  C   C97       1.0  0.44575  0.32400  0.46484  1.0000
  C   C98       1.0  0.08842  0.09237  0.59799  1.0000
  H   H81       1.0  0.44083  0.43327  0.39408  1.0000
  H   H82       1.0  0.46828  0.12658  0.35605  1.0000
  C   C99       1.0  0.99944  0.03898  0.45889  1.0000
  S   S14       1.0  0.22952  0.46117  0.48580  1.0000
  C   C100      1.0  0.38577  0.36762  0.33740  1.0000
  H   H83       1.0  0.46288  0.42294  0.34341  1.0000
  C   C101      1.0  0.35581  0.46092  0.52337  1.0000
  C   C102      1.0  0.99842  0.04901  0.51240  1.0000
  H   H84       1.0  0.99645  0.07041  0.53122  1.0000
  H   H85       1.0  0.31831  0.46397  0.60665  1.0000
  H   H86       1.0  0.46967  0.20522  0.50252  1.0000
  S   S15       1.0  0.25562  0.46945  0.57174  1.0000
  Fe  Fe7       1.0  0.48552  0.38151  0.63887  1.0000
  S   S16       1.0  0.16369  0.47504  0.53094  1.0000
  C   C103      1.0  0.33104  0.46809  0.50098  1.0000
  H   H87       1.0  0.15250  0.18445  0.91960  1.0000
  S   S17       1.0  0.28804  0.13572  0.95126  1.0000
  S   S18       1.0  0.21031  0.06281  0.97125  1.0000
  Fe  Fe8       1.0  0.45211  0.36751  0.86232  1.0000
  H   H88       1.0  0.09424  0.15221  0.92867  1.0000
  S   S19       1.0  0.43221  0.36062  0.81452  1.0000
  Fe  Fe9       1.0  0.44599  0.41900  0.92034  1.0000
  C   C104      1.0  0.44836  0.13772  0.80589  1.0000
  C   C105      1.0  0.99922  0.16100  0.94059  1.0000
  Fe  Fe10      1.0  0.44292  0.31929  0.92192  1.0000
  S   S20       1.0  0.42522  0.25800  0.94702  1.0000
  C   C106      1.0  0.38805  0.05926  0.93699  1.0000
  S   S21       1.0  0.41074  0.37002  0.89818  1.0000
  C   C107      1.0  0.46838  0.26456  0.78424  1.0000
  C   C108      1.0  0.32646  0.16940  0.95085  1.0000
  C   C109      1.0  0.35638  0.16060  0.96806  1.0000
  C   C110      1.0  0.38624  0.18787  0.96640  1.0000
  C   C111      1.0  0.38664  0.22466  0.94784  1.0000
  C   C112      1.0  0.35670  0.23351  0.93070  1.0000
  C   C113      1.0  0.32702  0.20595  0.93208  1.0000
  H   H89       1.0  0.36192  0.12940  0.88348  1.0000
  C   C114      1.0  0.37608  0.17955  0.83521  1.0000
  H   H90       1.0  0.35622  0.26184  0.91662  1.0000
  H   H91       1.0  0.30411  0.21329  0.91869  1.0000
  C   C115      1.0  0.43214  0.25692  0.78300  1.0000
  C   C116      1.0  0.44815  0.36520  0.72515  1.0000
  C   C117      1.0  0.43402  0.35736  0.75352  1.0000
  C   C118      1.0  0.45062  0.37316  0.77923  1.0000
  C   C119      1.0  0.47434  0.17626  0.87995  1.0000
  H   H92       1.0  0.43540  0.35202  0.70575  1.0000
  H   H93       1.0  0.41023  0.33845  0.75555  1.0000
  H   H94       1.0  0.38289  0.29713  0.86476  1.0000
  C   C120      1.0  0.40359  0.19053  0.85463  1.0000
  S   S22       1.0  0.47547  0.36888  0.94664  1.0000
  P   P4        1.0  0.06905  0.06144  0.92736  1.0000
  C   C121      1.0  0.11128  0.08619  0.92011  1.0000
  C   C122      1.0  0.07474  0.01666  0.95263  1.0000
  C   C123      1.0  0.99728  0.02252  0.86486  1.0000
  C   C124      1.0  0.35391  0.25322  0.83705  1.0000
  H   H95       1.0  0.42586  0.24229  0.88113  1.0000
  C   C125      1.0  0.11582  0.13129  0.92234  1.0000
  C   C126      1.0  0.14885  0.14982  0.91711  1.0000
  C   C127      1.0  0.17742  0.12358  0.90933  1.0000
  C   C128      1.0  0.17300  0.07877  0.90687  1.0000
  C   C129      1.0  0.14030  0.06009  0.91284  1.0000
  C   C130      1.0  0.04941  0.04094  0.89360  1.0000
  C   C131      1.0  0.45477  0.07365  0.83652  1.0000
  C   C132      1.0  0.01849  0.00701  0.84203  1.0000
  S   S23       1.0  0.28270  0.00635  0.96041  1.0000
  C   C133      1.0  0.42453  0.06343  0.93442  1.0000
  C   C134      1.0  0.01259  0.03893  0.89066  1.0000
  Fe  Fe11      1.0  0.26900  0.07410  0.97563  1.0000
  C   C135      1.0  0.44706  0.11807  0.83390  1.0000
  C   C136      1.0  0.43871  0.22385  0.73499  1.0000
  H   H96       1.0  0.19531  0.05814  0.90164  1.0000
  H   H97       1.0  0.13782  0.02513  0.91224  1.0000
  H   H98       1.0  0.33750  0.07996  0.92054  1.0000
  C   C137      1.0  0.45650  0.11320  0.78086  1.0000
  H   H99       1.0  0.42179  0.45370  0.83805  1.0000
  H   H100      1.0  0.12065  0.04373  0.97458  1.0000
  H   H101      1.0  0.40910  0.18057  0.97985  1.0000
  Fe  Fe12      1.0  0.22390  0.99415  0.95962  1.0000
  H   H102      1.0  0.47875  0.28116  0.80333  1.0000
  C   C138      1.0  0.38107  0.26430  0.85646  1.0000
  H   H103      1.0  0.09884  0.02495  0.87220  1.0000
  C   C139      1.0  0.05032  0.98259  0.95290  1.0000
  H   H104      1.0  0.32999  0.20210  0.81174  1.0000
  H   H105      1.0  0.44169  0.04566  0.94934  1.0000
  C   C140      1.0  0.35136  0.21081  0.82646  1.0000
  H   H106      1.0  0.33480  0.27757  0.83040  1.0000
  C   C141      1.0  0.40565  0.23307  0.86547  1.0000
  C   C142      1.0  0.02152  0.13063  0.92729  1.0000
  H   H107      1.0  0.42713  0.20876  0.71567  1.0000
  C   C143      1.0  0.37992  0.11068  0.89698  1.0000
  C   C144      1.0  0.03980  0.10011  0.94463  1.0000
  C   C145      1.0  0.43879  0.09091  0.91294  1.0000
  H   H108      1.0  0.38900  0.23210  0.75724  1.0000
  C   C146      1.0  0.07052  0.02516  0.87050  1.0000
  H   H109      1.0  0.02446  0.13080  0.90350  1.0000
  H   H110      1.0  0.37350  0.14667  0.82711  1.0000
  S   S24       1.0  0.48481  0.42047  0.88258  1.0000
  H   H111      1.0  0.20324  0.13773  0.90603  1.0000
  H   H112      1.0  0.46884  0.01491  0.81363  1.0000
  H   H113      1.0  0.44286  0.17199  0.80340  1.0000
  P   P5        1.0  0.43525  0.14979  0.86596  1.0000
  C   C147      1.0  0.36583  0.08258  0.91811  1.0000
  C   C148      1.0  0.41658  0.11493  0.89407  1.0000
  C   C149      1.0  0.41724  0.23685  0.75836  1.0000
  H   H114      1.0  0.00655  0.99262  0.82259  1.0000
  C   C150      1.0  0.05509  0.00821  0.84491  1.0000
  C   C151      1.0  0.46324  0.04927  0.81147  1.0000
  H   H115      1.0  0.37684  0.03856  0.95393  1.0000
  C   C152      1.0  0.10189  0.01732  0.97382  1.0000
  C   C153      1.0  0.99543  0.16150  0.97129  1.0000
  H   H116      1.0  0.45397  0.05761  0.85778  1.0000
  H   H117      1.0  0.45535  0.17970  0.92494  1.0000
  C   C154      1.0  0.46398  0.06898  0.78364  1.0000
  S   S25       1.0  0.48255  0.31402  0.88500  1.0000
  C   C155      1.0  0.03630  0.10136  0.97552  1.0000
  H   H118      1.0  0.41551  0.26818  0.80080  1.0000
  C   C156      1.0  0.47668  0.18726  0.90995  1.0000
  H   H119      1.0  0.46712  0.09366  0.91123  1.0000
  H   H120      1.0  0.47014  0.04993  0.76421  1.0000
  H   H121      1.0  0.45680  0.12852  0.75928  1.0000
  C   C157      1.0  0.47502  0.23129  0.73617  1.0000
  H   H122      1.0  0.99553  0.04883  0.90858  1.0000
  H   H123      1.0  0.35656  0.13271  0.98259  1.0000
  H   H124      1.0  0.07150  0.99506  0.82755  1.0000
  H   H125      1.0  0.02883  0.98149  0.93713  1.0000
  C   C158      1.0  0.48091  0.39840  0.77606  1.0000
  C   C159      1.0  0.47869  0.39003  0.72201  1.0000
  H   H126      1.0  0.42736  0.47913  0.78642  1.0000
  C   C160      1.0  0.28576  0.76437  0.02267  1.0000
  C   C161      1.0  0.45005  0.49332  0.02529  1.0000
  S   S26       1.0  0.31862  0.94508  0.03590  1.0000
  Fe  Fe13      1.0  0.45011  0.62831  0.07746  1.0000
  H   H127      1.0  0.16533  0.82430  0.01061  1.0000
  S   S27       1.0  0.44556  0.55609  0.06836  1.0000
  Fe  Fe14      1.0  0.45158  0.69787  0.12606  1.0000
  H   H128      1.0  0.41457  0.65066  0.30072  1.0000
  S   S28       1.0  0.43770  0.71896  0.17337  1.0000
  Fe  Fe15      1.0  0.43321  0.72358  0.06178  1.0000
  S   S29       1.0  0.40185  0.76315  0.02714  1.0000
  S   S30       1.0  0.40935  0.67585  0.09395  1.0000
  C   C162      1.0  0.38582  0.63432  0.20875  1.0000
  C   C163      1.0  0.44092  0.53652  0.03174  1.0000
  C   C164      1.0  0.34157  0.89438  0.03271  1.0000
  C   C165      1.0  0.35887  0.87720  0.05775  1.0000
  C   C166      1.0  0.37725  0.83724  0.05655  1.0000
  C   C167      1.0  0.37879  0.81377  0.03014  1.0000
  C   C168      1.0  0.36145  0.83088  0.00508  1.0000
  C   C169      1.0  0.34300  0.87082  0.00631  1.0000
  H   H129      1.0  0.35805  0.89498  0.07833  1.0000
  H   H130      1.0  0.39035  0.82475  0.07607  1.0000
  S   S31       1.0  0.47331  0.74806  0.09444  1.0000
  C   C170      1.0  0.30593  0.69014  0.01773  1.0000
  C   C171      1.0  0.22111  0.83889  0.01492  1.0000
  C   C172      1.0  0.31541  0.53743  0.27199  1.0000
  C   C173      1.0  0.45272  0.70069  0.20869  1.0000
  C   C174      1.0  0.44270  0.72384  0.23414  1.0000
  C   C175      1.0  0.45389  0.71061  0.26260  1.0000
  H   H131      1.0  0.32355  0.66419  0.02454  1.0000
  H   H132      1.0  0.44649  0.72932  0.28180  1.0000
  H   H133      1.0  0.14678  0.87279  0.05055  1.0000
  H   H134      1.0  0.45719  0.57020  0.27262  1.0000
  H   H135      1.0  0.19096  0.91603  0.07815  1.0000
  H   H136      1.0  0.02812  0.49575  0.17880  1.0000
  H   H137      1.0  0.08263  0.92444  0.01095  1.0000
  H   H138      1.0  0.19411  0.96521  0.15218  1.0000
  H   H139      1.0  0.28896  0.79544  0.03324  1.0000
  H   H140      1.0  0.36734  0.64781  0.25231  1.0000
  C   C176      1.0  0.38902  0.65065  0.31126  1.0000
  H   H141      1.0  0.40757  0.61336  0.16731  1.0000
  C   C177      1.0  0.28863  0.50648  0.27046  1.0000
  C   C178      1.0  0.36665  0.61476  0.30837  1.0000
  C   C179      1.0  0.35328  0.48518  0.29664  1.0000
  C   C180      1.0  0.30797  0.73049  0.03155  1.0000
  H   H142      1.0  0.26365  0.51466  0.26016  1.0000
  C   C181      1.0  0.28176  0.68370  0.99482  1.0000
  P   P6        1.0  0.38151  0.56834  0.28749  1.0000
  H   H143      1.0  0.27290  0.86488  0.02366  1.0000
  C   C182      1.0  0.45407  0.55495  0.29399  1.0000
  C   C183      1.0  0.42057  0.54938  0.30645  1.0000
  H   H144      1.0  0.42483  0.54078  0.18629  1.0000
  H   H145      1.0  0.32753  0.73594  0.04870  1.0000
  C   C184      1.0  0.42745  0.56285  0.00918  1.0000
  C   C185      1.0  0.40598  0.55303  0.23050  1.0000
  C   C186      1.0  0.19931  0.89401  0.06089  1.0000
  C   C187      1.0  0.24557  0.86459  0.03014  1.0000
  H   H146      1.0  0.31088  0.56945  0.26274  1.0000
  C   C188      1.0  0.34771  0.52731  0.28559  1.0000
  H   H147      1.0  0.25414  0.91108  0.06481  1.0000
  C   C189      1.0  0.17447  0.86973  0.04527  1.0000
  C   C190      1.0  0.40226  0.60453  0.19009  1.0000
  C   C191      1.0  0.23488  0.89118  0.05344  1.0000
  H   H148      1.0  0.16366  0.96708  0.20064  1.0000
  H   H149      1.0  0.42017  0.59608  0.01387  1.0000
  C   C192      1.0  0.18526  0.84213  0.02249  1.0000
  C   C193      1.0  0.41224  0.56382  0.20092  1.0000
  C   C194      1.0  0.39026  0.58327  0.24958  1.0000
  H   H150      1.0  0.37850  0.66607  0.20030  1.0000
  S   S32       1.0  0.47097  0.67366  0.04325  1.0000
  S   S33       1.0  0.22194  0.97063  0.00620  1.0000
  H   H151      1.0  0.41353  0.52124  0.23854  1.0000
  H   H152      1.0  0.42642  0.75251  0.23178  1.0000
  C   C195      1.0  0.37991  0.62391  0.23840  1.0000
  C   C196      1.0  0.48432  0.64998  0.24059  1.0000
  H   H153      1.0  0.48085  0.64494  0.19289  1.0000
  C   C197      1.0  0.08022  0.95035  0.99492  1.0000
  C   C198      1.0  0.99736  0.83322  0.99566  1.0000
  H   H154      1.0  0.18384  0.73672  0.99899  1.0000
  C   C199      1.0  0.26104  0.75821  0.99986  1.0000
  H   H155      1.0  0.01913  0.85523  0.99223  1.0000
  C   C200      1.0  0.47345  0.66345  0.21215  1.0000
  C   C201      1.0  0.47513  0.67377  0.26599  1.0000
  C   C202      1.0  0.48431  0.54360  0.31000  1.0000
  C   C203      1.0  0.00217  0.78900  0.99049  1.0000
  H   H156      1.0  0.48533  0.75158  0.00186  1.0000
  H   H157      1.0  0.33003  0.88358  0.98684  1.0000
  C   C204      1.0  0.32740  0.54368  0.51488  1.0000
  C   C205      1.0  0.11544  0.74672  0.61539  1.0000
  C   C206      1.0  0.26528  0.57399  0.60432  1.0000
  C   C207      1.0  0.36583  0.49480  0.54203  1.0000
  S   S34       1.0  0.04157  0.77016  0.52254  1.0000
  S   S35       1.0  0.02868  0.86212  0.58600  1.0000
  C   C208      1.0  0.16826  0.76887  0.58905  1.0000
  S   S36       1.0  0.46414  0.72855  0.37739  1.0000
  Fe  Fe16      1.0  0.42944  0.68159  0.40265  1.0000
  S   S37       1.0  0.37609  0.69560  0.42358  1.0000
  S   S38       1.0  0.44180  0.62492  0.37353  1.0000
  Fe  Fe17      1.0  0.22151  0.53008  0.47104  1.0000
  S   S39       1.0  0.21852  0.55576  0.51736  1.0000
  S   S40       1.0  0.25654  0.55156  0.43279  1.0000
  Fe  Fe18      1.0  0.16000  0.54407  0.51371  1.0000
  S   S41       1.0  0.12251  0.58869  0.53974  1.0000
  S   S42       1.0  0.16255  0.52258  0.46582  1.0000
  C   C209      1.0  0.34459  0.65358  0.42779  1.0000
  C   C210      1.0  0.32012  0.65493  0.45109  1.0000
  C   C211      1.0  0.29387  0.62285  0.45380  1.0000
  C   C212      1.0  0.29115  0.59000  0.43263  1.0000
  C   C213      1.0  0.31554  0.58880  0.40939  1.0000
  C   C214      1.0  0.34230  0.62009  0.40720  1.0000
  H   H158      1.0  0.32128  0.68101  0.46694  1.0000
  H   H159      1.0  0.27514  0.62415  0.47169  1.0000
  H   H160      1.0  0.31354  0.56371  0.39279  1.0000
  H   H161      1.0  0.36060  0.61911  0.38898  1.0000
  H   H162      1.0  0.00704  0.60620  0.61738  1.0000
  H   H163      1.0  0.29852  0.51523  0.47884  1.0000
  C   C215      1.0  0.06202  0.71824  0.52714  1.0000
  C   C216      1.0  0.08143  0.70049  0.50356  1.0000
  C   C217      1.0  0.10004  0.66089  0.50667  1.0000
  C   C218      1.0  0.09880  0.63797  0.53337  1.0000
  C   C219      1.0  0.07835  0.65494  0.55651  1.0000
  C   C220      1.0  0.06007  0.69467  0.55350  1.0000
  H   H164      1.0  0.08174  0.71738  0.48264  1.0000
  H   H165      1.0  0.11517  0.64807  0.48843  1.0000
  H   H166      1.0  0.07652  0.63685  0.57684  1.0000
  H   H167      1.0  0.04428  0.70693  0.57145  1.0000
  H   H168      1.0  0.38446  0.48796  0.55958  1.0000
  C   C221      1.0  0.14714  0.77706  0.47926  1.0000
  C   C222      1.0  0.19660  0.70412  0.44778  1.0000
  H   H169      1.0  0.28783  0.54919  0.56460  1.0000
  H   H170      1.0  0.39664  0.71365  0.33066  1.0000
  C   C223      1.0  0.46159  0.56935  0.59691  1.0000
  H   H171      1.0  0.41762  0.57673  0.45659  1.0000
  H   H172      1.0  0.26895  0.78021  0.51143  1.0000
  H   H173      1.0  0.33899  0.71374  0.35632  1.0000
  H   H174      1.0  0.31526  0.75814  0.41020  1.0000
  H   H175      1.0  0.00943  0.94248  0.49556  1.0000
  H   H176      1.0  0.46512  0.70442  0.49818  1.0000
  C   C224      1.0  0.39659  0.53631  0.42225  1.0000
  H   H177      1.0  0.32931  0.80387  0.49890  1.0000
  H   H178      1.0  0.09515  0.81188  0.55673  1.0000
  C   C225      1.0  0.27049  0.75064  0.43889  1.0000
  H   H179      1.0  0.44010  0.70337  0.54877  1.0000
  H   H180      1.0  0.17959  0.75786  0.42024  1.0000
  C   C226      1.0  0.09505  0.77113  0.59545  1.0000
  C   C227      1.0  0.17228  0.85953  0.49325  1.0000
  C   C228      1.0  0.12349  0.81109  0.48416  1.0000
  C   C229      1.0  0.41149  0.51055  0.47114  1.0000
  C   C230      1.0  0.16876  0.69670  0.39959  1.0000
  H   H181      1.0  0.06633  0.63049  0.63076  1.0000
  H   H182      1.0  0.42013  0.50351  0.64601  1.0000
  C   C231      1.0  0.19603  0.82537  0.48859  1.0000
  C   C232      1.0  0.17128  0.65158  0.40183  1.0000
  C   C233      1.0  0.30271  0.61973  0.63424  1.0000
  H   H183      1.0  0.39604  0.56217  0.40617  1.0000
  C   C234      1.0  0.35126  0.53635  0.53819  1.0000
  C   C235      1.0  0.11115  0.79367  0.57232  1.0000
  C   C236      1.0  0.30467  0.76392  0.43207  1.0000
  H   H184      1.0  0.09533  0.80539  0.48269  1.0000
  C   C237      1.0  0.29241  0.56913  0.58381  1.0000
  H   H185      1.0  0.16152  0.63112  0.38418  1.0000
  H   H186      1.0  0.31588  0.57546  0.51136  1.0000
  H   H187      1.0  0.13699  0.74531  0.47385  1.0000
  H   H188      1.0  0.35263  0.79222  0.44831  1.0000
  P   P7        1.0  0.36132  0.57987  0.56348  1.0000
  C   C238      1.0  0.32511  0.58894  0.58853  1.0000
  C   C239      1.0  0.39904  0.56557  0.58591  1.0000
  C   C240      1.0  0.39461  0.53782  0.61028  1.0000
  C   C241      1.0  0.44816  0.52151  0.35120  1.0000
  C   C242      1.0  0.27860  0.77580  0.48915  1.0000
  P   P8        1.0  0.21336  0.73826  0.47698  1.0000
  C   C243      1.0  0.43279  0.58113  0.57925  1.0000
  C   C244      1.0  0.33010  0.61431  0.61395  1.0000
  H   H189      1.0  0.16542  0.58750  0.62185  1.0000
  C   C245      1.0  0.37891  0.68640  0.32821  1.0000
  C   C246      1.0  0.36991  0.62733  0.54126  1.0000
  C   C247      1.0  0.39053  0.62331  0.51574  1.0000
  C   C248      1.0  0.39546  0.65887  0.49708  1.0000
  C   C249      1.0  0.38012  0.69884  0.50381  1.0000
  C   C250      1.0  0.35969  0.70326  0.52926  1.0000
  C   C251      1.0  0.35449  0.66761  0.54793  1.0000
  H   H190      1.0  0.36897  0.52439  0.61535  1.0000
  P   P9        1.0  0.09512  0.71769  0.64566  1.0000
  H   H191      1.0  0.29901  0.65070  0.35146  1.0000
  C   C252      1.0  0.14764  0.79224  0.56894  1.0000
  H   H192      1.0  0.43726  0.60129  0.56010  1.0000
  H   H193      1.0  0.35536  0.62935  0.61824  1.0000
  S   S43       1.0  0.47132  0.66526  0.43577  1.0000
  H   H194      1.0  0.37540  0.48929  0.39234  1.0000
  H   H195      1.0  0.40233  0.59244  0.51002  1.0000
  H   H196      1.0  0.41054  0.65526  0.47696  1.0000
  H   H197      1.0  0.38349  0.72598  0.48880  1.0000
  H   H198      1.0  0.34740  0.73411  0.53422  1.0000
  H   H199      1.0  0.33799  0.67153  0.56715  1.0000
  H   H200      1.0  0.15695  0.71131  0.38014  1.0000
  C   C253      1.0  0.18359  0.78375  0.48154  1.0000
  H   H201      1.0  0.15975  0.71635  0.52140  1.0000
  H   H202      1.0  0.22387  0.83185  0.49034  1.0000
  C   C254      1.0  0.01150  0.64003  0.62263  1.0000
  H   H203      1.0  0.11753  0.87865  0.49492  1.0000
  H   H204      1.0  0.15982  0.80923  0.55070  1.0000
  C   C255      1.0  0.31279  0.78911  0.48219  1.0000
  C   C256      1.0  0.25711  0.75659  0.46750  1.0000
  C   C257      1.0  0.18148  0.72293  0.42241  1.0000
  H   H205      1.0  0.06670  0.77258  0.59734  1.0000
  C   C258      1.0  0.42350  0.52596  0.62777  1.0000
  C   C259      1.0  0.45701  0.54155  0.62101  1.0000
  H   H206      1.0  0.16878  0.72883  0.62778  1.0000
  C   C260      1.0  0.21501  0.70717  0.51082  1.0000
  C   C261      1.0  0.24616  0.68568  0.51932  1.0000
  C   C262      1.0  0.24676  0.65963  0.54464  1.0000
  C   C263      1.0  0.21619  0.65428  0.56136  1.0000
  C   C264      1.0  0.18512  0.67516  0.55287  1.0000
  C   C265      1.0  0.18447  0.70154  0.52777  1.0000
  C   C266      1.0  0.18649  0.63269  0.42689  1.0000
  C   C267      1.0  0.19907  0.65874  0.44983  1.0000
  H   H207      1.0  0.26972  0.68793  0.50602  1.0000
  H   H208      1.0  0.27059  0.64241  0.55069  1.0000
  H   H209      1.0  0.21613  0.63293  0.58035  1.0000
  H   H210      1.0  0.16107  0.66985  0.56514  1.0000
  H   H211      1.0  0.18192  0.89166  0.49850  1.0000
  C   C268      1.0  0.40895  0.54444  0.45073  1.0000
  H   H212      1.0  0.18872  0.59771  0.42847  1.0000
  H   H213      1.0  0.21075  0.64317  0.46896  1.0000
  Fe  Fe19      1.0  0.00780  0.81494  0.55190  1.0000
  C   C269      1.0  0.13602  0.85234  0.49116  1.0000
  H   H214      1.0  0.25510  0.73496  0.42186  1.0000
  C   C270      1.0  0.32585  0.78299  0.45368  1.0000
  C   C271      1.0  0.31737  0.50962  0.49642  1.0000
  H   H215      1.0  0.12829  0.65073  0.60974  1.0000
  H   H216      1.0  0.24053  0.55720  0.60075  1.0000
  C   C272      1.0  0.15229  0.74641  0.61229  1.0000
  C   C273      1.0  0.27032  0.59941  0.62948  1.0000
  C   C274      1.0  0.13557  0.64481  0.63258  1.0000
  C   C275      1.0  0.46649  0.69122  0.54496  1.0000
  C   C276      1.0  0.34636  0.68655  0.34249  1.0000
  Fe  Fe20      1.0  0.47958  0.66958  0.35010  1.0000
  C   C277      1.0  0.05167  0.69827  0.63586  1.0000
  C   C278      1.0  0.41788  0.53317  0.33537  1.0000
  H   H217      1.0  0.19659  0.76783  0.58647  1.0000
  C   C279      1.0  0.38561  0.49475  0.41436  1.0000
  C   C280      1.0  0.04537  0.65419  0.63000  1.0000
  H   H218      1.0  0.44619  0.51054  0.37388  1.0000
  H   H219      1.0  0.39245  0.53105  0.34602  1.0000
  H   H220      1.0  0.42180  0.51649  0.49310  1.0000
  C   C281      1.0  0.15668  0.60894  0.63938  1.0000
  C   C282      1.0  0.02328  0.72749  0.63505  1.0000
  H   H221      1.0  0.02733  0.76152  0.63982  1.0000
  H   H222      1.0  0.47960  0.53084  0.63382  1.0000
  Fe  Fe21      1.0  0.99457  0.91242  0.56297  1.0000
  Fe  Fe22      1.0  0.22210  0.48582  0.53160  1.0000
  H   H223      1.0  0.47607  0.67575  0.59070  1.0000
  C   C283      1.0  0.32385  0.65098  0.33971  1.0000
  H   H224      1.0  0.24929  0.60279  0.64544  1.0000
  H   H225      1.0  0.99858  0.95092  0.64111  1.0000
  C   C284      1.0  0.48044  0.69152  0.51645  1.0000
  H   H226      1.0  0.00645  0.97277  0.44492  1.0000
  Fe  Fe23      1.0  0.48590  0.61134  0.40541  1.0000
  C   C285      1.0  0.48137  0.52689  0.33859  1.0000
  C   C286      1.0  0.00543  0.97690  0.49246  1.0000
  C   C287      1.0  0.33409  0.61491  0.32305  1.0000
  H   H227      1.0  0.31679  0.58717  0.32229  1.0000
  C   C288      1.0  0.98932  0.71304  0.62848  1.0000
  C   C289      1.0  0.48676  0.67566  0.56854  1.0000
  C   C290      1.0  0.08909  0.75389  0.67666  1.0000
  Fe  Fe24      1.0  0.01117  0.84966  0.90395  1.0000
  S   S44       1.0  0.06024  0.83851  0.93227  1.0000
  H   H228      1.0  0.13592  0.94602  0.88279  1.0000
  C   C291      1.0  0.10638  0.79409  0.67775  1.0000
  C   C292      1.0  0.40894  0.65868  0.94134  1.0000
  C   C293      1.0  0.37529  0.64097  0.93839  1.0000
  C   C294      1.0  0.36941  0.60734  0.91829  1.0000
  H   H229      1.0  0.47758  0.73689  0.84059  1.0000
  H   H230      1.0  0.36241  0.81314  0.98453  1.0000
  C   C295      1.0  0.09577  0.87588  0.93018  1.0000
  C   C296      1.0  0.11993  0.87881  0.95373  1.0000
  C   C297      1.0  0.14927  0.90672  0.95208  1.0000
  C   C298      1.0  0.15541  0.93088  0.92638  1.0000
  C   C299      1.0  0.13132  0.92779  0.90284  1.0000
  C   C300      1.0  0.10142  0.90101  0.90487  1.0000
  H   H231      1.0  0.39207  0.56456  0.88632  1.0000
  H   H232      1.0  0.41089  0.56587  0.96368  1.0000
  C   C301      1.0  0.43396  0.50083  0.80446  1.0000
  H   H233      1.0  0.08337  0.89879  0.88642  1.0000
  H   H234      1.0  0.03763  0.76540  0.73793  1.0000
  C   C302      1.0  0.13242  0.66329  0.68454  1.0000
  H   H235      1.0  0.11170  0.85489  0.70086  1.0000
  C   C303      1.0  0.42212  0.54566  0.98074  1.0000
  S   S45       1.0  0.99227  0.89048  0.79517  1.0000
  C   C304      1.0  0.44582  0.54289  0.79872  1.0000
  H   H236      1.0  0.44513  0.67490  0.86163  1.0000
  H   H237      1.0  0.12320  0.68378  0.70232  1.0000
  P   P10       1.0  0.46746  0.58913  0.88198  1.0000
  C   C305      1.0  0.13428  0.75890  0.93810  1.0000
  H   H238      1.0  0.12490  0.80334  0.66078  1.0000
  C   C306      1.0  0.17638  0.75154  0.97816  1.0000
  C   C307      1.0  0.27490  0.89888  0.93187  1.0000
  C   C308      1.0  0.30546  0.88014  0.92045  1.0000
  C   C309      1.0  0.31527  0.83826  0.92904  1.0000
  H   H239      1.0  0.01194  0.92768  0.73943  1.0000
  C   C310      1.0  0.43662  0.64292  0.92406  1.0000
  H   H240      1.0  0.44828  0.55388  0.77608  1.0000
  H   H241      1.0  0.46277  0.76847  0.95186  1.0000
  C   C311      1.0  0.29437  0.81501  0.94889  1.0000
  C   C312      1.0  0.15520  0.79096  0.92532  1.0000
  H   H242      1.0  0.41370  0.68394  0.95754  1.0000
  C   C313      1.0  0.26374  0.83388  0.96069  1.0000
  H   H243      1.0  0.47716  0.57955  0.94686  1.0000
  H   H244      1.0  0.16064  0.62049  0.71407  1.0000
  H   H245      1.0  0.26686  0.93098  0.92475  1.0000
  C   C314      1.0  0.18651  0.80378  0.93904  1.0000
  H   H246      1.0  0.00753  0.90276  0.68738  1.0000
  C   C315      1.0  0.15373  0.62743  0.69129  1.0000
  H   H247      1.0  0.46270  0.65615  0.92715  1.0000
  H   H248      1.0  0.06772  0.83634  0.73925  1.0000
  C   C316      1.0  0.06472  0.74341  0.69885  1.0000
  C   C317      1.0  0.39713  0.59137  0.90108  1.0000
  H   H249      1.0  0.34357  0.59272  0.91660  1.0000
  H   H250      1.0  0.32148  0.89820  0.90499  1.0000
  H   H251      1.0  0.33915  0.82383  0.92043  1.0000
  S   S46       1.0  0.00487  0.91070  0.87788  1.0000
  H   H252      1.0  0.30246  0.78259  0.95511  1.0000
  C   C318      1.0  0.44005  0.51379  0.85695  1.0000
  C   C319      1.0  0.07425  0.81308  0.72213  1.0000
  C   C320      1.0  0.43098  0.60916  0.90377  1.0000
  H   H253      1.0  0.16757  0.90865  0.97038  1.0000
  H   H254      1.0  0.18178  0.57205  0.67404  1.0000
  C   C321      1.0  0.09895  0.82352  0.70043  1.0000
  C   C322      1.0  0.05730  0.77297  0.72141  1.0000
  C   C323      1.0  0.12308  0.67212  0.65510  1.0000
  C   C324      1.0  0.45233  0.55593  0.85149  1.0000
  C   C325      1.0  0.45496  0.57042  0.82210  1.0000
  H   H255      1.0  0.11597  0.85933  0.97332  1.0000
  S   S47       1.0  0.19418  0.96229  0.92159  1.0000
  H   H256      1.0  0.05058  0.71296  0.69822  1.0000
  H   H257      1.0  0.03452  0.92315  0.97347  1.0000
  H   H258      1.0  0.24226  0.71247  0.96707  1.0000
  H   H259      1.0  0.20135  0.82985  0.92911  1.0000
  H   H260      1.0  0.46454  0.60256  0.81705  1.0000
  C   C326      1.0  0.25442  0.87623  0.95229  1.0000
  H   H261      1.0  0.14632  0.80734  0.90539  1.0000
  H   H262      1.0  0.10933  0.75046  0.92792  1.0000
  C   C327      1.0  0.47349  0.67276  0.85927  1.0000
  C   C328      1.0  0.99990  0.89673  0.73461  1.0000
  C   C329      1.0  0.16576  0.60020  0.66875  1.0000
  H   H263      1.0  0.23086  0.89144  0.96095  1.0000
  H   H264      1.0  0.35402  0.65263  0.95220  1.0000
  H   H265      1.0  0.43807  0.50180  0.87933  1.0000
  C   C330      1.0  0.43130  0.50257  0.97417  1.0000
  C   C331      1.0  0.48589  0.74802  0.95436  1.0000
  C   C332      1.0  0.05317  0.94955  0.97390  1.0000
  C   C333      1.0  0.43086  0.48643  0.83358  1.0000
  C   C334      1.0  0.19731  0.78431  0.96569  1.0000
  H   H266      1.0  0.12855  0.71438  0.97442  1.0000
  H   H267      1.0  0.99245  0.65190  0.88783  1.0000
  S   S48       1.0  0.98832  0.80726  0.86781  1.0000
  C   C335      1.0  0.99719  0.88282  0.70493  1.0000
  P   P11       1.0  0.23576  0.80358  0.98538  1.0000
  C   C336      1.0  0.14500  0.73893  0.96439  1.0000
  H   H268      1.0  0.02758  0.77722  0.98304  1.0000
  C   C337      1.0  0.98750  0.87093  0.75812  1.0000
  S   S49       1.0  0.42436  0.48309  0.93776  1.0000
  H   H269      1.0  0.28056  0.65253  0.98386  1.0000
  C   C338      1.0  0.25972  0.71768  0.98566  1.0000
  H   H270      1.0  0.30681  0.63897  0.65395  1.0000
  Fe  Fe25      1.0  0.91173  0.20748  0.07687  1.0000
  S   S50       1.0  0.89757  0.14460  0.09964  1.0000
  S   S51       1.0  0.86528  0.25605  0.07462  1.0000
  C   C339      1.0  0.64545  0.41646  0.04544  1.0000
  Fe  Fe26      1.0  0.93308  0.11139  0.06696  1.0000
  S   S52       1.0  0.92544  0.04268  0.04960  1.0000
  Fe  Fe27      1.0  0.94547  0.15476  0.12821  1.0000
  S   S53       1.0  0.93815  0.13455  0.17681  1.0000
  S   S54       1.0  0.94372  0.17297  0.04183  1.0000
  H   H271      1.0  0.93026  0.10171  0.23583  1.0000
  C   C340      1.0  0.78910  0.24356  0.02134  1.0000
  P   P12       1.0  0.83871  0.14447  0.27848  1.0000
  C   C341      1.0  0.88842  0.09141  0.30590  1.0000
  C   C342      1.0  0.85242  0.30306  0.05397  1.0000
  C   C343      1.0  0.82536  0.32980  0.06504  1.0000
  C   C344      1.0  0.81374  0.36690  0.04936  1.0000
  C   C345      1.0  0.82897  0.37780  0.02224  1.0000
  C   C346      1.0  0.85596  0.35098  0.01114  1.0000
  C   C347      1.0  0.86756  0.31386  0.02679  1.0000
  H   H272      1.0  0.81335  0.32182  0.08598  1.0000
  H   H273      1.0  0.79338  0.38736  0.05849  1.0000
  H   H274      1.0  0.87657  0.13643  0.22206  1.0000
  H   H275      1.0  0.88797  0.29339  0.01770  1.0000
  C   C348      1.0  0.97591  0.01244  0.11984  1.0000
  C   C349      1.0  0.93353  0.02822  0.01228  1.0000
  C   C350      1.0  0.95932  0.14379  0.26499  1.0000
  C   C351      1.0  0.94993  0.31438  0.17168  1.0000
  C   C352      1.0  0.90764  0.02164  0.28740  1.0000
  C   C353      1.0  0.70702  0.41286  0.05901  1.0000
  H   H276      1.0  0.95309  0.00142  0.10757  1.0000
  C   C354      1.0  0.95721  0.15120  0.21098  1.0000
  C   C355      1.0  0.84975  0.42989  0.11011  1.0000
  H   H277      1.0  0.92818  0.26017  0.26934  1.0000
  C   C356      1.0  0.95021  0.32297  0.06871  1.0000
  H   H278      1.0  0.95146  0.12706  0.28486  1.0000
  C   C357      1.0  0.78954  0.09400  0.30885  1.0000
  C   C358      1.0  0.78116  0.17180  0.31221  1.0000
  H   H279      1.0  0.77344  0.17748  0.25076  1.0000
  H   H280      1.0  0.80096  0.18214  0.15892  1.0000
  C   C359      1.0  0.96822  0.29990  0.04691  1.0000
  C   C360      1.0  0.97139  0.40753  0.14004  1.0000
  C   C361      1.0  0.90570  0.25868  0.31286  1.0000
  C   C362      1.0  0.71232  0.38008  0.03815  1.0000
  C   C363      1.0  0.86437  0.18981  0.29186  1.0000
  C   C364      1.0  0.80014  0.13616  0.30117  1.0000
  C   C365      1.0  0.76288  0.25331  0.04187  1.0000
  H   H281      1.0  0.86040  0.15318  0.17076  1.0000
  C   C366      1.0  0.97158  0.03466  0.14645  1.0000
  C   C367      1.0  0.87733  0.40537  0.12228  1.0000
  H   H282      1.0  0.86794  0.35891  0.99017  1.0000
  S   S55       1.0  0.81611  0.42467  0.00144  1.0000
  H   H283      1.0  0.82564  0.43461  0.12243  1.0000
  C   C368      1.0  0.84134  0.15835  0.18826  1.0000
  H   H284      1.0  0.72908  0.42526  0.07163  1.0000
  H   H285      1.0  0.81248  0.22589  0.02827  1.0000
  C   C369      1.0  0.79264  0.17180  0.23360  1.0000
  C   C370      1.0  0.96810  0.33832  0.09373  1.0000
  S   S56       1.0  0.97970  0.11686  0.09711  1.0000
  C   C371      1.0  0.88823  0.21097  0.27307  1.0000
  C   C372      1.0  0.90921  0.05413  0.30882  1.0000
  H   H286      1.0  0.78875  0.20460  0.30651  1.0000
  H   H287      1.0  0.92398  0.99294  0.28961  1.0000
  C   C373      1.0  0.67361  0.43116  0.06258  1.0000
  C   C374      1.0  0.65057  0.38329  0.02483  1.0000
  H   H288      1.0  0.90197  0.22863  0.19642  1.0000
  H   H289      1.0  0.95417  0.28782  0.02777  1.0000
  C   C375      1.0  0.96356  0.42067  0.16898  1.0000
  H   H290      1.0  0.92221  0.32821  0.06628  1.0000
  C   C376      1.0  0.88879  0.26788  0.15847  1.0000
  C   C377      1.0  0.90914  0.25645  0.18307  1.0000
  C   C378      1.0  0.93944  0.28009  0.18987  1.0000
  H   H291      1.0  0.76613  0.24313  0.06465  1.0000
  C   C379      1.0  0.92916  0.32670  0.14731  1.0000
  C   C380      1.0  0.89868  0.30297  0.14075  1.0000
  P   P13       1.0  0.94436  0.36760  0.12185  1.0000
  H   H292      1.0  0.61972  0.43134  0.04780  1.0000
  C   C381      1.0  0.68402  0.36438  0.02120  1.0000
  C   C382      1.0  0.73310  0.27701  0.03319  1.0000
  C   C383      1.0  0.94737  0.12958  0.23710  1.0000
  H   H293      1.0  0.93556  0.41305  0.06529  1.0000
  H   H294      1.0  0.86586  0.24888  0.15257  1.0000
  H   H295      1.0  0.84589  0.06579  0.24182  1.0000
  C   C384      1.0  0.90828  0.39828  0.10607  1.0000
  C   C385      1.0  0.90886  0.24511  0.28360  1.0000
  C   C386      1.0  0.85046  0.14875  0.21749  1.0000
  C   C387      1.0  0.82625  0.15537  0.24048  1.0000
  C   C388      1.0  0.91169  0.41728  0.07799  1.0000
  H   H296      1.0  0.87439  0.39188  0.14423  1.0000
  H   H297      1.0  0.89196  0.20050  0.25056  1.0000
  C   C389      1.0  0.80790  0.17467  0.18163  1.0000
  C   C390      1.0  0.78354  0.18134  0.20428  1.0000
  H   H298      1.0  0.94155  0.40664  0.18076  1.0000
  H   H299      1.0  0.73872  0.36783  0.03477  1.0000
  H   H300      1.0  0.75761  0.19404  0.19911  1.0000
  H   H301      1.0  0.67601  0.23338  0.01110  1.0000
  H   H302      1.0  0.88307  0.31084  0.12142  1.0000
  S   S57       1.0  0.95848  0.21893  0.10701  1.0000
  H   H303      1.0  0.94537  0.04058  0.15500  1.0000
  H   H304      1.0  0.80355  0.06588  0.30071  1.0000
  C   C391      1.0  0.86385  0.06329  0.26037  1.0000
  C   C392      1.0  0.72946  0.29136  0.00384  1.0000
  H   H305      1.0  0.62840  0.37320  0.01162  1.0000
  C   C393      1.0  0.88481  0.02610  0.26327  1.0000
  H   H306      1.0  0.95535  0.27106  0.20882  1.0000
  C   C394      1.0  0.62279  0.22122  0.99802  1.0000
  H   H307      1.0  0.71316  0.28467  0.04944  1.0000
  C   C395      1.0  0.98064  0.18595  0.21299  1.0000
  H   H308      1.0  0.92407  0.09183  0.99423  1.0000
  C   C396      1.0  0.92985  0.05826  0.98925  1.0000
  C   C397      1.0  0.94108  0.98472  0.00539  1.0000
  C   C398      1.0  0.98175  0.17947  0.26713  1.0000
  C   C399      1.0  0.86629  0.09680  0.28126  1.0000
  H   H309      1.0  0.83138  0.46585  0.07207  1.0000
  H   H310      1.0  0.88337  0.00073  0.24679  1.0000
  C   C400      1.0  0.85305  0.44780  0.08186  1.0000
  H   H311      1.0  0.97823  0.46183  0.20543  1.0000
  H   H312      1.0  0.66976  0.45758  0.07804  1.0000
  H   H313      1.0  0.97454  0.33062  0.17640  1.0000
  C   C401      1.0  0.88399  0.44146  0.06582  1.0000
  C   C402      1.0  0.65299  0.24696  0.00041  1.0000
  H   H314      1.0  0.88618  0.45456  0.04368  1.0000
  P   P14       1.0  0.69169  0.32375  0.99300  1.0000
  H   H315      1.0  0.62284  0.18856  0.00691  1.0000
  C   C403      1.0  0.65311  0.28951  0.98915  1.0000
  C   C404      1.0  0.78562  0.25750  0.99210  1.0000
  C   C405      1.0  0.98412  0.45218  0.18296  1.0000
  S   S58       1.0  0.96212  0.17628  0.43425  1.0000
  S   S59       1.0  0.95632  0.23809  0.37602  1.0000
  Fe  Fe28      1.0  0.92363  0.18588  0.39713  1.0000
  S   S60       1.0  0.86672  0.19996  0.40963  1.0000
  S   S61       1.0  0.94592  0.13289  0.36865  1.0000
  Fe  Fe29      1.0  0.70693  0.04940  0.45414  1.0000
  S   S62       1.0  0.70921  0.07361  0.50096  1.0000
  S   S63       1.0  0.73875  0.06816  0.41360  1.0000
  Fe  Fe30      1.0  0.65033  0.06370  0.50227  1.0000
  S   S64       1.0  0.60604  0.10121  0.52584  1.0000
  C   C406      1.0  0.91803  0.00253  0.55320  1.0000
  C   C407      1.0  0.49514  0.21098  0.49257  1.0000
  C   C408      1.0  0.56154  0.22522  0.46788  1.0000
  H   H316      1.0  0.66919  0.15530  0.37429  1.0000
  C   C409      1.0  0.86408  0.02906  0.42593  1.0000
  S   S65       1.0  0.56389  0.29280  0.56880  1.0000
  S   S66       1.0  0.52946  0.39420  0.60655  1.0000
  P   P15       1.0  0.55940  0.15051  0.43282  1.0000
  H   H317      1.0  0.49946  0.43889  0.50306  1.0000
  H   H318      1.0  0.54356  0.10704  0.48943  1.0000
  C   C410      1.0  0.59512  0.15484  0.53763  1.0000
  C   C411      1.0  0.56152  0.16257  0.54972  1.0000
  C   C412      1.0  0.55150  0.20430  0.55956  1.0000
  C   C413      1.0  0.57500  0.23903  0.55738  1.0000
  C   C414      1.0  0.60863  0.23126  0.54534  1.0000
  C   C415      1.0  0.61864  0.18955  0.53546  1.0000
  H   H319      1.0  0.54309  0.13604  0.55152  1.0000
  H   H320      1.0  0.52558  0.20959  0.56871  1.0000
  H   H321      1.0  0.62705  0.25782  0.54353  1.0000
  H   H322      1.0  0.64457  0.18425  0.52635  1.0000
  C   C416      1.0  0.83397  0.15957  0.41303  1.0000
  C   C417      1.0  0.80721  0.16486  0.43415  1.0000
  C   C418      1.0  0.77912  0.13530  0.43591  1.0000
  C   C419      1.0  0.77661  0.10143  0.41553  1.0000
  C   C420      1.0  0.80343  0.09603  0.39450  1.0000
  C   C421      1.0  0.83232  0.12451  0.39355  1.0000
  H   H323      1.0  0.80800  0.19227  0.44900  1.0000
  H   H324      1.0  0.75871  0.13977  0.45224  1.0000
  H   H325      1.0  0.80195  0.06957  0.37894  1.0000
  H   H326      1.0  0.85264  0.12020  0.37713  1.0000
  H   H327      1.0  0.89838  0.06041  0.61486  1.0000
  C   C422      1.0  0.53544  0.16334  0.39946  1.0000
  H   H328      1.0  0.88989  0.11614  0.32280  1.0000
  H   H329      1.0  0.61756  0.15772  0.47471  1.0000
  S   S67       1.0  0.65432  0.99377  0.51697  1.0000
  C   C423      1.0  0.55234  0.00662  0.45979  1.0000
  H   H330      1.0  0.53051  0.24194  0.34644  1.0000
  H   H331      1.0  0.86335  0.01072  0.40558  1.0000
  H   H332      1.0  0.50478  0.26951  0.51745  1.0000
  C   C424      1.0  0.55926  0.01804  0.43051  1.0000
  C   C425      1.0  0.94845  0.19421  0.52115  1.0000
  H   H333      1.0  0.97241  0.19815  0.53390  1.0000
  C   C426      1.0  0.60627  0.15633  0.42787  1.0000
  C   C427      1.0  0.75309  0.16536  0.33167  1.0000
  H   H334      1.0  0.73953  0.19296  0.34113  1.0000
  S   S68       1.0  0.64775  0.04531  0.45407  1.0000
  H   H335      1.0  0.81149  0.01111  0.43891  1.0000
  H   H336      1.0  0.80320  0.03513  0.61511  1.0000
  H   H337      1.0  0.95667  0.25202  0.49501  1.0000
  C   C428      1.0  0.56015  0.06176  0.42222  1.0000
  H   H338      1.0  0.92788  0.99208  0.59943  1.0000
  C   C429      1.0  0.52431  0.21245  0.35838  1.0000
  C   C430      1.0  0.54770  0.25464  0.48828  1.0000
  C   C431      1.0  0.90380  0.03027  0.53185  1.0000
  C   C432      1.0  0.88707  0.06892  0.54037  1.0000
  C   C433      1.0  0.88523  0.07962  0.57046  1.0000
  P   P16       1.0  0.86840  0.10537  0.51330  1.0000
  C   C434      1.0  0.89631  0.15230  0.50862  1.0000
  C   C435      1.0  0.86567  0.07743  0.47838  1.0000
  C   C436      1.0  0.89486  0.07713  0.45935  1.0000
  C   C437      1.0  0.89402  0.05307  0.43324  1.0000
  C   C438      1.0  0.76115  0.08771  0.32797  1.0000
  H   H339      1.0  0.58655  0.27160  0.64360  1.0000
  C   C439      1.0  0.83569  0.05321  0.47090  1.0000
  C   C440      1.0  0.88841  0.18249  0.48637  1.0000
  C   C441      1.0  0.90939  0.21908  0.48230  1.0000
  C   C442      1.0  0.93959  0.22477  0.49948  1.0000
  H   H340      1.0  0.97525  0.31914  0.55236  1.0000
  C   C443      1.0  0.92685  0.15810  0.52582  1.0000
  C   C444      1.0  0.82470  0.12001  0.52595  1.0000
  C   C445      1.0  0.81085  0.16187  0.52145  1.0000
  C   C446      1.0  0.77742  0.17273  0.53210  1.0000
  C   C447      1.0  0.75766  0.14214  0.54759  1.0000
  C   C448      1.0  0.77121  0.10053  0.55225  1.0000
  C   C449      1.0  0.80436  0.08930  0.54123  1.0000
  H   H341      1.0  0.56351  0.22329  0.39192  1.0000
  H   H342      1.0  0.90609  0.02122  0.50884  1.0000
  H   H343      1.0  0.87261  0.10946  0.57738  1.0000
  H   H344      1.0  0.91860  0.09481  0.46485  1.0000
  H   H345      1.0  0.91679  0.05291  0.41881  1.0000
  C   C450      1.0  0.62848  0.15855  0.45266  1.0000
  C   C451      1.0  0.50883  0.18156  0.47205  1.0000
  Fe  Fe31      1.0  0.71323  0.00266  0.51274  1.0000
  H   H346      1.0  0.86628  0.17734  0.47175  1.0000
  H   H347      1.0  0.90321  0.24181  0.46467  1.0000
  H   H348      1.0  0.56303  0.28249  0.49522  1.0000
  H   H349      1.0  0.88037  0.24757  0.35470  1.0000
  H   H350      1.0  0.93457  0.13445  0.54231  1.0000
  H   H351      1.0  0.82544  0.18637  0.50975  1.0000
  H   H352      1.0  0.76676  0.20488  0.52820  1.0000
  H   H353      1.0  0.73157  0.15035  0.55553  1.0000
  H   H354      1.0  0.75556  0.07648  0.56370  1.0000
  H   H355      1.0  0.81388  0.05642  0.54441  1.0000
  H   H356      1.0  0.56716  0.07008  0.39975  1.0000
  C   C452      1.0  0.91622  0.01341  0.58310  1.0000
  C   C453      1.0  0.83495  0.02914  0.44476  1.0000
  Fe  Fe32      1.0  0.48922  0.42541  0.57690  1.0000
  C   C454      1.0  0.66501  0.16073  0.44916  1.0000
  C   C455      1.0  0.67963  0.16000  0.42089  1.0000
  C   C456      1.0  0.65774  0.15693  0.39611  1.0000
  C   C457      1.0  0.62120  0.15474  0.39955  1.0000
  H   H357      1.0  0.68201  0.16189  0.46843  1.0000
  H   H358      1.0  0.70798  0.16072  0.41819  1.0000
  H   H359      1.0  0.60484  0.15080  0.38014  1.0000
  C   C458      1.0  0.89977  0.05193  0.59173  1.0000
  H   H360      1.0  0.72250  0.11813  0.35567  1.0000
  H   H361      1.0  0.81286  0.05260  0.48514  1.0000
  S   S69       1.0  0.75451  0.98590  0.54770  1.0000
  Fe  Fe33      1.0  0.51517  0.33089  0.58464  1.0000
  C   C459      1.0  0.54608  0.03892  0.48075  1.0000
  C   C460      1.0  0.80575  0.01949  0.63652  1.0000
  H   H362      1.0  0.58716  0.23166  0.45852  1.0000
  C   C461      1.0  0.55349  0.09442  0.44310  1.0000
  H   H363      1.0  0.84567  0.18585  0.33718  1.0000
  C   C462      1.0  0.54248  0.18793  0.46004  1.0000
  C   C463      1.0  0.54671  0.08265  0.47249  1.0000
  C   C464      1.0  0.54305  0.20172  0.38405  1.0000
  H   H364      1.0  0.75380  0.05523  0.33474  1.0000
  C   C465      1.0  0.49746  0.47263  0.49664  1.0000
  C   C466      1.0  0.74330  0.12332  0.33972  1.0000
  Fe  Fe34      1.0  0.98170  0.18433  0.34983  1.0000
  H   H365      1.0  0.49336  0.15356  0.46581  1.0000
  C   C467      1.0  0.88227  0.23767  0.33178  1.0000
  C   C468      1.0  0.49753  0.18524  0.34818  1.0000
  C   C469      1.0  0.51468  0.24739  0.50079  1.0000
  C   C470      1.0  0.86222  0.20284  0.32156  1.0000
  H   H366      1.0  0.92221  0.28460  0.32116  1.0000
  H   H367      1.0  0.54228  0.03026  0.50373  1.0000
  C   C471      1.0  0.50797  0.13664  0.38947  1.0000
  H   H368      1.0  0.50073  0.10766  0.40152  1.0000
  C   C472      1.0  0.83561  0.99457  0.64307  1.0000
  H   H369      1.0  0.92670  0.05064  0.32769  1.0000
  H   H370      1.0  0.49985  0.45940  0.44983  1.0000
  H   H371      1.0  0.85600  0.99117  0.62654  1.0000
  H   H372      1.0  0.56546  0.99291  0.41461  1.0000
  C   C473      1.0  0.97654  0.01363  0.65124  1.0000
  H   H373      1.0  0.75546  0.04228  0.65198  1.0000
  C   C474      1.0  0.48928  0.14746  0.36379  1.0000
  Fe  Fe35      1.0  0.98657  0.12653  0.40505  1.0000
  C   C475      1.0  0.54817  0.30971  0.78239  1.0000
  Fe  Fe36      1.0  0.51242  0.36763  0.90797  1.0000
  S   S70       1.0  0.57185  0.36259  0.91584  1.0000
  C   C476      1.0  0.57119  0.38327  0.78361  1.0000
  H   H374      1.0  0.51796  0.42673  0.74548  1.0000
  H   H375      1.0  0.55529  0.24000  0.90996  1.0000
  C   C477      1.0  0.60027  0.40821  0.91752  1.0000
  C   C478      1.0  0.61493  0.42481  0.89153  1.0000
  C   C479      1.0  0.56205  0.34607  0.76774  1.0000
  H   H376      1.0  0.62188  0.33779  0.96607  1.0000
  C   C480      1.0  0.58676  0.14534  0.81280  1.0000
  C   C481      1.0  0.61258  0.42387  0.94482  1.0000
  H   H377      1.0  0.60673  0.41194  0.87047  1.0000
  H   H378      1.0  0.60306  0.25084  0.79582  1.0000
  H   H379      1.0  0.53635  0.31683  0.66015  1.0000
  H   H380      1.0  0.98487  0.18415  0.92712  1.0000
  C   C482      1.0  0.93172  0.04437  0.95963  1.0000
  C   C483      1.0  0.55370  0.26406  0.72493  1.0000
  H   H381      1.0  0.92741  0.06749  0.94197  1.0000
  H   H382      1.0  0.60173  0.41114  0.96510  1.0000
  H   H383      1.0  0.80631  0.25049  0.97638  1.0000
  H   H384      1.0  0.54142  0.10908  0.79842  1.0000
  C   C484      1.0  0.93805  0.00059  0.95276  1.0000
  C   C485      1.0  0.73659  0.40823  0.93459  1.0000
  C   C486      1.0  0.59430  0.24159  0.68638  1.0000
  C   C487      1.0  0.64106  0.45701  0.89272  1.0000
  H   H385      1.0  0.55073  0.47471  0.95241  1.0000
  H   H386      1.0  0.58112  0.41145  0.77203  1.0000
  H   H387      1.0  0.59818  0.11844  0.82500  1.0000
  H   H388      1.0  0.51464  0.31134  0.71122  1.0000
  H   H389      1.0  0.49369  0.41138  0.79548  1.0000
  C   C488      1.0  0.55480  0.14007  0.79782  1.0000
  C   C489      1.0  0.68610  0.34250  0.93230  1.0000
  C   C490      1.0  0.69433  0.36610  0.90684  1.0000
  C   C491      1.0  0.71936  0.39917  0.90804  1.0000
  H   H390      1.0  0.62896  0.18930  0.82338  1.0000
  C   C492      1.0  0.57755  0.26945  0.66632  1.0000
  C   C493      1.0  0.77876  0.02335  0.65725  1.0000
  C   C494      1.0  0.96716  0.43680  0.88091  1.0000
  H   H391      1.0  0.56543  0.34644  0.74405  1.0000
  H   H392      1.0  0.65226  0.46929  0.87243  1.0000
  C   C495      1.0  0.70231  0.35261  0.95939  1.0000
  H   H393      1.0  0.66697  0.31676  0.93059  1.0000
  H   H394      1.0  0.95943  0.41223  0.92500  1.0000
  H   H395      1.0  0.59595  0.21728  0.73079  1.0000
  C   C496      1.0  0.53696  0.29174  0.70457  1.0000
  C   C497      1.0  0.53123  0.21031  0.87179  1.0000
  C   C498      1.0  0.56650  0.38464  0.81418  1.0000
  H   H396      1.0  0.75602  0.43383  0.93556  1.0000
  H   H397      1.0  0.98412  0.41019  0.87434  1.0000
  C   C499      1.0  0.63939  0.45550  0.94605  1.0000
  H   H398      1.0  0.94796  0.07106  0.66381  1.0000
  H   H399      1.0  0.55219  0.21978  0.85702  1.0000
  C   C500      1.0  0.55693  0.21523  0.78160  1.0000
  H   H400      1.0  0.68071  0.35936  0.88631  1.0000
  H   H401      1.0  0.72499  0.41836  0.88856  1.0000
  C   C501      1.0  0.55336  0.34846  0.82904  1.0000
  H   H402      1.0  0.74204  0.39243  0.98045  1.0000
  C   C502      1.0  0.53316  0.22142  0.90168  1.0000
  P   P17       1.0  0.53730  0.26064  0.76235  1.0000
  C   C503      1.0  0.50583  0.20994  0.92072  1.0000
  C   C504      1.0  0.94719  0.03606  0.66191  1.0000
  C   C505      1.0  0.58929  0.22010  0.79632  1.0000
  C   C506      1.0  0.60408  0.18526  0.81191  1.0000
  C   C507      1.0  0.95328  0.43798  0.90946  1.0000
  H   H403      1.0  0.61641  0.22206  0.67914  1.0000
  H   H404      1.0  0.64889  0.46689  0.96720  1.0000
  H   H405      1.0  0.57266  0.41390  0.82629  1.0000
  H   H406      1.0  0.80259  0.47675  0.84917  1.0000
  H   H407      1.0  0.89437  0.03119  0.67833  1.0000
  H   H408      1.0  0.51543  0.17011  0.77052  1.0000
  C   C508      1.0  0.54441  0.31108  0.81328  1.0000
  C   C509      1.0  0.58256  0.23896  0.71565  1.0000
  H   H409      1.0  0.96992  0.46904  0.83872  1.0000
  C   C510      1.0  0.72821  0.38500  0.96013  1.0000
  C   C511      1.0  0.54003  0.17481  0.78212  1.0000
  S   S71       1.0  0.93523  0.98332  0.91545  1.0000
  H   H410      1.0  0.54990  0.34953  0.85280  1.0000
  H   H411      1.0  0.75389  0.29186  0.96056  1.0000
  H   H412      1.0  0.53436  0.28341  0.82526  1.0000
  C   C512      1.0  0.62253  0.30543  0.97527  1.0000
  C   C513      1.0  0.54906  0.29470  0.67552  1.0000
  C   C514      1.0  0.91680  0.01335  0.66995  1.0000
  H   H413      1.0  0.50030  0.18122  0.83755  1.0000
  H   H414      1.0  0.56894  0.29268  0.96231  1.0000
  C   C515      1.0  0.93142  0.47230  0.91803  1.0000
  C   C516      1.0  0.75587  0.28117  0.98329  1.0000
  C   C517      1.0  0.49459  0.40706  0.74764  1.0000
  C   C518      1.0  0.50179  0.18819  0.86087  1.0000
  C   C519      1.0  0.95916  0.46995  0.86086  1.0000
  S   S72       1.0  0.49885  0.39984  0.68700  1.0000
  C   C520      1.0  0.65395  0.47199  0.91993  1.0000
  H   H415      1.0  0.50643  0.21990  0.94368  1.0000
  H   H416      1.0  0.96887  0.02025  0.86310  1.0000
  C   C521      1.0  0.59240  0.27971  0.97294  1.0000
  H   H417      1.0  0.76065  0.00528  0.70059  1.0000
  C   C522      1.0  0.78166  0.00234  0.68457  1.0000
  H   H418      1.0  0.56898  0.21788  0.98275  1.0000
  C   C523      1.0  0.59247  0.23764  0.98438  1.0000
  H   H419      1.0  0.92111  0.47238  0.94025  1.0000
  H   H420      1.0  0.55537  0.47340  0.89777  1.0000
  H   H421      1.0  0.97827  0.18503  0.98167  1.0000
  C   C524      1.0  0.49011  0.25255  0.76059  1.0000
  H   H422      1.0  0.49112  0.22087  0.71779  1.0000
  C   C525      1.0  0.53797  0.57357  0.02292  1.0000
  Fe  Fe37      1.0  0.50898  0.69410  0.07857  1.0000
  S   S73       1.0  0.56693  0.70375  0.06723  1.0000
  S   S74       1.0  0.77970  0.54290  0.03006  1.0000
  Fe  Fe38      1.0  0.72030  0.54478  0.02622  1.0000
  S   S75       1.0  0.68181  0.55197  0.06452  1.0000
  C   C526      1.0  0.59826  0.66080  0.06706  1.0000
  C   C527      1.0  0.59148  0.62040  0.07996  1.0000
  C   C528      1.0  0.61739  0.58746  0.07939  1.0000
  C   C529      1.0  0.64972  0.59402  0.06492  1.0000
  C   C530      1.0  0.65650  0.63448  0.05224  1.0000
  C   C531      1.0  0.63123  0.66788  0.05398  1.0000
  H   H423      1.0  0.56637  0.61454  0.09040  1.0000
  H   H424      1.0  0.61200  0.55644  0.08957  1.0000
  H   H425      1.0  0.68154  0.64038  0.04168  1.0000
  H   H426      1.0  0.63725  0.69943  0.04511  1.0000
  C   C532      1.0  0.86324  0.79746  0.02404  1.0000
  H   H427      1.0  0.80695  0.69476  0.03995  1.0000
  H   H428      1.0  0.83745  0.89357  0.04326  1.0000
  H   H429      1.0  0.66745  0.55808  0.13511  1.0000
  H   H430      1.0  0.87519  0.93466  0.00374  1.0000
  C   C533      1.0  0.51529  0.53282  0.19339  1.0000
  H   H431      1.0  0.57572  0.66741  0.30597  1.0000
  H   H432      1.0  0.64027  0.79195  0.00915  1.0000
  H   H433      1.0  0.51250  0.56908  0.03324  1.0000
  C   C534      1.0  0.93579  0.82068  0.00752  1.0000
  H   H434      1.0  0.70135  0.61993  0.11560  1.0000
  H   H435      1.0  0.85386  0.50464  0.00693  1.0000
  H   H436      1.0  0.54244  0.61923  0.15298  1.0000
  C   C535      1.0  0.52678  0.75699  0.19309  1.0000
  C   C536      1.0  0.52676  0.76660  0.16296  1.0000
  C   C537      1.0  0.54671  0.74143  0.14361  1.0000
  C   C538      1.0  0.56615  0.70611  0.15422  1.0000
  C   C539      1.0  0.56686  0.69654  0.18463  1.0000
  C   C540      1.0  0.54672  0.72220  0.20393  1.0000
  P   P18       1.0  0.59090  0.64958  0.19812  1.0000
  C   C541      1.0  0.60654  0.65960  0.23538  1.0000
  C   C542      1.0  0.56154  0.60360  0.19669  1.0000
  P   P19       1.0  0.89243  0.84199  0.01556  1.0000
  C   C543      1.0  0.56017  0.57313  0.21979  1.0000
  C   C544      1.0  0.58289  0.65900  0.25920  1.0000
  C   C545      1.0  0.59450  0.66753  0.28792  1.0000
  H   H437      1.0  0.68133  0.68407  0.27387  1.0000
  H   H438      1.0  0.70107  0.76296  0.00448  1.0000
  C   C546      1.0  0.64221  0.66857  0.24094  1.0000
  C   C547      1.0  0.62755  0.63967  0.17356  1.0000
  C   C548      1.0  0.63537  0.59744  0.16392  1.0000
  C   C549      1.0  0.86145  0.89821  0.05587  1.0000
  C   C550      1.0  0.68145  0.62543  0.13233  1.0000
  C   C551      1.0  0.54069  0.59714  0.17148  1.0000
  C   C552      1.0  0.64751  0.67458  0.16279  1.0000
  H   H439      1.0  0.49719  0.50580  0.19214  1.0000
  C   C553      1.0  0.89232  0.93429  0.09571  1.0000
  H   H440      1.0  0.51007  0.54999  0.30076  1.0000
  H   H441      1.0  0.58014  0.68615  0.13841  1.0000
  H   H442      1.0  0.54532  0.71510  0.22722  1.0000
  H   H443      1.0  0.94394  0.96131  0.02305  1.0000
  H   H444      1.0  0.57699  0.57619  0.23899  1.0000
  H   H445      1.0  0.55530  0.65223  0.25568  1.0000
  H   H446      1.0  0.94688  0.91676  0.10127  1.0000
  H   H447      1.0  0.66117  0.66925  0.22319  1.0000
  H   H448      1.0  0.62032  0.56993  0.17162  1.0000
  C   C554      1.0  0.86147  0.92732  0.07953  1.0000
  C   C555      1.0  0.66224  0.59045  0.14338  1.0000
  H   H449      1.0  0.51053  0.79285  0.15451  1.0000
  H   H450      1.0  0.64175  0.70745  0.16974  1.0000
  H   H451      1.0  0.61889  0.52649  0.01900  1.0000
  C   C556      1.0  0.89255  0.87659  0.04778  1.0000
  C   C557      1.0  0.53680  0.53815  0.21825  1.0000
  C   C558      1.0  0.56490  0.54354  0.02796  1.0000
  C   C559      1.0  0.64463  0.76006  0.99980  1.0000
  H   H452      1.0  0.54650  0.74870  0.12019  1.0000
  H   H453      1.0  0.62958  0.58950  0.98725  1.0000
  H   H454      1.0  0.49998  0.62088  0.24286  1.0000
  C   C560      1.0  0.51746  0.56212  0.16990  1.0000
  H   H455      1.0  0.58982  0.74847  0.99359  1.0000
  H   H456      1.0  0.53800  0.70534  0.00819  1.0000
  C   C561      1.0  0.94095  0.77614  0.00248  1.0000
  C   C562      1.0  0.62996  0.67657  0.29322  1.0000
  C   C563      1.0  0.67420  0.66745  0.14211  1.0000
  H   H457      1.0  0.51030  0.77561  0.20793  1.0000
  H   H458      1.0  0.68868  0.69460  0.13308  1.0000
  S   S76       1.0  0.49006  0.64631  0.11221  1.0000
  C   C564      1.0  0.92310  0.88245  0.06491  1.0000
  H   H459      1.0  0.50114  0.55785  0.15039  1.0000
  C   C565      1.0  0.90661  0.59148  0.99417  1.0000
  H   H460      1.0  0.85518  0.71536  0.07426  1.0000
  C   C566      1.0  0.84947  0.73540  0.05515  1.0000
  H   H461      1.0  0.79396  0.74013  0.99617  1.0000
  C   C567      1.0  0.65382  0.67699  0.26976  1.0000
  S   S77       1.0  0.49220  0.65681  0.30102  1.0000
  H   H462      1.0  0.56039  0.51605  0.04238  1.0000
  H   H463      1.0  0.53542  0.51516  0.23632  1.0000
  C   C568      1.0  0.92299  0.91146  0.08864  1.0000
  C   C569      1.0  0.86993  0.77205  0.04925  1.0000
  H   H464      1.0  0.88396  0.56411  0.03358  1.0000
  C   C570      1.0  0.81474  0.74963  0.01129  1.0000
  H   H465      1.0  0.94715  0.86514  0.06003  1.0000
  H   H466      1.0  0.89152  0.78007  0.06394  1.0000
  C   C571      1.0  0.82211  0.72396  0.03600  1.0000
  C   C572      1.0  0.96424  0.84914  0.00378  1.0000
  C   C573      1.0  0.83501  0.78642  0.00537  1.0000
  H   H467      1.0  0.96069  0.88372  0.00663  1.0000
  H   H468      1.0  0.83774  0.94518  0.08495  1.0000
  Fe  Fe39      1.0  0.77716  0.48223  0.00235  1.0000
  H   H469      1.0  0.91939  0.75349  0.00426  1.0000
  C   C574      1.0  0.59773  0.54939  0.01474  1.0000
  H   H470      1.0  0.89250  0.95765  0.11358  1.0000
  C   C575      1.0  0.97400  0.76043  0.99397  1.0000
  C   C576      1.0  0.88683  0.56111  0.00988  1.0000
  H   H471      1.0  0.52155  0.63017  0.99971  1.0000
  C   C577      1.0  0.67884  0.74369  0.99727  1.0000
  C   C578      1.0  0.54356  0.60902  0.00422  1.0000
  C   C579      1.0  0.61583  0.73494  0.99096  1.0000
  S   S78       1.0  0.71782  0.48131  0.00152  1.0000
  H   H472      1.0  0.97756  0.72624  0.98938  1.0000
  C   C580      1.0  0.60384  0.58573  0.99697  1.0000
  H   H473      1.0  0.91899  0.61811  0.00574  1.0000
  H   H474      1.0  0.63886  0.68338  0.31550  1.0000
  C   C581      1.0  0.57683  0.61606  0.99150  1.0000
  C   C582      1.0  0.86976  0.52769  0.99486  1.0000
  Fe  Fe40      1.0  0.77958  0.58128  0.98724  1.0000
  C   C583      1.0  0.85189  0.88673  0.63069  1.0000
  S   S79       1.0  0.96071  0.79646  0.57913  1.0000
  Fe  Fe41      1.0  0.93214  0.85202  0.55708  1.0000
  S   S80       1.0  0.87753  0.84698  0.53649  1.0000
  S   S81       1.0  0.94743  0.89968  0.59194  1.0000
  H   H475      1.0  0.61997  0.52063  0.61846  1.0000
  H   H476      1.0  0.82212  0.97937  0.57620  1.0000
  S   S82       1.0  0.62168  0.92974  0.43978  1.0000
  H   H477      1.0  0.50480  0.51985  0.35152  1.0000
  H   H478      1.0  0.65091  0.65237  0.50600  1.0000
  C   C584      1.0  0.49268  0.54843  0.50970  1.0000
  C   C585      1.0  0.65289  0.75967  0.52289  1.0000
  C   C586      1.0  0.63536  0.57713  0.59343  1.0000
  H   H479      1.0  0.58468  0.67505  0.46869  1.0000
  H   H480      1.0  0.66092  0.57960  0.60400  1.0000
  S   S83       1.0  0.54528  0.74447  0.43991  1.0000
  S   S84       1.0  0.52481  0.65197  0.38055  1.0000
  H   H481      1.0  0.53640  0.64904  0.58225  1.0000
  S   S85       1.0  0.49715  0.49231  0.55655  1.0000
  H   H482      1.0  0.71031  0.96508  0.39569  1.0000
  H   H483      1.0  0.86992  0.78326  0.60937  1.0000
  H   H484      1.0  0.58548  0.64050  0.41984  1.0000
  C   C587      1.0  0.60032  0.87829  0.44071  1.0000
  C   C588      1.0  0.58272  0.86383  0.41512  1.0000
  C   C589      1.0  0.56532  0.82339  0.41449  1.0000
  C   C590      1.0  0.56547  0.79665  0.43948  1.0000
  C   C591      1.0  0.58322  0.81099  0.46503  1.0000
  C   C592      1.0  0.60039  0.85158  0.46575  1.0000
  H   H485      1.0  0.58246  0.88415  0.39561  1.0000
  H   H486      1.0  0.55196  0.81286  0.39462  1.0000
  H   H487      1.0  0.58348  0.79056  0.48443  1.0000
  H   H488      1.0  0.61358  0.86218  0.48566  1.0000
  C   C593      1.0  0.84656  0.89015  0.53691  1.0000
  C   C594      1.0  0.84876  0.92417  0.55724  1.0000
  C   C595      1.0  0.82090  0.95429  0.55963  1.0000
  C   C596      1.0  0.61232  0.54396  0.60165  1.0000
  C   C597      1.0  0.79024  0.91942  0.51935  1.0000
  C   C598      1.0  0.81743  0.88830  0.51780  1.0000
  H   H489      1.0  0.87117  0.92615  0.57194  1.0000
  S   S86       1.0  0.49656  0.54176  0.41982  1.0000
  C   C599      1.0  0.89018  0.81377  0.64870  1.0000
  H   H490      1.0  0.81565  0.86192  0.50225  1.0000
  H   H491      1.0  0.65520  0.65448  0.43721  1.0000
  H   H492      1.0  0.54408  0.56701  0.55566  1.0000
  H   H493      1.0  0.57192  0.73193  0.54812  1.0000
  H   H494      1.0  0.49149  0.59381  0.47341  1.0000
  H   H495      1.0  0.57785  0.54860  0.50956  1.0000
  H   H496      1.0  0.83682  0.91423  0.62298  1.0000
  H   H497      1.0  0.52466  0.67684  0.48912  1.0000
  C   C600      1.0  0.62559  0.60687  0.57143  1.0000
  H   H498      1.0  0.68972  0.71638  0.50209  1.0000
  C   C601      1.0  0.79122  0.95159  0.54105  1.0000
  C   C602      1.0  0.51441  0.67570  0.51138  1.0000
  Fe  Fe42      1.0  0.50735  0.70790  0.40909  1.0000
  H   H499      1.0  0.66965  0.78778  0.52058  1.0000
  C   C603      1.0  0.56955  0.57038  0.56616  1.0000
  H   H500      1.0  0.61104  0.79521  0.54388  1.0000
  H   H501      1.0  0.66363  0.94440  0.36003  1.0000
  H   H502      1.0  0.64391  0.63213  0.56542  1.0000
  C   C604      1.0  0.49286  0.56007  0.47965  1.0000
  H   H503      1.0  0.56156  0.51464  0.59404  1.0000
  C   C605      1.0  0.70217  0.93147  0.39389  1.0000
  C   C606      1.0  0.67597  0.91980  0.37372  1.0000
  C   C607      1.0  0.66541  0.87653  0.37153  1.0000
  C   C608      1.0  0.68054  0.84500  0.38992  1.0000
  C   C609      1.0  0.70570  0.85687  0.41124  1.0000
  C   C610      1.0  0.71715  0.90005  0.41241  1.0000
  P   P20       1.0  0.72522  0.81763  0.43613  1.0000
  C   C611      1.0  0.70332  0.76572  0.43565  1.0000
  C   C612      1.0  0.77103  0.81465  0.42580  1.0000
  C   C613      1.0  0.78192  0.78776  0.40254  1.0000
  C   C614      1.0  0.81754  0.78564  0.39474  1.0000
  C   C615      1.0  0.84232  0.81096  0.40972  1.0000
  C   C616      1.0  0.83141  0.83907  0.43209  1.0000
  C   C617      1.0  0.79584  0.84141  0.43977  1.0000
  C   C618      1.0  0.72272  0.72689  0.43723  1.0000
  C   C619      1.0  0.70537  0.68691  0.43760  1.0000
  C   C620      1.0  0.66859  0.68545  0.43698  1.0000
  C   C621      1.0  0.64912  0.72398  0.43658  1.0000
  C   C622      1.0  0.66639  0.76394  0.43642  1.0000
  C   C623      1.0  0.72110  0.83523  0.47394  1.0000
  C   C624      1.0  0.69513  0.86533  0.48200  1.0000
  C   C625      1.0  0.69206  0.87864  0.51140  1.0000
  C   C626      1.0  0.71486  0.86203  0.53293  1.0000
  C   C627      1.0  0.74018  0.83109  0.52520  1.0000
  C   C628      1.0  0.74314  0.81745  0.49585  1.0000
  S   S87       1.0  0.97753  0.86699  0.52727  1.0000
  C   C629      1.0  0.57941  0.54064  0.58801  1.0000
  H   H504      1.0  0.64504  0.86756  0.35591  1.0000
  H   H505      1.0  0.67223  0.81174  0.38744  1.0000
  H   H506      1.0  0.73737  0.90958  0.42799  1.0000
  H   H507      1.0  0.76293  0.76852  0.39045  1.0000
  H   H508      1.0  0.82598  0.76442  0.37705  1.0000
  H   H509      1.0  0.86995  0.80916  0.40386  1.0000
  H   H510      1.0  0.85052  0.85914  0.44354  1.0000
  H   H511      1.0  0.78773  0.86442  0.45647  1.0000
  H   H512      1.0  0.75117  0.72730  0.43857  1.0000
  H   H513      1.0  0.72045  0.65703  0.43852  1.0000
  H   H514      1.0  0.58164  0.56032  0.41549  1.0000
  H   H515      1.0  0.62058  0.72310  0.43656  1.0000
  H   H516      1.0  0.65086  0.79349  0.43683  1.0000
  H   H517      1.0  0.67738  0.87885  0.46563  1.0000
  H   H518      1.0  0.67228  0.90235  0.51738  1.0000
  H   H519      1.0  0.71334  0.87377  0.55545  1.0000
  H   H520      1.0  0.75830  0.81876  0.54180  1.0000
  H   H521      1.0  0.76317  0.79383  0.49017  1.0000
  H   H522      1.0  0.76776  0.91728  0.50472  1.0000
  C   C630      1.0  0.53483  0.65945  0.53486  1.0000
  C   C631      1.0  0.52089  0.66014  0.56359  1.0000
  H   H523      1.0  0.95723  0.65852  0.61615  1.0000
  H   H524      1.0  0.83514  0.84735  0.59394  1.0000
  C   C632      1.0  0.98347  0.66944  0.62187  1.0000
  C   C633      1.0  0.58093  0.54983  0.46252  1.0000
  C   C634      1.0  0.58276  0.57541  0.43707  1.0000
  C   C635      1.0  0.58455  0.62049  0.43950  1.0000
  C   C636      1.0  0.58412  0.64001  0.46730  1.0000
  C   C637      1.0  0.58198  0.61465  0.49302  1.0000
  C   C638      1.0  0.58040  0.56928  0.49041  1.0000
  P   P21       1.0  0.57944  0.64100  0.52861  1.0000
  C   C639      1.0  0.59259  0.60357  0.55750  1.0000
  C   C640      1.0  0.60860  0.68723  0.52753  1.0000
  C   C641      1.0  0.64207  0.68327  0.51465  1.0000
  C   C642      1.0  0.66412  0.71939  0.51240  1.0000
  C   C643      1.0  0.61983  0.76379  0.53606  1.0000
  C   C644      1.0  0.59769  0.72776  0.53837  1.0000
  C   C645      1.0  0.87006  0.81226  0.62287  1.0000
  H   H525      1.0  0.57841  0.51494  0.46060  1.0000
  C   C646      1.0  0.85060  0.84854  0.61410  1.0000
  H   H526      1.0  0.55312  0.97278  0.46636  1.0000
  H   H527      1.0  0.93094  0.97276  0.54642  1.0000
  Fe  Fe43      1.0  0.65474  0.97591  0.46861  1.0000
  Fe  Fe44      1.0  0.97994  0.84604  0.61247  1.0000
  S   S88       1.0  0.71400  0.97927  0.46598  1.0000
  C   C647      1.0  0.49784  0.48435  0.46650  1.0000
  H   H528      1.0  0.96755  0.73584  0.62851  1.0000
  C   C648      1.0  0.49522  0.50472  0.51837  1.0000
  C   C649      1.0  0.49561  0.52812  0.45787  1.0000
  C   C650      1.0  0.97582  0.96845  0.64931  1.0000
  H   H529      1.0  0.49072  0.57350  0.52628  1.0000
  H   H530      1.0  0.48783  0.57974  0.59098  1.0000
  C   C651      1.0  0.54640  0.66777  0.85163  1.0000
  C   C652      1.0  0.93726  0.50428  0.86933  1.0000
  H   H531      1.0  0.95459  0.70556  0.86174  1.0000
  Fe  Fe45      1.0  0.95237  0.91617  0.89998  1.0000
  S   S89       1.0  0.95957  0.85680  0.92806  1.0000
  H   H532      1.0  0.54238  0.73255  0.83397  1.0000
  Fe  Fe46      1.0  0.93577  0.81935  0.89025  1.0000
  S   S90       1.0  0.88994  0.77000  0.89184  1.0000
  C   C653      1.0  0.63311  0.64542  0.88627  1.0000
  S   S91       1.0  0.92484  0.88011  0.86332  1.0000
  H   H533      1.0  0.89117  0.69104  0.85484  1.0000
  H   H534      1.0  0.83785  0.87665  0.71404  1.0000
  H   H535      1.0  0.82861  0.59380  0.92088  1.0000
  C   C654      1.0  0.87137  0.73280  0.91796  1.0000
  C   C655      1.0  0.88747  0.72322  0.94505  1.0000
  C   C656      1.0  0.87164  0.69375  0.96497  1.0000
  C   C657      1.0  0.83981  0.67259  0.95797  1.0000
  C   C658      1.0  0.82379  0.68200  0.93077  1.0000
  C   C659      1.0  0.83947  0.71180  0.91099  1.0000
  H   H536      1.0  0.91220  0.73850  0.95049  1.0000
  C   C660      1.0  0.94394  0.97113  0.97576  1.0000
  H   H537      1.0  0.79909  0.66673  0.92508  1.0000
  H   H538      1.0  0.82670  0.71878  0.89011  1.0000
  H   H539      1.0  0.49323  0.73895  0.90771  1.0000
  C   C661      1.0  0.65560  0.67719  0.97672  1.0000
  C   C662      1.0  0.84313  0.50911  0.87424  1.0000
  H   H540      1.0  0.88229  0.81533  0.95421  1.0000
  H   H541      1.0  0.89136  0.88551  0.79758  1.0000
  H   H542      1.0  0.85911  0.97348  0.95845  1.0000
  C   C663      1.0  0.49451  0.55732  0.93563  1.0000
  C   C664      1.0  0.90916  0.58863  0.96341  1.0000
  C   C665      1.0  0.89263  0.62957  0.87758  1.0000
  C   C666      1.0  0.62099  0.69303  0.97948  1.0000
  C   C667      1.0  0.89208  0.55503  0.94813  1.0000
  Fe  Fe47      1.0  0.72088  0.52329  0.96137  1.0000
  H   H543      1.0  0.57791  0.57396  0.93916  1.0000
  C   C668      1.0  0.89151  0.85186  0.66539  1.0000
  H   H544      1.0  0.81293  0.96080  0.71226  1.0000
  P   P22       1.0  0.87636  0.93859  0.67748  1.0000
  C   C669      1.0  0.80852  0.50281  0.86439  1.0000
  C   C670      1.0  0.52823  0.70541  0.84343  1.0000
  H   H545      1.0  0.95779  0.78581  0.71687  1.0000
  H   H546      1.0  0.92360  0.61347  0.95178  1.0000
  C   C671      1.0  0.87232  0.52462  0.96414  1.0000
  H   H547      1.0  0.64924  0.66494  0.87173  1.0000
  H   H548      1.0  0.60456  0.54176  0.89494  1.0000
  H   H549      1.0  0.86358  0.48765  0.86632  1.0000
  Fe  Fe48      1.0  0.97828  0.86992  0.84291  1.0000
  C   C672      1.0  0.92325  0.50577  0.89801  1.0000
  C   C673      1.0  0.91560  0.96796  0.66728  1.0000
  C   C674      1.0  0.94565  0.94566  0.65770  1.0000
  C   C675      1.0  0.81139  0.97706  0.69110  1.0000
  H   H550      1.0  0.52002  0.52329  0.86735  1.0000
  C   C676      1.0  0.87611  0.84954  0.95571  1.0000
  C   C677      1.0  0.94347  0.67547  0.86989  1.0000
  H   H551      1.0  0.86465  0.62481  0.87478  1.0000
  H   H552      1.0  0.51116  0.52773  0.97646  1.0000
  C   C678      1.0  0.49574  0.55540  0.90466  1.0000
  C   C679      1.0  0.86647  0.87198  0.93004  1.0000
  H   H553      1.0  0.90795  0.85260  0.68498  1.0000
  C   C680      1.0  0.85767  0.89183  0.72781  1.0000
  C   C681      1.0  0.62814  0.60140  0.88026  1.0000
  C   C682      1.0  0.49176  0.70786  0.84718  1.0000
  C   C683      1.0  0.88764  0.89665  0.77503  1.0000
  C   C684      1.0  0.78143  0.52976  0.87447  1.0000
  C   C685      1.0  0.82339  0.56899  0.90457  1.0000
  H   H554      1.0  0.96243  0.81060  0.76907  1.0000
  C   C686      1.0  0.51863  0.52564  0.89118  1.0000
  H   H555      1.0  0.92375  0.96666  0.72599  1.0000
  C   C687      1.0  0.60779  0.57608  0.89923  1.0000
  H   H556      1.0  0.54527  0.69158  0.91358  1.0000
  C   C688      1.0  0.97216  0.83088  0.75138  1.0000
  C   C689      1.0  0.86260  0.93857  0.95790  1.0000
  H   H557      1.0  0.94887  0.93748  0.97058  1.0000
  S   S92       1.0  0.82094  0.63613  0.98446  1.0000
  H   H558      1.0  0.75446  0.52440  0.86740  1.0000
  H   H559      1.0  0.62313  0.69778  0.91637  1.0000
  H   H560      1.0  0.85424  0.93430  0.91095  1.0000
  C   C690      1.0  0.52823  0.63267  0.86383  1.0000
  C   C691      1.0  0.59885  0.63823  0.93131  1.0000
  C   C692      1.0  0.54546  0.69444  0.96136  1.0000
  C   C693      1.0  0.96466  0.64536  0.88476  1.0000
  H   H561      1.0  0.54280  0.60379  0.86987  1.0000
  C   C694      1.0  0.51416  0.52811  0.95270  1.0000
  H   H562      1.0  0.57460  0.66566  0.84841  1.0000
  C   C695      1.0  0.61830  0.66390  0.91158  1.0000
  H   H563      1.0  0.94586  0.91064  0.65648  1.0000
  C   C696      1.0  0.83856  0.97289  0.67033  1.0000
  P   P23       1.0  0.58435  0.66079  0.96611  1.0000
  C   C697      1.0  0.53619  0.49793  0.93912  1.0000
  H   H564      1.0  0.76786  0.58351  0.90257  1.0000
  C   C698      1.0  0.85078  0.54230  0.89448  1.0000
  C   C699      1.0  0.78896  0.56317  0.89426  1.0000
  P   P24       1.0  0.89496  0.55043  0.90837  1.0000
  C   C700      1.0  0.87179  0.91616  0.98370  1.0000
  C   C701      1.0  0.53882  0.49721  0.90838  1.0000
  C   C702      1.0  0.90573  0.94251  0.73434  1.0000
  C   C703      1.0  0.87980  0.92398  0.71612  1.0000
  C   C704      1.0  0.53257  0.70437  0.93301  1.0000
  S   S93       1.0  0.78005  0.52045  0.95998  1.0000
  H   H565      1.0  0.64057  0.58659  0.86125  1.0000
  S   S94       1.0  0.72019  0.58706  0.98571  1.0000
  C   C705      1.0  0.91363  0.59931  0.89284  1.0000
  C   C706      1.0  0.90762  0.66727  0.86601  1.0000
  C   C707      1.0  0.59288  0.59446  0.92449  1.0000
  H   H566      1.0  0.93118  0.52965  0.85349  1.0000
  H   H567      1.0  0.86502  0.85499  0.90914  1.0000
  H   H568      1.0  0.96657  0.58437  0.90772  1.0000
  C   C708      1.0  0.94988  0.60727  0.89603  1.0000
  C   C709      1.0  0.50303  0.73127  0.92956  1.0000
  H   H569      1.0  0.84498  0.85285  0.76595  1.0000
  S   S95       1.0  0.68833  0.51093  0.91996  1.0000
  C   C710      1.0  0.86162  0.87823  0.75716  1.0000
  C   C711      1.0  0.86003  0.91654  0.93108  1.0000
  H   H570      1.0  0.66057  0.64559  0.96726  1.0000
  H   H571      1.0  0.85855  0.49867  0.95289  1.0000
  C   C712      1.0  0.90947  0.92894  0.76368  1.0000
  C   C713      1.0  0.96955  0.81692  0.72168  1.0000
  H   H572      1.0  0.93008  0.94254  0.77746  1.0000
  C   C714      1.0  0.49163  0.63499  0.86785  1.0000
  H   H573      1.0  0.71084  0.68953  0.98370  1.0000
  H   H574      1.0  0.82873  0.80538  0.98597  1.0000
  C   C715      1.0  0.98192  0.84277  0.69818  1.0000
  H   H575      1.0  0.88417  0.68721  0.98599  1.0000
  S   S96       1.0  0.97810  0.82281  0.66114  1.0000
  C   C716      1.0  0.87839  0.87128  0.98288  1.0000
  C   C717      1.0  0.49860  0.73847  0.98259  1.0000
  C   C718      1.0  0.68431  0.70231  0.98567  1.0000
  H   H576      1.0  0.90571  0.78586  0.65540  1.0000
  C   C719      1.0  0.87280  0.88894  0.65633  1.0000
  C   C720      1.0  0.52832  0.71205  0.98609  1.0000
