data_image0
_chemical_formula_structural       HSH2S2C2H5CH2C2HFeC7H4C4HPC2H5C6HC3SCH2CSHFeHCH2CHC2HCHCHCPHCSC4HC3HFeS3CH2SC6H2CHSCH2CH2CH2C2HCHC2HC7HC2HFeC2H2CSC4HCPH2SH2CHC2HC2H4C2HC4HFeH2C2H2FeCHCH3C2H3CHCHC6H2C3HPCHC2HFeS2FeS2HPHC7H4C2SC2H3C2HC4H3C3HC3SC9HCHC2HCH8CH3CHCH2C4H5C2HCPH2SHCHCFeS3HSHC7HCH2CHC2HC2HC5PC2HC2HC10HCHCH2FeHCH7CH5C2PHSHC4HC2HC7FeHCH2CHC2H2C2H3SHCH2CH3C2HC2HSHFeS2H2CFeSHCS2C2FeCSH3C6H4CHC6HCHFeCHSC3PC14HCH16CSCH3C2H2C5HCSC6HSHCHCH3C2H2CFeC4H2CHFeH2C2H3FeCH3CHPC4HCHCH2C2S2FeS3HSFeS2C8H4C9H4CH2C4FeHC2HC4PC5FeC7HCHCH2CH4CH5SHC2H4C3PC3HSHC7H2CH2SHFeC3HC2HSCH4CH2C2H5CH3C2H3CH2FeS2FeS2HSFeS2C2H2S2FeCFeC6H4C6H5C2H3C2H2C2HC4HC6PC2HC3H4C8H3FeH3C2H4CHCHC4H2CHCH2C3H3CH3PC4H2CH3C2HCFeSC4H2CHPC3H3FeS2CSCFeSHCHFeS2HC7H4C6H4CHCH2C7HC5PC3HC8H7SC2H3CFeH3C4H2CHCHCH3SHC2H2CHC2PCHSH4C2HCHSCH3CSHCHFeHC2HC2SCFeS2CFeC7H5CH2C3H2C2PC3HCSCH2CH2C4H2CH4C2SHCHC2HCH3C4HCH2C2HPH2CH2CHCH2C2HC2HC3H2CSCHCHC2HC3HC2SHCHCHCHFeC2H2CS2CH5SHC6HCH2CPC2HC2HCHC2H2C2PC2FeH2C8HCH2CHSPH3CHCH2CHCH2C2FeHCHCHC10SCHCH3CHCH2CH3C2HCH4CH2CS2C2FeH2C4H2FeC7H3SC6HPC9H2C3HCHCHCH2CH2CH3CSHCHCHCHSFeHSH2C2H2SH3CHFeCSHFeS2CSC9H4CH3CSHCH3C4FePC13HC2SCH13C2H4CFeC3HSFeCHCHCHC2H2
_chemical_formula_sum              "H576 S96 C720 Fe48 P24"
_cell_length_a       45.7528
_cell_length_b       30.5948
_cell_length_c       37.4606
_cell_angle_alpha    90.3942
_cell_angle_beta     89.9455
_cell_angle_gamma    90.0054

_space_group_name_H-M_alt    "P 1"
_space_group_IT_number       1

loop_
  _space_group_symop_operation_xyz
  'x, y, z'

loop_
  _atom_site_type_symbol
  _atom_site_label
  _atom_site_symmetry_multiplicity
  _atom_site_fract_x
  _atom_site_fract_y
  _atom_site_fract_z
  _atom_site_occupancy
  H   H1        1.0  0.05485  0.03040  0.01646  1.0000
  S   S1        1.0  0.02788  0.07107  0.34797  1.0000
  H   H2        1.0  0.02318  0.98895  0.16317  1.0000
  H   H3        1.0  0.01144  0.98604  0.04819  1.0000
  S   S2        1.0  0.08252  0.31943  0.46561  1.0000
  S   S3        1.0  0.01903  0.22125  0.46797  1.0000
  C   C1        1.0  0.06516  0.02268  0.04168  1.0000
  C   C2        1.0  0.05445  0.04032  0.07382  1.0000
  H   H4        1.0  0.99988  0.11223  0.27077  1.0000
  H   H5        1.0  0.17958  0.35747  0.47145  1.0000
  H   H6        1.0  0.24188  0.23929  0.41162  1.0000
  H   H7        1.0  0.98283  0.09259  0.40171  1.0000
  H   H8        1.0  0.03241  0.24319  0.28774  1.0000
  C   C3        1.0  0.08852  0.99329  0.04185  1.0000
  H   H9        1.0  0.05963  0.04054  0.13144  1.0000
  H   H10       1.0  0.28539  0.05789  0.49037  1.0000
  C   C4        1.0  0.01235  0.17980  0.27969  1.0000
  C   C5        1.0  0.98997  0.23456  0.34883  1.0000
  H   H11       1.0  0.04694  0.20748  0.14545  1.0000
  Fe  Fe1       1.0  0.05069  0.27247  0.49132  1.0000
  C   C6        1.0  0.06757  0.02813  0.10616  1.0000
  C   C7        1.0  0.02500  0.11197  0.38200  1.0000
  C   C8        1.0  0.04794  0.14234  0.38612  1.0000
  C   C9        1.0  0.04677  0.17556  0.41250  1.0000
  C   C10       1.0  0.02241  0.17916  0.43494  1.0000
  C   C11       1.0  0.99928  0.14919  0.43046  1.0000
  C   C12       1.0  0.00063  0.11562  0.40442  1.0000
  H   H12       1.0  0.06686  0.13998  0.36887  1.0000
  H   H13       1.0  0.06466  0.19842  0.41538  1.0000
  H   H14       1.0  0.09201  0.13576  0.27514  1.0000
  H   H15       1.0  0.22936  0.38073  0.45274  1.0000
  C   C13       1.0  0.06474  0.19287  0.28124  1.0000
  C   C14       1.0  0.00971  0.45701  0.47892  1.0000
  C   C15       1.0  0.02656  0.15758  0.17714  1.0000
  C   C16       1.0  0.06987  0.14833  0.27552  1.0000
  H   H16       1.0  0.00548  0.10224  0.20159  1.0000
  P   P1        1.0  0.02302  0.07608  0.07323  1.0000
  C   C17       1.0  0.02300  0.10918  0.11334  1.0000
  C   C18       1.0  0.26436  0.23424  0.41971  1.0000
  H   H17       1.0  0.00618  0.20881  0.35058  1.0000
  H   H18       1.0  0.02823  0.17604  0.20183  1.0000
  H   H19       1.0  0.24834  0.05871  0.14657  1.0000
  H   H20       1.0  0.05030  0.08489  0.26791  1.0000
  H   H21       1.0  0.08298  0.21498  0.28502  1.0000
  C   C19       1.0  0.03552  0.15109  0.11355  1.0000
  C   C20       1.0  0.04637  0.11967  0.27124  1.0000
  C   C21       1.0  0.25206  0.33275  0.48419  1.0000
  C   C22       1.0  0.01380  0.11610  0.17704  1.0000
  C   C23       1.0  0.01174  0.09219  0.14523  1.0000
  C   C24       1.0  0.02464  0.11019  0.03398  1.0000
  H   H22       1.0  0.04436  0.16499  0.08938  1.0000
  C   C25       1.0  0.01770  0.13527  0.27333  1.0000
  C   C26       1.0  0.03607  0.20866  0.28303  1.0000
  C   C27       1.0  0.03714  0.17525  0.14534  1.0000
  S   S4        1.0  0.04687  0.44023  0.48227  1.0000
  C   C28       1.0  0.31315  0.10588  0.12427  1.0000
  H   H23       1.0  0.27694  0.99199  0.13462  1.0000
  H   H24       1.0  0.07157  0.11896  0.03576  1.0000
  C   C29       1.0  0.28572  0.26465  0.41036  1.0000
  S   S5        1.0  0.99667  0.01326  0.26521  1.0000
  H   H25       1.0  0.25499  0.17428  0.44626  1.0000
  Fe  Fe2       1.0  0.00210  0.01272  0.32494  1.0000
  H   H26       1.0  0.00493  0.22299  0.03011  1.0000
  C   C30       1.0  0.05150  0.12660  0.02180  1.0000
  H   H27       1.0  0.27981  0.29354  0.39542  1.0000
  H   H28       1.0  0.00164  0.06021  0.14564  1.0000
  C   C31       1.0  0.09099  0.99874  0.10623  1.0000
  H   H29       1.0  0.10077  0.98901  0.13128  1.0000
  C   C32       1.0  0.27187  0.19779  0.44003  1.0000
  C   C33       1.0  0.30070  0.19234  0.45232  1.0000
  H   H30       1.0  0.30858  0.13019  0.40169  1.0000
  C   C34       1.0  0.28396  0.10252  0.13499  1.0000
  H   H31       1.0  0.99269  0.29743  0.00920  1.0000
  C   C35       1.0  0.99909  0.12034  0.01516  1.0000
  H   H32       1.0  0.99144  0.39225  0.47669  1.0000
  C   C36       1.0  0.27111  0.06137  0.13885  1.0000
  P   P2        1.0  0.31032  0.14599  0.47963  1.0000
  H   H33       1.0  0.00089  0.26037  0.40080  1.0000
  C   C37       1.0  0.98687  0.26352  0.37761  1.0000
  S   S6        1.0  0.28713  0.35108  0.46965  1.0000
  C   C38       1.0  0.19860  0.34073  0.48167  1.0000
  C   C39       1.0  0.22692  0.35386  0.47113  1.0000
  C   C40       1.0  0.28750  0.02354  0.13238  1.0000
  C   C41       1.0  0.98677  0.42690  0.47629  1.0000
  H   H34       1.0  0.27119  0.13177  0.13992  1.0000
  C   C42       1.0  0.99034  0.04299  0.07174  1.0000
  C   C43       1.0  0.98564  0.23941  0.04020  1.0000
  C   C44       1.0  0.99117  0.00071  0.05706  1.0000
  H   H35       1.0  0.98088  0.29089  0.25612  1.0000
  Fe  Fe3       1.0  0.05942  0.31487  0.56612  1.0000
  S   S7        1.0  0.09155  0.36422  0.54590  1.0000
  S   S8        1.0  0.04201  0.30604  0.62258  1.0000
  S   S9        1.0  0.08059  0.25848  0.53747  1.0000
  C   C45       1.0  0.24850  0.29803  0.50793  1.0000
  H   H36       1.0  0.00709  0.03983  0.97072  1.0000
  H   H37       1.0  0.31158  0.32952  0.94165  1.0000
  S   S10       1.0  0.04521  0.44327  0.75104  1.0000
  C   C46       1.0  0.04220  0.34729  0.65594  1.0000
  C   C47       1.0  0.01968  0.34778  0.68141  1.0000
  C   C48       1.0  0.02007  0.37765  0.71009  1.0000
  C   C49       1.0  0.04341  0.40677  0.71414  1.0000
  C   C50       1.0  0.06604  0.40631  0.68870  1.0000
  C   C51       1.0  0.06526  0.37709  0.65941  1.0000
  H   H38       1.0  0.00173  0.32510  0.67885  1.0000
  H   H39       1.0  0.16433  0.38046  0.54630  1.0000
  C   C52       1.0  0.17342  0.44988  0.61680  1.0000
  H   H40       1.0  0.08293  0.37655  0.64021  1.0000
  S   S11       1.0  0.02712  0.32561  0.52202  1.0000
  C   C53       1.0  0.25434  0.40384  0.72238  1.0000
  H   H41       1.0  0.26756  0.28140  0.51815  1.0000
  H   H42       1.0  0.29882  0.44076  0.49690  1.0000
  C   C54       1.0  0.02162  0.15648  0.80562  1.0000
  H   H43       1.0  0.08430  0.42841  0.69175  1.0000
  H   H44       1.0  0.99609  0.25574  0.57335  1.0000
  C   C55       1.0  0.29449  0.33166  0.59598  1.0000
  H   H45       1.0  0.05687  0.33078  0.76476  1.0000
  H   H46       1.0  0.99900  0.35420  0.85308  1.0000
  C   C56       1.0  0.25221  0.26660  0.60487  1.0000
  C   C57       1.0  0.28323  0.41410  0.73126  1.0000
  H   H47       1.0  0.13645  0.43304  0.58363  1.0000
  C   C58       1.0  0.28054  0.42323  0.54780  1.0000
  H   H48       1.0  0.20588  0.08651  0.54672  1.0000
  C   C59       1.0  0.22015  0.28452  0.51813  1.0000
  C   C60       1.0  0.29570  0.41643  0.66847  1.0000
  H   H49       1.0  0.21362  0.46020  0.64514  1.0000
  C   C61       1.0  0.00912  0.43477  0.57753  1.0000
  C   C62       1.0  0.00020  0.14646  0.98472  1.0000
  C   C63       1.0  0.03346  0.12599  0.82928  1.0000
  C   C64       1.0  0.02117  0.45210  0.60872  1.0000
  C   C65       1.0  0.19499  0.30584  0.50521  1.0000
  C   C66       1.0  0.27661  0.43531  0.58364  1.0000
  C   C67       1.0  0.26653  0.40752  0.65929  1.0000
  H   H50       1.0  0.21649  0.36713  0.55816  1.0000
  C   C68       1.0  0.00602  0.44882  0.64092  1.0000
  C   C69       1.0  0.20462  0.38984  0.57508  1.0000
  H   H51       1.0  0.07348  0.16458  0.98158  1.0000
  Fe  Fe4       1.0  0.06025  0.37143  0.49953  1.0000
  C   C70       1.0  0.05265  0.15252  0.99115  1.0000
  C   C71       1.0  0.03872  0.32048  0.78134  1.0000
  H   H52       1.0  0.03267  0.16271  0.78058  1.0000
  H   H53       1.0  0.31133  0.35632  0.59321  1.0000
  C   C72       1.0  0.30216  0.28762  0.59242  1.0000
  S   S12       1.0  0.15986  0.28792  0.51998  1.0000
  C   C73       1.0  0.28101  0.25514  0.59675  1.0000
  C   C74       1.0  0.99028  0.01501  0.97012  1.0000
  C   C75       1.0  0.17509  0.39769  0.56803  1.0000
  C   C76       1.0  0.26550  0.34349  0.60377  1.0000
  H   H54       1.0  0.22225  0.31867  0.61612  1.0000
  C   C77       1.0  0.24453  0.31057  0.60887  1.0000
  P   P3        1.0  0.25657  0.39982  0.61306  1.0000
  H   H55       1.0  0.04050  0.37772  0.81494  1.0000
  H   H56       1.0  0.02111  0.43662  0.55267  1.0000
  S   S13       1.0  0.99554  0.44972  0.83961  1.0000
  H   H57       1.0  0.00268  0.37718  0.72957  1.0000
  H   H58       1.0  0.23843  0.39809  0.74328  1.0000
  C   C78       1.0  0.00608  0.33382  0.83101  1.0000
  H   H59       1.0  0.01537  0.46226  0.66519  1.0000
  C   C79       1.0  0.02953  0.34693  0.80970  1.0000
  C   C80       1.0  0.24606  0.40005  0.68653  1.0000
  H   H60       1.0  0.28698  0.22110  0.59430  1.0000
  C   C81       1.0  0.28700  0.47606  0.59558  1.0000
  C   C82       1.0  0.20298  0.44201  0.62396  1.0000
  H   H61       1.0  0.22388  0.39046  0.68017  1.0000
  H   H62       1.0  0.31222  0.41970  0.64795  1.0000
  H   H63       1.0  0.04252  0.46720  0.60805  1.0000
  H   H64       1.0  0.23579  0.24145  0.60831  1.0000
  C   C83       1.0  0.21855  0.41087  0.60382  1.0000
  C   C84       1.0  0.02405  0.28145  0.77372  1.0000
  H   H65       1.0  0.27206  0.39246  0.53783  1.0000
  C   C85       1.0  0.99968  0.26897  0.79416  1.0000
  C   C86       1.0  0.15941  0.42740  0.58906  1.0000
  C   C87       1.0  0.29556  0.45075  0.52448  1.0000
  C   C88       1.0  0.99094  0.18220  0.66527  1.0000
  H   H66       1.0  0.03173  0.26142  0.75171  1.0000
  Fe  Fe5       1.0  0.00311  0.45953  0.78071  1.0000
  H   H67       1.0  0.02780  0.18243  0.94885  1.0000
  H   H68       1.0  0.28974  0.41658  0.75900  1.0000
  C   C89       1.0  0.99568  0.17863  0.81433  1.0000
  C   C90       1.0  0.02700  0.16245  0.97261  1.0000
  H   H69       1.0  0.05320  0.10836  0.82220  1.0000
  H   H70       1.0  0.21764  0.25750  0.53631  1.0000
  Fe  Fe6       1.0  0.11147  0.30859  0.51408  1.0000
  C   C91       1.0  0.99137  0.29478  0.82355  1.0000
  H   H71       1.0  0.30743  0.16688  0.55674  1.0000
  C   C92       1.0  0.30394  0.42013  0.70431  1.0000
  H   H72       1.0  0.21756  0.16568  0.54555  1.0000
  H   H73       1.0  0.02887  0.09425  0.88027  1.0000
  H   H74       1.0  0.16130  0.47332  0.63276  1.0000
  C   C93       1.0  0.98201  0.41381  0.57847  1.0000
  C   C94       1.0  0.01987  0.11819  0.86209  1.0000
  H   H75       1.0  0.98530  0.32420  0.60579  1.0000
  H   H76       1.0  0.98823  0.25135  0.65562  1.0000
  H   H77       1.0  0.99413  0.17401  0.63732  1.0000
  C   C95       1.0  0.99028  0.14926  0.69097  1.0000
  H   H78       1.0  0.99262  0.11538  0.68283  1.0000
  C   C96       1.0  0.98751  0.22585  0.67559  1.0000
  H   H79       1.0  0.98613  0.13406  0.74660  1.0000
  C   C97       1.0  0.98444  0.20396  0.73780  1.0000
  C   C98       1.0  0.98685  0.16002  0.72712  1.0000
  C   C99       1.0  0.98379  0.23667  0.71165  1.0000
  C   C100      1.0  0.99473  0.14149  0.87157  1.0000
  C   C101      1.0  0.23265  0.14218  0.53395  1.0000
  C   C102      1.0  0.22604  0.09760  0.53450  1.0000
  H   H80       1.0  0.26310  0.19137  0.51736  1.0000
  H   H81       1.0  0.98089  0.27066  0.71917  1.0000
  C   C103      1.0  0.27764  0.12653  0.50159  1.0000
  C   C104      1.0  0.24526  0.06741  0.51898  1.0000
  C   C105      1.0  0.25842  0.15660  0.51781  1.0000
  H   H82       1.0  0.24001  0.03288  0.51930  1.0000
  P   P4        1.0  0.98059  0.21870  0.78435  1.0000
  C   C106      1.0  0.98288  0.17203  0.84803  1.0000
  H   H83       1.0  0.98433  0.13581  0.89717  1.0000
  C   C107      1.0  0.27100  0.08175  0.50258  1.0000
  C   C108      1.0  0.98480  0.91415  0.11483  1.0000
  H   H84       1.0  0.01488  0.79998  0.30586  1.0000
  Fe  Fe7       1.0  0.06151  0.81835  0.03636  1.0000
  S   S14       1.0  0.04445  0.79933  0.09127  1.0000
  S   S15       1.0  0.08746  0.87905  0.02475  1.0000
  Fe  Fe8       1.0  0.01465  0.94489  0.26453  1.0000
  S   S16       1.0  0.05061  0.93156  0.22365  1.0000
  S   S17       1.0  0.02333  0.94632  0.32358  1.0000
  H   H85       1.0  0.31226  0.66543  0.02348  1.0000
  P   P5        1.0  0.00985  0.65865  0.40408  1.0000
  H   H86       1.0  0.02812  0.94085  0.11000  1.0000
  C   C109      1.0  0.06778  0.55939  0.42194  1.0000
  C   C110      1.0  0.04588  0.83677  0.12766  1.0000
  C   C111      1.0  0.02600  0.83255  0.15613  1.0000
  C   C112      1.0  0.02698  0.86145  0.18566  1.0000
  C   C113      1.0  0.04834  0.89413  0.18735  1.0000
  C   C114      1.0  0.06864  0.89755  0.15933  1.0000
  C   C115      1.0  0.06716  0.86954  0.12938  1.0000
  H   H87       1.0  0.00970  0.80700  0.15524  1.0000
  H   H88       1.0  0.01156  0.85819  0.20734  1.0000
  H   H89       1.0  0.08547  0.92224  0.16072  1.0000
  H   H90       1.0  0.08285  0.87277  0.10797  1.0000
  C   C116      1.0  0.00607  0.73116  0.31267  1.0000
  C   C117      1.0  0.98462  0.68521  0.46867  1.0000
  S   S18       1.0  0.08916  0.77454  0.00076  1.0000
  C   C118      1.0  0.30787  0.85460  0.13297  1.0000
  C   C119      1.0  0.01281  0.70314  0.37274  1.0000
  H   H91       1.0  0.23462  0.84184  0.06649  1.0000
  H   H92       1.0  0.05758  0.68739  0.45034  1.0000
  H   H93       1.0  0.99787  0.66463  0.32758  1.0000
  C   C120      1.0  0.23113  0.83996  0.03796  1.0000
  C   C121      1.0  0.00508  0.69648  0.33681  1.0000
  H   H94       1.0  0.27901  0.53100  0.03257  1.0000
  C   C122      1.0  0.03733  0.69109  0.46506  1.0000
  C   C123      1.0  0.25548  0.83675  0.01499  1.0000
  C   C124      1.0  0.01474  0.77270  0.32422  1.0000
  C   C125      1.0  0.10139  0.98118  0.07411  1.0000
  H   H95       1.0  0.15873  0.75836  0.01323  1.0000
  H   H96       1.0  0.13078  0.69175  0.02861  1.0000
  H   H97       1.0  0.02863  0.81205  0.36886  1.0000
  C   C126      1.0  0.21380  0.68346  0.00643  1.0000
  C   C127      1.0  0.00774  0.94182  0.12472  1.0000
  C   C128      1.0  0.16779  0.64859  0.02219  1.0000
  H   H98       1.0  0.03264  0.59063  0.45029  1.0000
  C   C129      1.0  0.05734  0.62046  0.36810  1.0000
  C   C130      1.0  0.04577  0.59070  0.42621  1.0000
  C   C131      1.0  0.02263  0.77949  0.35982  1.0000
  S   S19       1.0  0.29136  0.83609  0.03384  1.0000
  C   C132      1.0  0.16956  0.72678  0.01357  1.0000
  C   C133      1.0  0.30355  0.73014  0.09664  1.0000
  C   C134      1.0  0.27253  0.70104  0.03624  1.0000
  C   C135      1.0  0.25959  0.73029  0.06063  1.0000
  C   C136      1.0  0.02155  0.74501  0.38407  1.0000
  C   C137      1.0  0.05202  0.61455  0.00941  1.0000
  C   C138      1.0  0.26629  0.59579  0.01661  1.0000
  C   C139      1.0  0.30172  0.89704  0.18719  1.0000
  C   C140      1.0  0.00483  0.96934  0.15434  1.0000
  H   H99       1.0  0.26506  0.76802  0.10882  1.0000
  C   C141      1.0  0.07975  0.58963  0.36421  1.0000
  H   H100      1.0  0.10177  0.53446  0.38765  1.0000
  C   C142      1.0  0.29848  0.85769  0.16840  1.0000
  C   C143      1.0  0.08481  0.55890  0.39098  1.0000
  H   H101      1.0  0.18388  0.84314  0.04254  1.0000
  C   C144      1.0  0.15380  0.68920  0.02204  1.0000
  H   H102      1.0  0.02061  0.52537  0.47997  1.0000
  H   H103      1.0  0.25889  0.60490  0.04315  1.0000
  H   H104      1.0  0.07125  0.53492  0.44235  1.0000
  H   H105      1.0  0.06507  0.68116  0.01936  1.0000
  H   H106      1.0  0.02685  0.75174  0.41166  1.0000
  H   H107      1.0  0.09299  0.58922  0.34021  1.0000
  H   H108      1.0  0.23784  0.74291  0.05647  1.0000
  H   H109      1.0  0.29520  0.89918  0.21496  1.0000
  C   C145      1.0  0.20227  0.84083  0.02445  1.0000
  H   H110      1.0  0.15545  0.61949  0.02867  1.0000
  H   H111      1.0  0.30586  0.82421  0.11825  1.0000
  H   H112      1.0  0.28915  0.82945  0.18145  1.0000
  C   C146      1.0  0.04000  0.62092  0.39904  1.0000
  H   H113      1.0  0.99230  0.56518  0.40616  1.0000
  C   C147      1.0  0.01057  0.67945  0.44928  1.0000
  H   H114      1.0  0.03564  0.61461  0.03033  1.0000
  H   H115      1.0  0.05361  0.64355  0.34687  1.0000
  C   C148      1.0  0.27504  0.74467  0.09068  1.0000
  C   C149      1.0  0.27780  0.55399  0.01074  1.0000
  C   C150      1.0  0.30135  0.68694  0.04232  1.0000
  C   C151      1.0  0.19770  0.64565  0.01442  1.0000
  H   H116      1.0  0.11908  0.95760  0.07420  1.0000
  H   H117      1.0  0.20803  0.61397  0.01494  1.0000
  H   H118      1.0  0.09602  0.97897  0.01690  1.0000
  H   H119      1.0  0.21133  0.75331  0.99950  1.0000
  H   H120      1.0  0.99969  0.72612  0.28511  1.0000
  C   C152      1.0  0.00315  0.50188  0.47792  1.0000
  C   C153      1.0  0.19935  0.72387  0.00572  1.0000
  H   H121      1.0  0.29633  0.94095  0.06132  1.0000
  C   C154      1.0  0.06865  0.65204  0.00327  1.0000
  P   P6        1.0  0.25273  0.68123  0.99754  1.0000
  H   H122      1.0  0.98821  0.89217  0.09248  1.0000
  H   H123      1.0  0.29745  0.93406  0.99593  1.0000
  S   S20       1.0  0.02722  0.83002  0.99427  1.0000
  H   H124      1.0  0.03902  0.56190  0.84127  1.0000
  C   C155      1.0  0.99067  0.74349  0.62514  1.0000
  H   H125      1.0  0.23099  0.75498  0.88337  1.0000
  C   C156      1.0  0.06796  0.54924  0.52568  1.0000
  Fe  Fe9       1.0  0.05670  0.79123  0.95771  1.0000
  S   S21       1.0  0.04260  0.74885  0.90995  1.0000
  S   S22       1.0  0.08182  0.85115  0.94114  1.0000
  S   S23       1.0  0.98711  0.52923  0.78064  1.0000
  H   H126      1.0  0.22547  0.58664  0.91058  1.0000
  S   S24       1.0  0.03614  0.95687  0.97034  1.0000
  H   H127      1.0  0.01256  0.72839  0.54533  1.0000
  C   C157      1.0  0.02533  0.69705  0.90483  1.0000
  C   C158      1.0  0.01984  0.68108  0.87012  1.0000
  C   C159      1.0  0.00688  0.63972  0.86451  1.0000
  C   C160      1.0  0.99958  0.61351  0.89366  1.0000
  C   C161      1.0  0.00471  0.62974  0.92837  1.0000
  C   C162      1.0  0.01741  0.67129  0.93396  1.0000
  C   C163      1.0  0.98507  0.56760  0.59494  1.0000
  H   H128      1.0  0.98249  0.59041  0.54037  1.0000
  C   C164      1.0  0.11062  0.53534  0.83014  1.0000
  H   H129      1.0  0.02108  0.68340  0.96074  1.0000
  H   H130      1.0  0.06554  0.53902  0.62198  1.0000
  C   C165      1.0  0.08309  0.62422  0.53469  1.0000
  H   H131      1.0  0.17911  0.51801  0.99280  1.0000
  C   C166      1.0  0.17919  0.54091  0.97087  1.0000
  C   C167      1.0  0.01204  0.71428  0.51875  1.0000
  H   H132      1.0  0.06013  0.66034  0.57507  1.0000
  C   C168      1.0  0.29748  0.75336  0.92382  1.0000
  C   C169      1.0  0.24034  0.72338  0.93332  1.0000
  H   H133      1.0  0.22538  0.53455  0.96111  1.0000
  C   C170      1.0  0.99837  0.97065  0.96911  1.0000
  C   C171      1.0  0.06245  0.56178  0.84566  1.0000
  C   C172      1.0  0.07450  0.58714  0.87316  1.0000
  C   C173      1.0  0.10461  0.58596  0.88005  1.0000
  C   C174      1.0  0.12272  0.56044  0.85785  1.0000
  P   P7        1.0  0.11943  0.61628  0.91759  1.0000
  C   C175      1.0  0.12642  0.67249  0.90586  1.0000
  C   C176      1.0  0.09318  0.61556  0.95374  1.0000
  H   H134      1.0  0.02566  0.70090  0.84739  1.0000
  C   C177      1.0  0.00719  0.65635  0.61216  1.0000
  C   C178      1.0  0.27615  0.76267  0.89835  1.0000
  H   H135      1.0  0.10084  0.68264  0.97038  1.0000
  C   C179      1.0  0.98537  0.70237  0.50336  1.0000
  C   C180      1.0  0.14887  0.69593  0.92303  1.0000
  C   C181      1.0  0.15278  0.74042  0.91638  1.0000
  C   C182      1.0  0.13397  0.76215  0.89316  1.0000
  C   C183      1.0  0.11156  0.73915  0.87606  1.0000
  C   C184      1.0  0.10771  0.69449  0.88239  1.0000
  C   C185      1.0  0.15300  0.59058  0.93188  1.0000
  C   C186      1.0  0.17930  0.59957  0.91398  1.0000
  C   C187      1.0  0.20532  0.57956  0.92460  1.0000
  C   C188      1.0  0.20526  0.55022  0.95301  1.0000
  H   H136      1.0  0.12452  0.51515  0.81340  1.0000
  C   C189      1.0  0.15312  0.56095  0.96035  1.0000
  H   H137      1.0  0.00191  0.61527  0.68063  1.0000
  C   C190      1.0  0.24757  0.74769  0.90310  1.0000
  H   H138      1.0  0.06022  0.60700  0.88960  1.0000
  H   H139      1.0  0.14604  0.55923  0.86206  1.0000
  Fe  Fe10      1.0  0.11301  0.83661  0.98615  1.0000
  H   H140      1.0  0.26890  0.83210  0.96010  1.0000
  C   C191      1.0  0.06186  0.62927  0.56133  1.0000
  H   H141      1.0  0.07885  0.54909  0.94352  1.0000
  H   H142      1.0  0.16272  0.68041  0.94255  1.0000
  H   H143      1.0  0.16967  0.75861  0.93025  1.0000
  H   H144      1.0  0.13617  0.79713  0.88940  1.0000
  H   H145      1.0  0.09615  0.75640  0.85928  1.0000
  H   H146      1.0  0.08929  0.67794  0.87021  1.0000
  H   H147      1.0  0.17963  0.62190  0.89164  1.0000
  C   C192      1.0  0.25052  0.83446  0.97817  1.0000
  H   H148      1.0  0.28184  0.78144  0.87492  1.0000
  H   H149      1.0  0.03040  0.74846  0.65566  1.0000
  H   H150      1.0  0.02245  0.58812  0.73702  1.0000
  H   H151      1.0  0.00288  0.62795  0.83767  1.0000
  H   H152      1.0  0.09735  0.65123  0.52803  1.0000
  C   C193      1.0  0.04322  0.59442  0.56995  1.0000
  C   C194      1.0  0.04643  0.55433  0.55189  1.0000
  P   P8        1.0  0.01708  0.59955  0.60589  1.0000
  H   H153      1.0  0.05861  0.71844  0.51139  1.0000
  S   S25       1.0  0.16147  0.83816  0.96861  1.0000
  H   H154      1.0  0.21828  0.71117  0.93597  1.0000
  C   C195      1.0  0.27577  0.61406  0.95482  1.0000
  C   C196      1.0  0.08045  0.53568  0.82428  1.0000
  C   C197      1.0  0.08615  0.58420  0.51690  1.0000
  C   C198      1.0  0.28738  0.57230  0.94907  1.0000
  H   H155      1.0  0.21823  0.83388  0.93610  1.0000
  C   C199      1.0  0.01680  0.72745  0.63923  1.0000
  C   C200      1.0  0.07645  0.57791  0.96023  1.0000
  H   H156      1.0  0.04511  0.67192  0.64444  1.0000
  C   C201      1.0  0.02503  0.68404  0.63283  1.0000
  C   C202      1.0  0.03261  0.57993  0.64704  1.0000
  C   C203      1.0  0.05598  0.55020  0.64681  1.0000
  C   C204      1.0  0.06690  0.53388  0.67894  1.0000
  C   C205      1.0  0.05489  0.54765  0.71142  1.0000
  C   C206      1.0  0.03187  0.57761  0.71185  1.0000
  C   C207      1.0  0.02049  0.59329  0.67981  1.0000
  Fe  Fe11      1.0  0.05438  0.88849  0.98069  1.0000
  H   H157      1.0  0.03244  0.52681  0.55812  1.0000
  C   C208      1.0  0.22169  0.83560  0.96463  1.0000
  H   H158      1.0  0.07051  0.51801  0.51219  1.0000
  H   H159      1.0  0.08439  0.51004  0.67876  1.0000
  C   C209      1.0  0.08899  0.65271  0.97538  1.0000
  H   H160      1.0  0.10272  0.58011  0.49644  1.0000
  C   C210      1.0  0.19732  0.83878  0.98759  1.0000
  C   C211      1.0  0.03800  0.70866  0.49961  1.0000
  H   H161      1.0  0.98223  0.90464  0.96663  1.0000
  H   H162      1.0  0.06307  0.53450  0.73627  1.0000
  C   C212      1.0  0.29016  0.73013  0.95456  1.0000
  C   C213      1.0  0.26143  0.71528  0.95975  1.0000
  H   H163      1.0  0.07093  0.51551  0.80335  1.0000
  H   H164      1.0  0.29612  0.56357  0.92307  1.0000
  H   H165      1.0  0.27579  0.63703  0.93296  1.0000
  S   S26       1.0  0.98547  0.55959  0.88843  1.0000
  H   H166      1.0  0.30713  0.72355  0.97391  1.0000
  C   C214      1.0  0.28843  0.54229  0.97701  1.0000
  H   H167      1.0  0.29785  0.51019  0.97262  1.0000
  H   H168      1.0  0.99896  0.60991  0.95110  1.0000
  C   C215      1.0  0.26509  0.62611  0.98867  1.0000
  H   H169      1.0  0.13319  0.55309  0.97446  1.0000
  H   H170      1.0  0.04236  0.54890  0.99193  1.0000
  H   H171      1.0  0.98395  0.77684  0.63064  1.0000
  C   C216      1.0  0.05587  0.57753  0.98785  1.0000
  C   C217      1.0  0.30681  0.49052  0.53679  1.0000
  H   H172      1.0  0.28324  0.48683  0.62277  1.0000
  C   C218      1.0  0.30237  0.50332  0.57229  1.0000
  C   C219      1.0  0.98136  0.67308  0.59751  1.0000
  H   H173      1.0  0.31080  0.53438  0.58170  1.0000
  S   S27       1.0  0.58565  0.18094  0.03208  1.0000
  H   H174      1.0  0.58050  0.24971  0.24872  1.0000
  Fe  Fe12      1.0  0.54940  0.13644  0.05054  1.0000
  S   S28       1.0  0.52314  0.14396  0.10209  1.0000
  S   S29       1.0  0.57368  0.07685  0.03309  1.0000
  H   H175      1.0  0.53250  0.23776  0.08950  1.0000
  H   H176      1.0  0.61168  0.04049  0.14023  1.0000
  C   C220      1.0  0.45013  0.46473  0.47789  1.0000
  Fe  Fe13      1.0  0.43865  0.01782  0.32130  1.0000
  S   S30       1.0  0.40820  0.07278  0.34082  1.0000
  H   H177      1.0  0.46434  0.39990  0.49153  1.0000
  C   C221      1.0  0.38161  0.01138  0.15825  1.0000
  S   S31       1.0  0.37060  0.34340  0.44762  1.0000
  S   S32       1.0  0.42033  0.23050  0.45346  1.0000
  C   C222      1.0  0.60854  0.29306  0.09733  1.0000
  C   C223      1.0  0.40729  0.19229  0.22859  1.0000
  Fe  Fe14      1.0  0.60824  0.12120  0.00997  1.0000
  C   C224      1.0  0.35815  0.04148  0.44368  1.0000
  S   S33       1.0  0.41226  0.45272  0.47643  1.0000
  H   H178      1.0  0.48524  0.13437  0.16267  1.0000
  H   H179      1.0  0.44156  0.04942  0.04492  1.0000
  H   H180      1.0  0.59220  0.08966  0.18749  1.0000
  C   C225      1.0  0.41645  0.18710  0.42172  1.0000
  C   C226      1.0  0.43876  0.15551  0.41894  1.0000
  C   C227      1.0  0.43680  0.12052  0.39423  1.0000
  C   C228      1.0  0.41249  0.11677  0.37183  1.0000
  C   C229      1.0  0.39040  0.14870  0.37425  1.0000
  C   C230      1.0  0.39232  0.18361  0.39898  1.0000
  H   H181      1.0  0.45764  0.15793  0.43620  1.0000
  H   H182      1.0  0.45393  0.09620  0.39277  1.0000
  H   H183      1.0  0.37163  0.14646  0.35681  1.0000
  H   H184      1.0  0.37534  0.20810  0.39996  1.0000
  C   C231      1.0  0.55368  0.23377  0.20327  1.0000
  H   H185      1.0  0.52259  0.21284  0.16343  1.0000
  C   C232      1.0  0.52149  0.10358  0.13575  1.0000
  C   C233      1.0  0.54118  0.06871  0.13654  1.0000
  C   C234      1.0  0.54158  0.04027  0.16595  1.0000
  C   C235      1.0  0.52189  0.04585  0.19443  1.0000
  C   C236      1.0  0.50094  0.07907  0.19259  1.0000
  C   C237      1.0  0.50093  0.10800  0.16346  1.0000
  H   H186      1.0  0.55684  0.06471  0.11514  1.0000
  C   C238      1.0  0.32210  0.22261  0.44216  1.0000
  H   H187      1.0  0.48557  0.08362  0.21426  1.0000
  Fe  Fe15      1.0  0.48884  0.99445  0.26975  1.0000
  C   C239      1.0  0.41348  0.12176  0.25631  1.0000
  H   H188      1.0  0.41524  0.03692  0.19279  1.0000
  S   S34       1.0  0.52349  0.14218  0.99975  1.0000
  C   C240      1.0  0.43346  0.20658  0.24401  1.0000
  C   C241      1.0  0.45010  0.17822  0.26519  1.0000
  C   C242      1.0  0.43986  0.13573  0.27144  1.0000
  P   P9        1.0  0.48301  0.19827  0.28612  1.0000
  C   C243      1.0  0.50995  0.21399  0.25326  1.0000
  C   C244      1.0  0.47170  0.24311  0.31467  1.0000
  C   C245      1.0  0.48574  0.28395  0.31360  1.0000
  C   C246      1.0  0.47666  0.31793  0.33626  1.0000
  C   C247      1.0  0.45336  0.31158  0.35981  1.0000
  C   C248      1.0  0.43889  0.27143  0.36044  1.0000
  C   C249      1.0  0.44790  0.23736  0.33791  1.0000
  C   C250      1.0  0.50479  0.20820  0.21656  1.0000
  C   C251      1.0  0.50055  0.15600  0.31181  1.0000
  C   C252      1.0  0.49987  0.15639  0.34931  1.0000
  C   C253      1.0  0.51485  0.12442  0.36854  1.0000
  C   C254      1.0  0.53082  0.09216  0.35056  1.0000
  C   C255      1.0  0.53157  0.09152  0.31326  1.0000
  C   C256      1.0  0.51633  0.12306  0.29394  1.0000
  H   H189      1.0  0.40521  0.08938  0.26212  1.0000
  C   C257      1.0  0.55362  0.25355  0.09213  1.0000
  H   H190      1.0  0.44070  0.23982  0.23962  1.0000
  H   H191      1.0  0.35204  0.07113  0.10889  1.0000
  H   H192      1.0  0.45166  0.11357  0.28866  1.0000
  H   H193      1.0  0.50354  0.28996  0.29536  1.0000
  H   H194      1.0  0.48769  0.34926  0.33569  1.0000
  H   H195      1.0  0.44646  0.33772  0.37765  1.0000
  H   H196      1.0  0.42084  0.26660  0.37876  1.0000
  H   H197      1.0  0.43653  0.20628  0.33903  1.0000
  H   H198      1.0  0.48434  0.19502  0.20692  1.0000
  H   H199      1.0  0.48780  0.18101  0.36398  1.0000
  H   H200      1.0  0.51378  0.12439  0.39744  1.0000
  H   H201      1.0  0.54204  0.06696  0.36545  1.0000
  H   H202      1.0  0.54336  0.06587  0.29922  1.0000
  H   H203      1.0  0.51690  0.12160  0.26503  1.0000
  H   H204      1.0  0.37679  0.13886  0.22339  1.0000
  H   H205      1.0  0.36164  0.39060  0.02527  1.0000
  C   C258      1.0  0.50102  0.44427  0.48683  1.0000
  S   S35       1.0  0.52640  0.01398  0.23334  1.0000
  C   C259      1.0  0.32959  0.06810  0.11779  1.0000
  H   H206      1.0  0.60207  0.99452  0.00801  1.0000
  H   H207      1.0  0.33109  0.28207  0.41369  1.0000
  H   H208      1.0  0.36477  0.03116  0.17058  1.0000
  C   C260      1.0  0.62858  0.28713  0.18826  1.0000
  C   C261      1.0  0.55926  0.23859  0.23973  1.0000
  H   H209      1.0  0.61862  0.30797  0.16852  1.0000
  H   H210      1.0  0.34453  0.21885  0.45058  1.0000
  C   C262      1.0  0.39730  0.14985  0.23477  1.0000
  C   C263      1.0  0.55846  0.29418  0.07643  1.0000
  C   C264      1.0  0.58584  0.31410  0.07927  1.0000
  C   C265      1.0  0.31706  0.02666  0.12259  1.0000
  C   C266      1.0  0.60413  0.25147  0.11212  1.0000
  H   H211      1.0  0.54109  0.30987  0.06161  1.0000
  C   C267      1.0  0.50610  0.00210  0.06776  1.0000
  S   S36       1.0  0.48682  0.00663  0.32906  1.0000
  C   C268      1.0  0.36100  0.99285  0.04527  1.0000
  C   C269      1.0  0.60983  0.14804  0.16388  1.0000
  C   C270      1.0  0.60500  0.10302  0.16576  1.0000
  C   C271      1.0  0.32204  0.10537  0.41391  1.0000
  C   C272      1.0  0.47111  0.43306  0.48611  1.0000
  C   C273      1.0  0.35439  0.04321  0.40672  1.0000
  H   H212      1.0  0.37394  0.15779  0.47521  1.0000
  S   S37       1.0  0.44175  0.01052  0.26139  1.0000
  H   H213      1.0  0.52773  0.01133  0.07663  1.0000
  C   C274      1.0  0.36090  0.99033  0.00802  1.0000
  H   H214      1.0  0.37886  0.00953  0.05849  1.0000
  C   C275      1.0  0.57633  0.23226  0.10995  1.0000
  H   H215      1.0  0.51714  0.41959  0.49297  1.0000
  H   H216      1.0  0.54243  0.23117  0.29290  1.0000
  H   H217      1.0  0.57221  0.20025  0.12101  1.0000
  C   C276      1.0  0.63172  0.09262  0.11062  1.0000
  C   C277      1.0  0.32610  0.10434  0.45107  1.0000
  H   H218      1.0  0.39456  0.21430  0.21227  1.0000
  H   H219      1.0  0.60059  0.16894  0.18437  1.0000
  C   C278      1.0  0.48552  0.03493  0.06150  1.0000
  Fe  Fe16      1.0  0.39137  0.28609  0.47554  1.0000
  C   C279      1.0  0.52659  0.21812  0.19170  1.0000
  C   C280      1.0  0.33616  0.07486  0.39190  1.0000
  C   C281      1.0  0.61596  0.07529  0.13915  1.0000
  C   C282      1.0  0.53759  0.22835  0.26466  1.0000
  H   H220      1.0  0.57046  0.24153  0.18402  1.0000
  H   H221      1.0  0.49157  0.06895  0.06507  1.0000
  C   C283      1.0  0.41019  0.01441  0.17125  1.0000
  H   H222      1.0  0.63977  0.07125  0.08961  1.0000
  Fe  Fe17      1.0  0.39289  0.38602  0.48855  1.0000
  H   H223      1.0  0.58959  0.34553  0.06691  1.0000
  H   H224      1.0  0.55771  0.01445  0.16705  1.0000
  C   C284      1.0  0.45731  0.02394  0.05039  1.0000
  C   C285      1.0  0.62635  0.16562  0.13578  1.0000
  H   H225      1.0  0.37259  0.01720  0.45501  1.0000
  H   H226      1.0  0.36610  0.02064  0.38940  1.0000
  H   H227      1.0  0.32300  0.13776  0.12072  1.0000
  Fe  Fe18      1.0  0.33407  0.33744  0.48832  1.0000
  C   C286      1.0  0.63695  0.13760  0.10887  1.0000
  H   H228      1.0  0.62492  0.33610  0.22968  1.0000
  H   H229      1.0  0.45408  0.98927  0.16792  1.0000
  H   H230      1.0  0.33384  0.07654  0.36314  1.0000
  C   C287      1.0  0.43212  0.98757  0.15719  1.0000
  H   H231      1.0  0.31512  0.35810  0.00368  1.0000
  P   P10       1.0  0.63379  0.22363  0.13438  1.0000
  C   C288      1.0  0.63211  0.30327  0.22303  1.0000
  C   C289      1.0  0.34398  0.07179  0.46583  1.0000
  C   C290      1.0  0.31463  0.25845  0.42109  1.0000
  C   C291      1.0  0.35990  0.37881  0.99800  1.0000
  H   H232      1.0  0.62967  0.30888  0.09913  1.0000
  C   C292      1.0  0.63796  0.24469  0.17935  1.0000
  H   H233      1.0  0.64686  0.24109  0.05866  1.0000
  C   C293      1.0  0.64502  0.27725  0.24916  1.0000
  H   H234      1.0  0.35410  0.33334  0.90131  1.0000
  H   H235      1.0  0.42479  0.31928  0.78556  1.0000
  C   C294      1.0  0.42805  0.27891  0.91446  1.0000
  C   C295      1.0  0.33371  0.36047  0.98585  1.0000
  S   S38       1.0  0.55674  0.25427  0.95973  1.0000
  S   S39       1.0  0.58570  0.12577  0.95663  1.0000
  Fe  Fe19      1.0  0.48252  0.42135  0.81092  1.0000
  S   S40       1.0  0.44048  0.45856  0.82163  1.0000
  S   S41       1.0  0.49279  0.35141  0.82992  1.0000
  S   S42       1.0  0.39560  0.45749  0.72791  1.0000
  H   H236      1.0  0.46848  0.22916  0.52239  1.0000
  S   S43       1.0  0.47622  0.42369  0.75131  1.0000
  Fe  Fe20      1.0  0.37744  0.32505  0.54947  1.0000
  S   S44       1.0  0.35530  0.38410  0.52726  1.0000
  S   S45       1.0  0.38556  0.31012  0.60783  1.0000
  C   C296      1.0  0.44417  0.24301  0.92641  1.0000
  C   C297      1.0  0.43316  0.44410  0.58211  1.0000
  C   C298      1.0  0.39496  0.41785  0.69317  1.0000
  C   C299      1.0  0.41149  0.37947  0.69516  1.0000
  C   C300      1.0  0.40871  0.34698  0.66859  1.0000
  C   C301      1.0  0.39034  0.35325  0.63905  1.0000
  C   C302      1.0  0.37469  0.39238  0.63628  1.0000
  C   C303      1.0  0.37662  0.42420  0.66357  1.0000
  H   H237      1.0  0.42576  0.37415  0.71769  1.0000
  H   H238      1.0  0.42075  0.31674  0.67107  1.0000
  H   H239      1.0  0.36051  0.39757  0.61363  1.0000
  H   H240      1.0  0.36402  0.45397  0.66161  1.0000
  C   C304      1.0  0.49988  0.99646  0.96101  1.0000
  C   C305      1.0  0.47488  0.02270  0.95964  1.0000
  C   C306      1.0  0.63770  0.02198  0.94503  1.0000
  C   C307      1.0  0.53966  0.28017  0.92256  1.0000
  C   C308      1.0  0.52431  0.25686  0.89634  1.0000
  C   C309      1.0  0.51026  0.27926  0.86828  1.0000
  C   C310      1.0  0.51153  0.32517  0.86575  1.0000
  C   C311      1.0  0.52738  0.34840  0.89160  1.0000
  C   C312      1.0  0.54122  0.32603  0.91981  1.0000
  H   H241      1.0  0.52289  0.22164  0.89795  1.0000
  H   H242      1.0  0.49814  0.26085  0.84848  1.0000
  H   H243      1.0  0.52895  0.38358  0.88991  1.0000
  H   H244      1.0  0.55314  0.34447  0.93978  1.0000
  C   C313      1.0  0.55878  0.45327  0.56798  1.0000
  H   H245      1.0  0.42782  0.02385  0.95557  1.0000
  H   H246      1.0  0.39654  0.19629  0.58197  1.0000
  C   C314      1.0  0.44371  0.46535  0.64313  1.0000
  C   C315      1.0  0.61816  0.24147  0.90434  1.0000
  C   C316      1.0  0.47536  0.25459  0.54090  1.0000
  C   C317      1.0  0.35581  0.34694  0.92800  1.0000
  Fe  Fe21      1.0  0.56089  0.18352  0.97979  1.0000
  H   H247      1.0  0.35776  0.41441  0.80551  1.0000
  C   C318      1.0  0.33764  0.16121  0.51242  1.0000
  C   C319      1.0  0.45614  0.26945  0.56730  1.0000
  H   H248      1.0  0.50033  0.46252  0.90116  1.0000
  C   C320      1.0  0.62001  0.22749  0.86883  1.0000
  C   C321      1.0  0.51145  0.30748  0.56075  1.0000
  C   C322      1.0  0.49201  0.32304  0.58699  1.0000
  C   C323      1.0  0.46428  0.30385  0.58991  1.0000
  P   P11       1.0  0.50160  0.36859  0.61570  1.0000
  C   C324      1.0  0.50758  0.35124  0.66126  1.0000
  C   C325      1.0  0.53453  0.39440  0.59951  1.0000
  C   C326      1.0  0.56200  0.37692  0.60827  1.0000
  C   C327      1.0  0.58762  0.39794  0.59740  1.0000
  C   C328      1.0  0.38404  0.38132  0.97517  1.0000
  Fe  Fe22      1.0  0.43671  0.46421  0.76172  1.0000
  C   C329      1.0  0.52614  0.37565  0.68366  1.0000
  C   C330      1.0  0.53064  0.36314  0.71905  1.0000
  C   C331      1.0  0.51618  0.32668  0.73269  1.0000
  C   C332      1.0  0.49744  0.30243  0.71077  1.0000
  C   C333      1.0  0.49318  0.31453  0.67518  1.0000
  C   C334      1.0  0.47216  0.40789  0.61458  1.0000
  C   C335      1.0  0.46617  0.43442  0.64442  1.0000
  H   H249      1.0  0.51237  0.44606  0.57078  1.0000
  C   C336      1.0  0.58596  0.43632  0.57753  1.0000
  H   H250      1.0  0.47874  0.43146  0.66874  1.0000
  C   C337      1.0  0.45557  0.41311  0.58335  1.0000
  H   H251      1.0  0.43438  0.25569  0.56932  1.0000
  H   H252      1.0  0.42038  0.44772  0.55792  1.0000
  C   C338      1.0  0.42719  0.47017  0.61201  1.0000
  H   H253      1.0  0.53279  0.32205  0.55736  1.0000
  H   H254      1.0  0.44862  0.31622  0.60916  1.0000
  H   H255      1.0  0.56354  0.34741  0.62396  1.0000
  H   H256      1.0  0.60874  0.38482  0.60475  1.0000
  C   C339      1.0  0.47441  0.29127  0.96200  1.0000
  H   H257      1.0  0.53667  0.40506  0.67413  1.0000
  H   H258      1.0  0.54440  0.38289  0.73633  1.0000
  H   H259      1.0  0.51891  0.31796  0.76052  1.0000
  H   H260      1.0  0.48586  0.27462  0.72160  1.0000
  H   H261      1.0  0.47834  0.29546  0.65902  1.0000
  S   S46       1.0  0.41636  0.33003  0.51339  1.0000
  H   H262      1.0  0.36980  0.41410  0.86992  1.0000
  C   C340      1.0  0.47753  0.46077  0.90891  1.0000
  C   C341      1.0  0.46741  0.24922  0.95008  1.0000
  H   H263      1.0  0.45993  0.39340  0.55983  1.0000
  H   H264      1.0  0.47713  0.05784  0.95835  1.0000
  H   H265      1.0  0.43706  0.31834  0.84940  1.0000
  H   H266      1.0  0.40991  0.27347  0.89642  1.0000
  C   C342      1.0  0.46256  0.42104  0.90667  1.0000
  C   C343      1.0  0.43299  0.41850  0.91630  1.0000
  C   C344      1.0  0.41808  0.45694  0.92604  1.0000
  P   P12       1.0  0.41368  0.36741  0.91124  1.0000
  C   C345      1.0  0.40335  0.36456  0.86479  1.0000
  C   C346      1.0  0.43546  0.32144  0.92555  1.0000
  C   C347      1.0  0.60137  0.03197  0.89893  1.0000
  H   H267      1.0  0.39487  0.45643  0.93147  1.0000
  S   S47       1.0  0.35355  0.27753  0.51371  1.0000
  H   H268      1.0  0.60561  0.27043  0.91115  1.0000
  C   C348      1.0  0.45843  0.32725  0.95002  1.0000
  C   C349      1.0  0.38119  0.39206  0.85196  1.0000
  C   C350      1.0  0.37430  0.39238  0.81558  1.0000
  C   C351      1.0  0.38966  0.36562  0.79175  1.0000
  C   C352      1.0  0.41206  0.33873  0.80421  1.0000
  C   C353      1.0  0.41892  0.33820  0.84058  1.0000
  C   C354      1.0  0.38200  0.36604  0.93984  1.0000
  H   H269      1.0  0.38472  0.36666  0.76349  1.0000
  H   H270      1.0  0.63587  0.17858  0.83261  1.0000
  C   C355      1.0  0.53312  0.43227  0.57863  1.0000
  H   H271      1.0  0.61132  0.07989  0.85917  1.0000
  H   H272      1.0  0.40441  0.39476  0.98514  1.0000
  S   S48       1.0  0.53555  0.01901  0.95736  1.0000
  H   H273      1.0  0.47388  0.39237  0.89687  1.0000
  Fe  Fe23      1.0  0.54999  0.08436  0.98112  1.0000
  C   C356      1.0  0.61071  0.01113  0.92994  1.0000
  C   C357      1.0  0.50304  0.27350  0.53771  1.0000
  C   C358      1.0  0.61924  0.06307  0.88259  1.0000
  H   H274      1.0  0.63666  0.33731  0.52385  1.0000
  C   C359      1.0  0.44694  0.00331  0.95797  1.0000
  C   C360      1.0  0.33170  0.34445  0.95090  1.0000
  H   H275      1.0  0.59650  0.98764  0.94279  1.0000
  S   S49       1.0  0.51052  0.48198  0.81109  1.0000
  C   C361      1.0  0.63157  0.21727  0.93124  1.0000
  H   H276      1.0  0.43885  0.21035  0.91713  1.0000
  H   H277      1.0  0.48036  0.22158  0.95881  1.0000
  H   H278      1.0  0.60877  0.24568  0.84826  1.0000
  H   H279      1.0  0.49277  0.29594  0.97993  1.0000
  C   C362      1.0  0.38837  0.17640  0.52756  1.0000
  H   H280      1.0  0.46418  0.35941  0.95988  1.0000
  H   H281      1.0  0.32653  0.42694  0.71122  1.0000
  C   C363      1.0  0.63559  0.18954  0.86009  1.0000
  C   C364      1.0  0.38026  0.18577  0.56275  1.0000
  H   H282      1.0  0.60565  0.45314  0.56967  1.0000
  H   H283      1.0  0.62903  0.22724  0.95889  1.0000
  H   H284      1.0  0.57982  0.02485  0.88831  1.0000
  H   H285      1.0  0.51776  0.26233  0.51690  1.0000
  H   H286      1.0  0.41100  0.17956  0.51937  1.0000
  C   C365      1.0  0.32981  0.16972  0.54807  1.0000
  H   H287      1.0  0.64455  0.00728  0.96987  1.0000
  H   H288      1.0  0.34482  0.18975  0.60032  1.0000
  H   H289      1.0  0.37879  0.00416  0.99286  1.0000
  C   C366      1.0  0.36719  0.16423  0.50249  1.0000
  C   C367      1.0  0.35102  0.18224  0.57303  1.0000
  H   H290      1.0  0.32467  0.27881  0.58683  1.0000
  H   H291      1.0  0.55751  0.48319  0.55276  1.0000
  H   H292      1.0  0.64388  0.41649  0.51944  1.0000
  C   C368      1.0  0.64680  0.07312  0.89697  1.0000
  H   H293      1.0  0.62492  0.48413  0.67201  1.0000
  H   H294      1.0  0.34754  0.07048  0.49438  1.0000
  Fe  Fe24      1.0  0.47592  0.93472  0.33384  1.0000
  S   S50       1.0  0.42729  0.94676  0.32974  1.0000
  S   S51       1.0  0.50272  0.89936  0.37692  1.0000
  Fe  Fe25      1.0  0.43367  0.93918  0.27013  1.0000
  S   S52       1.0  0.39976  0.90650  0.23440  1.0000
  S   S53       1.0  0.48119  0.92221  0.27485  1.0000
  H   H295      1.0  0.49910  0.94169  0.19919  1.0000
  S   S54       1.0  0.36254  0.76572  0.02271  1.0000
  Fe  Fe26      1.0  0.39928  0.80961  0.04069  1.0000
  S   S55       1.0  0.42758  0.80229  0.09035  1.0000
  S   S56       1.0  0.37364  0.87085  0.03260  1.0000
  C   C369      1.0  0.50727  0.91821  0.17988  1.0000
  C   C370      1.0  0.50569  0.79834  0.99791  1.0000
  H   H296      1.0  0.54316  0.69927  0.22451  1.0000
  H   H297      1.0  0.39988  0.60022  0.41883  1.0000
  S   S57       1.0  0.51513  0.70348  0.43514  1.0000
  S   S58       1.0  0.57717  0.61586  0.44459  1.0000
  Fe  Fe27      1.0  0.56072  0.57156  0.48771  1.0000
  C   C371      1.0  0.55010  0.69377  0.35194  1.0000
  Fe  Fe28      1.0  0.33775  0.82764  0.01072  1.0000
  C   C372      1.0  0.50607  0.84429  0.39196  1.0000
  C   C373      1.0  0.48568  0.81186  0.38321  1.0000
  C   C374      1.0  0.48894  0.76906  0.39658  1.0000
  C   C375      1.0  0.51270  0.75789  0.41859  1.0000
  C   C376      1.0  0.53324  0.79017  0.42709  1.0000
  C   C377      1.0  0.52982  0.83309  0.41401  1.0000
  H   H298      1.0  0.46718  0.81999  0.36661  1.0000
  H   H299      1.0  0.47283  0.74445  0.39005  1.0000
  H   H300      1.0  0.55161  0.78220  0.44398  1.0000
  H   H301      1.0  0.54573  0.85785  0.42102  1.0000
  C   C378      1.0  0.40828  0.87903  0.19388  1.0000
  C   C379      1.0  0.43692  0.86739  0.18494  1.0000
  C   C380      1.0  0.44267  0.84450  0.15288  1.0000
  C   C381      1.0  0.41989  0.83357  0.12927  1.0000
  C   C382      1.0  0.39130  0.84554  0.13810  1.0000
  C   C383      1.0  0.38555  0.86765  0.17045  1.0000
  H   H302      1.0  0.45444  0.87555  0.20303  1.0000
  H   H303      1.0  0.46481  0.83530  0.14629  1.0000
  H   H304      1.0  0.37355  0.83676  0.12042  1.0000
  H   H305      1.0  0.36337  0.87595  0.17749  1.0000
  H   H306      1.0  0.46359  0.91356  0.04789  1.0000
  C   C384      1.0  0.51519  0.87630  0.19080  1.0000
  C   C385      1.0  0.52466  0.71059  0.20908  1.0000
  H   H307      1.0  0.31573  0.74194  0.11955  1.0000
  H   H308      1.0  0.49584  0.55186  0.46556  1.0000
  H   H309      1.0  0.47141  0.65517  0.47757  1.0000
  C   C386      1.0  0.58290  0.92997  0.09348  1.0000
  C   C387      1.0  0.40854  0.61354  0.44353  1.0000
  H   H310      1.0  0.55241  0.96522  0.01585  1.0000
  H   H311      1.0  0.49717  0.70353  0.12470  1.0000
  C   C388      1.0  0.56874  0.95931  0.03618  1.0000
  C   C389      1.0  0.52553  0.84591  0.16582  1.0000
  H   H312      1.0  0.50392  0.96291  0.13643  1.0000
  C   C390      1.0  0.61802  0.97024  0.05809  1.0000
  C   C391      1.0  0.48912  0.51880  0.47151  1.0000
  C   C392      1.0  0.45931  0.50751  0.47052  1.0000
  C   C393      1.0  0.49609  0.83893  0.05236  1.0000
  H   H313      1.0  0.45957  0.75142  0.15187  1.0000
  C   C394      1.0  0.57419  0.84107  0.24868  1.0000
  C   C395      1.0  0.56950  0.87487  0.27328  1.0000
  C   C396      1.0  0.54642  0.87213  0.29753  1.0000
  C   C397      1.0  0.52755  0.83618  0.29670  1.0000
  C   C398      1.0  0.53149  0.80272  0.27136  1.0000
  C   C399      1.0  0.55549  0.80487  0.24798  1.0000
  P   P13       1.0  0.50749  0.75573  0.27073  1.0000
  C   C400      1.0  0.50345  0.73784  0.22478  1.0000
  C   C401      1.0  0.52354  0.71401  0.29838  1.0000
  H   H314      1.0  0.32825  0.88688  0.08922  1.0000
  C   C402      1.0  0.63654  0.51678  0.47039  1.0000
  C   C403      1.0  0.53934  0.72589  0.32908  1.0000
  C   C404      1.0  0.47998  0.75254  0.20378  1.0000
  H   H315      1.0  0.53886  0.67725  0.16121  1.0000
  H   H316      1.0  0.55267  0.62501  0.36301  1.0000
  H   H317      1.0  0.59237  0.84294  0.23021  1.0000
  H   H318      1.0  0.52451  0.60329  0.30913  1.0000
  C   C405      1.0  0.47200  0.76955  0.28896  1.0000
  C   C406      1.0  0.45838  0.80896  0.27972  1.0000
  C   C407      1.0  0.43117  0.81999  0.29417  1.0000
  C   C408      1.0  0.41717  0.79165  0.31770  1.0000
  C   C409      1.0  0.43040  0.75215  0.32683  1.0000
  C   C410      1.0  0.45770  0.74106  0.31254  1.0000
  C   C411      1.0  0.31502  0.95104  0.00962  1.0000
  C   C412      1.0  0.53398  0.86319  0.01194  1.0000
  H   H319      1.0  0.54300  0.89805  0.31700  1.0000
  H   H320      1.0  0.50990  0.83476  0.31587  1.0000
  H   H321      1.0  0.55983  0.77887  0.22908  1.0000
  Fe  Fe29      1.0  0.54887  0.66788  0.46991  1.0000
  H   H322      1.0  0.39614  0.80051  0.32892  1.0000
  H   H323      1.0  0.54269  0.75991  0.33616  1.0000
  H   H324      1.0  0.46331  0.77384  0.21462  1.0000
  C   C413      1.0  0.52000  0.89963  0.11879  1.0000
  C   C414      1.0  0.61101  0.94720  0.08902  1.0000
  H   H325      1.0  0.58382  0.90310  0.27379  1.0000
  H   H326      1.0  0.48314  0.84313  0.07636  1.0000
  H   H327      1.0  0.46872  0.83110  0.26121  1.0000
  H   H328      1.0  0.42089  0.85062  0.28720  1.0000
  C   C415      1.0  0.31473  0.95440  0.04686  1.0000
  H   H329      1.0  0.46761  0.71056  0.32047  1.0000
  C   C416      1.0  0.47777  0.74000  0.16790  1.0000
  H   H330      1.0  0.41969  0.73033  0.34536  1.0000
  C   C417      1.0  0.43726  0.62895  0.44483  1.0000
  C   C418      1.0  0.39125  0.61428  0.47433  1.0000
  C   C419      1.0  0.39702  0.95513  0.11648  1.0000
  C   C420      1.0  0.52241  0.69821  0.17315  1.0000
  H   H331      1.0  0.62731  0.94294  0.10965  1.0000
  H   H332      1.0  0.39214  0.93119  0.09589  1.0000
  C   C421      1.0  0.56151  0.93593  0.06700  1.0000
  H   H333      1.0  0.50503  0.65968  0.26866  1.0000
  C   C422      1.0  0.49870  0.95793  0.06258  1.0000
  H   H334      1.0  0.45099  0.62774  0.42122  1.0000
  H   H335      1.0  0.51301  0.86747  0.21859  1.0000
  C   C423      1.0  0.49005  0.80364  0.02966  1.0000
  C   C424      1.0  0.51810  0.86905  0.04374  1.0000
  C   C425      1.0  0.49898  0.71296  0.15257  1.0000
  H   H336      1.0  0.57797  0.91254  0.11776  1.0000
  H   H337      1.0  0.47273  0.78096  0.03641  1.0000
  H   H338      1.0  0.44324  0.53210  0.46399  1.0000
  C   C426      1.0  0.47016  0.94719  0.05187  1.0000
  H   H339      1.0  0.55085  0.88590  0.00421  1.0000
  H   H340      1.0  0.31682  0.96346  0.18543  1.0000
  H   H341      1.0  0.61379  0.51995  0.46260  1.0000
  P   P14       1.0  0.52475  0.91543  0.07288  1.0000
  C   C427      1.0  0.44875  0.64492  0.47689  1.0000
  C   C428      1.0  0.50976  0.92999  0.14408  1.0000
  C   C429      1.0  0.31667  0.70124  0.07249  1.0000
  C   C430      1.0  0.54488  0.64965  0.34465  1.0000
  H   H342      1.0  0.53131  0.81325  0.17417  1.0000
  H   H343      1.0  0.36921  0.60136  0.47342  1.0000
  C   C431      1.0  0.52896  0.63752  0.31433  1.0000
  H   H344      1.0  0.53654  0.83388  0.11095  1.0000
  H   H345      1.0  0.44218  0.93574  0.12003  1.0000
  H   H346      1.0  0.33905  0.69086  0.07666  1.0000
  C   C432      1.0  0.52813  0.85758  0.12994  1.0000
  C   C433      1.0  0.51818  0.66956  0.29133  1.0000
  H   H347      1.0  0.56167  0.70319  0.37608  1.0000
  C   C434      1.0  0.44963  0.98009  0.04570  1.0000
  Fe  Fe30      1.0  0.61217  0.63635  0.48390  1.0000
  S   S59       1.0  0.54782  0.50042  0.48039  1.0000
  C   C435      1.0  0.59694  0.97588  0.03161  1.0000
  C   C436      1.0  0.32029  0.89075  0.11624  1.0000
  C   C437      1.0  0.42546  0.95770  0.13003  1.0000
  C   C438      1.0  0.51013  0.48724  0.47965  1.0000
  H   H348      1.0  0.63963  0.98422  0.05472  1.0000
  H   H349      1.0  0.42793  0.97143  0.03646  1.0000
  C   C439      1.0  0.32264  0.93083  0.13445  1.0000
  H   H350      1.0  0.48717  0.79152  0.48768  1.0000
  P   P15       1.0  0.33814  0.97816  0.11307  1.0000
  C   C440      1.0  0.37496  0.98243  0.13015  1.0000
  C   C441      1.0  0.33839  0.97360  0.06504  1.0000
  C   C442      1.0  0.31390  0.93344  0.17035  1.0000
  H   H351      1.0  0.46157  0.57439  0.52212  1.0000
  H   H352      1.0  0.54306  0.74032  0.67911  1.0000
  H   H353      1.0  0.43900  0.78005  0.73703  1.0000
  Fe  Fe31      1.0  0.38174  0.77140  0.96731  1.0000
  S   S60       1.0  0.37796  0.71281  0.92834  1.0000
  S   S61       1.0  0.35499  0.83171  0.95455  1.0000
  C   C443      1.0  0.45896  0.72512  0.68413  1.0000
  S   S62       1.0  0.46123  0.52779  0.75899  1.0000
  C   C444      1.0  0.63100  0.56733  0.61284  1.0000
  Fe  Fe32      1.0  0.46803  0.51977  0.81819  1.0000
  S   S63       1.0  0.46931  0.57870  0.85680  1.0000
  H   H354      1.0  0.49441  0.50960  0.61446  1.0000
  C   C445      1.0  0.46367  0.61442  0.57001  1.0000
  H   H355      1.0  0.51226  0.75946  0.62735  1.0000
  Fe  Fe33      1.0  0.56810  0.64039  0.54534  1.0000
  S   S64       1.0  0.56189  0.65235  0.60491  1.0000
  S   S65       1.0  0.59781  0.58759  0.52505  1.0000
  H   H356      1.0  0.43564  0.69037  0.82563  1.0000
  C   C446      1.0  0.46856  0.93141  0.96174  1.0000
  C   C447      1.0  0.54094  0.53683  0.67893  1.0000
  C   C448      1.0  0.53894  0.57991  0.69136  1.0000
  C   C449      1.0  0.54531  0.61502  0.66845  1.0000
  C   C450      1.0  0.55335  0.60743  0.63271  1.0000
  C   C451      1.0  0.55523  0.56431  0.62022  1.0000
  C   C452      1.0  0.54965  0.52925  0.64348  1.0000
  H   H357      1.0  0.53353  0.58603  0.71892  1.0000
  H   H358      1.0  0.54427  0.64815  0.67855  1.0000
  H   H359      1.0  0.56155  0.55790  0.59286  1.0000
  H   H360      1.0  0.55189  0.49602  0.63395  1.0000
  C   C453      1.0  0.40381  0.67559  0.90908  1.0000
  C   C454      1.0  0.43387  0.67871  0.91549  1.0000
  C   C455      1.0  0.45343  0.64886  0.89916  1.0000
  C   C456      1.0  0.44334  0.61543  0.87623  1.0000
  C   C457      1.0  0.41330  0.61244  0.86960  1.0000
  C   C458      1.0  0.39373  0.64235  0.88589  1.0000
  H   H361      1.0  0.44207  0.70416  0.93299  1.0000
  H   H362      1.0  0.47661  0.65169  0.90438  1.0000
  H   H363      1.0  0.40516  0.58709  0.85197  1.0000
  H   H364      1.0  0.37058  0.63973  0.88049  1.0000
  C   C459      1.0  0.52221  0.73644  0.55352  1.0000
  H   H365      1.0  0.41205  0.83443  0.77285  1.0000
  C   C460      1.0  0.44359  0.95761  0.95903  1.0000
  H   H366      1.0  0.60896  0.56057  0.66333  1.0000
  H   H367      1.0  0.40847  0.74541  0.86076  1.0000
  C   C461      1.0  0.62274  0.54476  0.64351  1.0000
  C   C462      1.0  0.51953  0.73660  0.68075  1.0000
  C   C463      1.0  0.52161  0.67521  0.83089  1.0000
  C   C464      1.0  0.41696  0.80269  0.78401  1.0000
  C   C465      1.0  0.43221  0.77156  0.76372  1.0000
  C   C466      1.0  0.50216  0.74713  0.65143  1.0000
  C   C467      1.0  0.50671  0.72042  0.71189  1.0000
  H   H368      1.0  0.40823  0.64662  0.78480  1.0000
  C   C468      1.0  0.49655  0.95077  0.96200  1.0000
  C   C469      1.0  0.39204  0.74471  0.60403  1.0000
  C   C470      1.0  0.41265  0.72818  0.57984  1.0000
  C   C471      1.0  0.47631  0.71425  0.71374  1.0000
  C   C472      1.0  0.53288  0.63371  0.82329  1.0000
  P   P16       1.0  0.45960  0.69047  0.75288  1.0000
  C   C473      1.0  0.48800  0.66828  0.78092  1.0000
  C   C474      1.0  0.49986  0.62711  0.77309  1.0000
  C   C475      1.0  0.52218  0.60985  0.79419  1.0000
  H   H369      1.0  0.45855  0.74958  0.63025  1.0000
  C   C476      1.0  0.49945  0.69267  0.80961  1.0000
  C   C477      1.0  0.43638  0.64587  0.73816  1.0000
  C   C478      1.0  0.44230  0.62403  0.70575  1.0000
  C   C479      1.0  0.42444  0.58966  0.69413  1.0000
  C   C480      1.0  0.40087  0.57620  0.71506  1.0000
  C   C481      1.0  0.39517  0.59705  0.74762  1.0000
  C   C482      1.0  0.41281  0.63173  0.75918  1.0000
  C   C483      1.0  0.48560  0.53867  0.60215  1.0000
  H   H370      1.0  0.54962  0.61976  0.84016  1.0000
  H   H371      1.0  0.49184  0.60826  0.75070  1.0000
  H   H372      1.0  0.47439  0.52946  0.92123  1.0000
  H   H373      1.0  0.49128  0.72504  0.81576  1.0000
  H   H374      1.0  0.46111  0.63278  0.68981  1.0000
  H   H375      1.0  0.42939  0.57246  0.66949  1.0000
  H   H376      1.0  0.38759  0.54866  0.70662  1.0000
  S   S66       1.0  0.40805  0.93486  0.95447  1.0000
  C   C484      1.0  0.43023  0.72137  0.81343  1.0000
  C   C485      1.0  0.48186  0.57678  0.62235  1.0000
  H   H377      1.0  0.48771  0.57692  0.65032  1.0000
  H   H378      1.0  0.37748  0.58558  0.76436  1.0000
  H   H379      1.0  0.46636  0.89622  0.96231  1.0000
  C   C486      1.0  0.43891  0.73052  0.77823  1.0000
  Fe  Fe34      1.0  0.39304  0.86981  0.97750  1.0000
  H   H380      1.0  0.53077  0.57754  0.78842  1.0000
  H   H381      1.0  0.52982  0.69360  0.85355  1.0000
  H   H382      1.0  0.43550  0.72037  0.68492  1.0000
  C   C487      1.0  0.41497  0.75255  0.83356  1.0000
  C   C488      1.0  0.47189  0.74150  0.65312  1.0000
  C   C489      1.0  0.40263  0.63057  0.50644  1.0000
  C   C490      1.0  0.40834  0.79318  0.81890  1.0000
  H   H383      1.0  0.39676  0.81738  0.83479  1.0000
  H   H384      1.0  0.52073  0.71210  0.73409  1.0000
  C   C491      1.0  0.52768  0.82807  0.98908  1.0000
  H   H385      1.0  0.51573  0.93022  0.96240  1.0000
  C   C492      1.0  0.37833  0.71681  0.62824  1.0000
  H   H386      1.0  0.42300  0.75040  0.56139  1.0000
  C   C493      1.0  0.47133  0.61474  0.60631  1.0000
  H   H387      1.0  0.40958  0.49374  0.61116  1.0000
  H   H388      1.0  0.48112  0.50859  0.55031  1.0000
  H   H389      1.0  0.62344  0.60057  0.60885  1.0000
  S   S67       1.0  0.58471  0.69143  0.50674  1.0000
  H   H390      1.0  0.53406  0.79122  0.52061  1.0000
  C   C494      1.0  0.46721  0.57576  0.55006  1.0000
  C   C495      1.0  0.40539  0.65556  0.60369  1.0000
  H   H391      1.0  0.46912  0.64426  0.62217  1.0000
  H   H392      1.0  0.43888  0.48506  0.66655  1.0000
  C   C496      1.0  0.47829  0.53816  0.56603  1.0000
  H   H393      1.0  0.50559  0.68067  0.58096  1.0000
  C   C497      1.0  0.46949  0.73637  0.51598  1.0000
  C   C498      1.0  0.51722  0.76772  0.52723  1.0000
  P   P17       1.0  0.44754  0.66227  0.54997  1.0000
  C   C499      1.0  0.46287  0.49852  0.92000  1.0000
  H   H394      1.0  0.37424  0.65052  0.64667  1.0000
  S   S68       1.0  0.53021  0.62138  0.51064  1.0000
  H   H395      1.0  0.53960  0.82426  0.96426  1.0000
  H   H396      1.0  0.38667  0.77922  0.60394  1.0000
  H   H397      1.0  0.40992  0.62080  0.60364  1.0000
  H   H398      1.0  0.54296  0.73568  0.56747  1.0000
  C   C500      1.0  0.41980  0.68355  0.57981  1.0000
  C   C501      1.0  0.50089  0.70506  0.56107  1.0000
  H   H399      1.0  0.31891  0.51130  0.51871  1.0000
  C   C502      1.0  0.38497  0.67224  0.62802  1.0000
  H   H400      1.0  0.42161  0.52659  0.93519  1.0000
  S   S69       1.0  0.42081  0.81029  0.98629  1.0000
  C   C503      1.0  0.47449  0.70441  0.54207  1.0000
  H   H401      1.0  0.36240  0.72969  0.64700  1.0000
  H   H402      1.0  0.38918  0.62984  0.53020  1.0000
  H   H403      1.0  0.50049  0.77149  0.97999  1.0000
  C   C504      1.0  0.43139  0.64647  0.50785  1.0000
  S   S70       1.0  0.53499  0.49152  0.70725  1.0000
  H   H404      1.0  0.33892  0.96525  0.96140  1.0000
  C   C505      1.0  0.64365  0.50159  0.50440  1.0000
  H   H405      1.0  0.31981  0.76405  0.91977  1.0000
  Fe  Fe35      1.0  0.50137  0.48666  0.75210  1.0000
  H   H406      1.0  0.62609  0.49330  0.52245  1.0000
  C   C506      1.0  0.63176  0.50160  0.64834  1.0000
  C   C507      1.0  0.43308  0.49676  0.92811  1.0000
  H   H407      1.0  0.44952  0.73631  0.50050  1.0000
  C   C508      1.0  0.33824  0.96869  0.99021  1.0000
  C   C509      1.0  0.49075  0.76791  0.50870  1.0000
  S   S71       1.0  0.86583  0.18848  0.03541  1.0000
  C   C510      1.0  0.89962  0.31544  0.15668  1.0000
  Fe  Fe36      1.0  0.88634  0.13098  0.06259  1.0000
  S   S72       1.0  0.90675  0.13856  0.11787  1.0000
  S   S73       1.0  0.85387  0.08290  0.04004  1.0000
  C   C511      1.0  0.96329  0.06079  0.08206  1.0000
  Fe  Fe37      1.0  0.83506  0.13998  0.00931  1.0000
  C   C512      1.0  0.96702  0.21799  0.06388  1.0000
  C   C513      1.0  0.90892  0.09658  0.15011  1.0000
  C   C514      1.0  0.88535  0.06889  0.15707  1.0000
  C   C515      1.0  0.88696  0.03860  0.18520  1.0000
  C   C516      1.0  0.91214  0.03567  0.20656  1.0000
  C   C517      1.0  0.93578  0.06328  0.19938  1.0000
  C   C518      1.0  0.93410  0.09348  0.17126  1.0000
  H   H408      1.0  0.86553  0.07184  0.14158  1.0000
  H   H409      1.0  0.86846  0.01768  0.19076  1.0000
  H   H410      1.0  0.95508  0.06191  0.21592  1.0000
  H   H411      1.0  0.95236  0.11462  0.16573  1.0000
  H   H412      1.0  0.91903  0.17068  0.24959  1.0000
  C   C519      1.0  0.74507  0.10227  0.01735  1.0000
  H   H413      1.0  0.94196  0.07469  0.35188  1.0000
  H   H414      1.0  0.89916  0.30313  0.00380  1.0000
  C   C520      1.0  0.72763  0.17336  0.99991  1.0000
  C   C521      1.0  0.82098  0.28454  0.04082  1.0000
  C   C522      1.0  0.66759  0.23140  0.11013  1.0000
  H   H415      1.0  0.69563  0.21936  0.15565  1.0000
  H   H416      1.0  0.64915  0.15015  0.08636  1.0000
  C   C523      1.0  0.88333  0.25669  0.19500  1.0000
  C   C524      1.0  0.95580  0.13007  0.32126  1.0000
  P   P18       1.0  0.90252  0.30909  0.08190  1.0000
  C   C525      1.0  0.95016  0.15692  0.29187  1.0000
  C   C526      1.0  0.87702  0.23119  0.16494  1.0000
  C   C527      1.0  0.82628  0.28243  0.00411  1.0000
  H   H417      1.0  0.65885  0.18624  0.19951  1.0000
  C   C528      1.0  0.94992  0.27043  0.31848  1.0000
  S   S74       1.0  0.91880  0.12209  0.01852  1.0000
  C   C529      1.0  0.93489  0.28143  0.06529  1.0000
  H   H418      1.0  0.96311  0.31819  0.39940  1.0000
  H   H419      1.0  0.89921  0.31874  0.21421  1.0000
  C   C530      1.0  0.94176  0.23883  0.07628  1.0000
  H   H420      1.0  0.87704  0.22723  0.10786  1.0000
  H   H421      1.0  0.90845  0.34803  0.15428  1.0000
  C   C531      1.0  0.92483  0.14959  0.27145  1.0000
  C   C532      1.0  0.90668  0.11399  0.27894  1.0000
  C   C533      1.0  0.91297  0.08668  0.30766  1.0000
  C   C534      1.0  0.93718  0.09535  0.32926  1.0000
  H   H422      1.0  0.94033  0.41799  0.46904  1.0000
  H   H423      1.0  0.86750  0.38605  0.06134  1.0000
  C   C535      1.0  0.69342  0.24623  0.05478  1.0000
  H   H424      1.0  0.98026  0.15173  0.44751  1.0000
  H   H425      1.0  0.66461  0.21491  0.26075  1.0000
  H   H426      1.0  0.71134  0.05460  0.02807  1.0000
  H   H427      1.0  0.92995  0.32410  0.34719  1.0000
  C   C536      1.0  0.69460  0.22724  0.12761  1.0000
  C   C537      1.0  0.65447  0.23506  0.24053  1.0000
  S   S75       1.0  0.78777  0.16601  0.00313  1.0000
  H   H428      1.0  0.68058  0.18118  0.99726  1.0000
  C   C538      1.0  0.88187  0.24777  0.13077  1.0000
  H   H429      1.0  0.97830  0.10760  0.02362  1.0000
  C   C539      1.0  0.84390  0.29338  0.06450  1.0000
  C   C540      1.0  0.72018  0.24188  0.07233  1.0000
  H   H430      1.0  0.74154  0.22800  0.12209  1.0000
  C   C541      1.0  0.89364  0.28978  0.12626  1.0000
  H   H431      1.0  0.88799  0.10690  0.26209  1.0000
  H   H432      1.0  0.89928  0.05850  0.31292  1.0000
  H   H433      1.0  0.86883  0.19811  0.16793  1.0000
  C   C542      1.0  0.88848  0.39713  0.07123  1.0000
  C   C543      1.0  0.97881  0.28147  0.02858  1.0000
  C   C544      1.0  0.95345  0.30230  0.04080  1.0000
  C   C545      1.0  0.90958  0.36722  0.08312  1.0000
  H   H434      1.0  0.95309  0.36040  0.10507  1.0000
  C   C546      1.0  0.89445  0.44198  0.07160  1.0000
  H   H435      1.0  0.79919  0.27827  0.05087  1.0000
  H   H436      1.0  0.93496  0.27273  0.29620  1.0000
  C   C547      1.0  0.89438  0.29894  0.19087  1.0000
  C   C548      1.0  0.94240  0.42780  0.09615  1.0000
  H   H437      1.0  0.96190  0.09363  0.09285  1.0000
  P   P19       1.0  0.97548  0.20044  0.28185  1.0000
  H   H438      1.0  0.92760  0.22109  0.09398  1.0000
  H   H439      1.0  0.83929  0.29488  0.09280  1.0000
  C   C549      1.0  0.87250  0.29919  0.05158  1.0000
  H   H440      1.0  0.87974  0.24358  0.22144  1.0000
  H   H441      1.0  0.74046  0.24491  0.05752  1.0000
  C   C550      1.0  0.93654  0.38292  0.09575  1.0000
  H   H442      1.0  0.91657  0.05139  0.08337  1.0000
  C   C551      1.0  0.66724  0.23994  0.07331  1.0000
  H   H443      1.0  0.94809  0.33429  0.03050  1.0000
  H   H444      1.0  0.96095  0.16396  0.21209  1.0000
  C   C552      1.0  0.72076  0.23223  0.10870  1.0000
  C   C553      1.0  0.95776  0.44161  0.47197  1.0000
  H   H445      1.0  0.86299  0.00405  0.10861  1.0000
  C   C554      1.0  0.71573  0.08790  0.02017  1.0000
  C   C555      1.0  0.92139  0.45731  0.08398  1.0000
  H   H446      1.0  0.69300  0.25309  0.02645  1.0000
  C   C556      1.0  0.93751  0.03703  0.07675  1.0000
  C   C557      1.0  0.75127  0.14529  0.00732  1.0000
  C   C558      1.0  0.94688  0.29935  0.34738  1.0000
  H   H447      1.0  0.76285  0.08009  0.02298  1.0000
  H   H448      1.0  0.96332  0.43975  0.10560  1.0000
  C   C559      1.0  0.96025  0.21728  0.17526  1.0000
  S   S76       1.0  0.65551  0.09611  0.01757  1.0000
  C   C560      1.0  0.69212  0.11613  0.01303  1.0000
  H   H449      1.0  0.95487  0.19657  0.15255  1.0000
  C   C561      1.0  0.87746  0.29826  0.01458  1.0000
  H   H450      1.0  0.97168  0.18477  0.07201  1.0000
  C   C562      1.0  0.96315  0.19894  0.20914  1.0000
  C   C563      1.0  0.69834  0.15898  0.00274  1.0000
  H   H451      1.0  0.64783  0.28986  0.27606  1.0000
  C   C564      1.0  0.93858  0.99544  0.06135  1.0000
  C   C565      1.0  0.96547  0.29603  0.37685  1.0000
  C   C566      1.0  0.96458  0.26206  0.17064  1.0000
  H   H452      1.0  0.87823  0.46487  0.06195  1.0000
  C   C567      1.0  0.65107  0.21887  0.20578  1.0000
  C   C568      1.0  0.96927  0.22538  0.23896  1.0000
  S   S77       1.0  0.91258  0.99841  0.24263  1.0000
  H   H453      1.0  0.96255  0.27613  0.14430  1.0000
  C   C569      1.0  0.97196  0.23849  0.31865  1.0000
  H   H454      1.0  0.97494  0.13549  0.33768  1.0000
  C   C570      1.0  0.97176  0.28849  0.19994  1.0000
  H   H455      1.0  0.97658  0.99048  0.19695  1.0000
  C   C571      1.0  0.97438  0.27019  0.23395  1.0000
  H   H456      1.0  0.97558  0.32311  0.19627  1.0000
  Fe  Fe38      1.0  0.88603  0.07708  0.99415  1.0000
  C   C572      1.0  0.69300  0.39497  0.58554  1.0000
  C   C573      1.0  0.75008  0.07663  0.90893  1.0000
  H   H457      1.0  0.89890  0.42155  0.73280  1.0000
  H   H458      1.0  0.70859  0.41059  0.60328  1.0000
  C   C574      1.0  0.89690  0.26396  0.79766  1.0000
  S   S78       1.0  0.92873  0.22731  0.96847  1.0000
  S   S79       1.0  0.86495  0.13036  0.96138  1.0000
  C   C575      1.0  0.67069  0.06039  0.77669  1.0000
  H   H459      1.0  0.88320  0.29990  0.86495  1.0000
  H   H460      1.0  0.70732  0.18588  0.90349  1.0000
  H   H461      1.0  0.88594  0.29531  0.79933  1.0000
  H   H462      1.0  0.66521  0.29399  0.56742  1.0000
  H   H463      1.0  0.76214  0.04626  0.91089  1.0000
  S   S80       1.0  0.90090  0.01002  0.97422  1.0000
  H   H464      1.0  0.84173  0.46416  0.59583  1.0000
  C   C576      1.0  0.92600  0.26688  0.93401  1.0000
  C   C577      1.0  0.90250  0.26783  0.91022  1.0000
  C   C578      1.0  0.90162  0.29937  0.88293  1.0000
  C   C579      1.0  0.92429  0.33009  0.87871  1.0000
  C   C580      1.0  0.94745  0.32976  0.90307  1.0000
  C   C581      1.0  0.94838  0.29814  0.93033  1.0000
  H   H465      1.0  0.88513  0.24405  0.91264  1.0000
  C   C582      1.0  0.66848  0.32901  0.56564  1.0000
  H   H466      1.0  0.98016  0.15427  0.97059  1.0000
  H   H467      1.0  0.96475  0.35360  0.90076  1.0000
  C   C583      1.0  0.88706  0.43105  0.52910  1.0000
  P   P20       1.0  0.66870  0.11537  0.87687  1.0000
  C   C584      1.0  0.86328  0.45114  0.54580  1.0000
  C   C585      1.0  0.93857  0.99573  0.97100  1.0000
  H   H468      1.0  0.71162  0.04611  0.88742  1.0000
  C   C586      1.0  0.67351  0.10674  0.82954  1.0000
  C   C587      1.0  0.90821  0.40956  0.54935  1.0000
  H   H469      1.0  0.78898  0.46394  0.54641  1.0000
  C   C588      1.0  0.64978  0.16568  0.88691  1.0000
  H   H470      1.0  0.92644  0.39447  0.53563  1.0000
  C   C589      1.0  0.96061  0.02748  0.97141  1.0000
  C   C590      1.0  0.86017  0.44863  0.58280  1.0000
  H   H471      1.0  0.96662  0.29783  0.94861  1.0000
  H   H472      1.0  0.80869  0.27430  0.98586  1.0000
  C   C591      1.0  0.94018  0.32697  0.58935  1.0000
  C   C592      1.0  0.91788  0.30492  0.57082  1.0000
  P   P21       1.0  0.93308  0.37818  0.61213  1.0000
  C   C593      1.0  0.92215  0.36788  0.65780  1.0000
  C   C594      1.0  0.85443  0.28987  0.99100  1.0000
  Fe  Fe39      1.0  0.89622  0.17621  0.98926  1.0000
  H   H473      1.0  0.69341  0.17005  0.82127  1.0000
  H   H474      1.0  0.95478  0.06165  0.97269  1.0000
  C   C595      1.0  0.97413  0.26918  0.57282  1.0000
  C   C596      1.0  0.68664  0.13952  0.80895  1.0000
  C   C597      1.0  0.92260  0.32518  0.67147  1.0000
  C   C598      1.0  0.91464  0.31746  0.70695  1.0000
  C   C599      1.0  0.90598  0.35222  0.72895  1.0000
  C   C600      1.0  0.90530  0.39457  0.71554  1.0000
  C   C601      1.0  0.91395  0.40259  0.68045  1.0000
  C   C602      1.0  0.90554  0.40717  0.58668  1.0000
  H   H475      1.0  0.85778  0.22709  0.80817  1.0000
  C   C603      1.0  0.88092  0.42626  0.60312  1.0000
  H   H476      1.0  0.67558  0.06269  0.94222  1.0000
  H   H477      1.0  0.89595  0.31815  0.57002  1.0000
  C   C604      1.0  0.72141  0.07666  0.89597  1.0000
  H   H478      1.0  0.78520  0.11574  0.93049  1.0000
  S   S81       1.0  0.92319  0.36622  0.84153  1.0000
  P   P22       1.0  0.68189  0.47840  0.55931  1.0000
  H   H479      1.0  0.92939  0.29777  0.65506  1.0000
  H   H480      1.0  0.91533  0.28457  0.71742  1.0000
  H   H481      1.0  0.90028  0.34687  0.75662  1.0000
  C   C605      1.0  0.95222  0.24831  0.55317  1.0000
  H   H482      1.0  0.93886  0.29262  0.78797  1.0000
  C   C606      1.0  0.96676  0.40945  0.61086  1.0000
  H   H483      1.0  0.87726  0.42410  0.63144  1.0000
  H   H484      1.0  0.91462  0.43613  0.67133  1.0000
  C   C607      1.0  0.68876  0.34980  0.58784  1.0000
  H   H485      1.0  0.96884  0.42342  0.66790  1.0000
  C   C608      1.0  0.68311  0.09360  0.75620  1.0000
  H   H486      1.0  0.90701  0.24954  0.53737  1.0000
  H   H487      1.0  0.85861  0.28811  0.96256  1.0000
  C   C609      1.0  0.92707  0.26230  0.79178  1.0000
  C   C610      1.0  0.92400  0.26591  0.55249  1.0000
  Fe  Fe40      1.0  0.95057  0.42575  0.82448  1.0000
  H   H488      1.0  0.97371  0.39954  0.55405  1.0000
  C   C611      1.0  0.89527  0.18515  0.80158  1.0000
  H   H489      1.0  0.93614  0.15176  0.79471  1.0000
  C   C612      1.0  0.96807  0.30818  0.59099  1.0000
  H   H490      1.0  0.65663  0.15998  0.94374  1.0000
  C   C613      1.0  0.65243  0.35338  0.54108  1.0000
  C   C614      1.0  0.71889  0.15512  0.90488  1.0000
  C   C615      1.0  0.76318  0.11577  0.91973  1.0000
  C   C616      1.0  0.66610  0.06674  0.81329  1.0000
  C   C617      1.0  0.97920  0.42698  0.64219  1.0000
  C   C618      1.0  0.67701  0.41976  0.56088  1.0000
  C   C619      1.0  0.92542  0.18332  0.79559  1.0000
  C   C620      1.0  0.65551  0.05329  0.92893  1.0000
  C   C621      1.0  0.88104  0.22552  0.80285  1.0000
  C   C622      1.0  0.69121  0.13308  0.77237  1.0000
  S   S82       1.0  0.96005  0.43069  0.76564  1.0000
  C   C623      1.0  0.70540  0.11579  0.89456  1.0000
  H   H491      1.0  0.73206  0.20653  0.99175  1.0000
  C   C624      1.0  0.77138  0.47998  0.56075  1.0000
  H   H492      1.0  0.75794  0.18514  0.92619  1.0000
  H   H493      1.0  0.70121  0.33093  0.60692  1.0000
  H   H494      1.0  0.73773  0.44370  0.53380  1.0000
  C   C625      1.0  0.94163  0.22195  0.79141  1.0000
  H   H495      1.0  0.88301  0.15529  0.80566  1.0000
  C   C626      1.0  0.65666  0.39854  0.53865  1.0000
  H   H496      1.0  0.70121  0.15862  0.75661  1.0000
  H   H497      1.0  0.84743  0.46885  0.52997  1.0000
  C   C627      1.0  0.74771  0.15499  0.91733  1.0000
  H   H498      1.0  0.68672  0.08856  0.72787  1.0000
  H   H499      1.0  0.65647  0.44792  0.62732  1.0000
  H   H500      1.0  0.96372  0.19038  0.85625  1.0000
  C   C628      1.0  0.74232  0.46881  0.55354  1.0000
  C   C629      1.0  0.64721  0.17939  0.92259  1.0000
  H   H501      1.0  0.95728  0.21872  0.53826  1.0000
  C   C630      1.0  0.64943  0.48111  0.62271  1.0000
  H   H502      1.0  0.66480  0.02953  0.76426  1.0000
  H   H503      1.0  0.65714  0.04017  0.82876  1.0000
  H   H504      1.0  0.88933  0.43266  0.50035  1.0000
  H   H505      1.0  0.97330  0.28514  0.84046  1.0000
  C   C631      1.0  0.97581  0.63042  0.39543  1.0000
  H   H506      1.0  0.89565  0.79563  0.25329  1.0000
  H   H507      1.0  0.84409  0.79087  0.45986  1.0000
  C   C632      1.0  0.69370  0.63111  0.47701  1.0000
  S   S83       1.0  0.85827  0.60166  0.44940  1.0000
  S   S84       1.0  0.88348  0.71766  0.42191  1.0000
  C   C633      1.0  0.69509  0.51023  0.49096  1.0000
  C   C634      1.0  0.95120  0.48653  0.47112  1.0000
  Fe  Fe41      1.0  0.88075  0.66495  0.46537  1.0000
  H   H508      1.0  0.90118  0.57155  0.38171  1.0000
  H   H509      1.0  0.94731  0.81672  0.24322  1.0000
  C   C635      1.0  0.92402  0.63313  0.38108  1.0000
  C   C636      1.0  0.78723  0.72117  0.44674  1.0000
  C   C637      1.0  0.71781  0.63320  0.45364  1.0000
  C   C638      1.0  0.81207  0.74597  0.43920  1.0000
  H   H510      1.0  0.71450  0.64396  0.42649  1.0000
  H   H511      1.0  0.76425  0.62166  0.44635  1.0000
  Fe  Fe42      1.0  0.95346  0.98098  0.27434  1.0000
  C   C639      1.0  0.77421  0.72385  0.48044  1.0000
  C   C640      1.0  0.94912  0.82415  0.38606  1.0000
  C   C641      1.0  0.92353  0.81584  0.36673  1.0000
  C   C642      1.0  0.90385  0.78313  0.37810  1.0000
  C   C643      1.0  0.90934  0.75835  0.40896  1.0000
  C   C644      1.0  0.93489  0.76670  0.42831  1.0000
  C   C645      1.0  0.95470  0.79914  0.41679  1.0000
  H   H512      1.0  0.91888  0.83471  0.34309  1.0000
  H   H513      1.0  0.88414  0.77712  0.36293  1.0000
  H   H514      1.0  0.93920  0.74860  0.45237  1.0000
  S   S85       1.0  0.65839  0.64662  0.46124  1.0000
  C   C646      1.0  0.68787  0.52570  0.45705  1.0000
  C   C647      1.0  0.90206  0.81025  0.22819  1.0000
  C   C648      1.0  0.93943  0.84173  0.19047  1.0000
  C   C649      1.0  0.88123  0.81765  0.20161  1.0000
  C   C650      1.0  0.88942  0.83742  0.16953  1.0000
  C   C651      1.0  0.91853  0.85022  0.16396  1.0000
  H   H515      1.0  0.96633  0.94461  0.04065  1.0000
  P   P23       1.0  0.92927  0.87698  0.12314  1.0000
  C   C652      1.0  0.94296  0.83785  0.09091  1.0000
  C   C653      1.0  0.89794  0.90561  0.10517  1.0000
  C   C654      1.0  0.87976  0.88473  0.08007  1.0000
  C   C655      1.0  0.85634  0.90713  0.06472  1.0000
  C   C656      1.0  0.85043  0.95023  0.07486  1.0000
  C   C657      1.0  0.97413  0.51661  0.47421  1.0000
  C   C658      1.0  0.89119  0.94848  0.11610  1.0000
  C   C659      1.0  0.94331  0.84828  0.05440  1.0000
  C   C660      1.0  0.95570  0.81945  0.02957  1.0000
  H   H516      1.0  0.92602  0.49207  0.08396  1.0000
  H   H517      1.0  0.77844  0.69917  0.42669  1.0000
  C   C661      1.0  0.95583  0.79868  0.10220  1.0000
  C   C662      1.0  0.95841  0.91460  0.13411  1.0000
  C   C663      1.0  0.97365  0.58482  0.39895  1.0000
  H   H518      1.0  0.96205  0.85091  0.18662  1.0000
  C   C664      1.0  0.94688  0.56375  0.39364  1.0000
  H   H519      1.0  0.82257  0.74320  0.41332  1.0000
  C   C665      1.0  0.95575  0.94238  0.16390  1.0000
  H   H520      1.0  0.90468  0.65191  0.37454  1.0000
  C   C666      1.0  0.92204  0.58788  0.38493  1.0000
  H   H521      1.0  0.85865  0.80854  0.20608  1.0000
  H   H522      1.0  0.87294  0.84323  0.14942  1.0000
  C   C667      1.0  0.93117  0.82210  0.22253  1.0000
  H   H523      1.0  0.88384  0.85124  0.07195  1.0000
  H   H524      1.0  0.84296  0.89126  0.04461  1.0000
  C   C668      1.0  0.74611  0.62077  0.46486  1.0000
  H   H525      1.0  0.94522  0.52868  0.39711  1.0000
  H   H526      1.0  0.90434  0.96552  0.13564  1.0000
  H   H527      1.0  0.93463  0.87911  0.04513  1.0000
  C   C669      1.0  0.95070  0.65443  0.38655  1.0000
  S   S86       1.0  0.91441  0.50340  0.46394  1.0000
  H   H528      1.0  0.95698  0.79069  0.13023  1.0000
  C   C670      1.0  0.86762  0.97066  0.10082  1.0000
  H   H529      1.0  0.95154  0.68972  0.38432  1.0000
  C   C671      1.0  0.65863  0.52921  0.44684  1.0000
  H   H530      1.0  0.70498  0.53661  0.43917  1.0000
  C   C672      1.0  0.82410  0.77313  0.46548  1.0000
  H   H531      1.0  0.93619  0.94213  0.18026  1.0000
  S   S87       1.0  0.97099  0.91203  0.27048  1.0000
  Fe  Fe43      1.0  0.89384  0.56848  0.48107  1.0000
  H   H532      1.0  0.96954  0.55125  0.47315  1.0000
  S   S88       1.0  0.95705  0.98493  0.33460  1.0000
  H   H533      1.0  0.96374  0.67715  0.45689  1.0000
  H   H534      1.0  0.75560  0.70338  0.48617  1.0000
  C   C673      1.0  0.96852  0.77016  0.07729  1.0000
  C   C674      1.0  0.96836  0.78043  0.04101  1.0000
  H   H535      1.0  0.97434  0.80532  0.43205  1.0000
  H   H536      1.0  0.95631  0.82795  0.00151  1.0000
  S   S89       1.0  0.97490  0.86505  0.37331  1.0000
  H   H537      1.0  0.83262  0.96792  0.06250  1.0000
  H   H538      1.0  0.65307  0.54276  0.42107  1.0000
  H   H539      1.0  0.91860  0.97807  0.05512  1.0000
  C   C675      1.0  0.96543  0.97691  0.05246  1.0000
  H   H540      1.0  0.97882  0.75879  0.02184  1.0000
  Fe  Fe44      1.0  0.97791  0.91810  0.33008  1.0000
  C   C676      1.0  0.97877  0.96980  0.17370  1.0000
  S   S90       1.0  0.91767  0.63089  0.49368  1.0000
  H   H541      1.0  0.97946  0.74083  0.08625  1.0000
  Fe  Fe45      1.0  0.88852  0.63344  0.54237  1.0000
  S   S91       1.0  0.86688  0.56937  0.53128  1.0000
  S   S92       1.0  0.90777  0.65052  0.59670  1.0000
  C   C677      1.0  0.67301  0.49794  0.51502  1.0000
  S   S93       1.0  0.85338  0.67291  0.51534  1.0000
  C   C678      1.0  0.77774  0.51304  0.58545  1.0000
  C   C679      1.0  0.81099  0.77606  0.49916  1.0000
  C   C680      1.0  0.65767  0.50349  0.59163  1.0000
  C   C681      1.0  0.90899  0.61163  0.63166  1.0000
  C   C682      1.0  0.88953  0.57638  0.63265  1.0000
  C   C683      1.0  0.89004  0.54715  0.66150  1.0000
  C   C684      1.0  0.91048  0.55203  0.68926  1.0000
  C   C685      1.0  0.93020  0.58699  0.68817  1.0000
  C   C686      1.0  0.92915  0.61700  0.65972  1.0000
  H   H542      1.0  0.87381  0.57195  0.61144  1.0000
  H   H543      1.0  0.87466  0.52032  0.66218  1.0000
  H   H544      1.0  0.94586  0.59130  0.70953  1.0000
  H   H545      1.0  0.94410  0.64438  0.65941  1.0000
  C   C687      1.0  0.72673  0.60530  0.52332  1.0000
  H   H546      1.0  0.66993  0.73880  0.50073  1.0000
  H   H547      1.0  0.73003  0.59498  0.55049  1.0000
  H   H548      1.0  0.68027  0.61594  0.53032  1.0000
  C   C688      1.0  0.94702  0.51635  0.61188  1.0000
  S   S94       1.0  0.90979  0.51385  0.72468  1.0000
  H   H549      1.0  0.70883  0.54175  0.60949  1.0000
  C   C689      1.0  0.68404  0.73246  0.52337  1.0000
  H   H550      1.0  0.92980  0.92657  0.96774  1.0000
  H   H551      1.0  0.71789  0.50953  0.49835  1.0000
  H   H552      1.0  0.76006  0.56056  0.62214  1.0000
  C   C690      1.0  0.94663  0.95139  0.96844  1.0000
  C   C691      1.0  0.69150  0.70036  0.58148  1.0000
  C   C692      1.0  0.72072  0.71391  0.58097  1.0000
  C   C693      1.0  0.73204  0.73581  0.55113  1.0000
  Fe  Fe46      1.0  0.94311  0.49951  0.76852  1.0000
  P   P24       1.0  0.76959  0.75429  0.55067  1.0000
  C   C694      1.0  0.76918  0.80938  0.56794  1.0000
  C   C695      1.0  0.79297  0.71965  0.57696  1.0000
  C   C696      1.0  0.81788  0.73690  0.59385  1.0000
  C   C697      1.0  0.83686  0.70939  0.61245  1.0000
  C   C698      1.0  0.83133  0.66454  0.61390  1.0000
  C   C699      1.0  0.80707  0.64702  0.59632  1.0000
  C   C700      1.0  0.78801  0.67444  0.57781  1.0000
  C   C701      1.0  0.76878  0.81686  0.60495  1.0000
  C   C702      1.0  0.76811  0.85958  0.61848  1.0000
  C   C703      1.0  0.76743  0.89504  0.59514  1.0000
  C   C704      1.0  0.67324  0.70930  0.55255  1.0000
  C   C705      1.0  0.76716  0.88777  0.55825  1.0000
  C   C706      1.0  0.78557  0.75203  0.50664  1.0000
  H   H553      1.0  0.76638  0.91522  0.54014  1.0000
  C   C707      1.0  0.93469  0.51950  0.57800  1.0000
  C   C708      1.0  0.94750  0.54634  0.55254  1.0000
  S   S95       1.0  0.93063  0.49303  0.82657  1.0000
  C   C709      1.0  0.76782  0.84508  0.54466  1.0000
  H   H554      1.0  0.72099  0.76472  0.50022  1.0000
  H   H555      1.0  0.80355  0.61203  0.59592  1.0000
  H   H556      1.0  0.95242  0.72825  0.59376  1.0000
  H   H557      1.0  0.73445  0.70705  0.60376  1.0000
  H   H558      1.0  0.82103  0.79637  0.51951  1.0000
  H   H559      1.0  0.82311  0.77129  0.59195  1.0000
  H   H560      1.0  0.85643  0.72241  0.62489  1.0000
  H   H561      1.0  0.93740  0.54923  0.52665  1.0000
  H   H562      1.0  0.84638  0.64331  0.62778  1.0000
  H   H563      1.0  0.76990  0.66015  0.56331  1.0000
  H   H564      1.0  0.76901  0.78966  0.62333  1.0000
  H   H565      1.0  0.76808  0.86517  0.64707  1.0000
  H   H566      1.0  0.76695  0.92813  0.60563  1.0000
  C   C710      1.0  0.72596  0.52377  0.59597  1.0000
  C   C711      1.0  0.71316  0.74639  0.52292  1.0000
  H   H567      1.0  0.91483  0.50203  0.57163  1.0000
  H   H568      1.0  0.68303  0.68260  0.60416  1.0000
  H   H569      1.0  0.76717  0.84002  0.51601  1.0000
  H   H570      1.0  0.80022  0.52277  0.59006  1.0000
  C   C712      1.0  0.75507  0.53459  0.60331  1.0000
  Fe  Fe47      1.0  0.83305  0.60798  0.50092  1.0000
  C   C713      1.0  0.75081  0.60704  0.49994  1.0000
  C   C714      1.0  0.69842  0.61715  0.51198  1.0000
  C   C715      1.0  0.97299  0.71628  0.60428  1.0000
  H   H571      1.0  0.96514  0.70698  0.51804  1.0000
  S   S96       1.0  0.78570  0.58924  0.51542  1.0000
  Fe  Fe48      1.0  0.97619  0.51771  0.83863  1.0000
  C   C716      1.0  0.97288  0.56979  0.56062  1.0000
  H   H572      1.0  0.96725  0.65281  0.58137  1.0000
  C   C717      1.0  0.97192  0.54059  0.62052  1.0000
  H   H573      1.0  0.93675  0.49615  0.63189  1.0000
  C   C718      1.0  0.71937  0.49119  0.57061  1.0000
  H   H574      1.0  0.65498  0.56497  0.56368  1.0000
  C   C719      1.0  0.64857  0.54690  0.58711  1.0000
  C   C720      1.0  0.97636  0.93885  0.96783  1.0000
  H   H575      1.0  0.98038  0.53835  0.64736  1.0000
  H   H576      1.0  0.65079  0.69794  0.55246  1.0000
