data_image0
_chemical_formula_structural       HSH2CFeSCHSCFeS2FeS2FeSFeS3HCH2C6H4CH2SHC2HCH2CHC2H2CHCHC3HC2H2CH3C2H3CHC2HFeC2HC3HCH2C4PC8PC3HCH2CH2C8H2CH7C2H7CH5C3HC3HCFeC2HCPC4HCSCH2CH2CHCH3FeS2FeSHFeSFeS3FeS2FeS2FeSFeS3C6H5C5HCH2CH2C3H2C2H4SC2HC6H5C6PC4HFeC12H17CH3C2HC4H2C5H2C4HCH2C8HC4PC3HCHC12HC2HC2SH4CH10CHCHC2HCHCHCHC2HCHCHC2PHC6HCH3C2H2C5PH4CH2CH3CHSHC5FeSHSH3FeS2FeS2FeSFeS3C5H2C3HC11H5CHC2HCH3CH5C2HCH2C2H2CHC6H2CH3SCH6C3H4C2HCHC3PC2HC8HCH9CHC4PC3HC5PC10HCH6CH7CHC7PCH2C3H3C4HCH2C5SCS2FeSHCSCFeSCFeS2FeSFeS3HC2HC6H4C3H2C3HC2HC2H4C2H2CHCHCH3C3H5PCPC2H2CH2CH5C2H2C4HCHC2HC3H2C2H2C3H2FeCHC4PC6SC5H10CHCSHC5H3C3FeC4HCHCHCHC3HCH3C3HCHFeH3C2H2CPC2HCSCH2C2HC2H3C2H2SC2HFeHSH2CHCSH2C4H3SHCFeS2FeSHFeSFeS3FeS2FeS2FeSFeS3C6H4CH2C3H2CHCH3C2H4PH4C11H3CPCPC10HC7HCH7C2HCH6C2SC3H2C3HC2H2C2H2C4HCH2C4H3CFeC2H4C5HC5HCH3C7PC4H3C11H18C3HCH4CPC6HCH3C2HC2HC6H2C4H2C4H2C2HCH2CHC3HC2H2CH3C2H4CHCH3FeSHSHCSFeS2FeS2FeSFeS3C3H4CHCHC2H2C7H4C2H2C2H2CHC2H5CPC4HC4HC2HCH2C4H8C3HCHCHC5HCHCH2CHC3H3C2HCH2C4HCHPHCHC5HC5HC2HCH4PC3H4C6HPH4C5H2CH5SH2C15HCH3C2HCHCH3CH2C2H3C4HC2SFeHSCFe2SFeSFeSCSH2CSHCSH2FeSC2H2CH2C2HCSC2HC2H2SC6H4CH2CHC5HPH2C2SHC4HC4H2CHCHFeHCHCHCH3CHC3H2PH3C2H3C6H2CH2SC3H3C3HCHCHC6PCSCH4C5HCH3PHCSCH3C7PC18H14C3H2CHC2H4CFeH3CH2C3H2C6FeH3CH5C2HC3S2HC2H3SCHCFeHCH3SHCHFeCHFeSFeSHSHS2FeHSFeCH2CSCH3CHCH2C2HC3HCHCSHC6H4CH5CH2CHC4H4C2HCH3C2FeHC6PC9PHC9H4C3H2PCH7C4H3CSHCHSH2C2H2C7SHSHCHCHCH2SC2HCH4FeHCH2C7SCH2CHC2HFeCH5C3H2CHCHCHSHC2H3C2HC6SCH3C4FeC2HCSHC3HSCSC2H3C4H2C3HSCFeSHCSH3SCFeHSFeSH2CSHCPH2CHCH2CH2C9H4C2HCHC2H3C4PC14H3C3H9CH4PCH2SCSCHCHC2H2C2PHC3HC3HCHCHC3HCH3CFeCH2C4H2C2HC2HCHCSH2SCHC6PC2HFeC10SHCH5C2HFeCHCHC3H2C5H3C4HCFe2C4H2C3SHCHC5H4C3HS2HC3SHSH2CHSH3FeH2SCHCHCHCPH2FeHSFeSC2S2H3SH4CFeSC2H3CH2C3HCH3C2H2C7H5C2HCHCHCHSC2H2C3HCHCSH2C2HCHCHFeCH2CSHC2PC5PC21H9C2H6CHFeHC2FeC2H2CHCSC2H2C2HCSCFeC3H2C6H2CHCHSC2SH4SH3FeHSFeSFeSCS3HFe2SFeCH2CSCH3CH5CHC3HCHC2HCH3C3H2CHC4H2CPC8H4C5SFeHCSCH3C4HS2CHPHC2H2CHC2HC10PC4HSC12H2CH3C2HCH11C3SCSH2C2H2C3H2C2H2CSCHFeHSC2HCH3C2H3CHS2C4PC2H2FeHC5H2CH3CH2CHCHC6S2FeSC2SHCS2HFeHSFeH2C2SC2H4CH5CH3C6HCH2CH2CHCH2C6PC3HC4H2C3H2C2FeH4CHCH4CH3SH3C7PC18H11C2H8CH2C6HCH3C2HC5HPCHCHC3FeCH2C4H2CSHCH2FeHSCHFeCHC3SC2HSC6H5PCHCHC5HC4FeH2C2H2C2H2C2
_chemical_formula_sum              "H1152 S192 C1440 Fe96 P48"
_cell_length_a       29.8491
_cell_length_b       43.9141
_cell_length_c       63.5588
_cell_angle_alpha    90.04
_cell_angle_beta     90.2298
_cell_angle_gamma    89.8826

_space_group_name_H-M_alt    "P 1"
_space_group_IT_number       1

loop_
  _space_group_symop_operation_xyz
  'x, y, z'

loop_
  _atom_site_type_symbol
  _atom_site_label
  _atom_site_symmetry_multiplicity
  _atom_site_fract_x
  _atom_site_fract_y
  _atom_site_fract_z
  _atom_site_occupancy
  H   H1        1.0  0.05917  0.32293  0.05599  1.0000
  S   S1        1.0  0.04599  0.09426  0.23906  1.0000
  H   H2        1.0  0.12360  0.33915  0.17808  1.0000
  H   H3        1.0  0.05912  0.46237  0.21601  1.0000
  C   C1        1.0  0.18965  0.19277  0.97314  1.0000
  Fe  Fe1       1.0  0.03776  0.33558  0.11660  1.0000
  S   S2        1.0  0.10396  0.32914  0.09812  1.0000
  C   C2        1.0  0.06911  0.24442  0.02830  1.0000
  H   H4        1.0  0.03625  0.42703  0.18727  1.0000
  S   S3        1.0  0.03771  0.35012  0.15073  1.0000
  C   C3        1.0  0.46183  0.11330  0.03053  1.0000
  Fe  Fe2       1.0  0.39643  0.25235  0.03267  1.0000
  S   S4        1.0  0.37071  0.21789  0.05617  1.0000
  S   S5        1.0  0.44718  0.28623  0.04579  1.0000
  Fe  Fe3       1.0  0.34359  0.22387  0.99693  1.0000
  S   S6        1.0  0.31460  0.18827  0.01804  1.0000
  S   S7        1.0  0.33329  0.21765  0.96180  1.0000
  Fe  Fe4       1.0  0.30298  0.22663  0.04121  1.0000
  S   S8        1.0  0.23546  0.22679  0.05913  1.0000
  Fe  Fe5       1.0  0.38462  0.18270  0.03101  1.0000
  S   S9        1.0  0.41029  0.13324  0.03510  1.0000
  S   S10       1.0  0.32808  0.26279  0.01895  1.0000
  S   S11       1.0  0.41412  0.21664  0.00868  1.0000
  H   H5        1.0  0.99925  0.00568  0.14177  1.0000
  C   C4        1.0  0.16714  0.21807  0.01208  1.0000
  H   H6        1.0  0.26976  0.26621  0.97204  1.0000
  H   H7        1.0  0.21220  0.23500  0.15638  1.0000
  C   C5        1.0  0.13976  0.30008  0.08739  1.0000
  C   C6        1.0  0.13026  0.26892  0.08897  1.0000
  C   C7        1.0  0.15957  0.24705  0.08007  1.0000
  C   C8        1.0  0.19922  0.25575  0.06966  1.0000
  C   C9        1.0  0.20854  0.28689  0.06794  1.0000
  C   C10       1.0  0.17905  0.30877  0.07670  1.0000
  H   H8        1.0  0.10026  0.26166  0.09699  1.0000
  H   H9        1.0  0.15148  0.22316  0.08133  1.0000
  H   H10       1.0  0.23861  0.29418  0.05997  1.0000
  H   H11       1.0  0.18690  0.33272  0.07526  1.0000
  C   C11       1.0  0.16231  0.21863  0.97404  1.0000
  H   H12       1.0  0.20753  0.18237  0.02554  1.0000
  H   H13       1.0  0.16065  0.22826  0.02730  1.0000
  S   S12       1.0  0.01016  0.06060  0.28164  1.0000
  H   H14       1.0  0.20930  0.27460  0.01278  1.0000
  C   C12       1.0  0.46712  0.32271  0.01121  1.0000
  C   C13       1.0  0.02468  0.17098  0.96284  1.0000
  H   H15       1.0  0.15182  0.22901  0.95947  1.0000
  C   C14       1.0  0.45788  0.01526  0.13163  1.0000
  H   H16       1.0  0.05367  0.98700  0.11593  1.0000
  H   H17       1.0  0.07185  0.22234  0.02086  1.0000
  C   C15       1.0  0.08849  0.18476  0.19486  1.0000
  H   H18       1.0  0.19966  0.18365  0.95802  1.0000
  C   C16       1.0  0.43262  0.03827  0.07952  1.0000
  C   C17       1.0  0.08946  0.27008  0.01926  1.0000
  H   H19       1.0  0.17106  0.36993  0.97482  1.0000
  H   H20       1.0  0.43043  0.06927  0.03236  1.0000
  C   C18       1.0  0.42811  0.09292  0.97871  1.0000
  H   H21       1.0  0.38215  0.07003  0.99938  1.0000
  C   C19       1.0  0.23122  0.31906  0.00376  1.0000
  H   H22       1.0  0.47150  0.17238  0.10672  1.0000
  C   C20       1.0  0.08529  0.29847  0.02927  1.0000
  C   C21       1.0  0.04161  0.27546  0.05705  1.0000
  C   C22       1.0  0.43557  0.11857  0.96603  1.0000
  H   H23       1.0  0.41903  0.05653  0.08904  1.0000
  C   C23       1.0  0.47189  0.31779  0.03285  1.0000
  C   C24       1.0  0.42239  0.00143  0.05150  1.0000
  H   H24       1.0  0.26289  0.31695  0.01205  1.0000
  H   H25       1.0  0.08590  0.99391  0.16889  1.0000
  C   C25       1.0  0.38729  0.08939  0.98915  1.0000
  H   H26       1.0  0.03971  0.17997  0.99542  1.0000
  H   H27       1.0  0.20525  0.15630  0.21325  1.0000
  H   H28       1.0  0.33515  0.15434  0.97327  1.0000
  C   C26       1.0  0.48119  0.00273  0.16716  1.0000
  C   C27       1.0  0.35387  0.11153  0.98721  1.0000
  H   H29       1.0  0.20876  0.28971  0.95089  1.0000
  H   H30       1.0  0.40644  0.16080  0.95449  1.0000
  H   H31       1.0  0.43198  0.01505  0.11969  1.0000
  C   C28       1.0  0.49051  0.10234  0.08563  1.0000
  H   H32       1.0  0.44679  0.30738  0.00191  1.0000
  C   C29       1.0  0.17946  0.34889  0.98281  1.0000
  C   C30       1.0  0.04550  0.24711  0.04720  1.0000
  H   H33       1.0  0.40151  0.45733  0.27655  1.0000
  Fe  Fe6       1.0  0.00281  0.05359  0.24666  1.0000
  C   C31       1.0  0.22074  0.34595  0.99308  1.0000
  C   C32       1.0  0.14869  0.32490  0.98314  1.0000
  H   H34       1.0  0.11648  0.32793  0.97554  1.0000
  C   C33       1.0  0.06144  0.98365  0.17919  1.0000
  C   C34       1.0  0.40543  0.02477  0.06416  1.0000
  C   C35       1.0  0.47700  0.02834  0.08243  1.0000
  H   H35       1.0  0.45391  0.36230  0.27524  1.0000
  C   C36       1.0  0.44862  0.00252  0.15131  1.0000
  H   H36       1.0  0.02122  0.25839  0.99158  1.0000
  H   H37       1.0  0.32299  0.10934  0.99597  1.0000
  C   C37       1.0  0.09271  0.16828  0.21357  1.0000
  C   C38       1.0  0.17262  0.16416  0.20801  1.0000
  C   C39       1.0  0.07992  0.26881  0.97294  1.0000
  C   C40       1.0  0.16843  0.18051  0.18918  1.0000
  P   P1        1.0  0.11939  0.26677  0.99466  1.0000
  C   C41       1.0  0.09502  0.27519  0.95253  1.0000
  C   C42       1.0  0.04745  0.99945  0.19737  1.0000
  C   C43       1.0  0.19468  0.18050  0.10903  1.0000
  C   C44       1.0  0.23522  0.19594  0.11156  1.0000
  C   C45       1.0  0.47983  0.14836  0.10600  1.0000
  C   C46       1.0  0.20696  0.21960  0.14328  1.0000
  C   C47       1.0  0.16554  0.20495  0.14048  1.0000
  C   C48       1.0  0.15991  0.18492  0.12343  1.0000
  P   P2        1.0  0.11996  0.21258  0.15841  1.0000
  C   C49       1.0  0.06747  0.20277  0.14587  1.0000
  C   C50       1.0  0.12621  0.19088  0.18244  1.0000
  C   C51       1.0  0.15934  0.29758  0.99352  1.0000
  H   H38       1.0  0.41600  0.99270  0.15436  1.0000
  C   C52       1.0  0.20554  0.17947  0.99168  1.0000
  H   H39       1.0  0.47201  0.14573  0.07234  1.0000
  H   H40       1.0  0.26147  0.19336  0.09993  1.0000
  C   C53       1.0  0.04294  0.22466  0.13455  1.0000
  H   H41       1.0  0.00555  0.25755  0.22299  1.0000
  H   H42       1.0  0.48979  0.14398  0.13943  1.0000
  C   C54       1.0  0.01058  0.16504  0.13744  1.0000
  C   C55       1.0  0.05120  0.17280  0.14704  1.0000
  C   C56       1.0  0.11978  0.25279  0.16451  1.0000
  C   C57       1.0  0.13426  0.27406  0.14949  1.0000
  C   C58       1.0  0.13598  0.30503  0.15446  1.0000
  C   C59       1.0  0.12282  0.31507  0.17436  1.0000
  C   C60       1.0  0.10690  0.29422  0.18913  1.0000
  C   C61       1.0  0.10534  0.26319  0.18425  1.0000
  H   H43       1.0  0.18985  0.16586  0.09549  1.0000
  H   H44       1.0  0.49099  0.09112  0.07052  1.0000
  C   C62       1.0  0.49001  0.13230  0.12440  1.0000
  H   H45       1.0  0.03071  0.22722  0.05441  1.0000
  H   H46       1.0  0.12852  0.17323  0.12088  1.0000
  H   H47       1.0  0.05576  0.19290  0.19010  1.0000
  H   H48       1.0  0.06094  0.02171  0.20094  1.0000
  H   H49       1.0  0.13803  0.14536  0.23479  1.0000
  H   H50       1.0  0.19816  0.18508  0.18007  1.0000
  H   H51       1.0  0.05466  0.24792  0.13334  1.0000
  C   C63       1.0  0.26225  0.25767  0.95645  1.0000
  C   C64       1.0  0.03467  0.46971  0.20446  1.0000
  H   H52       1.0  0.05681  0.16017  0.96008  1.0000
  H   H53       1.0  0.06977  0.15543  0.15548  1.0000
  H   H54       1.0  0.14416  0.26688  0.13388  1.0000
  H   H55       1.0  0.14672  0.32132  0.14267  1.0000
  H   H56       1.0  0.09242  0.24757  0.19587  1.0000
  H   H57       1.0  0.10068  0.31867  0.02281  1.0000
  H   H58       1.0  0.46749  0.17111  0.98430  1.0000
  C   C65       1.0  0.40147  0.14053  0.96392  1.0000
  H   H59       1.0  0.09492  0.30215  0.20423  1.0000
  H   H60       1.0  0.27277  0.22751  0.13053  1.0000
  H   H61       1.0  0.37140  0.03278  0.06186  1.0000
  H   H62       1.0  0.06328  0.16352  0.22295  1.0000
  H   H63       1.0  0.99790  0.14202  0.13876  1.0000
  C   C66       1.0  0.03410  0.26317  0.97607  1.0000
  C   C67       1.0  0.46180  0.08119  0.03053  1.0000
  C   C68       1.0  0.46652  0.99155  0.05421  1.0000
  H   H64       1.0  0.45385  0.07586  0.98101  1.0000
  C   C69       1.0  0.02177  0.44959  0.18817  1.0000
  C   C70       1.0  0.13478  0.15801  0.22018  1.0000
  C   C71       1.0  0.01869  0.98082  0.11434  1.0000
  H   H65       1.0  0.02410  0.27765  0.07189  1.0000
  C   C72       1.0  0.01635  0.98621  0.21099  1.0000
  Fe  Fe7       1.0  0.04835  0.10364  0.27419  1.0000
  C   C73       1.0  0.48020  0.13337  0.08662  1.0000
  C   C74       1.0  0.24147  0.21530  0.12875  1.0000
  H   H66       1.0  0.22769  0.15992  0.99099  1.0000
  C   C75       1.0  0.20066  0.29499  0.00405  1.0000
  P   P3        1.0  0.48832  0.12370  0.95261  1.0000
  C   C76       1.0  0.15069  0.23149  0.99353  1.0000
  C   C77       1.0  0.06141  0.30108  0.04805  1.0000
  C   C78       1.0  0.00252  0.21673  0.12479  1.0000
  C   C79       1.0  0.19413  0.19206  0.01113  1.0000
  H   H67       1.0  0.24442  0.36462  0.99303  1.0000
  C   C80       1.0  0.48871  0.34764  0.00161  1.0000
  S   S13       1.0  0.99721  0.00471  0.23416  1.0000
  C   C81       1.0  0.36088  0.13698  0.97451  1.0000
  H   H68       1.0  0.40157  0.99115  0.03945  1.0000
  H   H69       1.0  0.48462  0.35144  0.98491  1.0000
  C   C82       1.0  0.00413  0.26402  0.95907  1.0000
  H   H70       1.0  0.99561  0.20376  0.23426  1.0000
  H   H71       1.0  0.47392  0.99293  0.18243  1.0000
  C   C83       1.0  0.01498  0.18200  0.98296  1.0000
  H   H72       1.0  0.13002  0.27981  0.94972  1.0000
  C   C84       1.0  0.09617  0.29966  0.44153  1.0000
  H   H73       1.0  0.28254  0.03468  0.37304  1.0000
  H   H74       1.0  0.37695  0.16866  0.60089  1.0000
  H   H75       1.0  0.26324  0.25382  0.60056  1.0000
  Fe  Fe8       1.0  0.34941  0.21993  0.38387  1.0000
  S   S14       1.0  0.31656  0.25622  0.36456  1.0000
  S   S15       1.0  0.33710  0.21889  0.41911  1.0000
  Fe  Fe9       1.0  0.40823  0.20051  0.34719  1.0000
  S   S16       1.0  0.37803  0.23590  0.32543  1.0000
  H   H76       1.0  0.39040  0.43656  0.39825  1.0000
  Fe  Fe10      1.0  0.38560  0.26826  0.35288  1.0000
  S   S17       1.0  0.40450  0.31932  0.35424  1.0000
  Fe  Fe11      1.0  0.31170  0.22060  0.33912  1.0000
  S   S18       1.0  0.24399  0.21970  0.32141  1.0000
  S   S19       1.0  0.41856  0.23372  0.37376  1.0000
  S   S20       1.0  0.34170  0.18329  0.35925  1.0000
  Fe  Fe12      1.0  0.18355  0.21066  0.54221  1.0000
  S   S21       1.0  0.15682  0.16827  0.52694  1.0000
  S   S22       1.0  0.24464  0.21121  0.56449  1.0000
  Fe  Fe13      1.0  0.10699  0.25152  0.52314  1.0000
  S   S23       1.0  0.07617  0.21120  0.50662  1.0000
  S   S24       1.0  0.08047  0.29973  0.51527  1.0000
  Fe  Fe14      1.0  0.08909  0.18562  0.53657  1.0000
  S   S25       1.0  0.03746  0.15556  0.55224  1.0000
  Fe  Fe15      1.0  0.14655  0.19753  0.49824  1.0000
  S   S26       1.0  0.15924  0.17809  0.46563  1.0000
  S   S27       1.0  0.11581  0.22654  0.55393  1.0000
  S   S28       1.0  0.17739  0.23922  0.51273  1.0000
  C   C85       1.0  0.28535  0.20902  0.43062  1.0000
  C   C86       1.0  0.27327  0.22264  0.44976  1.0000
  C   C87       1.0  0.23387  0.21409  0.46015  1.0000
  C   C88       1.0  0.20655  0.19132  0.45175  1.0000
  C   C89       1.0  0.21792  0.17813  0.43234  1.0000
  C   C90       1.0  0.25728  0.18694  0.42180  1.0000
  H   H77       1.0  0.29438  0.23987  0.45666  1.0000
  H   H78       1.0  0.22549  0.22455  0.47499  1.0000
  H   H79       1.0  0.19684  0.16059  0.42564  1.0000
  H   H80       1.0  0.26673  0.17599  0.40724  1.0000
  H   H81       1.0  0.99798  0.13357  0.36519  1.0000
  C   C91       1.0  0.42246  0.39687  0.29424  1.0000
  C   C92       1.0  0.13007  0.17180  0.37455  1.0000
  C   C93       1.0  0.20803  0.18893  0.31386  1.0000
  C   C94       1.0  0.21823  0.15847  0.31834  1.0000
  C   C95       1.0  0.18853  0.13500  0.31221  1.0000
  H   H82       1.0  0.24909  0.15298  0.32648  1.0000
  C   C96       1.0  0.08075  0.28955  0.36972  1.0000
  H   H83       1.0  0.22309  0.40569  0.31465  1.0000
  H   H84       1.0  0.19696  0.11160  0.31579  1.0000
  C   C97       1.0  0.01585  0.12486  0.53750  1.0000
  H   H85       1.0  0.13642  0.46287  0.55316  1.0000
  H   H86       1.0  0.26900  0.33703  0.37027  1.0000
  C   C98       1.0  0.16777  0.19539  0.30304  1.0000
  C   C99       1.0  0.02656  0.35114  0.51297  1.0000
  C   C100      1.0  0.03532  0.32378  0.52389  1.0000
  H   H87       1.0  0.04987  0.13684  0.50891  1.0000
  H   H88       1.0  0.04685  0.35693  0.49951  1.0000
  C   C101      1.0  0.10020  0.24553  0.44813  1.0000
  C   C102      1.0  0.44497  0.11604  0.34711  1.0000
  H   H89       1.0  0.19749  0.31001  0.36515  1.0000
  H   H90       1.0  0.42679  0.06997  0.35507  1.0000
  H   H91       1.0  0.41354  0.12576  0.35225  1.0000
  H   H92       1.0  0.31907  0.32354  0.39998  1.0000
  S   S29       1.0  0.47043  0.17471  0.33644  1.0000
  C   C103      1.0  0.45677  0.33924  0.35216  1.0000
  C   C104      1.0  0.01208  0.09521  0.50531  1.0000
  H   H93       1.0  0.42877  0.38111  0.36384  1.0000
  C   C105      1.0  0.35501  0.13850  0.57627  1.0000
  C   C106      1.0  0.35297  0.16518  0.58832  1.0000
  C   C107      1.0  0.31953  0.18729  0.58425  1.0000
  C   C108      1.0  0.28739  0.18307  0.56820  1.0000
  C   C109      1.0  0.28984  0.15662  0.55592  1.0000
  C   C110      1.0  0.32331  0.13452  0.55999  1.0000
  H   H94       1.0  0.03203  0.00432  0.52785  1.0000
  H   H95       1.0  0.31827  0.20762  0.59382  1.0000
  H   H96       1.0  0.26546  0.15292  0.54355  1.0000
  H   H97       1.0  0.32448  0.11407  0.55052  1.0000
  H   H98       1.0  0.36414  0.04389  0.37016  1.0000
  C   C111      1.0  0.27392  0.27621  0.53287  1.0000
  C   C112      1.0  0.26143  0.29771  0.51776  1.0000
  C   C113      1.0  0.28375  0.29870  0.49850  1.0000
  C   C114      1.0  0.31853  0.27818  0.49432  1.0000
  C   C115      1.0  0.33139  0.25649  0.50945  1.0000
  C   C116      1.0  0.30846  0.25555  0.52869  1.0000
  P   P4        1.0  0.37288  0.22771  0.50334  1.0000
  C   C117      1.0  0.34366  0.19568  0.49191  1.0000
  C   C118      1.0  0.41394  0.24340  0.48543  1.0000
  C   C119      1.0  0.40382  0.24622  0.46393  1.0000
  C   C120      1.0  0.43512  0.25817  0.44992  1.0000
  H   H99       1.0  0.02495  0.31092  0.35388  1.0000
  Fe  Fe16      1.0  0.45834  0.10731  0.60243  1.0000
  C   C121      1.0  0.45604  0.25318  0.49273  1.0000
  C   C122      1.0  0.36188  0.17954  0.47486  1.0000
  C   C123      1.0  0.33739  0.15632  0.46517  1.0000
  C   C124      1.0  0.29519  0.14842  0.47280  1.0000
  C   C125      1.0  0.27790  0.16319  0.49049  1.0000
  C   C126      1.0  0.30202  0.18671  0.50004  1.0000
  C   C127      1.0  0.40061  0.21538  0.52717  1.0000
  C   C128      1.0  0.41258  0.18470  0.52995  1.0000
  C   C129      1.0  0.43401  0.17531  0.54845  1.0000
  C   C130      1.0  0.44333  0.19637  0.56435  1.0000
  C   C131      1.0  0.43166  0.22696  0.56165  1.0000
  C   C132      1.0  0.41070  0.23650  0.54309  1.0000
  H   H100      1.0  0.25576  0.27477  0.54758  1.0000
  H   H101      1.0  0.23371  0.31308  0.52081  1.0000
  H   H102      1.0  0.27343  0.31497  0.48662  1.0000
  H   H103      1.0  0.33454  0.27906  0.47913  1.0000
  H   H104      1.0  0.31630  0.23829  0.54030  1.0000
  H   H105      1.0  0.37176  0.23892  0.45789  1.0000
  H   H106      1.0  0.42684  0.25975  0.43330  1.0000
  H   H107      1.0  0.42784  0.97612  0.40516  1.0000
  H   H108      1.0  0.12159  0.31473  0.41175  1.0000
  H   H109      1.0  0.46496  0.25146  0.50918  1.0000
  H   H110      1.0  0.39442  0.18526  0.46859  1.0000
  H   H111      1.0  0.35054  0.14520  0.45127  1.0000
  H   H112      1.0  0.27548  0.13143  0.46465  1.0000
  H   H113      1.0  0.24486  0.15745  0.49626  1.0000
  H   H114      1.0  0.28749  0.19823  0.51345  1.0000
  H   H115      1.0  0.40499  0.16787  0.51800  1.0000
  H   H116      1.0  0.44222  0.15145  0.55076  1.0000
  C   C133      1.0  0.02370  0.02044  0.55960  1.0000
  H   H117      1.0  0.37879  0.37560  0.33263  1.0000
  H   H118      1.0  0.40190  0.26029  0.54123  1.0000
  H   H119      1.0  0.45874  0.18874  0.57889  1.0000
  C   C134      1.0  0.02775  0.12073  0.51645  1.0000
  C   C135      1.0  0.14573  0.14282  0.58226  1.0000
  H   H120      1.0  0.24234  0.17219  0.36587  1.0000
  C   C136      1.0  0.36473  0.47166  0.30424  1.0000
  C   C137      1.0  0.24275  0.00023  0.58476  1.0000
  C   C138      1.0  0.45259  0.08447  0.34876  1.0000
  C   C139      1.0  0.03508  0.13520  0.41695  1.0000
  H   H121      1.0  0.28337  0.44363  0.31229  1.0000
  H   H122      1.0  0.10121  0.15716  0.37267  1.0000
  C   C140      1.0  0.20457  0.21008  0.37795  1.0000
  C   C141      1.0  0.47290  0.43041  0.31314  1.0000
  C   C142      1.0  0.04295  0.03662  0.57625  1.0000
  C   C143      1.0  0.01412  0.11148  0.36455  1.0000
  C   C144      1.0  0.12483  0.20171  0.38174  1.0000
  H   H123      1.0  0.02459  0.03959  0.59078  1.0000
  H   H124      1.0  0.23370  0.22466  0.37853  1.0000
  C   C145      1.0  0.05677  0.29934  0.35199  1.0000
  C   C146      1.0  0.03713  0.15481  0.45262  1.0000
  C   C147      1.0  0.37970  0.47435  0.28340  1.0000
  C   C148      1.0  0.48732  0.26535  0.47869  1.0000
  H   H125      1.0  0.09159  0.21009  0.38534  1.0000
  C   C149      1.0  0.05681  0.15174  0.43282  1.0000
  H   H126      1.0  0.05458  0.16714  0.46498  1.0000
  H   H127      1.0  0.10020  0.06151  0.58724  1.0000
  C   C150      1.0  0.45844  0.37032  0.35770  1.0000
  C   C151      1.0  0.34492  0.38261  0.32884  1.0000
  C   C152      1.0  0.11435  0.27872  0.32933  1.0000
  C   C153      1.0  0.12542  0.26567  0.41458  1.0000
  C   C154      1.0  0.11469  0.29516  0.42157  1.0000
  C   C155      1.0  0.29156  0.42084  0.31742  1.0000
  C   C156      1.0  0.12209  0.27465  0.36733  1.0000
  C   C157      1.0  0.35164  0.02081  0.37132  1.0000
  H   H128      1.0  0.11930  0.15976  0.58313  1.0000
  C   C158      1.0  0.25712  0.39931  0.31872  1.0000
  C   C159      1.0  0.11890  0.24092  0.42823  1.0000
  C   C160      1.0  0.10900  0.04631  0.55507  1.0000
  C   C161      1.0  0.08994  0.02927  0.53862  1.0000
  P   P5        1.0  0.16490  0.06138  0.55251  1.0000
  C   C162      1.0  0.17311  0.09430  0.56906  1.0000
  C   C163      1.0  0.20223  0.03036  0.55885  1.0000
  C   C164      1.0  0.21408  0.02447  0.57985  1.0000
  H   H129      1.0  0.00109  0.06315  0.43738  1.0000
  C   C165      1.0  0.28942  0.98578  0.37369  1.0000
  H   H130      1.0  0.05960  0.47539  0.54078  1.0000
  C   C166      1.0  0.21751  0.01073  0.54296  1.0000
  C   C167      1.0  0.21497  0.10020  0.57837  1.0000
  C   C168      1.0  0.22160  0.12683  0.59005  1.0000
  C   C169      1.0  0.18716  0.14827  0.59183  1.0000
  C   C170      1.0  0.07359  0.29397  0.33181  1.0000
  C   C171      1.0  0.13874  0.11598  0.57089  1.0000
  C   C172      1.0  0.17429  0.07587  0.52637  1.0000
  C   C173      1.0  0.13852  0.08769  0.51453  1.0000
  C   C174      1.0  0.14619  0.10062  0.49477  1.0000
  C   C175      1.0  0.18965  0.10201  0.48678  1.0000
  C   C176      1.0  0.22557  0.09067  0.49864  1.0000
  C   C177      1.0  0.21803  0.07804  0.51850  1.0000
  H   H131      1.0  0.17651  0.13826  0.36276  1.0000
  C   C178      1.0  0.47804  0.24708  0.61318  1.0000
  C   C179      1.0  0.38154  0.99627  0.37069  1.0000
  H   H132      1.0  0.10773  0.02602  0.52397  1.0000
  C   C180      1.0  0.04344  0.10513  0.34798  1.0000
  C   C181      1.0  0.08886  0.27484  0.45480  1.0000
  S   S30       1.0  0.39585  0.10934  0.58095  1.0000
  H   H133      1.0  0.15949  0.21878  0.29941  1.0000
  H   H134      1.0  0.20735  0.01413  0.52676  1.0000
  H   H135      1.0  0.24299  0.08486  0.57619  1.0000
  H   H136      1.0  0.25414  0.13150  0.59698  1.0000
  C   C182      1.0  0.17248  0.16109  0.36898  1.0000
  H   H137      1.0  0.08833  0.32244  0.44699  1.0000
  H   H138      1.0  0.10689  0.11257  0.56303  1.0000
  H   H139      1.0  0.10490  0.08763  0.52078  1.0000
  H   H140      1.0  0.11859  0.11034  0.48587  1.0000
  H   H141      1.0  0.19545  0.11266  0.47164  1.0000
  H   H142      1.0  0.25942  0.09230  0.49270  1.0000
  H   H143      1.0  0.24640  0.07053  0.52785  1.0000
  H   H144      1.0  0.08656  0.07181  0.33364  1.0000
  H   H145      1.0  0.07231  0.03262  0.36097  1.0000
  H   H146      1.0  0.25258  0.99621  0.60097  1.0000
  C   C183      1.0  0.30563  0.01559  0.37289  1.0000
  H   H147      1.0  0.24014  0.35264  0.32569  1.0000
  C   C184      1.0  0.31053  0.36115  0.33003  1.0000
  H   H148      1.0  0.38906  0.38947  0.29000  1.0000
  C   C185      1.0  0.13846  0.26902  0.34699  1.0000
  C   C186      1.0  0.00527  0.08931  0.37994  1.0000
  H   H149      1.0  0.08950  0.16171  0.42999  1.0000
  C   C187      1.0  0.08566  0.04927  0.57410  1.0000
  H   H150      1.0  0.36608  0.41745  0.36369  1.0000
  C   C188      1.0  0.24615  0.98650  0.54791  1.0000
  H   H151      1.0  0.16989  0.25694  0.34473  1.0000
  C   C189      1.0  0.06432  0.07672  0.34671  1.0000
  H   H152      1.0  0.07538  0.27841  0.47046  1.0000
  C   C190      1.0  0.38484  0.43846  0.36447  1.0000
  C   C191      1.0  0.05620  0.05469  0.36210  1.0000
  H   H153      1.0  0.05166  0.13258  0.40198  1.0000
  C   C192      1.0  0.20965  0.18020  0.37073  1.0000
  H   H154      1.0  0.22464  0.25638  0.42057  1.0000
  C   C193      1.0  0.14845  0.14142  0.30126  1.0000
  H   H155      1.0  0.12735  0.27412  0.31373  1.0000
  C   C194      1.0  0.25903  0.98137  0.56878  1.0000
  C   C195      1.0  0.26662  0.36946  0.32496  1.0000
  P   P6        1.0  0.15358  0.26078  0.38966  1.0000
  H   H156      1.0  0.25365  0.98175  0.37433  1.0000
  C   C196      1.0  0.20601  0.28082  0.39243  1.0000
  C   C197      1.0  0.21846  0.30403  0.37841  1.0000
  C   C198      1.0  0.25882  0.31970  0.38136  1.0000
  C   C199      1.0  0.28698  0.31227  0.39822  1.0000
  C   C200      1.0  0.27449  0.28946  0.41234  1.0000
  C   C201      1.0  0.23402  0.27398  0.40954  1.0000
  H   H157      1.0  0.02232  0.09172  0.48918  1.0000
  C   C202      1.0  0.13827  0.17187  0.29671  1.0000
  H   H158      1.0  0.20142  0.03871  0.59244  1.0000
  H   H159      1.0  0.19310  0.16953  0.60005  1.0000
  H   H160      1.0  0.01489  0.29609  0.55003  1.0000
  C   C203      1.0  0.16212  0.22105  0.38357  1.0000
  C   C204      1.0  0.39648  0.45424  0.34609  1.0000
  H   H161      1.0  0.41704  0.00076  0.36869  1.0000
  H   H162      1.0  0.29675  0.28312  0.42512  1.0000
  C   C205      1.0  0.42901  0.42101  0.30847  1.0000
  C   C206      1.0  0.00868  0.31684  0.54134  1.0000
  C   C207      1.0  0.39846  0.44933  0.38419  1.0000
  C   C208      1.0  0.02692  0.06094  0.37873  1.0000
  C   C209      1.0  0.47688  0.26779  0.45729  1.0000
  P   P7        1.0  0.38134  0.43971  0.32039  1.0000
  H   H163      1.0  0.02091  0.04349  0.39039  1.0000
  H   H164      1.0  0.43811  0.24326  0.57404  1.0000
  H   H165      1.0  0.12949  0.21816  0.42397  1.0000
  H   H166      1.0  0.33409  0.27578  0.61368  1.0000
  C   C210      1.0  0.33589  0.41257  0.32234  1.0000
  H   H167      1.0  0.04980  0.12200  0.33587  1.0000
  H   H168      1.0  0.31824  0.33793  0.33470  1.0000
  C   C211      1.0  0.04726  0.01665  0.54083  1.0000
  H   H169      1.0  0.05494  0.30141  0.31808  1.0000
  H   H170      1.0  0.06662  0.29335  0.38513  1.0000
  H   H171      1.0  0.09571  0.22644  0.45869  1.0000
  C   C212      1.0  0.45918  0.38153  0.28563  1.0000
  H   H172      1.0  0.10768  0.17731  0.28833  1.0000
  S   S31       1.0  0.11240  0.11052  0.29409  1.0000
  H   H173      1.0  0.47939  0.44898  0.32389  1.0000
  C   C213      1.0  0.47795  0.13488  0.33860  1.0000
  C   C214      1.0  0.99551  0.14150  0.45656  1.0000
  C   C215      1.0  0.99327  0.12159  0.42077  1.0000
  C   C216      1.0  0.23537  0.24771  0.63145  1.0000
  C   C217      1.0  0.33909  0.34430  0.64137  1.0000
  Fe  Fe17      1.0  0.45717  0.35513  0.75867  1.0000
  S   S32       1.0  0.39431  0.35824  0.77975  1.0000
  H   H174      1.0  0.36311  0.19594  0.89806  1.0000
  S   S33       1.0  0.45888  0.34181  0.72433  1.0000
  H   H175      1.0  0.99649  0.27075  0.92561  1.0000
  H   H176      1.0  0.99386  0.36792  0.88791  1.0000
  H   H177      1.0  0.32055  0.32828  0.93322  1.0000
  Fe  Fe18      1.0  0.09642  0.27718  0.84014  1.0000
  S   S34       1.0  0.12397  0.23958  0.81957  1.0000
  S   S35       1.0  0.04388  0.30903  0.82607  1.0000
  Fe  Fe19      1.0  0.15735  0.26006  0.87659  1.0000
  S   S36       1.0  0.18882  0.22138  0.85889  1.0000
  S   S37       1.0  0.17332  0.27666  0.90963  1.0000
  Fe  Fe20      1.0  0.19207  0.25420  0.83155  1.0000
  S   S38       1.0  0.25432  0.25618  0.81020  1.0000
  Fe  Fe21      1.0  0.11813  0.20977  0.84834  1.0000
  S   S39       1.0  0.09871  0.15879  0.84863  1.0000
  S   S40       1.0  0.16470  0.29342  0.85003  1.0000
  S   S41       1.0  0.08670  0.24665  0.86815  1.0000
  C   C218      1.0  0.21779  0.26011  0.92411  1.0000
  C   C219      1.0  0.42403  0.25668  0.84089  1.0000
  C   C220      1.0  0.27773  0.22307  0.92777  1.0000
  C   C221      1.0  0.24305  0.23616  0.91581  1.0000
  C   C222      1.0  0.02982  0.46668  0.81343  1.0000
  H   H178      1.0  0.23608  0.22782  0.90015  1.0000
  H   H179      1.0  0.07137  0.12132  0.89740  1.0000
  C   C223      1.0  0.05054  0.10500  0.84762  1.0000
  C   C224      1.0  0.04799  0.13706  0.84674  1.0000
  C   C225      1.0  0.41133  0.24087  0.63422  1.0000
  H   H180      1.0  0.08296  0.09421  0.84933  1.0000
  C   C226      1.0  0.15502  0.17218  0.90554  1.0000
  C   C227      1.0  0.45678  0.16021  0.88604  1.0000
  C   C228      1.0  0.32068  0.17205  0.87666  1.0000
  C   C229      1.0  0.30867  0.26911  0.62487  1.0000
  C   C230      1.0  0.07411  0.98378  0.77801  1.0000
  C   C231      1.0  0.35620  0.32939  0.78838  1.0000
  C   C232      1.0  0.35898  0.29926  0.78135  1.0000
  C   C233      1.0  0.32770  0.27732  0.78827  1.0000
  C   C234      1.0  0.29326  0.28501  0.80243  1.0000
  C   C235      1.0  0.29108  0.31501  0.80988  1.0000
  C   C236      1.0  0.32220  0.33701  0.80283  1.0000
  H   H181      1.0  0.38528  0.29288  0.77057  1.0000
  H   H182      1.0  0.33012  0.25419  0.78251  1.0000
  H   H183      1.0  0.26553  0.32124  0.82108  1.0000
  H   H184      1.0  0.32009  0.36007  0.80872  1.0000
  H   H185      1.0  0.44457  0.20425  0.61798  1.0000
  C   C237      1.0  0.46679  0.25345  0.89405  1.0000
  H   H186      1.0  0.40132  0.12895  0.88638  1.0000
  C   C238      1.0  0.10258  0.42606  0.81619  1.0000
  C   C239      1.0  0.13189  0.19390  0.91731  1.0000
  H   H187      1.0  0.43166  0.22481  0.94938  1.0000
  C   C240      1.0  0.28235  0.26350  0.66069  1.0000
  H   H188      1.0  0.21827  0.41607  0.84903  1.0000
  H   H189      1.0  0.22653  0.37546  0.79310  1.0000
  H   H190      1.0  0.10681  0.29178  0.77167  1.0000
  C   C241      1.0  0.31598  0.27253  0.64662  1.0000
  H   H191      1.0  0.48869  0.01924  0.70968  1.0000
  H   H192      1.0  0.17873  0.36279  0.90244  1.0000
  H   H193      1.0  0.45229  0.31188  0.80576  1.0000
  H   H194      1.0  0.18957  0.17613  0.90116  1.0000
  H   H195      1.0  0.02441  0.21375  0.89613  1.0000
  C   C242      1.0  0.01168  0.08666  0.84616  1.0000
  C   C243      1.0  0.00565  0.15052  0.84452  1.0000
  H   H196      1.0  0.05479  0.00200  0.77088  1.0000
  C   C244      1.0  0.09997  0.44737  0.79973  1.0000
  H   H197      1.0  0.06928  0.20692  0.93098  1.0000
  H   H198      1.0  0.12544  0.44802  0.78766  1.0000
  C   C245      1.0  0.03145  0.44508  0.82951  1.0000
  C   C246      1.0  0.06510  0.27570  0.93555  1.0000
  H   H199      1.0  0.41556  0.34401  0.83251  1.0000
  H   H200      1.0  0.07710  0.38470  0.78701  1.0000
  C   C247      1.0  0.06757  0.42481  0.83092  1.0000
  H   H201      1.0  0.23106  0.39934  0.88562  1.0000
  C   C248      1.0  0.13712  0.35852  0.87497  1.0000
  C   C249      1.0  0.28761  0.23382  0.94806  1.0000
  C   C250      1.0  0.34623  0.19711  0.88307  1.0000
  C   C251      1.0  0.06439  0.16302  0.91545  1.0000
  C   C252      1.0  0.08791  0.14130  0.90360  1.0000
  C   C253      1.0  0.13308  0.14586  0.89876  1.0000
  H   H202      1.0  0.45747  0.25605  0.81082  1.0000
  H   H203      1.0  0.22162  0.45530  0.89907  1.0000
  C   C254      1.0  0.40141  0.37697  0.66536  1.0000
  H   H204      1.0  0.29446  0.39945  0.77952  1.0000
  H   H205      1.0  0.07730  0.28056  0.91984  1.0000
  H   H206      1.0  0.31779  0.15236  0.88681  1.0000
  S   S42       1.0  0.46288  0.11902  0.63688  1.0000
  C   C255      1.0  0.01965  0.27010  0.93879  1.0000
  H   H207      1.0  0.10296  0.35732  0.84523  1.0000
  H   H208      1.0  0.42446  0.24005  0.67683  1.0000
  H   H209      1.0  0.18951  0.33899  0.81613  1.0000
  H   H210      1.0  0.17241  0.29277  0.79568  1.0000
  H   H211      1.0  0.31475  0.33214  0.63194  1.0000
  H   H212      1.0  0.03649  0.32634  0.87039  1.0000
  C   C256      1.0  0.19521  0.40015  0.85609  1.0000
  C   C257      1.0  0.47865  0.27814  0.61796  1.0000
  C   C258      1.0  0.06402  0.46780  0.79852  1.0000
  H   H213      1.0  0.11501  0.34197  0.88213  1.0000
  H   H214      1.0  0.41818  0.10946  0.92197  1.0000
  H   H215      1.0  0.15040  0.12962  0.88883  1.0000
  H   H216      1.0  0.21649  0.24405  0.66401  1.0000
  C   C259      1.0  0.44208  0.27006  0.82284  1.0000
  C   C260      1.0  0.43947  0.12684  0.91521  1.0000
  H   H217      1.0  0.18408  0.46190  0.81893  1.0000
  C   C261      1.0  0.37145  0.39245  0.65224  1.0000
  H   H218      1.0  0.47722  0.26209  0.87891  1.0000
  C   C262      1.0  0.34034  0.37612  0.64023  1.0000
  C   C263      1.0  0.36892  0.32862  0.65466  1.0000
  C   C264      1.0  0.40038  0.34520  0.66651  1.0000
  P   P8        1.0  0.36881  0.28752  0.65603  1.0000
  C   C265      1.0  0.24602  0.46174  0.80185  1.0000
  C   C266      1.0  0.27729  0.44423  0.79085  1.0000
  H   H219      1.0  0.34803  0.29928  0.73277  1.0000
  C   C267      1.0  0.08684  0.18938  0.92230  1.0000
  C   C268      1.0  0.43931  0.30154  0.81998  1.0000
  C   C269      1.0  0.37773  0.27693  0.68323  1.0000
  C   C270      1.0  0.35643  0.29350  0.69929  1.0000
  C   C271      1.0  0.36395  0.28613  0.72042  1.0000
  C   C272      1.0  0.39265  0.26213  0.72567  1.0000
  C   C273      1.0  0.41372  0.24546  0.70982  1.0000
  C   C274      1.0  0.40664  0.25289  0.68868  1.0000
  H   H220      1.0  0.42554  0.38964  0.67468  1.0000
  C   C275      1.0  0.44431  0.22849  0.62124  1.0000
  H   H221      1.0  0.38567  0.22603  0.64050  1.0000
  H   H222      1.0  0.27925  0.45996  0.87120  1.0000
  H   H223      1.0  0.42420  0.33361  0.67666  1.0000
  H   H224      1.0  0.30731  0.45466  0.78458  1.0000
  H   H225      1.0  0.20445  0.23793  0.62553  1.0000
  H   H226      1.0  0.05938  0.33784  0.76747  1.0000
  H   H227      1.0  0.33433  0.31233  0.69552  1.0000
  H   H228      1.0  0.14856  0.21466  0.92206  1.0000
  H   H229      1.0  0.39912  0.25664  0.74201  1.0000
  C   C276      1.0  0.11734  0.97725  0.77086  1.0000
  H   H230      1.0  0.44746  0.31457  0.63487  1.0000
  C   C277      1.0  0.17324  0.37019  0.88637  1.0000
  C   C278      1.0  0.42982  0.13780  0.89504  1.0000
  C   C279      1.0  0.42129  0.24828  0.89838  1.0000
  C   C280      1.0  0.44176  0.23242  0.93385  1.0000
  P   P9        1.0  0.37826  0.25708  0.87907  1.0000
  C   C281      1.0  0.40282  0.27475  0.85616  1.0000
  C   C282      1.0  0.34868  0.22328  0.87039  1.0000
  C   C283      1.0  0.13028  0.36733  0.85407  1.0000
  H   H231      1.0  0.43651  0.22719  0.71400  1.0000
  C   C284      1.0  0.29803  0.17263  0.85740  1.0000
  C   C285      1.0  0.30114  0.19819  0.84447  1.0000
  C   C286      1.0  0.32615  0.22342  0.85093  1.0000
  C   C287      1.0  0.40046  0.30644  0.85322  1.0000
  C   C288      1.0  0.41853  0.31969  0.83514  1.0000
  P   P10       1.0  0.00525  0.15847  0.92073  1.0000
  C   C289      1.0  0.40918  0.23783  0.91845  1.0000
  C   C290      1.0  0.23114  0.39953  0.79578  1.0000
  C   C291      1.0  0.33784  0.28325  0.89020  1.0000
  C   C292      1.0  0.34641  0.29821  0.90938  1.0000
  C   C293      1.0  0.31446  0.31780  0.91804  1.0000
  C   C294      1.0  0.27434  0.32335  0.90737  1.0000
  C   C295      1.0  0.26630  0.30959  0.88792  1.0000
  C   C296      1.0  0.29771  0.28948  0.87938  1.0000
  C   C297      1.0  0.41206  0.27196  0.63939  1.0000
  C   C298      1.0  0.24222  0.25116  0.65309  1.0000
  H   H232      1.0  0.29694  0.20445  0.92131  1.0000
  C   C299      1.0  0.20755  0.44811  0.81010  1.0000
  H   H233      1.0  0.27760  0.15347  0.85252  1.0000
  H   H234      1.0  0.28323  0.19884  0.82958  1.0000
  H   H235      1.0  0.32715  0.24321  0.84076  1.0000
  H   H236      1.0  0.38418  0.32096  0.86464  1.0000
  H   H237      1.0  0.00425  0.44379  0.84075  1.0000
  H   H238      1.0  0.28700  0.26565  0.67751  1.0000
  C   C300      1.0  0.19939  0.41693  0.80687  1.0000
  H   H239      1.0  0.37425  0.23482  0.92245  1.0000
  H   H240      1.0  0.37742  0.29480  0.91788  1.0000
  H   H241      1.0  0.37250  0.41710  0.65141  1.0000
  H   H242      1.0  0.24903  0.33775  0.91440  1.0000
  H   H243      1.0  0.23493  0.31369  0.87979  1.0000
  H   H244      1.0  0.29032  0.27879  0.86442  1.0000
  H   H245      1.0  0.47904  0.45742  0.71683  1.0000
  C   C301      1.0  0.20250  0.39083  0.87689  1.0000
  H   H246      1.0  0.06730  0.40799  0.84332  1.0000
  C   C302      1.0  0.26995  0.41313  0.78792  1.0000
  C   C303      1.0  0.15182  0.31296  0.79376  1.0000
  C   C304      1.0  0.11511  0.31250  0.78008  1.0000
  C   C305      1.0  0.08848  0.33850  0.77769  1.0000
  C   C306      1.0  0.09856  0.36503  0.78895  1.0000
  C   C307      1.0  0.13520  0.36557  0.80289  1.0000
  C   C308      1.0  0.16147  0.33924  0.80530  1.0000
  P   P11       1.0  0.14925  0.39959  0.81749  1.0000
  C   C309      1.0  0.15886  0.38849  0.84453  1.0000
  H   H247      1.0  0.42589  0.23220  0.84273  1.0000
  H   H248      1.0  0.00288  0.17505  0.84379  1.0000
  C   C310      1.0  0.22761  0.27089  0.94444  1.0000
  C   C311      1.0  0.44593  0.29057  0.63112  1.0000
  C   C312      1.0  0.01627  0.34181  0.86113  1.0000
  H   H249      1.0  0.02933  0.44209  0.87984  1.0000
  H   H250      1.0  0.13152  0.99043  0.75813  1.0000
  H   H251      1.0  0.01450  0.06213  0.84683  1.0000
  C   C313      1.0  0.01393  0.33819  0.83929  1.0000
  C   C314      1.0  0.48607  0.46674  0.70145  1.0000
  C   C315      1.0  0.47615  0.13834  0.92662  1.0000
  C   C316      1.0  0.26854  0.25674  0.61735  1.0000
  H   H252      1.0  0.44896  0.16888  0.87047  1.0000
  C   C317      1.0  0.48686  0.23772  0.92946  1.0000
  H   H253      1.0  0.09441  0.47010  0.86573  1.0000
  H   H254      1.0  0.31713  0.38816  0.63004  1.0000
  C   C318      1.0  0.03354  0.46613  0.88326  1.0000
  C   C319      1.0  0.24896  0.47359  0.87044  1.0000
  C   C320      1.0  0.21654  0.47094  0.88610  1.0000
  C   C321      1.0  0.99301  0.17363  0.94652  1.0000
  C   C322      1.0  0.08841  0.74442  0.16104  1.0000
  S   S43       1.0  0.04162  0.61536  0.22451  1.0000
  C   C323      1.0  0.45226  0.94268  0.10055  1.0000
  S   S44       1.0  0.03585  0.52436  0.22596  1.0000
  S   S45       1.0  0.03275  0.88528  0.10271  1.0000
  Fe  Fe22      1.0  0.06589  0.83948  0.10713  1.0000
  S   S46       1.0  0.12431  0.82913  0.08453  1.0000
  H   H255      1.0  0.08010  0.81128  0.24062  1.0000
  C   C324      1.0  0.44113  0.80043  0.08541  1.0000
  S   S47       1.0  0.07451  0.84711  0.14183  1.0000
  C   C325      1.0  0.20161  0.66897  0.12894  1.0000
  Fe  Fe23      1.0  0.42496  0.74528  0.03351  1.0000
  S   S48       1.0  0.40116  0.70679  0.05432  1.0000
  C   C326      1.0  0.20150  0.77657  0.25352  1.0000
  Fe  Fe24      1.0  0.35347  0.73234  0.00037  1.0000
  S   S49       1.0  0.32585  0.69256  0.01822  1.0000
  S   S50       1.0  0.32657  0.75528  0.97085  1.0000
  Fe  Fe25      1.0  0.33091  0.72334  0.04660  1.0000
  S   S51       1.0  0.27313  0.72519  0.07064  1.0000
  Fe  Fe26      1.0  0.39830  0.67897  0.02450  1.0000
  S   S52       1.0  0.41948  0.62844  0.02019  1.0000
  S   S53       1.0  0.35546  0.76370  0.02838  1.0000
  S   S54       1.0  0.42505  0.71678  0.00408  1.0000
  H   H256      1.0  0.10210  0.65749  0.20179  1.0000
  C   C327      1.0  0.24880  0.80039  0.22736  1.0000
  C   C328      1.0  0.17504  0.64639  0.13836  1.0000
  H   H257      1.0  0.08348  0.76186  0.17286  1.0000
  C   C329      1.0  0.16659  0.80047  0.08186  1.0000
  C   C330      1.0  0.20036  0.80446  0.06669  1.0000
  C   C331      1.0  0.23303  0.78177  0.06300  1.0000
  C   C332      1.0  0.23275  0.75473  0.07464  1.0000
  C   C333      1.0  0.19929  0.75085  0.09000  1.0000
  C   C334      1.0  0.16649  0.77354  0.09361  1.0000
  H   H258      1.0  0.20100  0.82520  0.05758  1.0000
  H   H259      1.0  0.25832  0.78517  0.05109  1.0000
  H   H260      1.0  0.19843  0.73000  0.09903  1.0000
  H   H261      1.0  0.14085  0.77008  0.10528  1.0000
  C   C335      1.0  0.09183  0.62877  0.16130  1.0000
  C   C336      1.0  0.10052  0.60114  0.17175  1.0000
  C   C337      1.0  0.13829  0.65927  0.20253  1.0000
  H   H262      1.0  0.19907  0.69249  0.13391  1.0000
  H   H263      1.0  0.10466  0.68198  0.11862  1.0000
  C   C338      1.0  0.11333  0.77217  0.22671  1.0000
  C   C339      1.0  0.01668  0.49932  0.20577  1.0000
  C   C340      1.0  0.15938  0.66118  0.22217  1.0000
  H   H264      1.0  0.07320  0.55830  0.18236  1.0000
  C   C341      1.0  0.10028  0.69927  0.13062  1.0000
  C   C342      1.0  0.05011  0.74756  0.01104  1.0000
  H   H265      1.0  0.28848  0.80515  0.00214  1.0000
  C   C343      1.0  0.16368  0.65971  0.18398  1.0000
  C   C344      1.0  0.26924  0.71015  0.95634  1.0000
  H   H266      1.0  0.18026  0.86431  0.02048  1.0000
  H   H267      1.0  0.07378  0.73219  0.10866  1.0000
  H   H268      1.0  0.43941  0.56521  0.01205  1.0000
  H   H269      1.0  0.23098  0.66203  0.17139  1.0000
  C   C345      1.0  0.07993  0.78582  0.96803  1.0000
  C   C346      1.0  0.16160  0.81899  0.01099  1.0000
  H   H270      1.0  0.43441  0.81896  0.02212  1.0000
  H   H271      1.0  0.99905  0.91949  0.18410  1.0000
  C   C347      1.0  0.15869  0.70075  0.98644  1.0000
  H   H272      1.0  0.32854  0.54101  0.27000  1.0000
  C   C348      1.0  0.41186  0.77598  0.08790  1.0000
  H   H273      1.0  0.35850  0.93116  0.00586  1.0000
  C   C349      1.0  0.21051  0.66210  0.18539  1.0000
  H   H274      1.0  0.13961  0.66034  0.23645  1.0000
  H   H275      1.0  0.35674  0.92517  0.04450  1.0000
  H   H276      1.0  0.25132  0.67901  0.10534  1.0000
  C   C350      1.0  0.08279  0.72766  0.12490  1.0000
  C   C351      1.0  0.35603  0.90512  0.03457  1.0000
  C   C352      1.0  0.36673  0.49934  0.27115  1.0000
  H   H277      1.0  0.23526  0.76423  0.99487  1.0000
  H   H278      1.0  0.44769  0.87459  0.01716  1.0000
  H   H279      1.0  0.10744  0.91767  0.20254  1.0000
  H   H280      1.0  0.35392  0.82765  0.03688  1.0000
  H   H281      1.0  0.27844  0.69727  0.97022  1.0000
  P   P12       1.0  0.13728  0.76060  0.99821  1.0000
  C   C353      1.0  0.18001  0.67264  0.98931  1.0000
  P   P13       1.0  0.13577  0.65681  0.15876  1.0000
  C   C354      1.0  0.23880  0.77260  0.26665  1.0000
  C   C355      1.0  0.99947  0.95712  0.20614  1.0000
  H   H282      1.0  0.17373  0.90591  0.22481  1.0000
  H   H283      1.0  0.11280  0.71192  0.18321  1.0000
  C   C356      1.0  0.07712  0.75030  0.14010  1.0000
  H   H284      1.0  0.22211  0.66552  0.23875  1.0000
  H   H285      1.0  0.25330  0.81093  0.21210  1.0000
  C   C357      1.0  0.43344  0.90687  0.07298  1.0000
  H   H286      1.0  0.25824  0.62549  0.09353  1.0000
  H   H287      1.0  0.45644  0.62714  0.96726  1.0000
  H   H288      1.0  0.21210  0.74007  0.20440  1.0000
  H   H289      1.0  0.23010  0.68607  0.03663  1.0000
  H   H290      1.0  0.37858  0.50138  0.25512  1.0000
  C   C358      1.0  0.23146  0.66443  0.20508  1.0000
  C   C359      1.0  0.20596  0.66738  0.00732  1.0000
  H   H291      1.0  0.31870  0.80439  0.23572  1.0000
  H   H292      1.0  0.22297  0.64576  0.00946  1.0000
  C   C360      1.0  0.46543  0.82917  0.02726  1.0000
  C   C361      1.0  0.04874  0.73792  0.24835  1.0000
  C   C362      1.0  0.41126  0.93680  0.11029  1.0000
  C   C363      1.0  0.35694  0.88297  0.99963  1.0000
  H   H293      1.0  0.15875  0.62694  0.27042  1.0000
  C   C364      1.0  0.99690  0.74398  0.19702  1.0000
  H   H294      1.0  0.21219  0.58520  0.11021  1.0000
  C   C365      1.0  0.24810  0.86589  0.11104  1.0000
  C   C366      1.0  0.06233  0.77072  0.05165  1.0000
  H   H295      1.0  0.06348  0.77231  0.13577  1.0000
  C   C367      1.0  0.22272  0.78575  0.00083  1.0000
  C   C368      1.0  0.20622  0.79045  0.23369  1.0000
  C   C369      1.0  0.21016  0.69010  0.02259  1.0000
  H   H296      1.0  0.13829  0.70417  0.97254  1.0000
  H   H297      1.0  0.15915  0.59821  0.13841  1.0000
  C   C370      1.0  0.23796  0.83745  0.01202  1.0000
  C   C371      1.0  0.04418  0.95468  0.17428  1.0000
  H   H298      1.0  0.23515  0.76142  0.28177  1.0000
  H   H299      1.0  0.35705  0.83392  0.99837  1.0000
  C   C372      1.0  0.46849  0.57456  0.01990  1.0000
  C   C373      1.0  0.09157  0.76024  0.01674  1.0000
  C   C374      1.0  0.28094  0.78270  0.26026  1.0000
  H   H300      1.0  0.99320  0.75910  0.05675  1.0000
  H   H301      1.0  0.02318  0.78105  0.25910  1.0000
  Fe  Fe27      1.0  0.03664  0.89100  0.13788  1.0000
  C   C375      1.0  0.09129  0.87054  0.19712  1.0000
  H   H302      1.0  0.06289  0.87581  0.18707  1.0000
  C   C376      1.0  0.15421  0.88749  0.21811  1.0000
  C   C377      1.0  0.16689  0.85719  0.22161  1.0000
  C   C378      1.0  0.14172  0.83328  0.21285  1.0000
  C   C379      1.0  0.10309  0.84023  0.20105  1.0000
  P   P14       1.0  0.15910  0.79394  0.21579  1.0000
  C   C380      1.0  0.17793  0.77896  0.19068  1.0000
  C   C381      1.0  0.20395  0.75223  0.19005  1.0000
  C   C382      1.0  0.22069  0.74135  0.17092  1.0000
  C   C383      1.0  0.21165  0.75697  0.15223  1.0000
  C   C384      1.0  0.18615  0.78362  0.15267  1.0000
  C   C385      1.0  0.16962  0.79470  0.17176  1.0000
  S   S55       1.0  0.48834  0.77171  0.04205  1.0000
  C   C386      1.0  0.11336  0.74024  0.22545  1.0000
  C   C387      1.0  0.16408  0.72403  0.00140  1.0000
  C   C388      1.0  0.06667  0.57939  0.17396  1.0000
  C   C389      1.0  0.01507  0.61242  0.15537  1.0000
  C   C390      1.0  0.01278  0.94162  0.18776  1.0000
  H   H303      1.0  0.40268  0.94839  0.12476  1.0000
  H   H304      1.0  0.19630  0.85267  0.23110  1.0000
  H   H305      1.0  0.08289  0.82219  0.19426  1.0000
  H   H306      1.0  0.17671  0.65499  0.97751  1.0000
  H   H307      1.0  0.24125  0.72103  0.17059  1.0000
  H   H308      1.0  0.22480  0.74869  0.13740  1.0000
  H   H309      1.0  0.17928  0.79584  0.13817  1.0000
  H   H310      1.0  0.15069  0.81563  0.17142  1.0000
  H   H311      1.0  0.13906  0.72830  0.21686  1.0000
  H   H312      1.0  0.08101  0.69866  0.23522  1.0000
  C   C391      1.0  0.10522  0.71596  0.16687  1.0000
  H   H313      1.0  0.99423  0.70279  0.21560  1.0000
  C   C392      1.0  0.35438  0.85033  0.03032  1.0000
  S   S56       1.0  0.06415  0.93524  0.15166  1.0000
  H   H314      1.0  0.19345  0.73572  0.03161  1.0000
  C   C393      1.0  0.23135  0.66143  0.11280  1.0000
  C   C394      1.0  0.35525  0.87589  0.04353  1.0000
  C   C395      1.0  0.35580  0.85385  0.00845  1.0000
  C   C396      1.0  0.11187  0.69326  0.15167  1.0000
  C   C397      1.0  0.11899  0.76865  0.97165  1.0000
  H   H315      1.0  0.35867  0.88563  0.98271  1.0000
  H   H316      1.0  0.06721  0.77972  0.06739  1.0000
  H   H317      1.0  0.04042  0.65558  0.14559  1.0000
  C   C398      1.0  0.17914  0.61610  0.13153  1.0000
  C   C399      1.0  0.20918  0.60860  0.11547  1.0000
  C   C400      1.0  0.18939  0.71831  0.01966  1.0000
  Fe  Fe28      1.0  0.03245  0.63066  0.25810  1.0000
  C   C401      1.0  0.17681  0.79026  0.00441  1.0000
  C   C402      1.0  0.11671  0.89417  0.20569  1.0000
  C   C403      1.0  0.08098  0.72328  0.23611  1.0000
  C   C404      1.0  0.21294  0.87682  0.09859  1.0000
  H   H318      1.0  0.04518  0.73796  0.99550  1.0000
  C   C405      1.0  0.04873  0.63427  0.15319  1.0000
  H   H319      1.0  0.13330  0.59651  0.17840  1.0000
  C   C406      1.0  0.23517  0.63125  0.10608  1.0000
  H   H320      1.0  0.40704  0.79785  0.96134  1.0000
  C   C407      1.0  0.08043  0.78676  0.23891  1.0000
  H   H321      1.0  0.12991  0.77971  0.04244  1.0000
  C   C408      1.0  0.09777  0.77102  0.03734  1.0000
  C   C409      1.0  0.34895  0.80930  0.08067  1.0000
  C   C410      1.0  0.46332  0.92765  0.08191  1.0000
  H   H322      1.0  0.44275  0.89549  0.05852  1.0000
  C   C411      1.0  0.20590  0.66398  0.22346  1.0000
  H   H323      1.0  0.31320  0.81197  0.07840  1.0000
  H   H324      1.0  0.47991  0.97362  0.04425  1.0000
  H   H325      1.0  0.26761  0.66622  0.20613  1.0000
  C   C412      1.0  0.35687  0.90860  0.01269  1.0000
  C   C413      1.0  0.00521  0.96118  0.09824  1.0000
  C   C414      1.0  0.28591  0.79666  0.24065  1.0000
  H   H326      1.0  0.12617  0.82327  0.01319  1.0000
  C   C415      1.0  0.47319  0.86056  0.02439  1.0000
  H   H327      1.0  0.47561  0.95872  0.10742  1.0000
  Fe  Fe29      1.0  0.00622  0.82591  0.14506  1.0000
  H   H328      1.0  0.05983  0.79388  0.98105  1.0000
  H   H329      1.0  0.27003  0.89262  0.05384  1.0000
  H   H330      1.0  0.02425  0.72449  0.25680  1.0000
  C   C416      1.0  0.46805  0.60547  0.02603  1.0000
  C   C417      1.0  0.37813  0.83419  0.07849  1.0000
  H   H331      1.0  0.47700  0.79667  0.08636  1.0000
  H   H332      1.0  0.01058  0.75759  0.20961  1.0000
  C   C418      1.0  0.26463  0.88542  0.06989  1.0000
  P   P15       1.0  0.35623  0.87141  0.07176  1.0000
  C   C419      1.0  0.38156  0.91558  0.10155  1.0000
  C   C420      1.0  0.22116  0.88649  0.07803  1.0000
  H   H333      1.0  0.19344  0.89421  0.06833  1.0000
  C   C421      1.0  0.30024  0.87457  0.08234  1.0000
  S   S57       1.0  0.07745  0.66432  0.27647  1.0000
  C   C422      1.0  0.36580  0.78042  0.08556  1.0000
  H   H334      1.0  0.17905  0.87724  0.10472  1.0000
  H   H335      1.0  0.34325  0.76130  0.08715  1.0000
  C   C423      1.0  0.29158  0.86473  0.10297  1.0000
  C   C424      1.0  0.02401  0.58502  0.16572  1.0000
  H   H336      1.0  0.24140  0.85790  0.12683  1.0000
  C   C425      1.0  0.42449  0.82934  0.08052  1.0000
  C   C426      1.0  0.19216  0.84241  0.01496  1.0000
  H   H337      1.0  0.31840  0.85575  0.11270  1.0000
  H   H338      1.0  0.35031  0.91121  0.10950  1.0000
  H   H339      1.0  0.44826  0.84743  0.07792  1.0000
  C   C427      1.0  0.04828  0.76967  0.24966  1.0000
  C   C428      1.0  0.39264  0.90021  0.08288  1.0000
  H   H340      1.0  0.42508  0.75342  0.09104  1.0000
  H   H341      1.0  0.16937  0.76842  0.25894  1.0000
  S   S58       1.0  0.00431  0.58540  0.26852  1.0000
  C   C429      1.0  0.25315  0.80917  0.00481  1.0000
  C   C430      1.0  0.14601  0.76054  0.95449  1.0000
  H   H342      1.0  0.26153  0.85557  0.01519  1.0000
  Fe  Fe30      1.0  0.00808  0.57150  0.23420  1.0000
  H   H343      1.0  0.99682  0.87510  0.20769  1.0000
  S   S59       1.0  0.00055  0.79696  0.17462  1.0000
  H   H344      1.0  0.30978  0.77958  0.27050  1.0000
  H   H345      1.0  0.48710  0.49350  0.98500  1.0000
  C   C431      1.0  0.33859  0.52170  0.27955  1.0000
  H   H346      1.0  0.23780  0.63482  0.28165  1.0000
  C   C432      1.0  0.02070  0.75905  0.04565  1.0000
  S   S60       1.0  0.99930  0.81551  0.11039  1.0000
  H   H347      1.0  0.17757  0.74879  0.95695  1.0000
  H   H348      1.0  0.02956  0.95258  0.08712  1.0000
  C   C433      1.0  0.01469  0.74722  0.02541  1.0000
  C   C434      1.0  0.16766  0.64680  0.27959  1.0000
  C   C435      1.0  0.49169  0.62429  0.97095  1.0000
  C   C436      1.0  0.28790  0.73892  0.95301  1.0000
  H   H349      1.0  0.99772  0.56832  0.16759  1.0000
  H   H350      1.0  0.49190  0.66066  0.99370  1.0000
  H   H351      1.0  0.02508  0.64548  0.31735  1.0000
  S   S61       1.0  0.39722  0.60874  0.57938  1.0000
  H   H352      1.0  0.05838  0.62549  0.60086  1.0000
  C   C437      1.0  0.24891  0.59134  0.50069  1.0000
  Fe  Fe31      1.0  0.34205  0.74007  0.36977  1.0000
  S   S62       1.0  0.31977  0.75981  0.33869  1.0000
  S   S63       1.0  0.31381  0.75589  0.40102  1.0000
  Fe  Fe32      1.0  0.41723  0.70292  0.34965  1.0000
  S   S64       1.0  0.40036  0.71998  0.31724  1.0000
  H   H353      1.0  0.35280  0.77621  0.60003  1.0000
  Fe  Fe33      1.0  0.39398  0.76638  0.33254  1.0000
  S   S65       1.0  0.42172  0.81127  0.31911  1.0000
  Fe  Fe34      1.0  0.32776  0.71181  0.32628  1.0000
  S   S66       1.0  0.28290  0.68133  0.30528  1.0000
  S   S67       1.0  0.41490  0.74961  0.36426  1.0000
  S   S68       1.0  0.34596  0.69211  0.35798  1.0000
  Fe  Fe35      1.0  0.18878  0.70934  0.53717  1.0000
  S   S69       1.0  0.16904  0.66671  0.52040  1.0000
  S   S70       1.0  0.24491  0.70964  0.56212  1.0000
  Fe  Fe36      1.0  0.11474  0.74756  0.51433  1.0000
  S   S71       1.0  0.09102  0.70643  0.49598  1.0000
  S   S72       1.0  0.08592  0.79474  0.50534  1.0000
  Fe  Fe37      1.0  0.09779  0.68049  0.52636  1.0000
  S   S73       1.0  0.04787  0.64825  0.54188  1.0000
  Fe  Fe38      1.0  0.16432  0.69589  0.49142  1.0000
  S   S74       1.0  0.19116  0.67558  0.46092  1.0000
  S   S75       1.0  0.11727  0.72217  0.54515  1.0000
  S   S76       1.0  0.18824  0.73825  0.50779  1.0000
  C   C438      1.0  0.28037  0.73271  0.41740  1.0000
  C   C439      1.0  0.26635  0.70360  0.41130  1.0000
  C   C440      1.0  0.23854  0.68644  0.42466  1.0000
  C   C441      1.0  0.22512  0.69805  0.44427  1.0000
  C   C442      1.0  0.23914  0.72712  0.45029  1.0000
  C   C443      1.0  0.26656  0.74436  0.43690  1.0000
  H   H354      1.0  0.27639  0.69454  0.39621  1.0000
  H   H355      1.0  0.22698  0.66430  0.41968  1.0000
  H   H356      1.0  0.22890  0.73637  0.46527  1.0000
  H   H357      1.0  0.27707  0.76690  0.44167  1.0000
  C   C444      1.0  0.46782  0.83382  0.32836  1.0000
  H   H358      1.0  0.17634  0.82848  0.49810  1.0000
  H   H359      1.0  0.30583  0.93830  0.37282  1.0000
  C   C445      1.0  0.22523  0.67699  0.29800  1.0000
  C   C446      1.0  0.19204  0.69811  0.30349  1.0000
  C   C447      1.0  0.14715  0.69371  0.29688  1.0000
  H   H360      1.0  0.20098  0.71795  0.31268  1.0000
  H   H361      1.0  0.12196  0.71035  0.30109  1.0000
  C   C448      1.0  0.33659  0.49429  0.31259  1.0000
  H   H362      1.0  0.27769  0.51913  0.44647  1.0000
  C   C449      1.0  0.09810  0.54720  0.54964  1.0000
  H   H363      1.0  0.20206  0.63541  0.56253  1.0000
  H   H364      1.0  0.04823  0.61975  0.50011  1.0000
  H   H365      1.0  0.11177  0.84636  0.55381  1.0000
  C   C450      1.0  0.03227  0.84595  0.50144  1.0000
  C   C451      1.0  0.04517  0.82159  0.51462  1.0000
  H   H366      1.0  0.07958  0.88606  0.53030  1.0000
  H   H367      1.0  0.04628  0.84746  0.48583  1.0000
  H   H368      1.0  0.26480  0.59773  0.57673  1.0000
  H   H369      1.0  0.26517  0.59718  0.48603  1.0000
  P   P16       1.0  0.17703  0.88014  0.52775  1.0000
  H   H370      1.0  0.18513  0.61004  0.49128  1.0000
  H   H371      1.0  0.42544  0.63223  0.33316  1.0000
  H   H372      1.0  0.09989  0.91527  0.46310  1.0000
  H   H373      1.0  0.41356  0.87367  0.35122  1.0000
  C   C452      1.0  0.14113  0.54033  0.55743  1.0000
  C   C453      1.0  0.39149  0.87225  0.36462  1.0000
  C   C454      1.0  0.36116  0.64990  0.43418  1.0000
  C   C455      1.0  0.35545  0.63724  0.57461  1.0000
  C   C456      1.0  0.34925  0.66195  0.58817  1.0000
  C   C457      1.0  0.31556  0.68385  0.58402  1.0000
  C   C458      1.0  0.28699  0.68119  0.56643  1.0000
  C   C459      1.0  0.29290  0.65628  0.55292  1.0000
  C   C460      1.0  0.32701  0.63459  0.55695  1.0000
  C   C461      1.0  0.45887  0.95420  0.33689  1.0000
  C   C462      1.0  0.46219  0.58965  0.33374  1.0000
  H   H374      1.0  0.27150  0.65385  0.53924  1.0000
  H   H375      1.0  0.33138  0.61561  0.54631  1.0000
  H   H376      1.0  0.10873  0.86592  0.44448  1.0000
  C   C463      1.0  0.45470  0.62038  0.33908  1.0000
  P   P17       1.0  0.40441  0.93485  0.36969  1.0000
  C   C464      1.0  0.40916  0.68564  0.40582  1.0000
  P   P18       1.0  0.11716  0.67812  0.37810  1.0000
  C   C465      1.0  0.08400  0.66857  0.40096  1.0000
  C   C466      1.0  0.15618  0.64796  0.37154  1.0000
  C   C467      1.0  0.17070  0.62694  0.38679  1.0000
  C   C468      1.0  0.20047  0.60358  0.38136  1.0000
  C   C469      1.0  0.21617  0.60113  0.36075  1.0000
  C   C470      1.0  0.20239  0.62215  0.34555  1.0000
  C   C471      1.0  0.17244  0.64536  0.35088  1.0000
  C   C472      1.0  0.10374  0.66890  0.42104  1.0000
  C   C473      1.0  0.07807  0.66312  0.43894  1.0000
  C   C474      1.0  0.03235  0.65708  0.43698  1.0000
  H   H377      1.0  0.19473  0.93143  0.55691  1.0000
  C   C475      1.0  0.03802  0.66220  0.39908  1.0000
  C   C476      1.0  0.14892  0.71242  0.38309  1.0000
  C   C477      1.0  0.13588  0.73280  0.39903  1.0000
  C   C478      1.0  0.16067  0.75921  0.40287  1.0000
  C   C479      1.0  0.19789  0.76593  0.39050  1.0000
  C   C480      1.0  0.21028  0.74627  0.37425  1.0000
  C   C481      1.0  0.18605  0.71961  0.37054  1.0000
  H   H378      1.0  0.14695  0.82271  0.46228  1.0000
  C   C482      1.0  0.42590  0.56617  0.43604  1.0000
  H   H379      1.0  0.15927  0.62839  0.40286  1.0000
  H   H380      1.0  0.21141  0.58735  0.39313  1.0000
  H   H381      1.0  0.23926  0.58306  0.35658  1.0000
  H   H382      1.0  0.21497  0.62063  0.32959  1.0000
  H   H383      1.0  0.16212  0.66134  0.33880  1.0000
  H   H384      1.0  0.13889  0.67436  0.42291  1.0000
  H   H385      1.0  0.09363  0.66390  0.45440  1.0000
  C   C483      1.0  0.01235  0.65654  0.41705  1.0000
  C   C484      1.0  0.36696  0.68101  0.43804  1.0000
  H   H386      1.0  0.02161  0.66205  0.38388  1.0000
  C   C485      1.0  0.20890  0.53905  0.59974  1.0000
  H   H387      1.0  0.22760  0.91184  0.49450  1.0000
  H   H388      1.0  0.21793  0.78594  0.39379  1.0000
  H   H389      1.0  0.23963  0.75131  0.36496  1.0000
  H   H390      1.0  0.19671  0.70473  0.35796  1.0000
  H   H391      1.0  0.25832  0.97171  0.53555  1.0000
  H   H392      1.0  0.40103  0.56945  0.44820  1.0000
  C   C486      1.0  0.42103  0.48140  0.34781  1.0000
  C   C487      1.0  0.37508  0.84373  0.37052  1.0000
  S   S77       1.0  0.47823  0.67450  0.35870  1.0000
  C   C488      1.0  0.39062  0.69894  0.42376  1.0000
  C   C489      1.0  0.02650  0.82004  0.53476  1.0000
  C   C490      1.0  0.42346  0.47614  0.38572  1.0000
  H   H393      1.0  0.00441  0.69778  0.30690  1.0000
  H   H394      1.0  0.45465  0.51271  0.36861  1.0000
  C   C491      1.0  0.33783  0.86667  0.40033  1.0000
  C   C492      1.0  0.14202  0.83297  0.55243  1.0000
  C   C493      1.0  0.45272  0.93824  0.38664  1.0000
  H   H395      1.0  0.24429  0.83128  0.52871  1.0000
  C   C494      1.0  0.21792  0.79601  0.54833  1.0000
  C   C495      1.0  0.08431  0.94667  0.56343  1.0000
  H   H396      1.0  0.10680  0.72842  0.40866  1.0000
  H   H397      1.0  0.32467  0.49260  0.32862  1.0000
  C   C496      1.0  0.03663  0.66461  0.32671  1.0000
  C   C497      1.0  0.08115  0.68461  0.35565  1.0000
  H   H398      1.0  0.18296  0.76400  0.56786  1.0000
  H   H399      1.0  0.03006  0.92171  0.54914  1.0000
  C   C498      1.0  0.20746  0.57860  0.53930  1.0000
  C   C499      1.0  0.06449  0.65976  0.34412  1.0000
  C   C500      1.0  0.34804  0.84095  0.38829  1.0000
  C   C501      1.0  0.48799  0.91741  0.38433  1.0000
  H   H400      1.0  0.31766  0.86427  0.41435  1.0000
  C   C502      1.0  0.15902  0.92900  0.55496  1.0000
  H   H401      1.0  0.34726  0.91483  0.40427  1.0000
  H   H402      1.0  0.47525  0.53047  0.51998  1.0000
  C   C503      1.0  0.32339  0.51911  0.30024  1.0000
  C   C504      1.0  0.15515  0.50979  0.55816  1.0000
  C   C505      1.0  0.10923  0.65614  0.58976  1.0000
  C   C506      1.0  0.38012  0.89840  0.37617  1.0000
  H   H403      1.0  0.08032  0.73380  0.35869  1.0000
  H   H404      1.0  0.47144  0.54227  0.45672  1.0000
  H   H405      1.0  0.25024  0.88200  0.55839  1.0000
  C   C507      1.0  0.43456  0.49221  0.36753  1.0000
  Fe  Fe39      1.0  0.45373  0.60907  0.60421  1.0000
  C   C508      1.0  0.09428  0.90363  0.54008  1.0000
  C   C509      1.0  0.09016  0.62746  0.59283  1.0000
  H   H406      1.0  0.18893  0.50401  0.56298  1.0000
  H   H407      1.0  0.11495  0.79634  0.57096  1.0000
  H   H408      1.0  0.08711  0.57061  0.54781  1.0000
  H   H409      1.0  0.06231  0.96218  0.57173  1.0000
  C   C510      1.0  0.15490  0.87547  0.50145  1.0000
  C   C511      1.0  0.21635  0.82441  0.53840  1.0000
  C   C512      1.0  0.42137  0.93686  0.34254  1.0000
  C   C513      1.0  0.99271  0.56037  0.38667  1.0000
  C   C514      1.0  0.11724  0.89656  0.47071  1.0000
  H   H410      1.0  0.12934  0.92160  0.49914  1.0000
  C   C515      1.0  0.40246  0.65473  0.40164  1.0000
  C   C516      1.0  0.35428  0.89525  0.39446  1.0000
  C   C517      1.0  0.08246  0.49344  0.54533  1.0000
  C   C518      1.0  0.17861  0.84338  0.54063  1.0000
  C   C519      1.0  0.13457  0.66809  0.28483  1.0000
  H   H411      1.0  0.33567  0.81874  0.39288  1.0000
  C   C520      1.0  0.20380  0.59859  0.50365  1.0000
  H   H412      1.0  0.07357  0.63667  0.34833  1.0000
  H   H413      1.0  0.31805  0.58644  0.60534  1.0000
  H   H414      1.0  0.24675  0.78118  0.54640  1.0000
  C   C521      1.0  0.06845  0.71428  0.34990  1.0000
  C   C522      1.0  0.46944  0.95845  0.31570  1.0000
  C   C523      1.0  0.46589  0.55098  0.44098  1.0000
  C   C524      1.0  0.17076  0.63285  0.57089  1.0000
  C   C525      1.0  0.01407  0.57763  0.40222  1.0000
  C   C526      1.0  0.14983  0.65875  0.57908  1.0000
  C   C527      1.0  0.41834  0.57716  0.41559  1.0000
  P   P19       1.0  0.36710  0.59727  0.40921  1.0000
  C   C528      1.0  0.31844  0.58307  0.42289  1.0000
  C   C529      1.0  0.37736  0.63679  0.41548  1.0000
  C   C530      1.0  0.26171  0.89298  0.54413  1.0000
  C   C531      1.0  0.14406  0.84455  0.47013  1.0000
  H   H415      1.0  0.31150  0.70297  0.59457  1.0000
  H   H416      1.0  0.36450  0.91145  0.33065  1.0000
  H   H417      1.0  0.22472  0.66416  0.61431  1.0000
  C   C532      1.0  0.28120  0.60216  0.42590  1.0000
  C   C533      1.0  0.24400  0.59194  0.43714  1.0000
  C   C534      1.0  0.24289  0.56208  0.44470  1.0000
  C   C535      1.0  0.27889  0.54242  0.44086  1.0000
  C   C536      1.0  0.31647  0.55279  0.42988  1.0000
  C   C537      1.0  0.35385  0.59305  0.38160  1.0000
  C   C538      1.0  0.36564  0.56640  0.37069  1.0000
  C   C539      1.0  0.35826  0.56425  0.34899  1.0000
  C   C540      1.0  0.33803  0.58835  0.33815  1.0000
  C   C541      1.0  0.32409  0.61425  0.34910  1.0000
  C   C542      1.0  0.33141  0.61643  0.37082  1.0000
  H   H418      1.0  0.35440  0.92777  0.52447  1.0000
  H   H419      1.0  0.34341  0.63645  0.44568  1.0000
  H   H420      1.0  0.41637  0.64498  0.38742  1.0000
  H   H421      1.0  0.01327  0.59162  0.43474  1.0000
  H   H422      1.0  0.38387  0.82369  0.36143  1.0000
  H   H423      1.0  0.03563  0.52920  0.53790  1.0000
  H   H424      1.0  0.28119  0.62518  0.41980  1.0000
  H   H425      1.0  0.21617  0.60733  0.44009  1.0000
  H   H426      1.0  0.21405  0.55418  0.45345  1.0000
  H   H427      1.0  0.43870  0.57799  0.32357  1.0000
  H   H428      1.0  0.34382  0.53717  0.42685  1.0000
  H   H429      1.0  0.38165  0.54761  0.37877  1.0000
  H   H430      1.0  0.36969  0.54433  0.34050  1.0000
  H   H431      1.0  0.33362  0.58725  0.32124  1.0000
  H   H432      1.0  0.30821  0.63289  0.34066  1.0000
  H   H433      1.0  0.32029  0.63660  0.37911  1.0000
  H   H434      1.0  0.15142  0.77426  0.41566  1.0000
  H   H435      1.0  0.30796  0.57111  0.51442  1.0000
  C   C543      1.0  0.15123  0.60406  0.57344  1.0000
  C   C544      1.0  0.12232  0.86882  0.46019  1.0000
  C   C545      1.0  0.13368  0.89997  0.49122  1.0000
  H   H436      1.0  0.37037  0.66403  0.60191  1.0000
  C   C546      1.0  0.14099  0.90596  0.54212  1.0000
  H   H437      1.0  0.43086  0.49387  0.33385  1.0000
  H   H438      1.0  0.39426  0.72320  0.42646  1.0000
  H   H439      1.0  0.27145  0.55842  0.54786  1.0000
  H   H440      1.0  0.30131  0.53634  0.30667  1.0000
  C   C547      1.0  0.99587  0.84261  0.54160  1.0000
  P   P20       1.0  0.17976  0.57061  0.56390  1.0000
  C   C548      1.0  0.32058  0.91885  0.52509  1.0000
  C   C549      1.0  0.11139  0.60144  0.58498  1.0000
  C   C550      1.0  0.02493  0.69420  0.32079  1.0000
  C   C551      1.0  0.23319  0.89536  0.52656  1.0000
  C   C552      1.0  0.14366  0.80449  0.56225  1.0000
  C   C553      1.0  0.01917  0.61657  0.53093  1.0000
  H   H441      1.0  0.14822  0.59846  0.52506  1.0000
  C   C554      1.0  0.27301  0.57684  0.51671  1.0000
  H   H442      1.0  0.09635  0.57941  0.58773  1.0000
  H   H443      1.0  0.42819  0.69942  0.39494  1.0000
  H   H444      1.0  0.16471  0.68095  0.57678  1.0000
  C   C555      1.0  0.18310  0.59221  0.52288  1.0000
  C   C556      1.0  0.02533  0.60735  0.51007  1.0000
  H   H445      1.0  0.04478  0.58969  0.39867  1.0000
  C   C557      1.0  0.25226  0.57010  0.53585  1.0000
  C   C558      1.0  0.28767  0.57305  0.60377  1.0000
  H   H446      1.0  0.14480  0.96718  0.57527  1.0000
  C   C559      1.0  0.06611  0.92385  0.55073  1.0000
  C   C560      1.0  0.16060  0.84790  0.49061  1.0000
  C   C561      1.0  0.45280  0.57477  0.40064  1.0000
  C   C562      1.0  0.30522  0.90469  0.54337  1.0000
  C   C563      1.0  0.24879  0.90973  0.50828  1.0000
  C   C564      1.0  0.21257  0.65134  0.28603  1.0000
  H   H447      1.0  0.44921  0.58482  0.38514  1.0000
  H   H448      1.0  0.45633  0.86922  0.30549  1.0000
  C   C565      1.0  0.18175  0.78617  0.56037  1.0000
  C   C566      1.0  0.00161  0.58208  0.50208  1.0000
  C   C567      1.0  0.21901  0.56134  0.58466  1.0000
  C   C568      1.0  0.40566  0.92782  0.30551  1.0000
  H   H449      1.0  0.17775  0.52653  0.59896  1.0000
  H   H450      1.0  0.32716  0.90261  0.55693  1.0000
  C   C569      1.0  0.47694  0.86193  0.31858  1.0000
  C   C570      1.0  0.00125  0.86833  0.50819  1.0000
  C   C571      1.0  0.44318  0.94501  0.30001  1.0000
  C   C572      1.0  0.04061  0.71902  0.33244  1.0000
  H   H451      1.0  0.00655  0.57513  0.48593  1.0000
  H   H452      1.0  0.35246  0.69140  0.45192  1.0000
  C   C573      1.0  0.29237  0.92137  0.50756  1.0000
  C   C574      1.0  0.25771  0.57911  0.58734  1.0000
  H   H453      1.0  0.41927  0.74897  0.58599  1.0000
  C   C575      1.0  0.39437  0.92412  0.32669  1.0000
  H   H454      1.0  0.30436  0.93221  0.49334  1.0000
  H   H455      1.0  0.03591  0.80158  0.54514  1.0000
  C   C576      1.0  0.40456  0.74201  0.60077  1.0000
  H   H456      1.0  0.09214  0.67638  0.59529  1.0000
  C   C577      1.0  0.06885  0.52380  0.54381  1.0000
  C   C578      1.0  0.13075  0.94936  0.56548  1.0000
  C   C579      1.0  0.36726  0.75740  0.60874  1.0000
  H   H457      1.0  0.48862  0.80339  0.35305  1.0000
  C   C580      1.0  0.36563  0.96624  0.37211  1.0000
  C   C581      1.0  0.99618  0.57892  0.42248  1.0000
  H   H458      1.0  0.03165  0.74195  0.32776  1.0000
  H   H459      1.0  0.45047  0.70457  0.60532  1.0000
  C   C582      1.0  0.48550  0.63580  0.35182  1.0000
  H   H460      1.0  0.47947  0.96511  0.34876  1.0000
  H   H461      1.0  0.48673  0.90018  0.37214  1.0000
  H   H462      1.0  0.01245  0.65307  0.45095  1.0000
  C   C583      1.0  0.31923  0.96116  0.37309  1.0000
  C   C584      1.0  0.42212  0.71701  0.61159  1.0000
  H   H463      1.0  0.43488  0.48422  0.40093  1.0000
  H   H464      1.0  0.00691  0.55897  0.37103  1.0000
  H   H465      1.0  0.38518  0.91749  0.29337  1.0000
  H   H466      1.0  0.28153  0.96276  0.57260  1.0000
  C   C585      1.0  0.45495  0.96019  0.40270  1.0000
  H   H467      1.0  0.47388  0.55991  0.55339  1.0000
  C   C586      1.0  0.12569  0.48644  0.55238  1.0000
  H   H468      1.0  0.45180  0.94814  0.28362  1.0000
  H   H469      1.0  0.46064  0.65233  0.69556  1.0000
  H   H470      1.0  0.31742  0.90931  0.85867  1.0000
  Fe  Fe40      1.0  0.44980  0.85617  0.76447  1.0000
  S   S78       1.0  0.38464  0.85793  0.78388  1.0000
  H   H471      1.0  0.34476  0.59910  0.67979  1.0000
  S   S79       1.0  0.45757  0.84243  0.73044  1.0000
  H   H472      1.0  0.36176  0.79126  0.73033  1.0000
  C   C587      1.0  0.46433  0.81394  0.63371  1.0000
  S   S80       1.0  0.44454  0.61903  0.63855  1.0000
  Fe  Fe41      1.0  0.10789  0.77442  0.85799  1.0000
  S   S81       1.0  0.11283  0.75659  0.82486  1.0000
  S   S82       1.0  0.06803  0.81365  0.87219  1.0000
  Fe  Fe42      1.0  0.16484  0.72286  0.87583  1.0000
  S   S83       1.0  0.17438  0.70122  0.84406  1.0000
  S   S84       1.0  0.18741  0.69858  0.90565  1.0000
  Fe  Fe43      1.0  0.18628  0.74918  0.83235  1.0000
  S   S85       1.0  0.24230  0.75416  0.80782  1.0000
  Fe  Fe44      1.0  0.10090  0.70989  0.83887  1.0000
  S   S86       1.0  0.05277  0.67722  0.82180  1.0000
  S   S87       1.0  0.18202  0.77001  0.86478  1.0000
  S   S88       1.0  0.09056  0.72851  0.87132  1.0000
  C   C588      1.0  0.22651  0.71448  0.92354  1.0000
  C   C589      1.0  0.24492  0.74334  0.92031  1.0000
  C   C590      1.0  0.16129  0.61589  0.91082  1.0000
  H   H473      1.0  0.37587  0.87070  0.86516  1.0000
  H   H474      1.0  0.23560  0.75634  0.90653  1.0000
  H   H475      1.0  0.13115  0.86226  0.87993  1.0000
  H   H476      1.0  0.29592  0.71361  0.70329  1.0000
  C   C591      1.0  0.34786  0.74793  0.62764  1.0000
  H   H477      1.0  0.22649  0.94127  0.83116  1.0000
  C   C592      1.0  0.40009  0.77576  0.91011  1.0000
  H   H478      1.0  0.15342  0.76135  0.92074  1.0000
  C   C593      1.0  0.04042  0.84405  0.85905  1.0000
  C   C594      1.0  0.04053  0.84685  0.83714  1.0000
  H   H479      1.0  0.30053  0.67021  0.62921  1.0000
  H   H480      1.0  0.05769  0.83005  0.82766  1.0000
  C   C595      1.0  0.42699  0.65080  0.68923  1.0000
  C   C596      1.0  0.34653  0.82828  0.79093  1.0000
  C   C597      1.0  0.34776  0.79948  0.78151  1.0000
  C   C598      1.0  0.31570  0.77719  0.78691  1.0000
  C   C599      1.0  0.28252  0.78305  0.80210  1.0000
  C   C600      1.0  0.28211  0.81151  0.81199  1.0000
  C   C601      1.0  0.31350  0.83406  0.80626  1.0000
  H   H481      1.0  0.37313  0.79448  0.76991  1.0000
  H   H482      1.0  0.31668  0.75519  0.77926  1.0000
  H   H483      1.0  0.25742  0.81618  0.82393  1.0000
  H   H484      1.0  0.31243  0.85603  0.81392  1.0000
  C   C602      1.0  0.36168  0.62089  0.68025  1.0000
  C   C603      1.0  0.17095  0.50958  0.86871  1.0000
  H   H485      1.0  0.03712  0.80692  0.94478  1.0000
  H   H486      1.0  0.06571  0.93039  0.81639  1.0000
  C   C604      1.0  0.40852  0.77410  0.93173  1.0000
  C   C605      1.0  0.40616  0.67680  0.68107  1.0000
  H   H487      1.0  0.31850  0.75970  0.63348  1.0000
  H   H488      1.0  0.37588  0.84154  0.66162  1.0000
  C   C606      1.0  0.40117  0.79948  0.94452  1.0000
  H   H489      1.0  0.21553  0.88498  0.77559  1.0000
  C   C607      1.0  0.14540  0.90817  0.83721  1.0000
  C   C608      1.0  0.12880  0.91121  0.88064  1.0000
  H   H490      1.0  0.04305  0.73054  0.92249  1.0000
  H   H491      1.0  0.39291  0.81375  0.62861  1.0000
  H   H492      1.0  0.36391  0.84943  0.90764  1.0000
  H   H493      1.0  0.06756  0.58158  0.78917  1.0000
  H   H494      1.0  0.22461  0.67566  0.94426  1.0000
  C   C609      1.0  0.07907  0.57130  0.80373  1.0000
  P   P21       1.0  0.12198  0.53408  0.86875  1.0000
  C   C610      1.0  0.10675  0.54694  0.84257  1.0000
  C   C611      1.0  0.13543  0.56623  0.88557  1.0000
  C   C612      1.0  0.12685  0.59628  0.87904  1.0000
  C   C613      1.0  0.14037  0.62094  0.89145  1.0000
  H   H495      1.0  0.10368  0.79141  0.77597  1.0000
  C   C614      1.0  0.33674  0.73293  0.83548  1.0000
  C   C615      1.0  0.15560  0.56141  0.90531  1.0000
  C   C616      1.0  0.06576  0.53814  0.83347  1.0000
  C   C617      1.0  0.04251  0.52845  0.89144  1.0000
  H   H496      1.0  0.08721  0.68289  0.92027  1.0000
  C   C618      1.0  0.07571  0.51321  0.87991  1.0000
  C   C619      1.0  0.13401  0.56777  0.83176  1.0000
  H   H497      1.0  0.01793  0.86429  0.88808  1.0000
  C   C620      1.0  0.09350  0.78454  0.93048  1.0000
  H   H498      1.0  0.01096  0.77223  0.83801  1.0000
  H   H499      1.0  0.30725  0.64477  0.66573  1.0000
  C   C621      1.0  0.42052  0.82790  0.83949  1.0000
  C   C622      1.0  0.40483  0.62281  0.68876  1.0000
  C   C623      1.0  0.38341  0.80278  0.90116  1.0000
  C   C624      1.0  0.14037  0.93649  0.84727  1.0000
  H   H500      1.0  0.16086  0.69303  0.62929  1.0000
  H   H501      1.0  0.37938  0.84612  0.94572  1.0000
  H   H502      1.0  0.18457  0.58228  0.93293  1.0000
  H   H503      1.0  0.11015  0.60096  0.86431  1.0000
  H   H504      1.0  0.13493  0.64410  0.88601  1.0000
  H   H505      1.0  0.37561  0.77352  0.83218  1.0000
  H   H506      1.0  0.16503  0.57578  0.83870  1.0000
  H   H507      1.0  0.16173  0.53863  0.91105  1.0000
  C   C625      1.0  0.07043  0.48205  0.87545  1.0000
  C   C626      1.0  0.23871  0.69798  0.94162  1.0000
  C   C627      1.0  0.20360  0.51186  0.85292  1.0000
  H   H508      1.0  0.17347  0.72876  0.65903  1.0000
  C   C628      1.0  0.24434  0.71951  0.66115  1.0000
  H   H509      1.0  0.04310  0.52296  0.84156  1.0000
  C   C629      1.0  0.40236  0.70725  0.63031  1.0000
  H   H510      1.0  0.24930  0.73602  0.67356  1.0000
  C   C630      1.0  0.24251  0.49405  0.85389  1.0000
  C   C631      1.0  0.12009  0.57998  0.81249  1.0000
  C   C632      1.0  0.12415  0.93681  0.79677  1.0000
  C   C633      1.0  0.23500  0.89855  0.78651  1.0000
  C   C634      1.0  0.36312  0.67501  0.67216  1.0000
  H   H511      1.0  0.01957  0.54430  0.80775  1.0000
  C   C635      1.0  0.28044  0.70268  0.65306  1.0000
  H   H512      1.0  0.23119  0.51562  0.62772  1.0000
  C   C636      1.0  0.13425  0.88301  0.87083  1.0000
  H   H513      1.0  0.08379  0.79065  0.91457  1.0000
  H   H514      1.0  0.34046  0.72661  0.81909  1.0000
  C   C637      1.0  0.21488  0.91213  0.80416  1.0000
  H   H515      1.0  0.29317  0.69532  0.84253  1.0000
  C   C638      1.0  0.02361  0.64424  0.83077  1.0000
  C   C639      1.0  0.25056  0.84747  0.86526  1.0000
  C   C640      1.0  0.37375  0.76057  0.68144  1.0000
  H   H516      1.0  0.30178  0.54521  0.63086  1.0000
  H   H517      1.0  0.41558  0.68717  0.63797  1.0000
  H   H518      1.0  0.05281  0.63647  0.90480  1.0000
  C   C641      1.0  0.34232  0.73685  0.68274  1.0000
  C   C642      1.0  0.44504  0.84536  0.67082  1.0000
  H   H519      1.0  0.07651  0.88647  0.78484  1.0000
  C   C643      1.0  0.05279  0.68338  0.91468  1.0000
  H   H520      1.0  0.46789  0.79884  0.88410  1.0000
  H   H521      1.0  0.14035  0.59699  0.80468  1.0000
  C   C644      1.0  0.03360  0.65735  0.90585  1.0000
  C   C645      1.0  0.35666  0.75962  0.84301  1.0000
  C   C646      1.0  0.30989  0.71533  0.84867  1.0000
  C   C647      1.0  0.14209  0.88140  0.84917  1.0000
  H   H522      1.0  0.42388  0.69829  0.68149  1.0000
  C   C648      1.0  0.00991  0.60428  0.85652  1.0000
  H   H523      1.0  0.42138  0.60248  0.69461  1.0000
  P   P22       1.0  0.15583  0.90665  0.80921  1.0000
  H   H524      1.0  0.48003  0.75686  0.66081  1.0000
  C   C649      1.0  0.38051  0.78013  0.69854  1.0000
  H   H525      1.0  0.14478  0.85919  0.84193  1.0000
  C   C650      1.0  0.26271  0.87770  0.86159  1.0000
  C   C651      1.0  0.30695  0.91937  0.79669  1.0000
  C   C652      1.0  0.14232  0.95379  0.78016  1.0000
  C   C653      1.0  0.06712  0.79353  0.94751  1.0000
  C   C654      1.0  0.13187  0.93796  0.86887  1.0000
  H   H526      1.0  0.23709  0.89476  0.85890  1.0000
  C   C655      1.0  0.17780  0.48883  0.88528  1.0000
  C   C656      1.0  0.28087  0.90202  0.78292  1.0000
  C   C657      1.0  0.42274  0.81449  0.85952  1.0000
  C   C658      1.0  0.31869  0.73261  0.70158  1.0000
  C   C659      1.0  0.35606  0.77623  0.71703  1.0000
  H   H527      1.0  0.12152  0.91227  0.89732  1.0000
  C   C660      1.0  0.34073  0.64689  0.67205  1.0000
  C   C661      1.0  0.24117  0.93007  0.81770  1.0000
  H   H528      1.0  0.34271  0.92142  0.79400  1.0000
  C   C662      1.0  0.32516  0.75248  0.71856  1.0000
  H   H529      1.0  0.39429  0.76344  0.66759  1.0000
  H   H530      1.0  0.05634  0.64178  0.86079  1.0000
  H   H531      1.0  0.30698  0.74910  0.73311  1.0000
  H   H532      1.0  0.27327  0.80215  0.87149  1.0000
  P   P23       1.0  0.33731  0.70917  0.66180  1.0000
  C   C663      1.0  0.16848  0.58614  0.91785  1.0000
  C   C664      1.0  0.41988  0.82045  0.63903  1.0000
  C   C665      1.0  0.30793  0.88589  0.86151  1.0000
  H   H533      1.0  0.29665  0.89067  0.76970  1.0000
  H   H534      1.0  0.49013  0.96479  0.72026  1.0000
  H   H535      1.0  0.04472  0.55270  0.89425  1.0000
  H   H536      1.0  0.21557  0.84099  0.86537  1.0000
  C   C666      1.0  0.34103  0.86387  0.86508  1.0000
  C   C667      1.0  0.45962  0.83648  0.82906  1.0000
  C   C668      1.0  0.05213  0.55023  0.81413  1.0000
  C   C669      1.0  0.30343  0.72414  0.86956  1.0000
  C   C670      1.0  0.32365  0.75065  0.87719  1.0000
  C   C671      1.0  0.35061  0.76857  0.86401  1.0000
  H   H537      1.0  0.17535  0.79679  0.79533  1.0000
  P   P24       1.0  0.37170  0.80478  0.87325  1.0000
  H   H538      1.0  0.05433  0.83649  0.77084  1.0000
  H   H539      1.0  0.17208  0.63510  0.92030  1.0000
  H   H540      1.0  0.40563  0.79786  0.69771  1.0000
  H   H541      1.0  0.19963  0.52752  0.83998  1.0000
  C   C672      1.0  0.32910  0.83334  0.86851  1.0000
  C   C673      1.0  0.28356  0.82539  0.86873  1.0000
  C   C674      1.0  0.37637  0.82827  0.91411  1.0000
  C   C675      1.0  0.08060  0.94338  0.80374  1.0000
  C   C676      1.0  0.28706  0.93361  0.81397  1.0000
  H   H542      1.0  0.40615  0.75585  0.90046  1.0000
  H   H543      1.0  0.30737  0.94725  0.82450  1.0000
  C   C677      1.0  0.36537  0.72276  0.63856  1.0000
  H   H544      1.0  0.28193  0.71080  0.87972  1.0000
  H   H545      1.0  0.31725  0.75755  0.89323  1.0000
  H   H546      1.0  0.19748  0.84644  0.81010  1.0000
  H   H547      1.0  0.38857  0.83194  0.83192  1.0000
  H   H548      1.0  0.43788  0.85838  0.68492  1.0000
  S   S89       1.0  0.47734  0.55009  0.67334  1.0000
  H   H549      1.0  0.01755  0.87320  0.81052  1.0000
  H   H550      1.0  0.02211  0.97162  0.79996  1.0000
  C   C678      1.0  0.27290  0.68268  0.63615  1.0000
  C   C679      1.0  0.27546  0.75549  0.93500  1.0000
  C   C680      1.0  0.46494  0.80928  0.86875  1.0000
  C   C681      1.0  0.15376  0.81642  0.79317  1.0000
  C   C682      1.0  0.11341  0.81343  0.78218  1.0000
  C   C683      1.0  0.08572  0.83880  0.77929  1.0000
  C   C684      1.0  0.09846  0.86718  0.78733  1.0000
  C   C685      1.0  0.13887  0.87029  0.79851  1.0000
  C   C686      1.0  0.16626  0.84461  0.80148  1.0000
  C   C687      1.0  0.48794  0.51064  0.67757  1.0000
  C   C688      1.0  0.47910  0.49803  0.69748  1.0000
  C   C689      1.0  0.20124  0.71571  0.65277  1.0000
  C   C690      1.0  0.01807  0.87142  0.82746  1.0000
  C   C691      1.0  0.03213  0.63123  0.85043  1.0000
  C   C692      1.0  0.01799  0.86616  0.87112  1.0000
  H   H551      1.0  0.01758  0.59411  0.87159  1.0000
  C   C693      1.0  0.41023  0.83614  0.65759  1.0000
  H   H552      1.0  0.45744  0.84713  0.81372  1.0000
  H   H553      1.0  0.46659  0.51252  0.70992  1.0000
  H   H554      1.0  0.06232  0.48429  0.78587  1.0000
  C   C694      1.0  0.22995  0.67918  0.62766  1.0000
  C   C695      1.0  0.13284  0.76802  0.93398  1.0000
  H   H555      1.0  0.17566  0.94906  0.77436  1.0000
  C   C696      1.0  0.00530  0.51252  0.89895  1.0000
  H   H556      1.0  0.28972  0.77780  0.93236  1.0000
  C   C697      1.0  0.19407  0.69560  0.63602  1.0000
  H   H557      1.0  0.41990  0.75294  0.93876  1.0000
  H   H558      1.0  0.14241  0.95748  0.83839  1.0000
  H   H559      1.0  0.47072  0.80266  0.61892  1.0000
  C   C698      1.0  0.05573  0.96677  0.79440  1.0000
  H   H560      1.0  0.15343  0.48668  0.89777  1.0000
  H   H561      1.0  0.00169  0.48229  0.81243  1.0000
  C   C699      1.0  0.38524  0.82657  0.93572  1.0000
  C   C700      1.0  0.02789  0.71029  0.91587  1.0000
  H   H562      1.0  0.12700  0.95984  0.87642  1.0000
  H   H563      1.0  0.26804  0.49639  0.84195  1.0000
  H   H564      1.0  0.25163  0.48591  0.80393  1.0000
  C   C701      1.0  0.99597  0.89364  0.83952  1.0000
  C   C702      1.0  0.00102  0.48134  0.89500  1.0000
  C   C703      1.0  0.27845  0.54987  0.61814  1.0000
  C   C704      1.0  0.99610  0.89096  0.86142  1.0000
  H   H565      1.0  0.49183  0.78513  0.69421  1.0000
  C   C705      1.0  0.48942  0.83846  0.66575  1.0000
  C   C706      1.0  0.23885  0.53309  0.61626  1.0000
  S   S90       1.0  0.49073  0.89934  0.76059  1.0000
  Fe  Fe45      1.0  0.49206  0.57973  0.64455  1.0000
  H   H566      1.0  0.93693  0.45197  0.10763  1.0000
  S   S91       1.0  0.68638  0.99512  0.01837  1.0000
  C   C707      1.0  0.98589  0.21068  0.21856  1.0000
  Fe  Fe46      1.0  0.59291  0.42965  0.01713  1.0000
  Fe  Fe47      1.0  0.98550  0.38519  0.14254  1.0000
  S   S92       1.0  0.54179  0.39884  0.00086  1.0000
  Fe  Fe48      1.0  0.61414  0.00777  0.02509  1.0000
  S   S93       1.0  0.59538  0.05909  0.02548  1.0000
  Fe  Fe49      1.0  0.66444  0.43865  0.05147  1.0000
  S   S94       1.0  0.69832  0.41943  0.08121  1.0000
  C   C708      1.0  0.53234  0.02868  0.14377  1.0000
  S   S95       1.0  0.66388  0.41360  0.02085  1.0000
  H   H567      1.0  0.96876  0.26016  0.96162  1.0000
  H   H568      1.0  0.66478  0.43283  0.96084  1.0000
  C   C709      1.0  0.68554  0.22445  0.26682  1.0000
  S   S96       1.0  0.93846  0.08008  0.24532  1.0000
  H   H569      1.0  0.74048  0.46051  0.10929  1.0000
  C   C710      1.0  0.74693  0.46980  0.95906  1.0000
  S   S97       1.0  0.92769  0.35339  0.14830  1.0000
  H   H570      1.0  0.70282  0.40123  0.27334  1.0000
  H   H571      1.0  0.50368  0.15284  0.02836  1.0000
  Fe  Fe50      1.0  0.93413  0.34089  0.11408  1.0000
  S   S98       1.0  0.87799  0.33925  0.08918  1.0000
  C   C711      1.0  0.75465  0.19622  0.27265  1.0000
  C   C712      1.0  0.95325  0.33896  0.22653  1.0000
  H   H572      1.0  0.81013  0.98593  0.16171  1.0000
  H   H573      1.0  0.93780  0.43019  0.24589  1.0000
  C   C713      1.0  0.81733  0.46811  0.08617  1.0000
  H   H574      1.0  0.83059  0.43191  0.06416  1.0000
  H   H575      1.0  0.59678  0.20852  0.99778  1.0000
  C   C714      1.0  0.81855  0.09462  0.23124  1.0000
  C   C715      1.0  0.95464  0.35807  0.20900  1.0000
  H   H576      1.0  0.74321  0.45037  0.27465  1.0000
  C   C716      1.0  0.54318  0.07922  0.02703  1.0000
  S   S99       1.0  0.95946  0.15058  0.21175  1.0000
  C   C717      1.0  0.54322  0.11135  0.02667  1.0000
  C   C718      1.0  0.79170  0.43735  0.25123  1.0000
  H   H577      1.0  0.57473  0.12329  0.02528  1.0000
  C   C719      1.0  0.51536  0.36774  0.01352  1.0000
  C   C720      1.0  0.52020  0.36272  0.03510  1.0000
  H   H578      1.0  0.72450  0.33299  0.03794  1.0000
  H   H579      1.0  0.54023  0.37818  0.04444  1.0000
  S   S100      1.0  0.97535  0.43560  0.15111  1.0000
  C   C721      1.0  0.74850  0.39723  0.08285  1.0000
  C   C722      1.0  0.76896  0.39291  0.10262  1.0000
  C   C723      1.0  0.80935  0.37629  0.10472  1.0000
  C   C724      1.0  0.82907  0.36269  0.08711  1.0000
  C   C725      1.0  0.80779  0.36615  0.06741  1.0000
  C   C726      1.0  0.76817  0.38365  0.06521  1.0000
  H   H580      1.0  0.75348  0.40255  0.11642  1.0000
  H   H581      1.0  0.82470  0.37337  0.12004  1.0000
  H   H582      1.0  0.82231  0.35546  0.05369  1.0000
  H   H583      1.0  0.75284  0.38657  0.04989  1.0000
  C   C727      1.0  0.94250  0.98250  0.12762  1.0000
  H   H584      1.0  0.78393  0.47193  0.07993  1.0000
  H   H585      1.0  0.98332  0.11294  0.95357  1.0000
  C   C728      1.0  0.56905  0.15124  0.96397  1.0000
  H   H586      1.0  0.87400  0.01328  0.10384  1.0000
  C   C729      1.0  0.91927  0.03266  0.15640  1.0000
  C   C730      1.0  0.80859  0.99234  0.14529  1.0000
  C   C731      1.0  0.59242  0.01283  0.10184  1.0000
  C   C732      1.0  0.78540  0.09977  0.24628  1.0000
  C   C733      1.0  0.63645  0.00730  0.09542  1.0000
  H   H587      1.0  0.69467  0.01758  0.97411  1.0000
  P   P25       1.0  0.85530  0.42006  0.22108  1.0000
  H   H588      1.0  0.90310  0.10875  0.14836  1.0000
  H   H589      1.0  0.81327  0.43033  0.13394  1.0000
  C   C734      1.0  0.50008  0.10118  0.12346  1.0000
  C   C735      1.0  0.50310  0.17127  0.98128  1.0000
  S   S101      1.0  0.59095  0.45200  0.04912  1.0000
  H   H590      1.0  0.65285  0.98601  0.09948  1.0000
  C   C736      1.0  0.80657  0.41437  0.23749  1.0000
  C   C737      1.0  0.73167  0.40480  0.26332  1.0000
  C   C738      1.0  0.84369  0.44527  0.07712  1.0000
  C   C739      1.0  0.92236  0.34455  0.24255  1.0000
  H   H591      1.0  0.80033  0.01298  0.08605  1.0000
  C   C740      1.0  0.91643  0.08797  0.15511  1.0000
  C   C741      1.0  0.89294  0.38789  0.22303  1.0000
  C   C742      1.0  0.89256  0.36909  0.24092  1.0000
  C   C743      1.0  0.84435  0.00771  0.11282  1.0000
  H   H592      1.0  0.58372  0.04141  0.98129  1.0000
  H   H593      1.0  0.56469  0.03919  0.14125  1.0000
  C   C744      1.0  0.90363  0.45671  0.10150  1.0000
  H   H594      1.0  0.90615  0.42065  0.07850  1.0000
  C   C745      1.0  0.76406  0.00050  0.11389  1.0000
  H   H595      1.0  0.65272  0.07042  0.06549  1.0000
  Fe  Fe51      1.0  0.68318  0.45817  0.00626  1.0000
  H   H596      1.0  0.92700  0.39687  0.19349  1.0000
  C   C746      1.0  0.59246  0.06052  0.08268  1.0000
  H   H597      1.0  0.52768  0.99675  0.07141  1.0000
  C   C747      1.0  0.88709  0.97826  0.18829  1.0000
  H   H598      1.0  0.73689  0.98691  0.14373  1.0000
  C   C748      1.0  0.96750  0.18933  0.20469  1.0000
  H   H599      1.0  0.86967  0.37351  0.25374  1.0000
  H   H600      1.0  0.82076  0.07278  0.22336  1.0000
  H   H601      1.0  0.88361  0.45151  0.14821  1.0000
  C   C749      1.0  0.67559  0.06490  0.97553  1.0000
  H   H602      1.0  0.77616  0.02479  0.26932  1.0000
  C   C750      1.0  0.74629  0.38175  0.24979  1.0000
  C   C751      1.0  0.92470  0.38240  0.20720  1.0000
  C   C752      1.0  0.78966  0.41498  0.16421  1.0000
  H   H603      1.0  0.95899  0.11148  0.17721  1.0000
  H   H604      1.0  0.74451  0.22996  0.24817  1.0000
  P   P26       1.0  0.90197  0.99584  0.14661  1.0000
  H   H605      1.0  0.90050  0.44868  0.18582  1.0000
  H   H606      1.0  0.73217  0.99957  0.10583  1.0000
  H   H607      1.0  0.69154  0.02309  0.07654  1.0000
  C   C753      1.0  0.70258  0.45461  0.13739  1.0000
  C   C754      1.0  0.98760  0.99128  0.12909  1.0000
  H   H608      1.0  0.59899  0.33781  0.98681  1.0000
  H   H609      1.0  0.51408  0.23768  0.04278  1.0000
  H   H610      1.0  0.96479  0.01407  0.17962  1.0000
  C   C755      1.0  0.49368  0.00483  0.06965  1.0000
  C   C756      1.0  0.65832  0.02818  0.08246  1.0000
  C   C757      1.0  0.57617  0.19248  0.98912  1.0000
  C   C758      1.0  0.68913  0.03834  0.96526  1.0000
  C   C759      1.0  0.96492  0.06286  0.18032  1.0000
  C   C760      1.0  0.95500  0.19883  0.18433  1.0000
  H   H611      1.0  0.54365  0.09041  0.98294  1.0000
  H   H612      1.0  0.92177  0.32999  0.25628  1.0000
  C   C761      1.0  0.61780  0.39804  0.95208  1.0000
  H   H613      1.0  0.81019  0.44774  0.95307  1.0000
  H   H614      1.0  0.66646  0.24115  0.25796  1.0000
  S   S102      1.0  0.74329  0.45452  0.98466  1.0000
  C   C762      1.0  0.99125  0.45910  0.17275  1.0000
  C   C763      1.0  0.79931  0.41282  0.18575  1.0000
  C   C764      1.0  0.52918  0.47241  0.96169  1.0000
  H   H615      1.0  0.67023  0.06465  0.99242  1.0000
  H   H616      1.0  0.50191  0.33452  0.06144  1.0000
  H   H617      1.0  0.76182  0.08186  0.25004  1.0000
  C   C765      1.0  0.83928  0.42509  0.19385  1.0000
  C   C766      1.0  0.56552  0.04958  0.96761  1.0000
  C   C767      1.0  0.92376  0.45201  0.24150  1.0000
  H   H618      1.0  0.80882  0.45895  0.25233  1.0000
  C   C768      1.0  0.96087  0.22928  0.17785  1.0000
  H   H619      1.0  0.51555  0.44982  0.96424  1.0000
  C   C769      1.0  0.75440  0.43254  0.26404  1.0000
  H   H620      1.0  0.67415  0.35770  0.97726  1.0000
  C   C770      1.0  0.89248  0.25460  0.24204  1.0000
  C   C771      1.0  0.87805  0.25671  0.22116  1.0000
  C   C772      1.0  0.84316  0.23823  0.21398  1.0000
  C   C773      1.0  0.82255  0.21769  0.22769  1.0000
  C   C774      1.0  0.83669  0.21549  0.24876  1.0000
  C   C775      1.0  0.87197  0.23410  0.25582  1.0000
  P   P27       1.0  0.81198  0.18711  0.26582  1.0000
  C   C776      1.0  0.81990  0.42916  0.15068  1.0000
  S   S103      1.0  0.98594  0.13282  0.27453  1.0000
  C   C777      1.0  0.72990  0.21795  0.26128  1.0000
  H   H621      1.0  0.50766  0.08927  0.13792  1.0000
  H   H622      1.0  0.58701  0.31382  0.02113  1.0000
  H   H623      1.0  0.87799  0.05890  0.13487  1.0000
  H   H624      1.0  0.77574  0.40135  0.19582  1.0000
  C   C778      1.0  0.85943  0.44143  0.15868  1.0000
  C   C779      1.0  0.81440  0.15079  0.25238  1.0000
  C   C780      1.0  0.84800  0.14520  0.23743  1.0000
  C   C781      1.0  0.84946  0.11747  0.22665  1.0000
  C   C782      1.0  0.57014  0.03962  0.09562  1.0000
  H   H625      1.0  0.57567  0.08067  0.07684  1.0000
  C   C783      1.0  0.78305  0.12782  0.25668  1.0000
  H   H626      1.0  0.92049  0.26829  0.24733  1.0000
  H   H627      1.0  0.89466  0.27218  0.21040  1.0000
  H   H628      1.0  0.83287  0.23938  0.19763  1.0000
  P   P28       1.0  0.51203  0.04553  0.10247  1.0000
  H   H629      1.0  0.88466  0.23238  0.27173  1.0000
  C   C784      1.0  0.52301  0.01583  0.16340  1.0000
  S   S104      1.0  0.98207  0.30149  0.12044  1.0000
  C   C785      1.0  0.94784  0.08957  0.17143  1.0000
  H   H630      1.0  0.83093  0.98549  0.95562  1.0000
  H   H631      1.0  0.87341  0.16209  0.23408  1.0000
  H   H632      1.0  0.87551  0.11345  0.21511  1.0000
  C   C786      1.0  0.86900  0.43962  0.18011  1.0000
  C   C787      1.0  0.54972  0.23775  0.04623  1.0000
  C   C788      1.0  0.57302  0.21032  0.04832  1.0000
  C   C789      1.0  0.61869  0.21060  0.05319  1.0000
  C   C790      1.0  0.64109  0.23830  0.05602  1.0000
  C   C791      1.0  0.61795  0.26609  0.05395  1.0000
  C   C792      1.0  0.57203  0.26545  0.04898  1.0000
  P   P29       1.0  0.64637  0.30233  0.05735  1.0000
  C   C793      1.0  0.61180  0.32787  0.07255  1.0000
  C   C794      1.0  0.69928  0.29756  0.07107  1.0000
  C   C795      1.0  0.70571  0.30986  0.09129  1.0000
  C   C796      1.0  0.74718  0.30708  0.10142  1.0000
  C   C797      1.0  0.78253  0.29203  0.09152  1.0000
  C   C798      1.0  0.77664  0.27992  0.07138  1.0000
  C   C799      1.0  0.73522  0.28262  0.06119  1.0000
  C   C800      1.0  0.61815  0.35943  0.07098  1.0000
  C   C801      1.0  0.59307  0.37935  0.08344  1.0000
  C   C802      1.0  0.56132  0.36797  0.09745  1.0000
  C   C803      1.0  0.55528  0.33655  0.09935  1.0000
  C   C804      1.0  0.58074  0.31651  0.08712  1.0000
  C   C805      1.0  0.65561  0.31948  0.03181  1.0000
  C   C806      1.0  0.62024  0.32167  0.01724  1.0000
  C   C807      1.0  0.62695  0.33526  0.99761  1.0000
  C   C808      1.0  0.66908  0.34665  0.99229  1.0000
  C   C809      1.0  0.70422  0.34520  0.00683  1.0000
  C   C810      1.0  0.69737  0.33219  0.02663  1.0000
  H   H633      1.0  0.53062  0.32773  0.11021  1.0000
  H   H634      1.0  0.55553  0.18888  0.04642  1.0000
  H   H635      1.0  0.63665  0.18929  0.05501  1.0000
  H   H636      1.0  0.67617  0.23771  0.06013  1.0000
  H   H637      1.0  0.55296  0.28634  0.04768  1.0000
  H   H638      1.0  0.67931  0.32223  0.09920  1.0000
  H   H639      1.0  0.75241  0.31741  0.11671  1.0000
  H   H640      1.0  0.81498  0.29064  0.09920  1.0000
  H   H641      1.0  0.80465  0.26914  0.06354  1.0000
  H   H642      1.0  0.73145  0.27369  0.04539  1.0000
  H   H643      1.0  0.64289  0.36875  0.06035  1.0000
  H   H644      1.0  0.59848  0.40368  0.08225  1.0000
  H   H645      1.0  0.73626  0.35542  0.00309  1.0000
  H   H646      1.0  0.57602  0.29226  0.08908  1.0000
  C   C811      1.0  0.54272  0.07738  0.96848  1.0000
  C   C812      1.0  0.84775  0.99920  0.13408  1.0000
  C   C813      1.0  0.90217  0.05962  0.14757  1.0000
  H   H647      1.0  0.54152  0.38354  0.10684  1.0000
  H   H648      1.0  0.95454  0.18109  0.11904  1.0000
  C   C814      1.0  0.49999  0.02824  0.12765  1.0000
  H   H649      1.0  0.65899  0.11224  0.97213  1.0000
  C   C815      1.0  0.76691  0.99300  0.13520  1.0000
  C   C816      1.0  0.80267  0.00798  0.10272  1.0000
  H   H650      1.0  0.94073  0.18251  0.17348  1.0000
  H   H651      1.0  0.72868  0.36021  0.24931  1.0000
  H   H652      1.0  0.63170  0.17224  0.97271  1.0000
  H   H653      1.0  0.88291  0.00219  0.19191  1.0000
  C   C817      1.0  0.52245  0.15067  0.96703  1.0000
  Fe  Fe52      1.0  0.98026  0.31710  0.15432  1.0000
  H   H654      1.0  0.90904  0.20784  0.97415  1.0000
  H   H655      1.0  0.54812  0.01621  0.17577  1.0000
  H   H656      1.0  0.57536  0.99562  0.11097  1.0000
  C   C818      1.0  0.59576  0.17203  0.97500  1.0000
  H   H657      1.0  0.84748  0.05400  0.27066  1.0000
  H   H658      1.0  0.79481  0.36831  0.22666  1.0000
  C   C819      1.0  0.63641  0.05482  0.07620  1.0000
  C   C820      1.0  0.94142  0.19767  0.97096  1.0000
  C   C821      1.0  0.73499  0.46882  0.12504  1.0000
  H   H659      1.0  0.79635  0.20294  0.22172  1.0000
  H   H660      1.0  0.88220  0.14523  0.28166  1.0000
  C   C822      1.0  0.95091  0.03455  0.17274  1.0000
  C   C823      1.0  0.52988  0.19213  0.99220  1.0000
  C   C824      1.0  0.99157  0.24117  0.21210  1.0000
  C   C825      1.0  0.97907  0.25066  0.19174  1.0000
  C   C826      1.0  0.88643  0.43912  0.08506  1.0000
  C   C827      1.0  0.78366  0.38645  0.23696  1.0000
  Fe  Fe53      1.0  0.94765  0.08889  0.27976  1.0000
  H   H661      1.0  0.75913  0.40521  0.15792  1.0000
  H   H662      1.0  0.95071  0.23631  0.16225  1.0000
  H   H663      1.0  0.75689  0.13126  0.26806  1.0000
  C   C828      1.0  0.88447  0.45398  0.22934  1.0000
  H   H664      1.0  0.68402  0.43546  0.13101  1.0000
  H   H665      1.0  0.96576  0.20371  0.00267  1.0000
  H   H666      1.0  0.66844  0.45439  0.16717  1.0000
  H   H667      1.0  0.60442  0.39597  0.96784  1.0000
  H   H668      1.0  0.97630  0.31990  0.22761  1.0000
  C   C829      1.0  0.97334  0.19531  0.98704  1.0000
  C   C830      1.0  0.50199  0.06429  0.02862  1.0000
  H   H669      1.0  0.97892  0.35394  0.19666  1.0000
  C   C831      1.0  0.69373  0.46536  0.15764  1.0000
  C   C832      1.0  0.66899  0.09166  0.96402  1.0000
  C   C833      1.0  0.49842  0.33797  0.04469  1.0000
  S   S105      1.0  0.61230  0.47276  0.99997  1.0000
  S   S106      1.0  0.98429  0.28980  0.18512  1.0000
  H   H670      1.0  0.50117  0.03969  0.02865  1.0000
  C   C834      1.0  0.50292  0.12826  0.02828  1.0000
  C   C835      1.0  0.49977  0.08584  0.10404  1.0000
  H   H671      1.0  0.69684  0.08647  0.28078  1.0000
  H   H672      1.0  0.98899  0.06404  0.19315  1.0000
  H   H673      1.0  0.51471  0.20785  0.00326  1.0000
  S   S107      1.0  0.99006  0.37378  0.10800  1.0000
  C   C836      1.0  0.51833  0.08791  0.95099  1.0000
  H   H674      1.0  0.98353  0.23378  0.11626  1.0000
  C   C837      1.0  0.95119  0.18694  0.95074  1.0000
  Fe  Fe54      1.0  0.98164  0.12150  0.23988  1.0000
  H   H675      1.0  0.58471  0.13552  0.95310  1.0000
  C   C838      1.0  0.98620  0.18701  0.12634  1.0000
  H   H676      1.0  0.95678  0.05989  0.95139  1.0000
  H   H677      1.0  0.90423  0.14549  0.41595  1.0000
  H   H678      1.0  0.99039  0.01101  0.56114  1.0000
  S   S108      1.0  0.61510  0.08447  0.57441  1.0000
  H   H679      1.0  0.53047  0.15064  0.37653  1.0000
  C   C839      1.0  0.68503  0.45649  0.50461  1.0000
  H   H680      1.0  0.69988  0.43392  0.50455  1.0000
  Fe  Fe55      1.0  0.57018  0.00992  0.34416  1.0000
  C   C840      1.0  0.83685  0.20288  0.58350  1.0000
  H   H681      1.0  0.94943  0.06214  0.54350  1.0000
  Fe  Fe56      1.0  0.60635  0.44541  0.34748  1.0000
  S   S109      1.0  0.58872  0.39440  0.34466  1.0000
  Fe  Fe57      1.0  0.66407  0.99531  0.32749  1.0000
  S   S110      1.0  0.71287  0.00659  0.30080  1.0000
  H   H682      1.0  0.67439  0.17601  0.30819  1.0000
  S   S111      1.0  0.63739  0.03170  0.34905  1.0000
  H   H683      1.0  0.69129  0.45120  0.40883  1.0000
  S   S112      1.0  0.84433  0.01070  0.50484  1.0000
  S   S113      1.0  0.78284  0.99433  0.56112  1.0000
  Fe  Fe58      1.0  0.88900  0.43355  0.53376  1.0000
  H   H684      1.0  0.97381  0.01751  0.45576  1.0000
  S   S114      1.0  0.92254  0.38957  0.54641  1.0000
  Fe  Fe59      1.0  0.91800  0.00564  0.51169  1.0000
  C   C841      1.0  0.67280  0.03686  0.58600  1.0000
  H   H685      1.0  0.74416  0.07179  0.60427  1.0000
  H   H686      1.0  0.62354  0.09594  0.29790  1.0000
  C   C842      1.0  0.54699  0.10612  0.38850  1.0000
  S   S115      1.0  0.81361  0.43409  0.53138  1.0000
  C   C843      1.0  0.82983  0.06543  0.46694  1.0000
  H   H687      1.0  0.73875  0.16992  0.33887  1.0000
  H   H688      1.0  0.95459  0.33160  0.56152  1.0000
  H   H689      1.0  0.85377  0.22271  0.33701  1.0000
  C   C844      1.0  0.71688  0.99930  0.41955  1.0000
  H   H690      1.0  0.72711  0.25311  0.37367  1.0000
  C   C845      1.0  0.72772  0.11861  0.61084  1.0000
  H   H691      1.0  0.80743  0.05099  0.41462  1.0000
  H   H692      1.0  0.62714  0.00609  0.47714  1.0000
  C   C846      1.0  0.72512  0.00749  0.44058  1.0000
  C   C847      1.0  0.72114  0.22882  0.37236  1.0000
  H   H693      1.0  0.85089  0.05473  0.59939  1.0000
  C   C848      1.0  0.58091  0.08460  0.39165  1.0000
  C   C849      1.0  0.52645  0.09042  0.33390  1.0000
  C   C850      1.0  0.73226  0.44609  0.43678  1.0000
  H   H694      1.0  0.55764  0.08054  0.32864  1.0000
  C   C851      1.0  0.53729  0.37386  0.34789  1.0000
  H   H695      1.0  0.76255  0.47341  0.37934  1.0000
  C   C852      1.0  0.53582  0.34267  0.34259  1.0000
  S   S116      1.0  0.66894  0.01370  0.40670  1.0000
  H   H696      1.0  0.56573  0.33171  0.33671  1.0000
  C   C853      1.0  0.76510  0.02601  0.30280  1.0000
  C   C854      1.0  0.97089  0.07852  0.53588  1.0000
  C   C855      1.0  0.85966  0.20580  0.32491  1.0000
  C   C856      1.0  0.84658  0.05948  0.30427  1.0000
  C   C857      1.0  0.82294  0.05258  0.32282  1.0000
  C   C858      1.0  0.78262  0.03580  0.32211  1.0000
  H   H697      1.0  0.94196  0.11415  0.44427  1.0000
  H   H698      1.0  0.83578  0.06023  0.33783  1.0000
  H   H699      1.0  0.76485  0.03061  0.33644  1.0000
  H   H700      1.0  0.82765  0.10889  0.60233  1.0000
  C   C859      1.0  0.71391  0.98060  0.50720  1.0000
  H   H701      1.0  0.72384  0.06382  0.36052  1.0000
  H   H702      1.0  0.86763  0.20867  0.57542  1.0000
  H   H703      1.0  0.79253  0.10411  0.42599  1.0000
  H   H704      1.0  0.76513  0.11310  0.33727  1.0000
  H   H705      1.0  0.49856  0.41136  0.35988  1.0000
  C   C860      1.0  0.60084  0.14063  0.37307  1.0000
  H   H706      1.0  0.76635  0.00006  0.46820  1.0000
  H   H707      1.0  0.77369  0.03137  0.38166  1.0000
  C   C861      1.0  0.66060  0.05839  0.57080  1.0000
  H   H708      1.0  0.75331  0.22476  0.34223  1.0000
  C   C862      1.0  0.71012  0.01753  0.58271  1.0000
  C   C863      1.0  0.73581  0.01930  0.56417  1.0000
  C   C864      1.0  0.72348  0.04077  0.54891  1.0000
  C   C865      1.0  0.68596  0.05992  0.55216  1.0000
  H   H709      1.0  0.57305  0.06249  0.39824  1.0000
  H   H710      1.0  0.60737  0.16197  0.36513  1.0000
  H   H711      1.0  0.74284  0.04261  0.53462  1.0000
  H   H712      1.0  0.67641  0.07604  0.54010  1.0000
  C   C866      1.0  0.89993  0.16157  0.31237  1.0000
  C   C867      1.0  0.72735  0.18164  0.35279  1.0000
  H   H713      1.0  0.98072  0.14346  0.47207  1.0000
  C   C868      1.0  0.63514  0.11907  0.37612  1.0000
  H   H714      1.0  0.70058  0.46496  0.53722  1.0000
  H   H715      1.0  0.76584  0.42250  0.58181  1.0000
  H   H716      1.0  0.90727  0.98989  0.44249  1.0000
  C   C869      1.0  0.95646  0.02566  0.44181  1.0000
  C   C870      1.0  0.73170  0.41607  0.61134  1.0000
  Fe  Fe60      1.0  0.64755  0.99667  0.37443  1.0000
  H   H717      1.0  0.99089  0.43801  0.42275  1.0000
  C   C871      1.0  0.83502  0.09924  0.58705  1.0000
  C   C872      1.0  0.84836  0.06884  0.58545  1.0000
  C   C873      1.0  0.85804  0.05641  0.56577  1.0000
  C   C874      1.0  0.85426  0.07420  0.54760  1.0000
  C   C875      1.0  0.84007  0.10458  0.54903  1.0000
  C   C876      1.0  0.83056  0.11699  0.56891  1.0000
  P   P30       1.0  0.83198  0.12752  0.52572  1.0000
  C   C877      1.0  0.87650  0.15507  0.52287  1.0000
  C   C878      1.0  0.83058  0.10355  0.50251  1.0000
  C   C879      1.0  0.87091  0.09453  0.49302  1.0000
  C   C880      1.0  0.87048  0.07565  0.47528  1.0000
  C   C881      1.0  0.75457  0.46088  0.45339  1.0000
  C   C882      1.0  0.78951  0.07423  0.47628  1.0000
  C   C883      1.0  0.78979  0.09318  0.49403  1.0000
  C   C884      1.0  0.88424  0.16867  0.50320  1.0000
  C   C885      1.0  0.91807  0.19042  0.50088  1.0000
  P   P31       1.0  0.96661  0.09773  0.40105  1.0000
  H   H718      1.0  0.51973  0.27284  0.48438  1.0000
  C   C886      1.0  0.90313  0.16360  0.54014  1.0000
  C   C887      1.0  0.77879  0.14667  0.52897  1.0000
  C   C888      1.0  0.77303  0.17721  0.52299  1.0000
  C   C889      1.0  0.73191  0.19184  0.52624  1.0000
  C   C890      1.0  0.69634  0.17608  0.53542  1.0000
  C   C891      1.0  0.70183  0.14569  0.54139  1.0000
  C   C892      1.0  0.74289  0.13108  0.53824  1.0000
  C   C893      1.0  0.50946  0.41524  0.30427  1.0000
  C   C894      1.0  0.79562  0.21251  0.57538  1.0000
  H   H719      1.0  0.86768  0.03271  0.56459  1.0000
  H   H720      1.0  0.86201  0.06400  0.53256  1.0000
  H   H721      1.0  0.81919  0.14030  0.57030  1.0000
  H   H722      1.0  0.90285  0.10144  0.49962  1.0000
  C   C895      1.0  0.73398  0.11031  0.32871  1.0000
  C   C896      1.0  0.69808  0.21356  0.38827  1.0000
  C   C897      1.0  0.65443  0.10057  0.30634  1.0000
  H   H723      1.0  0.75820  0.09924  0.50117  1.0000
  H   H724      1.0  0.86408  0.16250  0.48965  1.0000
  P   P32       1.0  0.69074  0.12613  0.36606  1.0000
  C   C898      1.0  0.76101  0.99441  0.45181  1.0000
  H   H725      1.0  0.89897  0.15311  0.55537  1.0000
  H   H726      1.0  0.80012  0.18988  0.51592  1.0000
  H   H727      1.0  0.72757  0.21540  0.52157  1.0000
  H   H728      1.0  0.66444  0.18737  0.53786  1.0000
  H   H729      1.0  0.67422  0.13328  0.54839  1.0000
  H   H730      1.0  0.74668  0.10757  0.54307  1.0000
  H   H731      1.0  0.70282  0.02328  0.44837  1.0000
  C   C899      1.0  0.82969  0.04897  0.28503  1.0000
  C   C900      1.0  0.69567  0.09542  0.29666  1.0000
  C   C901      1.0  0.94413  0.19894  0.51821  1.0000
  C   C902      1.0  0.73588  0.21284  0.35466  1.0000
  H   H732      1.0  0.97747  0.10709  0.56338  1.0000
  H   H733      1.0  0.91103  0.18233  0.34259  1.0000
  H   H734      1.0  0.73708  0.98822  0.51926  1.0000
  C   C903      1.0  0.91879  0.01014  0.43440  1.0000
  S   S117      1.0  0.89487  0.08321  0.30574  1.0000
  H   H735      1.0  0.73255  0.42148  0.43598  1.0000
  C   C904      1.0  0.89091  0.44208  0.44791  1.0000
  H   H736      1.0  0.74148  0.12649  0.59608  1.0000
  S   S118      1.0  0.90801  0.98202  0.54275  1.0000
  H   H737      1.0  0.71929  0.00109  0.59465  1.0000
  H   H738      1.0  0.75807  0.06572  0.47003  1.0000
  C   C905      1.0  0.91089  0.04685  0.40615  1.0000
  C   C906      1.0  0.89624  0.02057  0.41650  1.0000
  H   H739      1.0  0.90184  0.06794  0.46855  1.0000
  H   H740      1.0  0.51266  0.10071  0.39252  1.0000
  C   C907      1.0  0.65288  0.11065  0.32719  1.0000
  C   C908      1.0  0.91799  0.11595  0.38940  1.0000
  C   C909      1.0  0.89397  0.13841  0.40038  1.0000
  C   C910      1.0  0.85614  0.15201  0.39125  1.0000
  C   C911      1.0  0.84202  0.14330  0.37113  1.0000
  C   C912      1.0  0.86570  0.12102  0.36010  1.0000
  C   C913      1.0  0.90340  0.10733  0.36917  1.0000
  S   S119      1.0  0.59510  0.97600  0.32022  1.0000
  H   H741      1.0  0.92093  0.08988  0.36031  1.0000
  S   S120      1.0  0.78164  0.43862  0.47283  1.0000
  H   H742      1.0  0.54408  0.13639  0.32521  1.0000
  C   C914      1.0  0.70893  0.46287  0.42136  1.0000
  H   H743      1.0  0.58645  0.24392  0.58827  1.0000
  C   C915      1.0  0.70386  0.16616  0.36863  1.0000
  H   H744      1.0  0.65028  0.07382  0.38791  1.0000
  C   C916      1.0  0.62486  0.09111  0.38564  1.0000
  H   H745      1.0  0.82967  0.04982  0.45371  1.0000
  H   H746      1.0  0.89287  0.05440  0.39230  1.0000
  S   S121      1.0  0.89684  0.45428  0.50174  1.0000
  C   C917      1.0  0.96571  0.36452  0.53695  1.0000
  C   C918      1.0  0.65866  0.18679  0.60177  1.0000
  H   H747      1.0  0.86738  0.00809  0.41068  1.0000
  C   C919      1.0  0.51857  0.12192  0.33188  1.0000
  H   H748      1.0  0.83766  0.16926  0.39980  1.0000
  H   H749      1.0  0.81274  0.15376  0.36408  1.0000
  H   H750      1.0  0.85508  0.11432  0.34441  1.0000
  H   H751      1.0  0.92503  0.14401  0.31479  1.0000
  Fe  Fe61      1.0  0.82171  0.45771  0.50035  1.0000
  H   H752      1.0  0.72441  0.21330  0.57935  1.0000
  C   C920      1.0  0.94842  0.06290  0.41368  1.0000
  H   H753      1.0  0.79451  0.22576  0.56100  1.0000
  H   H754      1.0  0.83777  0.40127  0.59456  1.0000
  C   C921      1.0  0.93205  0.43033  0.44142  1.0000
  C   C922      1.0  0.87685  0.47085  0.44112  1.0000
  C   C923      1.0  0.87552  0.16237  0.29353  1.0000
  C   C924      1.0  0.64255  0.16419  0.58810  1.0000
  C   C925      1.0  0.60691  0.17042  0.57442  1.0000
  C   C926      1.0  0.58660  0.19910  0.57448  1.0000
  C   C927      1.0  0.60247  0.22178  0.58801  1.0000
  S   S122      1.0  0.67790  0.46077  0.35366  1.0000
  C   C928      1.0  0.49818  0.38753  0.35557  1.0000
  H   H755      1.0  0.75299  0.16479  0.29887  1.0000
  H   H756      1.0  0.92421  0.20074  0.48569  1.0000
  C   C929      1.0  0.68951  0.18237  0.38644  1.0000
  H   H757      1.0  0.55681  0.43501  0.60593  1.0000
  C   C930      1.0  0.75713  0.18840  0.60461  1.0000
  C   C931      1.0  0.74596  0.97907  0.40948  1.0000
  H   H758      1.0  0.97059  0.21565  0.51648  1.0000
  Fe  Fe62      1.0  0.56068  0.09231  0.59973  1.0000
  C   C932      1.0  0.49340  0.07159  0.34230  1.0000
  H   H759      1.0  0.49551  0.30167  0.34033  1.0000
  H   H760      1.0  0.65701  0.14161  0.58800  1.0000
  H   H761      1.0  0.59426  0.15257  0.56420  1.0000
  H   H762      1.0  0.55812  0.20352  0.56430  1.0000
  H   H763      1.0  0.87001  0.42896  0.45844  1.0000
  C   C933      1.0  0.83542  0.20684  0.30603  1.0000
  C   C934      1.0  0.76855  0.41423  0.59786  1.0000
  C   C935      1.0  0.89198  0.18318  0.32805  1.0000
  H   H764      1.0  0.68618  0.22605  0.40187  1.0000
  H   H765      1.0  0.62055  0.11400  0.33441  1.0000
  C   C936      1.0  0.98402  0.07388  0.51504  1.0000
  H   H766      1.0  0.81097  0.22479  0.30366  1.0000
  C   C937      1.0  0.73538  0.10081  0.30773  1.0000
  H   H767      1.0  0.98602  0.39216  0.51078  1.0000
  C   C938      1.0  0.95895  0.44713  0.42778  1.0000
  H   H768      1.0  0.65375  0.03542  0.60037  1.0000
  S   S123      1.0  0.51904  0.13461  0.59426  1.0000
  H   H769      1.0  0.67106  0.17097  0.39880  1.0000
  C   C939      1.0  0.55708  0.13426  0.37946  1.0000
  C   C940      1.0  0.69263  0.11522  0.33864  1.0000
  H   H770      1.0  0.76732  0.09646  0.30028  1.0000
  H   H771      1.0  0.94303  0.40825  0.44707  1.0000
  H   H772      1.0  0.70089  0.42581  0.60532  1.0000
  C   C941      1.0  0.93642  0.18568  0.53782  1.0000
  C   C942      1.0  0.49597  0.32548  0.34469  1.0000
  H   H773      1.0  0.74274  0.13715  0.40490  1.0000
  C   C943      1.0  0.77826  0.09573  0.41141  1.0000
  C   C944      1.0  0.78699  0.06587  0.40497  1.0000
  C   C945      1.0  0.76799  0.05479  0.38639  1.0000
  C   C946      1.0  0.73978  0.07336  0.37436  1.0000
  C   C947      1.0  0.73083  0.10343  0.38064  1.0000
  C   C948      1.0  0.75007  0.11443  0.39936  1.0000
  S   S124      1.0  0.50115  0.03179  0.34430  1.0000
  C   C949      1.0  0.63850  0.21574  0.60153  1.0000
  H   H774      1.0  0.66567  0.45458  0.47201  1.0000
  H   H775      1.0  0.54325  0.42197  0.30842  1.0000
  H   H776      1.0  0.68006  0.02379  0.50481  1.0000
  C   C950      1.0  0.97441  0.33712  0.54784  1.0000
  C   C951      1.0  0.97154  0.05172  0.43140  1.0000
  C   C952      1.0  0.75587  0.20541  0.58590  1.0000
  C   C953      1.0  0.78915  0.03246  0.28432  1.0000
  Fe  Fe63      1.0  0.83392  0.98425  0.53479  1.0000
  C   C954      1.0  0.80922  0.40235  0.60508  1.0000
  C   C955      1.0  0.97364  0.12498  0.44074  1.0000
  H   H777      1.0  0.95723  0.19201  0.55114  1.0000
  C   C956      1.0  0.66599  0.46825  0.48621  1.0000
  S   S125      1.0  0.49905  0.06374  0.60583  1.0000
  H   H778      1.0  0.50433  0.23709  0.60370  1.0000
  C   C957      1.0  0.84311  0.18506  0.29022  1.0000
  C   C958      1.0  0.83839  0.18591  0.60209  1.0000
  C   C959      1.0  0.65186  0.99055  0.48358  1.0000
  H   H779      1.0  0.50108  0.27708  0.44637  1.0000
  S   S126      1.0  0.96689  0.04167  0.50054  1.0000
  C   C960      1.0  0.68180  0.00059  0.49906  1.0000
  S   S127      1.0  0.57841  0.97753  0.37111  1.0000
  C   C961      1.0  0.50268  0.39058  0.29078  1.0000
  C   C962      1.0  0.69006  0.18788  0.29521  1.0000
  H   H780      1.0  0.63108  0.21425  0.28788  1.0000
  H   H781      1.0  0.65025  0.23360  0.61190  1.0000
  H   H782      1.0  0.50517  0.29243  0.61192  1.0000
  C   C963      1.0  0.98691  0.10392  0.54711  1.0000
  C   C964      1.0  0.73447  0.18150  0.28981  1.0000
  C   C965      1.0  0.79871  0.17863  0.61259  1.0000
  C   C966      1.0  0.66559  0.20936  0.28372  1.0000
  H   H783      1.0  0.53122  0.37831  0.28456  1.0000
  H   H784      1.0  0.87043  0.17850  0.60838  1.0000
  C   C967      1.0  0.68571  0.47404  0.52295  1.0000
  C   C968      1.0  0.72907  0.08749  0.61537  1.0000
  C   C969      1.0  0.99198  0.37126  0.51934  1.0000
  H   H785      1.0  0.49494  0.97923  0.42778  1.0000
  S   S128      1.0  0.56899  0.35168  0.72650  1.0000
  C   C970      1.0  0.61373  0.42353  0.62538  1.0000
  Fe  Fe64      1.0  0.56023  0.36598  0.76029  1.0000
  S   S129      1.0  0.61716  0.37565  0.78399  1.0000
  H   H786      1.0  0.69664  0.09235  0.86181  1.0000
  C   C971      1.0  0.64927  0.46580  0.64329  1.0000
  S   S130      1.0  0.57195  0.10394  0.63396  1.0000
  H   H787      1.0  0.52340  0.44575  0.65322  1.0000
  H   H788      1.0  0.76849  0.22089  0.64132  1.0000
  H   H789      1.0  0.53198  0.16983  0.92570  1.0000
  S   S131      1.0  0.81548  0.45031  0.85496  1.0000
  C   C972      1.0  0.69077  0.23945  0.67802  1.0000
  Fe  Fe65      1.0  0.90001  0.02717  0.84463  1.0000
  H   H790      1.0  0.73970  0.04414  0.68953  1.0000
  S   S132      1.0  0.91862  0.07829  0.84262  1.0000
  Fe  Fe66      1.0  0.89093  0.45129  0.85776  1.0000
  S   S133      1.0  0.93487  0.41435  0.87250  1.0000
  H   H791      1.0  0.87723  0.09846  0.88790  1.0000
  H   H792      1.0  0.70709  0.01778  0.93591  1.0000
  C   C973      1.0  0.62241  0.01741  0.64491  1.0000
  S   S134      1.0  0.82992  0.01748  0.85620  1.0000
  H   H793      1.0  0.60483  0.03891  0.74706  1.0000
  C   C974      1.0  0.64550  0.98031  0.88954  1.0000
  P   P33       1.0  0.70627  0.17938  0.61868  1.0000
  H   H794      1.0  0.60118  0.39024  0.66691  1.0000
  H   H795      1.0  0.56147  0.05374  0.70665  1.0000
  C   C975      1.0  0.92572  0.21070  0.86967  1.0000
  H   H796      1.0  0.54177  0.25731  0.64772  1.0000
  C   C976      1.0  0.50342  0.16062  0.91736  1.0000
  H   H797      1.0  0.52197  0.19985  0.71389  1.0000
  H   H798      1.0  0.53413  0.28516  0.68164  1.0000
  C   C977      1.0  0.53266  0.26057  0.68130  1.0000
  H   H799      1.0  0.75038  0.41648  0.82034  1.0000
  H   H800      1.0  0.68272  0.29576  0.64742  1.0000
  C   C978      1.0  0.96676  0.13219  0.84307  1.0000
  C   C979      1.0  0.74513  0.03637  0.70551  1.0000
  C   C980      1.0  0.70100  0.20257  0.64215  1.0000
  C   C981      1.0  0.66178  0.40256  0.78703  1.0000
  C   C982      1.0  0.66891  0.42655  0.77291  1.0000
  C   C983      1.0  0.70516  0.44687  0.77599  1.0000
  C   C984      1.0  0.73461  0.44376  0.79328  1.0000
  C   C985      1.0  0.72744  0.41976  0.80734  1.0000
  C   C986      1.0  0.69127  0.39946  0.80428  1.0000
  H   H801      1.0  0.64658  0.42940  0.75963  1.0000
  H   H802      1.0  0.71039  0.46510  0.76489  1.0000
  H   H803      1.0  0.70976  0.05223  0.63701  1.0000
  H   H804      1.0  0.68636  0.38094  0.81523  1.0000
  C   C987      1.0  0.52809  0.24452  0.70014  1.0000
  C   C988      1.0  0.66010  0.20345  0.65298  1.0000
  H   H805      1.0  0.94647  0.03496  0.91668  1.0000
  C   C989      1.0  0.53380  0.21272  0.66131  1.0000
  H   H806      1.0  0.69608  0.08935  0.70967  1.0000
  C   C990      1.0  0.95861  0.05823  0.91759  1.0000
  C   C991      1.0  0.96779  0.22110  0.87608  1.0000
  H   H807      1.0  0.85957  0.04718  0.90184  1.0000
  H   H808      1.0  0.56810  0.43315  0.72752  1.0000
  H   H809      1.0  0.58376  0.15016  0.70588  1.0000
  C   C992      1.0  0.79317  0.37349  0.86255  1.0000
  C   C993      1.0  0.74832  0.38236  0.86440  1.0000
  C   C994      1.0  0.73240  0.39536  0.88320  1.0000
  C   C995      1.0  0.76285  0.40025  0.89980  1.0000
  P   P34       1.0  0.67477  0.40848  0.88486  1.0000
  C   C996      1.0  0.67367  0.44792  0.87682  1.0000
  C   C997      1.0  0.64167  0.38658  0.86638  1.0000
  C   C998      1.0  0.61288  0.40112  0.85199  1.0000
  C   C999      1.0  0.58968  0.38408  0.83691  1.0000
  C   C1000     1.0  0.59487  0.35250  0.83608  1.0000
  C   C1001     1.0  0.62283  0.33779  0.85055  1.0000
  C   C1002     1.0  0.64608  0.35473  0.86570  1.0000
  C   C1003     1.0  0.64812  0.46968  0.88772  1.0000
  C   C1004     1.0  0.70768  0.13916  0.62494  1.0000
  C   C1005     1.0  0.60079  0.38017  0.93574  1.0000
  C   C1006     1.0  0.49937  0.24829  0.90958  1.0000
  C   C1007     1.0  0.69660  0.45669  0.85859  1.0000
  C   C1008     1.0  0.65268  0.40388  0.91123  1.0000
  C   C1009     1.0  0.66892  0.42204  0.92777  1.0000
  H   H810      1.0  0.60761  0.29277  0.66362  1.0000
  H   H811      1.0  0.77998  0.38619  0.65550  1.0000
  H   H812      1.0  0.51469  0.18874  0.89010  1.0000
  C   C1010     1.0  0.61811  0.38301  0.91539  1.0000
  C   C1011     1.0  0.57642  0.99596  0.75577  1.0000
  C   C1012     1.0  0.98348  0.10425  0.90025  1.0000
  H   H813      1.0  0.80531  0.36397  0.84790  1.0000
  H   H814      1.0  0.72653  0.37967  0.85089  1.0000
  H   H815      1.0  0.49809  0.07730  0.91899  1.0000
  H   H816      1.0  0.60899  0.42562  0.85194  1.0000
  H   H817      1.0  0.56896  0.39545  0.82524  1.0000
  H   H818      1.0  0.57809  0.33964  0.82379  1.0000
  H   H819      1.0  0.62730  0.31335  0.84964  1.0000
  H   H820      1.0  0.66835  0.34313  0.87656  1.0000
  H   H821      1.0  0.62928  0.46355  0.90155  1.0000
  C   C1013     1.0  0.58253  0.44354  0.61644  1.0000
  H   H822      1.0  0.53927  0.02857  0.91762  1.0000
  H   H823      1.0  0.81887  0.46959  0.91728  1.0000
  H   H824      1.0  0.71578  0.44026  0.84975  1.0000
  H   H825      1.0  0.63995  0.12183  0.84212  1.0000
  P   P35       1.0  0.65233  0.02893  0.70749  1.0000
  C   C1014     1.0  0.68923  0.09663  0.64783  1.0000
  H   H826      1.0  0.75331  0.45298  0.72893  1.0000
  H   H827      1.0  0.60396  0.36912  0.90301  1.0000
  S   S135      1.0  0.89195  0.99311  0.81823  1.0000
  C   C1015     1.0  0.82290  0.37811  0.87926  1.0000
  S   S136      1.0  0.54141  0.19384  0.63681  1.0000
  C   C1016     1.0  0.53642  0.24471  0.66207  1.0000
  H   H828      1.0  0.62340  0.22211  0.67916  1.0000
  C   C1017     1.0  0.70867  0.42260  0.67515  1.0000
  H   H829      1.0  0.57392  0.36428  0.93889  1.0000
  C   C1018     1.0  0.68832  0.12787  0.64348  1.0000
  C   C1019     1.0  0.69156  0.41132  0.69420  1.0000
  H   H830      1.0  0.69425  0.41347  0.72807  1.0000
  H   H831      1.0  0.58242  0.01053  0.94876  1.0000
  C   C1020     1.0  0.78879  0.03550  0.71362  1.0000
  C   C1021     1.0  0.66246  0.37178  0.65365  1.0000
  P   P36       1.0  0.68822  0.40869  0.65003  1.0000
  H   H832      1.0  0.59803  0.04490  0.67008  1.0000
  C   C1022     1.0  0.59964  0.01549  0.74233  1.0000
  C   C1023     1.0  0.80779  0.39163  0.89781  1.0000
  C   C1024     1.0  0.73671  0.22063  0.64940  1.0000
  H   H833      1.0  0.61201  0.39957  0.62142  1.0000
  C   C1025     1.0  0.61940  0.36983  0.66245  1.0000
  C   C1026     1.0  0.76050  0.01687  0.74683  1.0000
  C   C1027     1.0  0.62263  0.31478  0.66066  1.0000
  H   H834      1.0  0.51194  0.23402  0.94158  1.0000
  C   C1028     1.0  0.49567  0.00195  0.69801  1.0000
  H   H835      1.0  0.54867  0.11376  0.89389  1.0000
  C   C1029     1.0  0.97943  0.10250  0.93826  1.0000
  H   H836      1.0  0.66574  0.14155  0.70841  1.0000
  C   C1030     1.0  0.96494  0.38534  0.85919  1.0000
  C   C1031     1.0  0.62212  0.02764  0.66573  1.0000
  C   C1032     1.0  0.96434  0.07235  0.93713  1.0000
  H   H837      1.0  0.93437  0.14298  0.84129  1.0000
  C   C1033     1.0  0.65279  0.99496  0.63867  1.0000
  H   H838      1.0  0.67173  0.14282  0.65448  1.0000
  H   H839      1.0  0.66587  0.39402  0.69445  1.0000
  H   H840      1.0  0.75922  0.25275  0.67287  1.0000
  C   C1034     1.0  0.65190  0.41887  0.94812  1.0000
  Fe  Fe67      1.0  0.52607  0.14411  0.62892  1.0000
  C   C1035     1.0  0.68775  0.06479  0.93174  1.0000
  H   H841      1.0  0.92598  0.18882  0.93852  1.0000
  H   H842      1.0  0.56341  0.00433  0.77057  1.0000
  C   C1036     1.0  0.64317  0.12227  0.70803  1.0000
  C   C1037     1.0  0.99160  0.20556  0.89175  1.0000
  C   C1038     1.0  0.75814  0.45597  0.69511  1.0000
  C   C1039     1.0  0.73528  0.40588  0.63225  1.0000
  H   H843      1.0  0.60387  0.44057  0.69295  1.0000
  H   H844      1.0  0.96390  0.06321  0.88400  1.0000
  C   C1040     1.0  0.70878  0.02731  0.71799  1.0000
  C   C1041     1.0  0.65508  0.22170  0.67085  1.0000
  H   H845      1.0  0.60530  0.08484  0.91395  1.0000
  C   C1042     1.0  0.54035  0.04235  0.93176  1.0000
  C   C1043     1.0  0.63102  0.06750  0.70826  1.0000
  H   H846      1.0  0.63475  0.01421  0.91331  1.0000
  C   C1044     1.0  0.81311  0.39221  0.62585  1.0000
  H   H847      1.0  0.91577  0.14955  0.90198  1.0000
  C   C1045     1.0  0.58465  0.07269  0.70727  1.0000
  S   S137      1.0  0.52670  0.26314  0.72500  1.0000
  H   H848      1.0  0.68975  0.01082  0.74895  1.0000
  H   H849      1.0  0.67316  0.08800  0.66187  1.0000
  S   S138      1.0  0.51191  0.40807  0.68957  1.0000
  C   C1046     1.0  0.77635  0.39400  0.63941  1.0000
  H   H850      1.0  0.87483  0.17669  0.87390  1.0000
  C   C1047     1.0  0.83297  0.06370  0.89945  1.0000
  C   C1048     1.0  0.84292  0.09268  0.89178  1.0000
  C   C1049     1.0  0.80853  0.11392  0.88879  1.0000
  C   C1050     1.0  0.76403  0.10590  0.89291  1.0000
  C   C1051     1.0  0.75360  0.07619  0.89941  1.0000
  C   C1052     1.0  0.78852  0.05547  0.90329  1.0000
  P   P37       1.0  0.69635  0.06454  0.90364  1.0000
  C   C1053     1.0  0.65625  0.08814  0.88991  1.0000
  C   C1054     1.0  0.68761  0.02752  0.89195  1.0000
  H   H851      1.0  0.84482  0.38318  0.63143  1.0000
  Fe  Fe68      1.0  0.51976  0.31396  0.73277  1.0000
  C   C1055     1.0  0.96269  0.38177  0.83735  1.0000
  C   C1056     1.0  0.69567  0.03838  0.94351  1.0000
  C   C1057     1.0  0.78450  0.46261  0.94677  1.0000
  C   C1058     1.0  0.66512  0.09795  0.86932  1.0000
  C   C1059     1.0  0.63285  0.11439  0.85802  1.0000
  C   C1060     1.0  0.59110  0.12048  0.86699  1.0000
  C   C1061     1.0  0.58150  0.10996  0.88723  1.0000
  C   C1062     1.0  0.61384  0.09372  0.89862  1.0000
  C   C1063     1.0  0.64709  0.43449  0.63908  1.0000
  C   C1064     1.0  0.65413  0.00807  0.89959  1.0000
  S   S139      1.0  0.78037  0.46983  0.79627  1.0000
  H   H852      1.0  0.69432  0.43902  0.92488  1.0000
  C   C1065     1.0  0.49371  0.17145  0.89714  1.0000
  H   H853      1.0  0.94203  0.39700  0.82808  1.0000
  H   H854      1.0  0.81635  0.13640  0.88292  1.0000
  H   H855      1.0  0.73797  0.12273  0.89066  1.0000
  H   H856      1.0  0.78142  0.03264  0.90882  1.0000
  H   H857      1.0  0.73616  0.03422  0.86711  1.0000
  C   C1066     1.0  0.65220  0.01546  0.68057  1.0000
  C   C1067     1.0  0.56774  0.10236  0.70628  1.0000
  H   H858      1.0  0.75571  0.45427  0.66134  1.0000
  Fe  Fe69      1.0  0.50774  0.38072  0.72019  1.0000
  C   C1068     1.0  0.60532  0.45857  0.70459  1.0000
  H   H859      1.0  0.53188  0.10598  0.70484  1.0000
  C   C1069     1.0  0.71683  0.01777  0.73880  1.0000
  H   H860      1.0  0.56682  0.34024  0.67321  1.0000
  C   C1070     1.0  0.68264  0.98249  0.65334  1.0000
  C   C1071     1.0  0.66022  0.09255  0.70879  1.0000
  C   C1072     1.0  0.52783  0.19669  0.68008  1.0000
  H   H861      1.0  0.56588  0.13278  0.85807  1.0000
  H   H862      1.0  0.71803  0.34554  0.64118  1.0000
  C   C1073     1.0  0.96934  0.10011  0.84385  1.0000
  C   C1074     1.0  0.58471  0.45447  0.72406  1.0000
  C   C1075     1.0  0.70756  0.42235  0.71346  1.0000
  C   C1076     1.0  0.73156  0.23893  0.66729  1.0000
  C   C1077     1.0  0.59696  0.12717  0.70667  1.0000
  H   H863      1.0  0.75275  0.41121  0.91419  1.0000
  H   H864      1.0  0.81675  0.04242  0.70393  1.0000
  H   H865      1.0  0.68669  0.25361  0.69188  1.0000
  C   C1078     1.0  0.79646  0.02571  0.73426  1.0000
  C   C1079     1.0  0.74197  0.44518  0.67579  1.0000
  C   C1080     1.0  0.96841  0.07414  0.89917  1.0000
  C   C1081     1.0  0.50212  0.44767  0.68552  1.0000
  H   H866      1.0  0.85799  0.37211  0.87759  1.0000
  C   C1082     1.0  0.52568  0.21250  0.69940  1.0000
  Fe  Fe70      1.0  0.86199  0.98162  0.87647  1.0000
  Fe  Fe71      1.0  0.50801  0.07759  0.63985  1.0000
  C   C1083     1.0  0.90712  0.18498  0.87914  1.0000
  C   C1084     1.0  0.61733  0.00453  0.72331  1.0000
  C   C1085     1.0  0.71133  0.01918  0.87379  1.0000
  C   C1086     1.0  0.74080  0.44467  0.71393  1.0000
  H   H867      1.0  0.63198  0.18998  0.64757  1.0000
  H   H868      1.0  0.65300  0.98719  0.62249  1.0000
  C   C1087     1.0  0.51198  0.98794  0.66210  1.0000
  C   C1088     1.0  0.68220  0.99255  0.67424  1.0000
  C   C1089     1.0  0.78945  0.47489  0.92649  1.0000
  S   S140      1.0  0.93229  0.99287  0.86613  1.0000
  H   H869      1.0  0.90786  0.22239  0.85717  1.0000
  C   C1090     1.0  0.93070  0.16951  0.89493  1.0000
  H   H870      1.0  0.52579  0.17210  0.67976  1.0000
  C   C1091     1.0  0.97352  0.17942  0.90116  1.0000
  C   C1092     1.0  0.50316  0.01065  0.67698  1.0000
  C   C1093     1.0  0.59972  0.34145  0.66603  1.0000
  C   C1094     1.0  0.68506  0.34485  0.64812  1.0000
  C   C1095     1.0  0.98716  0.35833  0.82747  1.0000
  H   H871      1.0  0.67105  0.11272  0.93352  1.0000
  H   H872      1.0  0.56748  0.47508  0.75365  1.0000
  H   H873      1.0  0.59873  0.02686  0.63367  1.0000
  H   H874      1.0  0.97191  0.46902  0.90058  1.0000
  C   C1096     1.0  0.98860  0.11883  0.91976  1.0000
  C   C1097     1.0  0.66512  0.31649  0.65161  1.0000
  C   C1098     1.0  0.51709  0.07008  0.93262  1.0000
  H   H875      1.0  0.83024  0.02501  0.74059  1.0000
  S   S141      1.0  0.50121  0.39677  0.75379  1.0000
  S   S142      1.0  0.51580  0.32559  0.76733  1.0000
  H   H876      1.0  0.83127  0.39614  0.91049  1.0000
  C   C1099     1.0  0.67547  0.09173  0.94220  1.0000
  C   C1100     1.0  0.51110  0.46031  0.66564  1.0000
  C   C1101     1.0  0.80178  0.97715  0.94726  1.0000
  S   S143      1.0  0.76616  0.97644  0.80766  1.0000
  H   H877      1.0  0.57706  0.45748  0.93866  1.0000
  S   S144      1.0  0.90198  0.47551  0.82704  1.0000
  H   H878      1.0  0.76643  0.00928  0.76288  1.0000
  H   H879      1.0  0.98241  0.24086  0.86852  1.0000
  C   C1102     1.0  0.70967  0.07646  0.63381  1.0000
  H   H880      1.0  0.72140  0.98509  0.84986  1.0000
  S   S145      1.0  0.85428  0.98102  0.91205  1.0000
  H   H881      1.0  0.99059  0.11637  0.88583  1.0000
  H   H882      1.0  0.53429  0.25285  0.90627  1.0000
  H   H883      1.0  0.51772  0.99418  0.64588  1.0000
  Fe  Fe72      1.0  0.82437  0.98059  0.83154  1.0000
  H   H884      1.0  0.70505  0.98230  0.68549  1.0000
  H   H885      1.0  0.80040  0.16557  0.62704  1.0000
  S   S146      1.0  0.50123  0.05013  0.67039  1.0000
  C   C1103     1.0  0.70274  0.99140  0.86382  1.0000
  H   H886      1.0  0.98521  0.35570  0.81056  1.0000
  C   C1104     1.0  0.58430  0.47458  0.62116  1.0000
  H   H887      1.0  0.78434  0.47300  0.69552  1.0000
  C   C1105     1.0  0.99198  0.36533  0.87100  1.0000
  H   H888      1.0  0.67562  0.47501  0.65304  1.0000
  C   C1106     1.0  0.56463  0.03214  0.94925  1.0000
  P   P38       1.0  0.79802  0.51345  0.11570  1.0000
  H   H889      1.0  0.94574  0.52738  0.24768  1.0000
  H   H890      1.0  0.76119  0.54508  0.99452  1.0000
  Fe  Fe73      1.0  0.58609  0.93975  0.02624  1.0000
  H   H891      1.0  0.73969  0.88813  0.23307  1.0000
  S   S147      1.0  0.51970  0.91417  0.02872  1.0000
  Fe  Fe74      1.0  0.61391  0.49451  0.03216  1.0000
  S   S148      1.0  0.59290  0.54424  0.03948  1.0000
  C   C1107     1.0  0.71679  0.49070  0.16537  1.0000
  C   C1108     1.0  0.89618  0.91610  0.17983  1.0000
  S   S149      1.0  0.72887  0.95115  0.07076  1.0000
  S   S150      1.0  0.65556  0.92234  0.01941  1.0000
  H   H892      1.0  0.82035  0.57850  0.11003  1.0000
  H   H893      1.0  0.70924  0.49946  0.18090  1.0000
  H   H894      1.0  0.50662  0.64060  0.04114  1.0000
  S   S151      1.0  0.93820  0.58730  0.22646  1.0000
  H   H895      1.0  0.68453  0.49432  0.96009  1.0000
  H   H896      1.0  0.49520  0.93186  0.07430  1.0000
  H   H897      1.0  0.94503  0.69574  0.15227  1.0000
  H   H898      1.0  0.77663  0.55899  0.04518  1.0000
  C   C1109     1.0  0.85259  0.53063  0.14958  1.0000
  Fe  Fe75      1.0  0.96642  0.86228  0.10821  1.0000
  S   S152      1.0  0.90902  0.87144  0.08439  1.0000
  C   C1110     1.0  0.50598  0.55553  0.02393  1.0000
  C   C1111     1.0  0.97014  0.74006  0.16121  1.0000
  H   H899      1.0  0.76468  0.52557  0.15890  1.0000
  H   H900      1.0  0.69484  0.56749  0.04985  1.0000
  H   H901      1.0  0.97032  0.53088  0.19183  1.0000
  C   C1112     1.0  0.64751  0.56228  0.96678  1.0000
  H   H902      1.0  0.82095  0.66338  0.27041  1.0000
  H   H903      1.0  0.98255  0.73781  0.02087  1.0000
  C   C1113     1.0  0.92953  0.96214  0.11167  1.0000
  C   C1114     1.0  0.83379  0.48538  0.10316  1.0000
  C   C1115     1.0  0.54411  0.56712  0.03403  1.0000
  H   H904      1.0  0.61789  0.55077  0.99670  1.0000
  C   C1116     1.0  0.54373  0.59802  0.04015  1.0000
  H   H905      1.0  0.68994  0.54096  0.01436  1.0000
  H   H906      1.0  0.57276  0.60739  0.04803  1.0000
  H   H907      1.0  0.90178  0.59730  0.16433  1.0000
  C   C1117     1.0  0.54666  0.85562  0.04006  1.0000
  C   C1118     1.0  0.53861  0.82428  0.04321  1.0000
  H   H908      1.0  0.57794  0.86563  0.04520  1.0000
  H   H909      1.0  0.56401  0.81033  0.05067  1.0000
  C   C1119     1.0  0.77836  0.92816  0.07430  1.0000
  C   C1120     1.0  0.79827  0.92600  0.09445  1.0000
  C   C1121     1.0  0.83790  0.90884  0.09791  1.0000
  C   C1122     1.0  0.85864  0.89354  0.08120  1.0000
  C   C1123     1.0  0.83843  0.89536  0.06114  1.0000
  C   C1124     1.0  0.79877  0.91248  0.05769  1.0000
  C   C1125     1.0  0.51371  0.87400  0.03081  1.0000
  H   H910      1.0  0.85226  0.90734  0.11351  1.0000
  H   H911      1.0  0.85370  0.88351  0.04807  1.0000
  H   H912      1.0  0.78416  0.91365  0.04210  1.0000
  H   H913      1.0  0.57165  0.65353  0.00331  1.0000
  H   H914      1.0  0.89244  0.49333  0.12282  1.0000
  C   C1126     1.0  0.50609  0.61700  0.03628  1.0000
  C   C1127     1.0  0.96067  0.95166  0.09699  1.0000
  H   H915      1.0  0.70276  0.53172  0.11235  1.0000
  C   C1128     1.0  0.96750  0.86824  0.21639  1.0000
  H   H916      1.0  0.68420  0.84745  0.23996  1.0000
  C   C1129     1.0  0.88982  0.50915  0.23018  1.0000
  H   H917      1.0  0.97569  0.94661  0.21665  1.0000
  C   C1130     1.0  0.76581  0.53246  0.09538  1.0000
  H   H918      1.0  0.77445  0.61829  0.26252  1.0000
  S   S153      1.0  0.68728  0.48272  0.03722  1.0000
  C   C1131     1.0  0.72965  0.55060  0.98691  1.0000
  C   C1132     1.0  0.58171  0.61596  0.98194  1.0000
  H   H919      1.0  0.91991  0.87629  0.26457  1.0000
  H   H920      1.0  0.78852  0.50733  0.26946  1.0000
  C   C1133     1.0  0.64874  0.55359  0.98799  1.0000
  C   C1134     1.0  0.75905  0.49389  0.13276  1.0000
  C   C1135     1.0  0.86778  0.48275  0.22362  1.0000
  H   H921      1.0  0.88341  0.90961  0.21287  1.0000
  C   C1136     1.0  0.79071  0.65931  0.27937  1.0000
  H   H922      1.0  0.86508  0.61440  0.13130  1.0000
  C   C1137     1.0  0.79335  0.52653  0.27985  1.0000
  S   S154      1.0  0.67292  0.95373  0.96072  1.0000
  H   H923      1.0  0.96341  0.75033  0.14607  1.0000
  H   H924      1.0  0.89397  0.54366  0.17598  1.0000
  C   C1138     1.0  0.94566  0.47850  0.24803  1.0000
  C   C1139     1.0  0.90167  0.93732  0.16366  1.0000
  H   H925      1.0  0.83760  0.48476  0.21420  1.0000
  C   C1140     1.0  0.86165  0.59094  0.13634  1.0000
  H   H926      1.0  0.82171  0.53641  0.07395  1.0000
  C   C1141     1.0  0.72881  0.55935  0.96577  1.0000
  H   H927      1.0  0.84935  0.54441  0.26213  1.0000
  Fe  Fe76      1.0  0.65850  0.96054  0.99562  1.0000
  C   C1142     1.0  0.69437  0.55041  0.08151  1.0000
  H   H928      1.0  0.94898  0.49613  0.16247  1.0000
  H   H929      1.0  0.61637  0.61319  0.98655  1.0000
  C   C1143     1.0  0.68960  0.54797  0.99804  1.0000
  S   S155      1.0  0.96321  0.64984  0.25197  1.0000
  H   H930      1.0  0.90916  0.92920  0.14798  1.0000
  C   C1144     1.0  0.89753  0.96860  0.16779  1.0000
  C   C1145     1.0  0.55665  0.63917  0.99134  1.0000
  P   P39       1.0  0.59378  0.56710  0.95410  1.0000
  C   C1146     1.0  0.74881  0.50523  0.15288  1.0000
  C   C1147     1.0  0.92413  0.86887  0.24842  1.0000
  C   C1148     1.0  0.93531  0.84972  0.20680  1.0000
  C   C1149     1.0  0.89670  0.84116  0.21781  1.0000
  C   C1150     1.0  0.89192  0.85021  0.23891  1.0000
  P   P40       1.0  0.85477  0.81748  0.20537  1.0000
  C   C1151     1.0  0.80035  0.82690  0.21605  1.0000
  C   C1152     1.0  0.85438  0.82504  0.17735  1.0000
  C   C1153     1.0  0.82675  0.84787  0.16874  1.0000
  C   C1154     1.0  0.82739  0.85382  0.14711  1.0000
  C   C1155     1.0  0.85549  0.83706  0.13391  1.0000
  C   C1156     1.0  0.88314  0.81443  0.14233  1.0000
  C   C1157     1.0  0.88276  0.80853  0.16394  1.0000
  C   C1158     1.0  0.76856  0.80403  0.21988  1.0000
  C   C1159     1.0  0.72682  0.81147  0.22844  1.0000
  C   C1160     1.0  0.71647  0.84174  0.23322  1.0000
  C   C1161     1.0  0.74776  0.86466  0.22934  1.0000
  C   C1162     1.0  0.78947  0.85732  0.22073  1.0000
  C   C1163     1.0  0.86751  0.77780  0.21032  1.0000
  C   C1164     1.0  0.85048  0.75508  0.19694  1.0000
  C   C1165     1.0  0.85982  0.72437  0.20087  1.0000
  C   C1166     1.0  0.88562  0.71608  0.21833  1.0000
  C   C1167     1.0  0.90261  0.73849  0.23175  1.0000
  C   C1168     1.0  0.89372  0.76926  0.22777  1.0000
  C   C1169     1.0  0.98493  0.50841  0.19079  1.0000
  C   C1170     1.0  0.83630  0.57046  0.12431  1.0000
  C   C1171     1.0  0.87779  0.48007  0.11028  1.0000
  H   H931      1.0  0.94056  0.84239  0.19074  1.0000
  H   H932      1.0  0.86324  0.84300  0.24802  1.0000
  H   H933      1.0  0.80478  0.86123  0.17857  1.0000
  H   H934      1.0  0.80608  0.87142  0.14047  1.0000
  H   H935      1.0  0.85596  0.84170  0.11714  1.0000
  H   H936      1.0  0.90525  0.80162  0.13212  1.0000
  H   H937      1.0  0.90487  0.79117  0.17017  1.0000
  H   H938      1.0  0.77576  0.78043  0.21635  1.0000
  H   H939      1.0  0.70246  0.79373  0.23141  1.0000
  C   C1172     1.0  0.76227  0.97078  0.95846  1.0000
  C   C1173     1.0  0.53187  0.52597  0.97084  1.0000
  H   H940      1.0  0.81320  0.87541  0.21775  1.0000
  H   H941      1.0  0.83020  0.76105  0.18338  1.0000
  H   H942      1.0  0.84776  0.70692  0.19020  1.0000
  H   H943      1.0  0.89353  0.69228  0.22108  1.0000
  H   H944      1.0  0.92346  0.73195  0.24499  1.0000
  H   H945      1.0  0.90763  0.78620  0.23826  1.0000
  C   C1174     1.0  0.76441  0.63385  0.27490  1.0000
  H   H946      1.0  0.87691  0.53130  0.22576  1.0000
  Fe  Fe77      1.0  0.93565  0.60336  0.26017  1.0000
  H   H947      1.0  0.89990  0.89207  0.17649  1.0000
  C   C1175     1.0  0.78629  0.54054  0.07633  1.0000
  C   C1176     1.0  0.96846  0.69548  0.18440  1.0000
  Fe  Fe78      1.0  0.97135  0.63224  0.21907  1.0000
  C   C1177     1.0  0.76088  0.55332  0.05999  1.0000
  C   C1178     1.0  0.87790  0.55114  0.16154  1.0000
  H   H948      1.0  0.89536  0.95424  0.11055  1.0000
  H   H949      1.0  0.65852  0.55371  0.08325  1.0000
  C   C1179     1.0  0.88666  0.92594  0.20025  1.0000
  H   H950      1.0  0.78276  0.93752  0.10756  1.0000
  C   C1180     1.0  0.96177  0.87808  0.23710  1.0000
  S   S156      1.0  0.95229  0.65720  0.18887  1.0000
  C   C1181     1.0  0.71966  0.53779  0.09793  1.0000
  C   C1182     1.0  0.71491  0.55813  0.06257  1.0000
  H   H951      1.0  0.95037  0.93566  0.08488  1.0000
  H   H952      1.0  0.84932  0.50735  0.15499  1.0000
  C   C1183     1.0  0.88239  0.58132  0.15495  1.0000
  C   C1184     1.0  0.83152  0.54009  0.13084  1.0000
  H   H953      1.0  0.98162  0.61716  0.14955  1.0000
  C   C1185     1.0  0.92848  0.50700  0.24255  1.0000
  S   S157      1.0  0.96869  0.87064  0.14328  1.0000
  C   C1186     1.0  0.68788  0.56507  0.95567  1.0000
  Fe  Fe79      1.0  0.67960  0.95778  0.04275  1.0000
  C   C1187     1.0  0.95994  0.70911  0.16475  1.0000
  C   C1188     1.0  0.82799  0.54755  0.27561  1.0000
  C   C1189     1.0  0.97275  0.48858  0.17425  1.0000
  H   H954      1.0  0.75975  0.56034  0.95694  1.0000
  H   H955      1.0  0.51993  0.54443  0.98061  1.0000
  C   C1190     1.0  0.98823  0.75770  0.17749  1.0000
  C   C1191     1.0  0.98777  0.71296  0.20040  1.0000
  C   C1192     1.0  0.88210  0.95700  0.20447  1.0000
  C   C1193     1.0  0.56658  0.53054  0.95634  1.0000
  C   C1194     1.0  0.56178  0.59663  0.96697  1.0000
  C   C1195     1.0  0.51315  0.49703  0.97341  1.0000
  H   H956      1.0  0.98657  0.89281  0.24435  1.0000
  H   H957      1.0  0.87550  0.96473  0.22037  1.0000
  C   C1196     1.0  0.51169  0.64330  0.98588  1.0000
  H   H958      1.0  0.50523  0.53183  0.01935  1.0000
  C   C1197     1.0  0.51672  0.60122  0.96136  1.0000
  H   H959      1.0  0.97651  0.47708  0.25703  1.0000
  S   S158      1.0  0.60899  0.97294  0.05104  1.0000
  C   C1198     1.0  0.71369  0.48884  0.95076  1.0000
  C   C1199     1.0  0.49786  0.81093  0.03695  1.0000
  S   S159      1.0  0.58732  0.97549  0.00089  1.0000
  H   H960      1.0  0.50072  0.58665  0.94982  1.0000
  H   H961      1.0  0.76097  0.97447  0.97528  1.0000
  H   H962      1.0  0.67896  0.57347  0.30977  1.0000
  H   H963      1.0  0.55551  0.58844  0.48521  1.0000
  S   S160      1.0  0.62213  0.59537  0.59138  1.0000
  H   H964      1.0  0.56086  0.74280  0.33576  1.0000
  H   H965      1.0  0.60461  0.82388  0.59946  1.0000
  H   H966      1.0  0.54464  0.52806  0.49879  1.0000
  Fe  Fe80      1.0  0.57323  0.51087  0.34258  1.0000
  H   H967      1.0  0.62035  0.66055  0.35876  1.0000
  S   S161      1.0  0.51332  0.63987  0.60150  1.0000
  Fe  Fe81      1.0  0.60645  0.94445  0.34764  1.0000
  S   S162      1.0  0.58650  0.89389  0.35139  1.0000
  Fe  Fe82      1.0  0.66868  0.49490  0.32745  1.0000
  S   S163      1.0  0.72159  0.50262  0.30164  1.0000
  C   C1200     1.0  0.78664  0.49183  0.37908  1.0000
  S   S164      1.0  0.64095  0.53131  0.34840  1.0000
  S   S165      1.0  0.87688  0.60077  0.28364  1.0000
  S   S166      1.0  0.81823  0.50466  0.51428  1.0000
  H   H968      1.0  0.57269  0.64047  0.30853  1.0000
  Fe  Fe83      1.0  0.91020  0.93776  0.52447  1.0000
  Fe  Fe84      1.0  0.81446  0.48101  0.54572  1.0000
  S   S167      1.0  0.94494  0.89519  0.53831  1.0000
  Fe  Fe85      1.0  0.89354  0.49996  0.51809  1.0000
  C   C1201     1.0  0.81808  0.56433  0.43236  1.0000
  H   H969      1.0  0.93832  0.53032  0.37932  1.0000
  H   H970      1.0  0.72995  0.54624  0.51102  1.0000
  C   C1202     1.0  0.52534  0.91875  0.39759  1.0000
  S   S168      1.0  0.83560  0.93841  0.51852  1.0000
  C   C1203     1.0  0.54305  0.57322  0.55121  1.0000
  H   H971      1.0  0.62534  0.60546  0.35544  1.0000
  H   H972      1.0  0.78844  0.60376  0.37024  1.0000
  H   H973      1.0  0.98203  0.84117  0.55727  1.0000
  C   C1204     1.0  0.63054  0.61025  0.30962  1.0000
  H   H974      1.0  0.54705  0.63187  0.36945  1.0000
  H   H975      1.0  0.74021  0.97290  0.39322  1.0000
  H   H976      1.0  0.63373  0.61944  0.51639  1.0000
  H   H977      1.0  0.57224  0.83015  0.52677  1.0000
  H   H978      1.0  0.96600  0.48811  0.41000  1.0000
  C   C1205     1.0  0.79532  0.58110  0.44770  1.0000
  H   H979      1.0  0.54038  0.60646  0.44915  1.0000
  C   C1206     1.0  0.98287  0.86691  0.52840  1.0000
  C   C1207     1.0  0.53065  0.58941  0.35416  1.0000
  C   C1208     1.0  0.57132  0.56647  0.29330  1.0000
  H   H980      1.0  0.55964  0.57741  0.36014  1.0000
  C   C1209     1.0  0.54005  0.87160  0.34225  1.0000
  H   H981      1.0  0.68432  0.55466  0.46533  1.0000
  C   C1210     1.0  0.53102  0.84344  0.35200  1.0000
  C   C1211     1.0  0.71461  0.64681  0.30375  1.0000
  H   H982      1.0  0.55199  0.83597  0.36493  1.0000
  C   C1212     1.0  0.76490  0.53012  0.29732  1.0000
  H   H983      1.0  0.84510  0.47964  0.44657  1.0000
  H   H984      1.0  0.79092  0.59214  0.48064  1.0000
  H   H985      1.0  0.73253  0.68771  0.32085  1.0000
  C   C1213     1.0  0.49505  0.82482  0.34526  1.0000
  C   C1214     1.0  0.77157  0.55535  0.31048  1.0000
  C   C1215     1.0  0.96563  0.57483  0.53570  1.0000
  H   H986      1.0  0.57369  0.74069  0.56720  1.0000
  H   H987      1.0  0.75020  0.55859  0.32399  1.0000
  C   C1216     1.0  0.51247  0.88078  0.32555  1.0000
  H   H988      1.0  0.59640  0.59826  0.42097  1.0000
  C   C1217     1.0  0.49895  0.54723  0.42565  1.0000
  C   C1218     1.0  0.70148  0.62994  0.52523  1.0000
  C   C1219     1.0  0.58306  0.55636  0.52007  1.0000
  C   C1220     1.0  0.64382  0.57596  0.44146  1.0000
  H   H989      1.0  0.62070  0.52982  0.60058  1.0000
  H   H990      1.0  0.64579  0.69033  0.29516  1.0000
  C   C1221     1.0  0.69028  0.62063  0.34503  1.0000
  P   P41       1.0  0.63276  0.55534  0.50392  1.0000
  C   C1222     1.0  0.65862  0.56449  0.58503  1.0000
  C   C1223     1.0  0.65059  0.53467  0.59171  1.0000
  C   C1224     1.0  0.68171  0.51127  0.58716  1.0000
  C   C1225     1.0  0.72073  0.51722  0.57546  1.0000
  C   C1226     1.0  0.72819  0.54691  0.56838  1.0000
  C   C1227     1.0  0.69743  0.57036  0.57320  1.0000
  C   C1228     1.0  0.85366  0.54495  0.43806  1.0000
  C   C1229     1.0  0.73100  0.50944  0.43877  1.0000
  H   H991      1.0  0.75829  0.55192  0.55966  1.0000
  H   H992      1.0  0.70408  0.59332  0.56795  1.0000
  H   H993      1.0  0.77154  0.63387  0.53318  1.0000
  H   H994      1.0  0.63013  0.95309  0.46448  1.0000
  C   C1230     1.0  0.67681  0.57997  0.51350  1.0000
  C   C1231     1.0  0.60320  0.59037  0.43683  1.0000
  C   C1232     1.0  0.60392  0.71928  0.31391  1.0000
  C   C1233     1.0  0.72310  0.58987  0.38071  1.0000
  C   C1234     1.0  0.65256  0.56554  0.46186  1.0000
  S   S169      1.0  0.50856  0.53561  0.33417  1.0000
  Fe  Fe86      1.0  0.64694  0.49658  0.37433  1.0000
  H   H995      1.0  0.61216  0.58276  0.54556  1.0000
  C   C1235     1.0  0.95651  0.56350  0.42713  1.0000
  S   S170      1.0  0.49688  0.56719  0.61016  1.0000
  C   C1236     1.0  0.75411  0.49270  0.45427  1.0000
  H   H996      1.0  0.73560  0.57700  0.39406  1.0000
  H   H997      1.0  0.73100  0.53396  0.43941  1.0000
  H   H998      1.0  0.55268  0.90288  0.39530  1.0000
  C   C1237     1.0  0.58939  0.70224  0.34939  1.0000
  C   C1238     1.0  0.66830  0.50361  0.52276  1.0000
  C   C1239     1.0  0.64507  0.58030  0.30595  1.0000
  C   C1240     1.0  0.84362  0.55980  0.47458  1.0000
  H   H999      1.0  0.67498  0.93771  0.40213  1.0000
  S   S171      1.0  0.67690  0.51669  0.40421  1.0000
  S   S172      1.0  0.88989  0.47913  0.55060  1.0000
  C   C1241     1.0  0.58289  0.72344  0.33330  1.0000
  H   H1000     1.0  0.66846  0.57259  0.42919  1.0000
  P   P42       1.0  0.66866  0.63766  0.32112  1.0000
  H   H1001     1.0  0.52993  0.53541  0.42941  1.0000
  C   C1242     1.0  0.80604  0.57652  0.30612  1.0000
  C   C1243     1.0  0.62025  0.56872  0.47767  1.0000
  H   H1002     1.0  0.77129  0.50435  0.46694  1.0000
  H   H1003     1.0  0.66945  0.51705  0.53705  1.0000
  C   C1244     1.0  0.52796  0.94106  0.41322  1.0000
  H   H1004     1.0  0.63500  0.50652  0.47133  1.0000
  C   C1245     1.0  0.63774  0.67224  0.32664  1.0000
  C   C1246     1.0  0.74079  0.67272  0.30788  1.0000
  H   H1005     1.0  0.86802  0.56044  0.37945  1.0000
  C   C1247     1.0  0.66746  0.61060  0.51809  1.0000
  C   C1248     1.0  0.78671  0.51245  0.36235  1.0000
  C   C1249     1.0  0.83462  0.57279  0.28868  1.0000
  C   C1250     1.0  0.73650  0.61997  0.34940  1.0000
  C   C1251     1.0  0.63599  0.86975  0.41972  1.0000
  C   C1252     1.0  0.64585  0.89333  0.40576  1.0000
  C   C1253     1.0  0.66774  0.91937  0.41299  1.0000
  C   C1254     1.0  0.68058  0.92165  0.43411  1.0000
  C   C1255     1.0  0.67039  0.89828  0.44835  1.0000
  C   C1256     1.0  0.64827  0.87213  0.44094  1.0000
  P   P43       1.0  0.68843  0.90111  0.47550  1.0000
  C   C1257     1.0  0.74499  0.88673  0.47818  1.0000
  C   C1258     1.0  0.68642  0.94032  0.48430  1.0000
  C   C1259     1.0  0.71621  0.95063  0.49988  1.0000
  C   C1260     1.0  0.50511  0.54219  0.52529  1.0000
  H   H1006     1.0  0.59831  0.73557  0.30137  1.0000
  S   S173      1.0  0.92586  0.96149  0.49422  1.0000
  C   C1261     1.0  0.58568  0.61795  0.30526  1.0000
  C   C1262     1.0  0.76042  0.87577  0.49770  1.0000
  C   C1263     1.0  0.80467  0.86571  0.50002  1.0000
  C   C1264     1.0  0.83391  0.86664  0.48293  1.0000
  C   C1265     1.0  0.81879  0.87739  0.46347  1.0000
  C   C1266     1.0  0.77456  0.88745  0.46108  1.0000
  C   C1267     1.0  0.65151  0.87878  0.49184  1.0000
  C   C1268     1.0  0.61595  0.89260  0.50270  1.0000
  C   C1269     1.0  0.58757  0.87509  0.51528  1.0000
  C   C1270     1.0  0.59434  0.84369  0.51706  1.0000
  C   C1271     1.0  0.62954  0.82975  0.50625  1.0000
  C   C1272     1.0  0.65802  0.84720  0.49368  1.0000
  H   H1007     1.0  0.61902  0.84957  0.41398  1.0000
  H   H1008     1.0  0.63674  0.89141  0.38929  1.0000
  C   C1273     1.0  0.93442  0.54641  0.41154  1.0000
  H   H1009     1.0  0.69862  0.94163  0.43931  1.0000
  H   H1010     1.0  0.64062  0.85347  0.45137  1.0000
  H   H1011     1.0  0.74115  0.93560  0.50653  1.0000
  C   C1274     1.0  0.70784  0.49463  0.42245  1.0000
  C   C1275     1.0  0.75515  0.58882  0.52224  1.0000
  H   H1012     1.0  0.85421  0.55842  0.49088  1.0000
  C   C1276     1.0  0.65392  0.96049  0.47631  1.0000
  H   H1013     1.0  0.73868  0.87575  0.51129  1.0000
  H   H1014     1.0  0.81685  0.85804  0.51522  1.0000
  H   H1015     1.0  0.86858  0.85972  0.48491  1.0000
  H   H1016     1.0  0.84184  0.87912  0.45040  1.0000
  H   H1017     1.0  0.76426  0.89676  0.44606  1.0000
  H   H1018     1.0  0.61000  0.91685  0.50154  1.0000
  H   H1019     1.0  0.56029  0.88592  0.52366  1.0000
  H   H1020     1.0  0.98453  0.60699  0.55987  1.0000
  H   H1021     1.0  0.63476  0.80539  0.50756  1.0000
  H   H1022     1.0  0.68505  0.83603  0.48532  1.0000
  H   H1023     1.0  0.78909  0.58027  0.52396  1.0000
  C   C1277     1.0  0.58010  0.58421  0.47310  1.0000
  C   C1278     1.0  0.74527  0.61901  0.52741  1.0000
  C   C1279     1.0  0.64899  0.49795  0.48588  1.0000
  S   S174      1.0  0.94295  0.53402  0.50383  1.0000
  C   C1280     1.0  0.57155  0.59478  0.45269  1.0000
  S   S175      1.0  0.67767  0.96108  0.35326  1.0000
  H   H1024     1.0  0.52818  0.72366  0.59759  1.0000
  H   H1025     1.0  0.94382  0.56452  0.44305  1.0000
  C   C1281     1.0  0.77867  0.67891  0.29573  1.0000
  C   C1282     1.0  0.52334  0.62014  0.35943  1.0000
  H   H1026     1.0  0.81645  0.55297  0.34962  1.0000
  H   H1027     1.0  0.76321  0.50968  0.34941  1.0000
  C   C1283     1.0  0.54439  0.54092  0.51335  1.0000
  C   C1284     1.0  0.80818  0.57890  0.46880  1.0000
  C   C1285     1.0  0.65109  0.51613  0.50407  1.0000
  H   H1028     1.0  0.76029  0.63053  0.33892  1.0000
  H   H1029     1.0  0.69382  0.65334  0.52927  1.0000
  C   C1286     1.0  0.66085  0.60594  0.35883  1.0000
  C   C1287     1.0  0.72120  0.56941  0.51513  1.0000
  H   H1030     1.0  0.54262  0.58560  0.56597  1.0000
  H   H1031     1.0  0.65423  0.57875  0.38686  1.0000
  C   C1288     1.0  0.67713  0.59085  0.37666  1.0000
  S   S176      1.0  0.57636  0.47904  0.37028  1.0000
  C   C1289     1.0  0.75275  0.60467  0.36719  1.0000
  H   H1032     1.0  0.89349  0.52802  0.46414  1.0000
  Fe  Fe87      1.0  0.55613  0.59911  0.60978  1.0000
  H   H1033     1.0  0.80773  0.56654  0.41612  1.0000
  S   S177      1.0  0.59988  0.47655  0.31946  1.0000
  C   C1290     1.0  0.61679  0.67680  0.34615  1.0000
  C   C1291     1.0  0.86601  0.54264  0.45933  1.0000
  H   H1034     1.0  0.62744  0.53558  0.29484  1.0000
  C   C1292     1.0  0.98940  0.60008  0.54370  1.0000
  H   H1035     1.0  0.67552  0.48841  0.59277  1.0000
  H   H1036     1.0  0.76775  0.59583  0.44323  1.0000
  H   H1037     1.0  0.51907  0.90213  0.31773  1.0000
  C   C1293     1.0  0.63103  0.69372  0.31053  1.0000
  C   C1294     1.0  0.81665  0.53685  0.36249  1.0000
  H   H1038     1.0  0.81053  0.59604  0.31628  1.0000
  H   H1039     1.0  0.79930  0.69853  0.29927  1.0000
  H   H1040     1.0  0.55765  0.94260  0.42303  1.0000
  C   C1295     1.0  0.78170  0.96594  0.42072  1.0000
  H   H1041     1.0  0.57194  0.70507  0.36420  1.0000
  S   S178      1.0  0.75991  0.48721  0.57097  1.0000
  S   S179      1.0  0.83178  0.95411  0.45574  1.0000
  C   C1296     1.0  0.58243  0.57185  0.53939  1.0000
  C   C1297     1.0  0.84650  0.54066  0.37929  1.0000
  C   C1298     1.0  0.84798  0.51927  0.39573  1.0000
  C   C1299     1.0  0.81701  0.49522  0.39572  1.0000
  P   P44       1.0  0.88480  0.52476  0.41808  1.0000
  C   C1300     1.0  0.50432  0.55861  0.54413  1.0000
  C   C1301     1.0  0.61578  0.55864  0.29757  1.0000
  H   H1042     1.0  0.80329  0.94957  0.41303  1.0000
  H   H1043     1.0  0.94280  0.56243  0.54570  1.0000
  Fe  Fe88      1.0  0.85159  0.96514  0.48926  1.0000
  H   H1044     1.0  0.54817  0.54936  0.28757  1.0000
  C   C1302     1.0  0.95340  0.54449  0.39136  1.0000
  C   C1303     1.0  0.78885  0.97315  0.44198  1.0000
  C   C1304     1.0  0.59135  0.78366  0.58148  1.0000
  C   C1305     1.0  0.55629  0.59610  0.29715  1.0000
  C   C1306     1.0  0.90357  0.48793  0.42740  1.0000
  H   H1045     1.0  0.81549  0.47931  0.40870  1.0000
  H   H1046     1.0  0.97680  0.65200  0.41556  1.0000
  C   C1307     1.0  0.97157  0.56574  0.51481  1.0000
  H   H1047     1.0  0.51847  0.55693  0.39376  1.0000
  H   H1048     1.0  0.49785  0.97246  0.31149  1.0000
  H   H1049     1.0  0.61162  0.79098  0.56832  1.0000
  C   C1308     1.0  0.50025  0.57412  0.34119  1.0000
  H   H1050     1.0  0.55998  0.49011  0.61433  1.0000
  H   H1051     1.0  0.52145  0.60191  0.29441  1.0000
  C   C1309     1.0  0.72644  0.62760  0.28696  1.0000
  H   H1052     1.0  0.70742  0.60741  0.28329  1.0000
  C   C1310     1.0  0.56995  0.75538  0.58080  1.0000
  H   H1053     1.0  0.99189  0.88680  0.49780  1.0000
  C   C1311     1.0  0.54412  0.74584  0.59782  1.0000
  C   C1312     1.0  0.58733  0.80226  0.59927  1.0000
  C   C1313     1.0  0.49273  0.96176  0.41579  1.0000
  C   C1314     1.0  0.49252  0.55934  0.40555  1.0000
  C   C1315     1.0  0.94470  0.47571  0.42067  1.0000
  C   C1316     1.0  0.53966  0.76452  0.61549  1.0000
  S   S180      1.0  0.56604  0.85698  0.73614  1.0000
  S   S181      1.0  0.50765  0.69782  0.64651  1.0000
  Fe  Fe89      1.0  0.55125  0.87108  0.76951  1.0000
  S   S182      1.0  0.60215  0.88294  0.79577  1.0000
  C   C1317     1.0  0.53822  0.71720  0.70783  1.0000
  C   C1318     1.0  0.54094  0.59640  0.71108  1.0000
  S   S183      1.0  0.55374  0.60951  0.64457  1.0000
  H   H1054     1.0  0.61137  0.50827  0.93445  1.0000
  C   C1319     1.0  0.60332  0.59968  0.88528  1.0000
  S   S184      1.0  0.50938  0.82909  0.77532  1.0000
  S   S185      1.0  0.85190  0.94385  0.85276  1.0000
  H   H1055     1.0  0.58986  0.83871  0.68087  1.0000
  Fe  Fe90      1.0  0.89815  0.51927  0.84593  1.0000
  H   H1056     1.0  0.62815  0.72888  0.67770  1.0000
  S   S186      1.0  0.95259  0.55562  0.85175  1.0000
  Fe  Fe91      1.0  0.91969  0.95803  0.84077  1.0000
  H   H1057     1.0  0.53166  0.83813  0.83014  1.0000
  H   H1058     1.0  0.51971  0.75665  0.62856  1.0000
  C   C1320     1.0  0.65233  0.88231  0.63307  1.0000
  C   C1321     1.0  0.71213  0.53070  0.74315  1.0000
  S   S187      1.0  0.82325  0.52318  0.84151  1.0000
  C   C1322     1.0  0.98979  0.65827  0.89801  1.0000
  C   C1323     1.0  0.96440  0.68521  0.89915  1.0000
  H   H1059     1.0  0.68804  0.51369  0.74776  1.0000
  H   H1060     1.0  0.70598  0.96490  0.64855  1.0000
  H   H1061     1.0  0.76720  0.95853  0.89786  1.0000
  H   H1062     1.0  0.55501  0.70622  0.72089  1.0000
  C   C1324     1.0  0.53190  0.70111  0.68882  1.0000
  H   H1063     1.0  0.56038  0.92623  0.62374  1.0000
  H   H1064     1.0  0.65143  0.83458  0.64038  1.0000
  H   H1065     1.0  0.71616  0.55025  0.62423  1.0000
  H   H1066     1.0  0.59144  0.75269  0.64757  1.0000
  H   H1067     1.0  0.55311  0.54486  0.91444  1.0000
  C   C1325     1.0  0.87319  0.71087  0.90460  1.0000
  H   H1068     1.0  0.54410  0.67802  0.68723  1.0000
  H   H1069     1.0  0.63980  0.61798  0.93442  1.0000
  H   H1070     1.0  0.50620  0.59349  0.70648  1.0000
  C   C1326     1.0  0.64778  0.90909  0.79863  1.0000
  C   C1327     1.0  0.66027  0.92930  0.78269  1.0000
  C   C1328     1.0  0.69629  0.94971  0.78582  1.0000
  C   C1329     1.0  0.72093  0.95003  0.80479  1.0000
  C   C1330     1.0  0.70874  0.92963  0.82070  1.0000
  C   C1331     1.0  0.67237  0.90944  0.81764  1.0000
  H   H1071     1.0  0.64224  0.92917  0.76792  1.0000
  C   C1332     1.0  0.77706  0.57350  0.73198  1.0000
  H   H1072     1.0  0.72744  0.92929  0.83531  1.0000
  H   H1073     1.0  0.66328  0.89387  0.83009  1.0000
  C   C1333     1.0  0.61747  0.48565  0.63468  1.0000
  H   H1074     1.0  0.61872  0.50973  0.63828  1.0000
  H   H1075     1.0  0.58203  0.93085  0.72689  1.0000
  C   C1334     1.0  0.67383  0.54649  0.68206  1.0000
  H   H1076     1.0  0.97390  0.79292  0.80608  1.0000
  C   C1335     1.0  0.66993  0.97191  0.87171  1.0000
  H   H1077     1.0  0.64491  0.75895  0.70982  1.0000
  H   H1078     1.0  0.51556  0.84643  0.67617  1.0000
  C   C1336     1.0  0.86740  0.72532  0.83341  1.0000
  C   C1337     1.0  0.90629  0.72501  0.82129  1.0000
  C   C1338     1.0  0.94595  0.71316  0.82966  1.0000
  C   C1339     1.0  0.94701  0.70168  0.85019  1.0000
  C   C1340     1.0  0.90813  0.70219  0.86252  1.0000
  C   C1341     1.0  0.86816  0.71380  0.85390  1.0000
  P   P45       1.0  0.90787  0.68608  0.88864  1.0000
  C   C1342     1.0  0.72455  0.95980  0.94782  1.0000
  C   C1343     1.0  0.88699  0.64737  0.88766  1.0000
  C   C1344     1.0  0.88686  0.62945  0.90599  1.0000
  H   H1079     1.0  0.75646  0.51923  0.76882  1.0000
  C   C1345     1.0  0.85889  0.58633  0.88614  1.0000
  C   C1346     1.0  0.85998  0.60372  0.86776  1.0000
  C   C1347     1.0  0.87399  0.63409  0.86845  1.0000
  C   C1348     1.0  0.87244  0.59917  0.90523  1.0000
  H   H1080     1.0  0.55318  0.95023  0.76089  1.0000
  H   H1081     1.0  0.96591  0.73255  0.90895  1.0000
  C   C1349     1.0  0.52435  0.74775  0.70984  1.0000
  C   C1350     1.0  0.84091  0.69910  0.91840  1.0000
  C   C1351     1.0  0.57055  0.96543  0.75030  1.0000
  H   H1082     1.0  0.60389  0.52420  0.74540  1.0000
  H   H1083     1.0  0.85479  0.78667  0.91333  1.0000
  C   C1352     1.0  0.97891  0.78375  0.83924  1.0000
  C   C1353     1.0  0.97791  0.59035  0.84334  1.0000
  Fe  Fe92      1.0  0.81647  0.49577  0.87112  1.0000
  H   H1084     1.0  0.53208  0.64281  0.72133  1.0000
  H   H1085     1.0  0.90579  0.73385  0.80538  1.0000
  H   H1086     1.0  0.97598  0.71286  0.82017  1.0000
  H   H1087     1.0  0.97810  0.69229  0.85623  1.0000
  C   C1354     1.0  0.60486  0.50590  0.73397  1.0000
  H   H1088     1.0  0.94394  0.59352  0.81352  1.0000
  C   C1355     1.0  0.56167  0.79272  0.61655  1.0000
  H   H1089     1.0  0.84831  0.56270  0.88549  1.0000
  H   H1090     1.0  0.85108  0.59331  0.85285  1.0000
  H   H1091     1.0  0.87561  0.64669  0.85386  1.0000
  H   H1092     1.0  0.71367  0.49335  0.83769  1.0000
  C   C1356     1.0  0.85082  0.76221  0.91469  1.0000
  H   H1093     1.0  0.62333  0.96481  0.70315  1.0000
  H   H1094     1.0  0.98424  0.64041  0.80238  1.0000
  H   H1095     1.0  0.83577  0.67488  0.91996  1.0000
  S   S188      1.0  0.50681  0.90880  0.69584  1.0000
  H   H1096     1.0  0.55926  0.55123  0.70159  1.0000
  H   H1097     1.0  0.62602  0.81374  0.71113  1.0000
  H   H1098     1.0  0.64316  0.92968  0.62546  1.0000
  C   C1357     1.0  0.72683  0.95509  0.92597  1.0000
  C   C1358     1.0  0.86246  0.90142  0.80137  1.0000
  C   C1359     1.0  0.82007  0.90449  0.79221  1.0000
  C   C1360     1.0  0.78502  0.88574  0.79874  1.0000
  C   C1361     1.0  0.79198  0.86442  0.81475  1.0000
  C   C1362     1.0  0.83490  0.86047  0.82351  1.0000
  C   C1363     1.0  0.86985  0.87950  0.81694  1.0000
  P   P46       1.0  0.84428  0.83469  0.84518  1.0000
  C   C1364     1.0  0.89739  0.81527  0.84277  1.0000
  C   C1365     1.0  0.84232  0.85832  0.86839  1.0000
  C   C1366     1.0  0.88187  0.87052  0.87690  1.0000
  C   C1367     1.0  0.88015  0.88985  0.89436  1.0000
  C   C1368     1.0  0.83891  0.89742  0.90330  1.0000
  C   C1369     1.0  0.79928  0.88600  0.89460  1.0000
  C   C1370     1.0  0.80089  0.86670  0.87708  1.0000
  C   C1371     1.0  0.91723  0.81103  0.82298  1.0000
  C   C1372     1.0  0.95807  0.79553  0.82128  1.0000
  C   C1373     1.0  0.71885  0.50133  0.93052  1.0000
  C   C1374     1.0  0.58431  0.85222  0.63572  1.0000
  C   C1375     1.0  0.91819  0.80288  0.86069  1.0000
  C   C1376     1.0  0.80341  0.80454  0.84641  1.0000
  C   C1377     1.0  0.78595  0.79172  0.82787  1.0000
  C   C1378     1.0  0.75468  0.76808  0.82892  1.0000
  C   C1379     1.0  0.74178  0.75643  0.84843  1.0000
  C   C1380     1.0  0.76022  0.76835  0.86692  1.0000
  C   C1381     1.0  0.79100  0.79228  0.86593  1.0000
  H   H1099     1.0  0.88939  0.91657  0.79683  1.0000
  H   H1100     1.0  0.81395  0.92206  0.78057  1.0000
  H   H1101     1.0  0.75194  0.88859  0.79190  1.0000
  H   H1102     1.0  0.76357  0.85167  0.82047  1.0000
  H   H1103     1.0  0.90259  0.87796  0.82426  1.0000
  H   H1104     1.0  0.91393  0.86571  0.86976  1.0000
  H   H1105     1.0  0.91066  0.89967  0.90068  1.0000
  H   H1106     1.0  0.83766  0.91275  0.91667  1.0000
  H   H1107     1.0  0.76733  0.89270  0.90123  1.0000
  H   H1108     1.0  0.76984  0.85878  0.87013  1.0000
  H   H1109     1.0  0.90147  0.81981  0.80887  1.0000
  C   C1382     1.0  0.49651  0.97102  0.70409  1.0000
  C   C1383     1.0  0.50414  0.49160  0.66167  1.0000
  H   H1110     1.0  0.90123  0.75226  0.89173  1.0000
  H   H1111     1.0  0.90332  0.80570  0.87606  1.0000
  H   H1112     1.0  0.79635  0.80003  0.81261  1.0000
  H   H1113     1.0  0.74045  0.75879  0.81456  1.0000
  H   H1114     1.0  0.71745  0.73816  0.84920  1.0000
  H   H1115     1.0  0.75042  0.75922  0.88206  1.0000
  H   H1116     1.0  0.80502  0.80122  0.88039  1.0000
  H   H1117     1.0  0.81390  0.55713  0.75901  1.0000
  C   C1384     1.0  0.58666  0.79766  0.66184  1.0000
  H   H1118     1.0  0.97610  0.63796  0.89082  1.0000
  H   H1119     1.0  0.67048  0.53202  0.85771  1.0000
  C   C1385     1.0  0.66542  0.56463  0.64614  1.0000
  C   C1386     1.0  0.70429  0.54903  0.64033  1.0000
  C   C1387     1.0  0.72779  0.53191  0.65526  1.0000
  C   C1388     1.0  0.71264  0.53063  0.67605  1.0000
  C   C1389     1.0  0.59777  0.81469  0.67987  1.0000
  C   C1390     1.0  0.64996  0.56319  0.66687  1.0000
  H   H1120     1.0  0.64722  0.57787  0.63449  1.0000
  C   C1391     1.0  0.57431  0.56415  0.91098  1.0000
  H   H1121     1.0  0.87235  0.58537  0.91936  1.0000
  H   H1122     1.0  0.73137  0.51755  0.68751  1.0000
  H   H1123     1.0  0.52266  0.87726  0.63014  1.0000
  C   C1392     1.0  0.51164  0.71548  0.67160  1.0000
  C   C1393     1.0  0.62044  0.75299  0.67816  1.0000
  H   H1124     1.0  0.83749  0.71374  0.86294  1.0000
  C   C1394     1.0  0.63004  0.76991  0.69621  1.0000
  C   C1395     1.0  0.50537  0.94830  0.68923  1.0000
  C   C1396     1.0  0.61652  0.57596  0.71391  1.0000
  C   C1397     1.0  0.61905  0.80078  0.69699  1.0000
  C   C1398     1.0  0.62717  0.50976  0.71473  1.0000
  H   H1125     1.0  0.80232  0.59000  0.72763  1.0000
  P   P47       1.0  0.55763  0.81591  0.64011  1.0000
  C   C1399     1.0  0.96834  0.60389  0.82389  1.0000
  H   H1126     1.0  0.83659  0.73419  0.82681  1.0000
  C   C1400     1.0  0.76603  0.96197  0.91471  1.0000
  H   H1127     1.0  0.61177  0.64951  0.73129  1.0000
  C   C1401     1.0  0.62279  0.60535  0.92211  1.0000
  C   C1402     1.0  0.55555  0.62415  0.71936  1.0000
  C   C1403     1.0  0.55887  0.87827  0.63093  1.0000
  Fe  Fe93      1.0  0.82558  0.47722  0.82535  1.0000
  C   C1404     1.0  0.63095  0.60391  0.72228  1.0000
  H   H1128     1.0  0.61969  0.57536  0.67094  1.0000
  H   H1129     1.0  0.73354  0.58500  0.70619  1.0000
  C   C1405     1.0  0.81932  0.75028  0.92860  1.0000
  C   C1406     1.0  0.81423  0.71876  0.93038  1.0000
  C   C1407     1.0  0.95891  0.78731  0.85891  1.0000
  C   C1408     1.0  0.59900  0.76674  0.66103  1.0000
  H   H1130     1.0  0.55917  0.56246  0.87780  1.0000
  H   H1131     1.0  0.79883  0.76545  0.93803  1.0000
  C   C1409     1.0  0.75700  0.49474  0.91848  1.0000
  S   S189      1.0  0.53666  0.76778  0.73348  1.0000
  H   H1132     1.0  0.97912  0.52448  0.90737  1.0000
  C   C1410     1.0  0.61063  0.97390  0.71777  1.0000
  H   H1133     1.0  0.62864  0.51683  0.88966  1.0000
  H   H1134     1.0  0.69792  0.94629  0.91771  1.0000
  Fe  Fe94      1.0  0.50667  0.64776  0.63640  1.0000
  H   H1135     1.0  0.89849  0.63878  0.92081  1.0000
  S   S190      1.0  0.76404  0.51286  0.89399  1.0000
  C   C1411     1.0  0.57121  0.57239  0.70838  1.0000
  H   H1136     1.0  0.75789  0.51981  0.65065  1.0000
  Fe  Fe95      1.0  0.51932  0.81736  0.74113  1.0000
  C   C1412     1.0  0.59796  0.57922  0.92705  1.0000
  H   H1137     1.0  0.51946  0.93963  0.65659  1.0000
  C   C1413     1.0  0.87736  0.74263  0.90262  1.0000
  C   C1414     1.0  0.62584  0.61533  0.90127  1.0000
  C   C1415     1.0  0.99134  0.63049  0.81760  1.0000
  S   S191      1.0  0.96995  0.92471  0.82648  1.0000
  C   C1416     1.0  0.62681  0.90812  0.62831  1.0000
  C   C1417     1.0  0.57729  0.57425  0.89016  1.0000
  H   H1138     1.0  0.66338  0.95038  0.86394  1.0000
  S   S192      1.0  0.89021  0.49453  0.87666  1.0000
  C   C1418     1.0  0.73800  0.57062  0.71990  1.0000
  C   C1419     1.0  0.70503  0.54929  0.72545  1.0000
  C   C1420     1.0  0.78363  0.55503  0.74963  1.0000
  C   C1421     1.0  0.98397  0.71130  0.90809  1.0000
  C   C1422     1.0  0.60051  0.62789  0.72498  1.0000
  C   C1423     1.0  0.51301  0.95700  0.66822  1.0000
  H   H1139     1.0  0.78960  0.70953  0.94111  1.0000
  H   H1140     1.0  0.62028  0.96507  0.89575  1.0000
  H   H1141     1.0  0.64549  0.63531  0.89755  1.0000
  H   H1142     1.0  0.68852  0.88389  0.63394  1.0000
  H   H1143     1.0  0.66556  0.60747  0.72663  1.0000
  P   P48       1.0  0.65551  0.54516  0.70915  1.0000
  C   C1424     1.0  0.75120  0.53366  0.75517  1.0000
  H   H1144     1.0  0.60562  0.60748  0.86914  1.0000
  C   C1425     1.0  0.49961  0.82243  0.64723  1.0000
  H   H1145     1.0  0.97954  0.90807  0.87088  1.0000
  C   C1426     1.0  0.58420  0.47819  0.73870  1.0000
  C   C1427     1.0  0.62669  0.48602  0.69997  1.0000
  C   C1428     1.0  0.64694  0.49992  0.88080  1.0000
  C   C1429     1.0  0.58319  0.50554  0.94496  1.0000
  C   C1430     1.0  0.67042  0.50849  0.86276  1.0000
  H   H1146     1.0  0.69351  0.51641  0.92422  1.0000
  C   C1431     1.0  0.50266  0.76172  0.69286  1.0000
  C   C1432     1.0  0.58738  0.95445  0.73127  1.0000
  C   C1433     1.0  0.56407  0.47670  0.94740  1.0000
  C   C1434     1.0  0.80375  0.97292  0.92536  1.0000
  Fe  Fe96      1.0  0.50350  0.88328  0.72737  1.0000
  H   H1147     1.0  0.70536  0.96519  0.77334  1.0000
  H   H1148     1.0  0.64221  0.48869  0.68484  1.0000
  C   C1435     1.0  0.49629  0.74563  0.67388  1.0000
  C   C1436     1.0  0.50142  0.83141  0.83836  1.0000
  H   H1149     1.0  0.68813  0.57032  0.93908  1.0000
  H   H1150     1.0  0.97581  0.77866  0.87280  1.0000
  C   C1437     1.0  0.63121  0.85444  0.63676  1.0000
  C   C1438     1.0  0.58014  0.90611  0.62726  1.0000
  H   H1151     1.0  0.53654  0.81378  0.86537  1.0000
  H   H1152     1.0  0.51076  0.50097  0.64629  1.0000
  C   C1439     1.0  0.69501  0.48680  0.85158  1.0000
  C   C1440     1.0  0.50408  0.81772  0.85818  1.0000
