data_image0
_chemical_formula_structural       C2HFeHC2SCHC3H3CHC2H3SC2H2CH3FeCHCH2C2HC3HCHSC2SC2H2CH2C3PH3CFeC4SC2HCFeC2FeSCSC2HC2HCHCHCH2C6HSCHCHSC2SHC2H2CHC4HCSH2SH3CPHCHCFeHC2H2SH3SH2FeSHCFeCHCSHFeSHFeSFeS2FeS2FeS2FeSFeS3CPCH2C8H4CFeCHCH5C2HC6H4C6H4SC2HC2HCPHC9PC18H21SCH2C4HC2HC2HCH2C2H3CHC2H2CHC2HC6H3CH2C2HCHCHC4HC2PCH3C2HC2HCHCHCHC3HPHCSCH2C6PC18H20C3HC7HCHCH4SH5CH2CHC2HC3HCHCHCH3FeCHFeCHCSC2HPC6FeC6HCH2C3HC2HCH4C2H2CSHC2H2C3H4C2SHSCH3C2HCSC2PC2HCHCHCH3SH3SH2FeS3C2SCSCHSHFeSFeCSFeS2FeS2FeSFeS3C4HCHC6H4C2H2CH3C3HFeC6H4C6H4CHC2HPH2C2H3C8PC18HCH4CHCH12CH2FeHCHSH3C3H4CHC3HC3H4C9HCHC3HCHS2PH2C2HC2FeH4PHC2H2CSH5FeCH2C3HCH2C3HCHCHC2HC2HC2HC3H3C2HCHCFeH2C5SC2HCPC2HSHC2H4CHCHPH2C3HCH4C3HCHCHC4HC7H4CH2C3HC4HCHC2H3C6HCH2CHCSH2CHCHCS2HC2FeH4CHCFeSCS2CH2SFeC2H2C2HSHFeHC2HCFeSC2HCH2C2HC3SH2FeCHC2H2C2HC6H2C2S2HCHCHC4HCH2CHC2HCHC3HC3HCHC7HC2HCHC2H2FeCH2CH2CHC3H4SH2C2HCHC4H2PC2H2SHFeCH4CSH2CH2CHCH4SHCHCFeCSCHSC3HC2H2C2H3CH2SHCHCHC2HC2HC3HCH4CSHCH3PC7SC2HC4HC2H3CH3C3HCHPCSCHCHFeC3FeSC2HCH3CPH2CHC2HCHSCH4CHC2H2CH3C2HSC3FeHCS3C2H3C3FeHSPHC3HC2FeSHC6H2CHCHCSHFeHCSHSCHC2HC5H4C3HC3SHC2HSHCH2C3HCHC4HFeCSHC3SCH3C3FeCHC3HCHCH2FeH4C2H2C2H4CSHC2H3CH2FeHSH2C4H3C4HC2HC2HSH5CHCHC2PH3CHCHC2HC3H3SCHCSHCFePC3H3C5HC2HC2HPC2HPC6PC4HC13H6CHCH3CH8CH2CHC2HSHCH3C2HCHCHSC3FeHC3FeH2CHC2HC3HC4HCHCHC2SCHC5HCH5SPCH2FeH2C2HC2HCH3C3FeHCSFeH2FeS2CSHCS2FeS2FeCS2FeSFeS2FeCFeHS2CSFeSFeCFeS2FeS2FeS2FeSFeS3H3C2SCH2CHC8H4C3H4C4HCHC2HCHC6H4C6H4C6H7C2H2CH3C6PC8H10C6PC4H2C12H7CFeH12C4PC14H11C2HCH3CHCHCHC3HCHC2SH2CHCFeC2SHC3H5CH2CHCHCFeCH3CH3CHC2FeC3H3C6PC18H15C2HCH2C3HCFeHCH2SCSC2PC3H2CHC2HSCH2SCH4CH3C6HCHSPCH2CFeSC3H2SC2H2C2HC2HCH3C3H2CHC2HCH2C2HC4HCHCHCHC3H3C2HSC2HC3HC2SHCHC4HC2HCH2CHC2HC2H3CPH3C7H2CSHC4H4PC2HCH2CH2C2H3C2HSCH3PC4HCH4C2H3CH3C2HC2HCHCHFeC3H2CHCH2C3HCH2CPC2HC3HC2HC6HCSHC2H2CFeC2HCHC2HSC2H2C3H4C3SHCSHC4HCH3C2FeCSFeHSHSHCS2FeS2FeCS2FeSFeS2FeCFePS2HSFeSFeSFeS2FeS2FeS2FeSFeS3HC2H2CH3FeC2HC6H5C2H3CSCH2C5HSC7H4C6H4C6H4CHPCSC2H2CH2CHC2H3C2HSC7HC6H10C4PC18H9C2H3CH2C5HCH2C7HCHC3HC4FeC2HC3H6C2H2C7PC18H20C6PC3SHC2H3C5HC2H6C3HC2HCHC2H3C2H6CHC2HC2H2C4H4SHCH5C2HCH2CHC2H2C5H3C4H2CH2CPH2C2HC2HCHC4H2C5HC2HCSHCH3C2H2CHC2HC4H2C2H2CH2PHSC2HC4H2CHC3H2C2H2CHC3HC2HC3SC2HCH2CH2C5HFeCFeSC3SC3HCHCHC2H2CH2C2HCH4CH3C5H4CH2CHPHC3HC2H2SH3C3HCH2C5HC2H4CH2CHC3H2CHC2H4CH2CHPHCH3CHC2HSCH2CHC2HFe2CSH2C2SHC2HCHSCHCHC4H2FeCSCPCSC2FeS2FeS2FeSFeS3HSC2SFeSCHSHSHFeSCSHSFeSFeSCHC2HPH6CH3CHC6H5C3H4SC6H4C6H4C6H4CH2CHCH2CH2C5HCH2CHCHCHC2HC2HCHCHCHCH3CHC3H2CSH3CH2CHC2H3CH2CHCH2SHCH2C3PC2H2C7HCFeCH10CHCHC2HC4PC10HC9H8CH2CH6C2HCH6C2HCHFeCH2SHCH2CHCFeHFeC2SC7PC19H14C2HC7PC4SC11HC3H4C2H8C2FeHC3H3C3H2C6H2C2HC7FeHCH3CHSC3HCPCSHC2H2C4HCHC4HC2HPC3HC5HC3H5C3HC2SH2C2H3SCHC3H2CH3C3HSC6HCHCSH2C2PC6SH4CHCHCHFeC2H3FeHCHCSH3CH4PC2HCHSC3H2CH3SCFeH2CHCHCPC6H2CHCH2C4SHCHC2HCHPCH3CSHFeHSC2FeS2HFeS2FeS2FeSFeS3HSCHSFeSHCSCSHFeSHSCSFeCFeS2CHCPHC2H2CHCH2SHC7H4CHC2HC3HC6H4C6H4C6H4C2H3C2H2C2HCH2CH2CHCH2CHC3HCHC3HCHFeHC2HCH2CHC10HCHFeH5CH2C4HCPH3PC7HC7H11CHC3PHCH4C2H3FeCHCHC2HCHC2SPH2C4HCHC6PC15H5SHCHCH6C6PC19H6C2H7CH3C3H2CH2C11H11C6PC4H2C8HC3H16C2H2C6PC18H12C7HCHC5HC4PH4CHCHPSHCFeC3FeH4CHCH2CHSFeH2C2HC2HC2H4C2S2H3CHC3HC3H2SHCSH2C2HC2H6C3PH2CH2C4HCH3C2H2FeC4H3C3HCH2SC5H2CHC3HC7HC2SHC5SH2C3H3C2H5CH2CHSCHC3SFeC2H2CHCSHCHS2H2CFeSFeCSCSHC5HC3SFeSC2HC2HCFe2S2HFeS5H2C2H2CHCHC3HCHC8H4C7H3PFeSHSHFeC2HCH2C3HCSHCFeHCH3C2H4CH2CHCHCH2SC2HCH2CFeHPH4CFeC2HC2HC2HCHC3H5CFeCHC3H3CHC2H3C2SPH2C3PC13HCHC2HCH2CH10CHC2HC2H2CHCHC2HCSC3SCHSH2C4H2FeC5SHCH3CH3CHC3H3CH2C2H2C6PC11H2C5HCHCH4C3H4C6HSHCHCH2CSHFeC2PSCHC3PSCHFeSFeHC2H4CH4CS2CSH3C3FeSFeH2SFeS2FeS2H3CHC4FeC2H2C3HC6H3SCHC4H2SHCH4C2H2C2SC4H2C2H2SC2HC3HCHC4HSH2CH3PCHPC2SC6H2CPHC5H2C4HSCH2CH3CHSHCHCH2C2H2CHC5HC3SCSCHCHC2H2CHC3HCH2CHCHC3H2C2FeC5HCH2CHC3HCHCH3CH2CHC2H3C5H2C2H3C3H2C3H5CFeSH2C3S2H2C2PHC2HCFeH2C2FeHC2HCH4SCH2SCSCS2FeSCHPHSFeSH2FeS2FeS2FeSFeS3C6H6CPH3CH3C6H4C6H9FeHC2HC3HC6HCHC3H4CHCH2C10SH2CH7C2HCH2PC5H2CHC2HC2HCHCHC3H4CHCH4CH5C2HC3SC7PC18H7CH12C9PC18H5CH2CHC2HCFeC2H2CHCH2C2H3C4H3CHCH2C3SHCS2H2SCSH2CFeSHCHSCFeSC2FeS2FeS2FeSFeS3C6H5C3HSC3HC7H4C6H5CH2CHCH6CHC2H2CHCHCHCHC3H2C10H7CH3CSC2PC5HC2HCH2C6HFeCHPH2C2HPC2H3C2H4C4PC10HC3H9C5H3CHC2FeC3HC2HC7H2C3HFeC3H2CH2CH4CH2C5H3CPHC11SH2CHCHCHCHC2H3C4HSFeHC2H2CH3CHCH3C4HPCHCH3CHC6FePCH3CH4CH2CHSC3H7CSHC2H2SCHCH2C3SHCSCH2CH2CH3CFeSFeS3CH2CHS2C8H3C7HCH2CH4PCSHC5HC4H3C3PH2C4HCH2CHCHCFeCHC2H2CH2SCHC5HC3H2C4HSH6CH4CHFeCH3CHCH3C3H2CHC3HC2HCHFeC2HSCHSCFe2HCHCHFeSFeS3H2FeSHSHC8HC8H2CH2FeHC2HC5H2CHCH2CH4C2HSCHC3H4C2SHC3HC4HCH2CFeC3H2C2HC3HC2PSHS2CFeH2CH4C2HCHC2
_chemical_formula_sum              "C2880 H2304 Fe192 S384 P96"
_cell_length_a       85.5881
_cell_length_b       85.0786
_cell_length_c       48.1171
_cell_angle_alpha    90.9843
_cell_angle_beta     91.9881
_cell_angle_gamma    114.952

_space_group_name_H-M_alt    "P 1"
_space_group_IT_number       1

loop_
  _space_group_symop_operation_xyz
  'x, y, z'

loop_
  _atom_site_type_symbol
  _atom_site_label
  _atom_site_symmetry_multiplicity
  _atom_site_fract_x
  _atom_site_fract_y
  _atom_site_fract_z
  _atom_site_occupancy
  C   C1        1.0  0.15347  0.46872  0.33600  1.0000
  C   C2        1.0  0.01774  0.46704  0.42800  1.0000
  H   H1        1.0  0.00238  0.46123  0.05503  1.0000
  Fe  Fe1       1.0  0.06892  0.47157  0.04151  1.0000
  H   H2        1.0  0.99065  0.46287  0.15499  1.0000
  C   C3        1.0  0.03476  0.47000  0.42308  1.0000
  C   C4        1.0  0.98873  0.42563  0.01254  1.0000
  S   S1        1.0  0.04142  0.46864  0.03603  1.0000
  C   C5        1.0  0.01010  0.47673  0.41444  1.0000
  H   H3        1.0  0.16158  0.47012  0.29386  1.0000
  C   C6        1.0  0.15817  0.47975  0.43474  1.0000
  C   C7        1.0  0.13325  0.47387  0.46222  1.0000
  C   C8        1.0  0.16370  0.47684  0.31394  1.0000
  H   H4        1.0  0.05776  0.48538  0.40199  1.0000
  H   H5        1.0  0.18799  0.46235  0.33028  1.0000
  H   H6        1.0  0.22031  0.42440  0.12024  1.0000
  C   C9        1.0  0.99721  0.48153  0.01726  1.0000
  H   H7        1.0  0.08118  0.46554  0.14579  1.0000
  C   C10       1.0  0.00935  0.45755  0.09654  1.0000
  C   C11       1.0  0.09834  0.46780  0.38932  1.0000
  H   H8        1.0  0.14322  0.45579  0.33284  1.0000
  H   H9        1.0  0.22038  0.47336  0.09960  1.0000
  H   H10       1.0  0.01354  0.45431  0.13998  1.0000
  S   S2        1.0  0.07668  0.46813  0.08673  1.0000
  C   C12       1.0  0.20914  0.46516  0.35862  1.0000
  C   C13       1.0  0.00613  0.45792  0.12473  1.0000
  H   H11       1.0  0.12437  0.46626  0.47750  1.0000
  H   H12       1.0  0.20466  0.44297  0.11372  1.0000
  C   C14       1.0  0.10647  0.46886  0.36391  1.0000
  H   H13       1.0  0.01065  0.45737  0.44276  1.0000
  H   H14       1.0  0.09323  0.45561  0.39988  1.0000
  H   H15       1.0  0.04060  0.46251  0.43367  1.0000
  Fe  Fe2       1.0  0.03953  0.45440  0.99548  1.0000
  C   C15       1.0  0.09411  0.48052  0.11111  1.0000
  H   H16       1.0  0.99891  0.43259  0.02803  1.0000
  C   C16       1.0  0.20170  0.46934  0.33525  1.0000
  H   H17       1.0  0.10744  0.45752  0.35525  1.0000
  H   H18       1.0  0.14718  0.47124  0.37795  1.0000
  C   C17       1.0  0.21834  0.44809  0.11017  1.0000
  C   C18       1.0  0.22720  0.46522  0.10219  1.0000
  H   H19       1.0  0.20116  0.45489  0.37176  1.0000
  C   C19       1.0  0.00340  0.47865  0.99204  1.0000
  C   C20       1.0  0.11338  0.48446  0.34958  1.0000
  C   C21       1.0  0.00332  0.49064  0.47236  1.0000
  H   H20       1.0  0.01925  0.45365  0.08997  1.0000
  C   C22       1.0  0.15577  0.47760  0.36163  1.0000
  H   H21       1.0  0.99047  0.44149  0.40006  1.0000
  S   S3        1.0  0.06642  0.45526  0.00206  1.0000
  C   C23       1.0  0.98867  0.48463  0.45404  1.0000
  C   C24       1.0  0.09276  0.47615  0.13935  1.0000
  S   S4        1.0  0.08716  0.48115  0.43391  1.0000
  C   C25       1.0  0.22689  0.47401  0.36484  1.0000
  C   C26       1.0  0.14678  0.46989  0.45449  1.0000
  H   H22       1.0  0.23227  0.47043  0.38296  1.0000
  H   H23       1.0  0.10511  0.48138  0.18078  1.0000
  C   C27       1.0  0.10634  0.48515  0.15932  1.0000
  H   H24       1.0  0.16864  0.47656  0.42903  1.0000
  H   H25       1.0  0.01435  0.48806  0.46818  1.0000
  C   C28       1.0  0.99326  0.46277  0.13313  1.0000
  C   C29       1.0  0.22715  0.43764  0.11381  1.0000
  C   C30       1.0  0.99976  0.46205  0.07670  1.0000
  P   P1        1.0  0.98824  0.47328  0.42153  1.0000
  H   H26       1.0  0.20628  0.48569  0.29985  1.0000
  H   H27       1.0  0.14840  0.45914  0.46382  1.0000
  H   H28       1.0  0.01644  0.48687  0.98663  1.0000
  C   C31       1.0  0.09695  0.48229  0.40111  1.0000
  Fe  Fe3       1.0  0.07455  0.47985  0.47622  1.0000
  C   C32       1.0  0.04445  0.48295  0.40523  1.0000
  C   C33       1.0  0.99294  0.42394  0.98514  1.0000
  C   C34       1.0  0.01992  0.48970  0.39643  1.0000
  C   C35       1.0  0.13101  0.48758  0.45001  1.0000
  S   S5        1.0  0.12348  0.48453  0.31741  1.0000
  C   C36       1.0  0.21198  0.48244  0.31811  1.0000
  C   C37       1.0  0.98695  0.46721  0.08496  1.0000
  H   H29       1.0  0.12043  0.49049  0.45600  1.0000
  C   C38       1.0  0.22969  0.49130  0.32424  1.0000
  Fe  Fe4       1.0  0.04110  0.46930  0.50894  1.0000
  C   C39       1.0  0.22465  0.49036  0.82396  1.0000
  C   C40       1.0  0.09850  0.47739  0.60576  1.0000
  Fe  Fe5       1.0  0.07495  0.47231  0.53944  1.0000
  S   S6        1.0  0.08911  0.46469  0.57442  1.0000
  C   C41       1.0  0.07312  0.46289  0.80957  1.0000
  S   S7        1.0  0.05588  0.48322  0.54861  1.0000
  C   C42       1.0  0.00499  0.41755  0.59743  1.0000
  C   C43       1.0  0.99375  0.45352  0.83367  1.0000
  H   H30       1.0  0.02897  0.40192  0.88351  1.0000
  C   C44       1.0  0.99710  0.42192  0.57484  1.0000
  C   C45       1.0  0.09688  0.47540  0.89633  1.0000
  H   H31       1.0  0.01138  0.44445  0.90407  1.0000
  C   C46       1.0  0.03795  0.48773  0.90747  1.0000
  H   H32       1.0  0.00469  0.42877  0.55765  1.0000
  C   C47       1.0  0.10954  0.47312  0.62342  1.0000
  H   H33       1.0  0.11222  0.46217  0.61775  1.0000
  C   C48       1.0  0.05561  0.48275  0.82478  1.0000
  H   H34       1.0  0.02777  0.42632  0.85783  1.0000
  H   H35       1.0  0.05904  0.46193  0.92378  1.0000
  C   C49       1.0  0.05240  0.44894  0.91468  1.0000
  C   C50       1.0  0.00663  0.44709  0.88426  1.0000
  C   C51       1.0  0.11724  0.48294  0.64829  1.0000
  C   C52       1.0  0.01156  0.45915  0.83839  1.0000
  C   C53       1.0  0.98886  0.44150  0.87949  1.0000
  C   C54       1.0  0.07549  0.47776  0.79513  1.0000
  H   H36       1.0  0.08046  0.45560  0.80427  1.0000
  S   S8        1.0  0.01477  0.43315  0.97439  1.0000
  C   C55       1.0  0.03491  0.42890  0.87768  1.0000
  H   H37       1.0  0.99810  0.42113  0.49942  1.0000
  C   C56       1.0  0.10244  0.47448  0.86919  1.0000
  H   H38       1.0  0.08750  0.46387  0.90524  1.0000
  S   S9        1.0  0.12123  0.48705  0.82225  1.0000
  C   C57       1.0  0.99519  0.40887  0.61963  1.0000
  C   C58       1.0  0.04907  0.48334  0.89153  1.0000
  S   S10       1.0  0.04959  0.47864  0.97081  1.0000
  H   H39       1.0  0.09710  0.46222  0.85760  1.0000
  C   C59       1.0  0.05302  0.43504  0.92904  1.0000
  C   C60       1.0  0.04329  0.44594  0.88892  1.0000
  H   H40       1.0  0.08455  0.48184  0.77862  1.0000
  H   H41       1.0  0.98872  0.45582  0.81394  1.0000
  C   C61       1.0  0.04452  0.41812  0.91791  1.0000
  H   H42       1.0  0.04482  0.40739  0.92940  1.0000
  C   C62       1.0  0.98719  0.42439  0.49981  1.0000
  C   C63       1.0  0.01813  0.45592  0.86370  1.0000
  C   C64       1.0  0.03555  0.41505  0.89213  1.0000
  C   C65       1.0  0.06208  0.45794  0.83174  1.0000
  H   H43       1.0  0.06118  0.44683  0.84327  1.0000
  C   C66       1.0  0.99003  0.44183  0.50266  1.0000
  S   S11       1.0  0.01126  0.45938  0.50597  1.0000
  H   H44       1.0  0.01873  0.42098  0.59775  1.0000
  H   H45       1.0  0.05997  0.43733  0.94899  1.0000
  S   S12       1.0  0.05909  0.45639  0.50139  1.0000
  H   H46       1.0  0.12578  0.47952  0.66140  1.0000
  H   H47       1.0  0.00138  0.40556  0.63716  1.0000
  H   H48       1.0  0.99826  0.46178  0.95574  1.0000
  C   C67       1.0  0.05323  0.46786  0.83959  1.0000
  P   P2        1.0  0.04105  0.46333  0.87082  1.0000
  H   H49       1.0  0.02458  0.47885  0.90905  1.0000
  C   C68       1.0  0.11501  0.48914  0.85704  1.0000
  H   H50       1.0  0.02008  0.46575  0.82213  1.0000
  C   C69       1.0  0.99312  0.46463  0.97446  1.0000
  Fe  Fe6       1.0  0.07637  0.48058  0.97915  1.0000
  H   H51       1.0  0.00650  0.48955  0.87045  1.0000
  C   C70       1.0  0.06666  0.48763  0.80260  1.0000
  C   C71       1.0  0.10378  0.49106  0.91203  1.0000
  H   H52       1.0  0.04939  0.49091  0.83103  1.0000
  H   H53       1.0  0.20292  0.50378  0.37917  1.0000
  S   S13       1.0  0.07693  0.61010  0.02369  1.0000
  H   H54       1.0  0.16240  0.66507  0.00041  1.0000
  H   H55       1.0  0.02664  0.55527  0.29290  1.0000
  H   H56       1.0  0.15166  0.62326  0.06259  1.0000
  S   S14       1.0  0.10796  0.66041  0.43702  1.0000
  H   H57       1.0  0.18895  0.80736  0.12661  1.0000
  H   H58       1.0  0.12216  0.52517  0.05569  1.0000
  Fe  Fe7       1.0  0.09297  0.63808  0.01607  1.0000
  S   S15       1.0  0.11333  0.65658  0.04798  1.0000
  H   H59       1.0  0.06490  0.51665  0.06418  1.0000
  C   C72       1.0  0.23183  0.50552  0.24373  1.0000
  Fe  Fe8       1.0  0.14586  0.51258  0.22262  1.0000
  C   C73       1.0  0.21856  0.51043  0.25087  1.0000
  H   H60       1.0  0.06692  0.57562  0.00854  1.0000
  C   C74       1.0  0.19773  0.72115  0.00437  1.0000
  S   S16       1.0  0.16810  0.53848  0.23417  1.0000
  H   H61       1.0  0.11690  0.51106  0.35045  1.0000
  Fe  Fe9       1.0  0.13986  0.50385  0.28528  1.0000
  S   S17       1.0  0.16172  0.52892  0.29944  1.0000
  H   H62       1.0  0.00568  0.49210  0.03115  1.0000
  Fe  Fe10      1.0  0.15112  0.54081  0.26688  1.0000
  S   S18       1.0  0.14305  0.56223  0.27766  1.0000
  Fe  Fe11      1.0  0.17711  0.52418  0.26555  1.0000
  S   S19       1.0  0.20602  0.53201  0.27778  1.0000
  S   S20       1.0  0.12855  0.51592  0.25393  1.0000
  Fe  Fe12      1.0  0.14598  0.66575  0.27821  1.0000
  S   S21       1.0  0.17483  0.67438  0.28031  1.0000
  S   S22       1.0  0.12548  0.65209  0.31036  1.0000
  Fe  Fe13      1.0  0.14489  0.66894  0.21333  1.0000
  S   S23       1.0  0.17377  0.67813  0.21119  1.0000
  S   S24       1.0  0.12204  0.65869  0.18104  1.0000
  Fe  Fe14      1.0  0.17066  0.65738  0.24194  1.0000
  S   S25       1.0  0.18293  0.63869  0.23585  1.0000
  Fe  Fe15      1.0  0.17631  0.69493  0.24971  1.0000
  S   S26       1.0  0.19542  0.72363  0.25980  1.0000
  S   S27       1.0  0.14212  0.64745  0.24173  1.0000
  S   S28       1.0  0.14732  0.68711  0.24978  1.0000
  C   C75       1.0  0.21698  0.73832  0.25139  1.0000
  P   P3        1.0  0.23314  0.80410  0.19248  1.0000
  C   C76       1.0  0.22415  0.51807  0.44181  1.0000
  H   H63       1.0  0.14372  0.62165  0.43164  1.0000
  H   H64       1.0  0.11624  0.51717  0.46047  1.0000
  C   C77       1.0  0.14679  0.57494  0.11994  1.0000
  C   C78       1.0  0.00642  0.58902  0.00054  1.0000
  C   C79       1.0  0.15376  0.58294  0.26389  1.0000
  C   C80       1.0  0.16914  0.58772  0.25013  1.0000
  C   C81       1.0  0.17788  0.60481  0.24119  1.0000
  C   C82       1.0  0.17132  0.61715  0.24608  1.0000
  C   C83       1.0  0.15575  0.61219  0.25934  1.0000
  C   C84       1.0  0.14697  0.59513  0.26796  1.0000
  H   H65       1.0  0.17451  0.57841  0.24694  1.0000
  H   H66       1.0  0.18993  0.60857  0.23096  1.0000
  H   H67       1.0  0.15062  0.62155  0.26348  1.0000
  H   H68       1.0  0.13499  0.59144  0.27825  1.0000
  C   C85       1.0  0.22233  0.52533  0.26756  1.0000
  Fe  Fe16      1.0  0.05612  0.61180  0.99535  1.0000
  C   C86       1.0  0.07308  0.53389  0.99284  1.0000
  H   H69       1.0  0.18793  0.51628  0.34490  1.0000
  C   C87       1.0  0.19114  0.62061  0.41966  1.0000
  H   H70       1.0  0.18394  0.50024  0.30016  1.0000
  H   H71       1.0  0.15476  0.63531  0.01530  1.0000
  H   H72       1.0  0.99584  0.50179  0.09844  1.0000
  H   H73       1.0  0.07824  0.49253  0.31744  1.0000
  H   H74       1.0  0.14353  0.53894  0.34789  1.0000
  C   C88       1.0  0.12930  0.55197  0.98914  1.0000
  C   C89       1.0  0.22721  0.83304  0.17902  1.0000
  H   H75       1.0  0.17441  0.61653  0.48335  1.0000
  C   C90       1.0  0.11596  0.65555  0.08484  1.0000
  C   C91       1.0  0.13167  0.66690  0.09838  1.0000
  C   C92       1.0  0.13405  0.66750  0.12766  1.0000
  C   C93       1.0  0.12061  0.65691  0.14392  1.0000
  C   C94       1.0  0.10505  0.64523  0.13035  1.0000
  C   C95       1.0  0.10278  0.64440  0.10101  1.0000
  H   H76       1.0  0.14198  0.67555  0.08616  1.0000
  H   H77       1.0  0.14607  0.67655  0.13771  1.0000
  H   H78       1.0  0.09455  0.63695  0.14264  1.0000
  H   H79       1.0  0.09062  0.63558  0.09103  1.0000
  C   C96       1.0  0.11254  0.65786  0.40167  1.0000
  C   C97       1.0  0.12835  0.66950  0.39143  1.0000
  C   C98       1.0  0.13253  0.66811  0.36359  1.0000
  C   C99       1.0  0.12094  0.65498  0.34555  1.0000
  C   C100      1.0  0.10504  0.64346  0.35569  1.0000
  C   C101      1.0  0.10081  0.64494  0.38345  1.0000
  H   H80       1.0  0.13746  0.67967  0.40518  1.0000
  H   H81       1.0  0.14478  0.67710  0.35621  1.0000
  H   H82       1.0  0.09586  0.63339  0.34188  1.0000
  H   H83       1.0  0.08840  0.63624  0.39066  1.0000
  S   S29       1.0  0.08040  0.49660  0.01925  1.0000
  C   C102      1.0  0.99058  0.52338  0.08705  1.0000
  C   C103      1.0  0.12394  0.61251  0.05852  1.0000
  H   H84       1.0  0.05548  0.57858  0.28427  1.0000
  C   C104      1.0  0.08321  0.56506  0.99029  1.0000
  C   C105      1.0  0.05667  0.54811  0.01291  1.0000
  H   H85       1.0  0.10334  0.50927  0.39611  1.0000
  C   C106      1.0  0.19242  0.51182  0.41437  1.0000
  P   P4        1.0  0.12564  0.55967  0.07269  1.0000
  H   H86       1.0  0.05043  0.52980  0.34389  1.0000
  C   C107      1.0  0.10864  0.59741  0.05882  1.0000
  C   C108      1.0  0.14022  0.59553  0.06681  1.0000
  C   C109      1.0  0.20471  0.83228  0.14630  1.0000
  C   C110      1.0  0.09276  0.74310  0.31031  1.0000
  C   C111      1.0  0.10332  0.75616  0.29334  1.0000
  C   C112      1.0  0.11804  0.75544  0.28288  1.0000
  C   C113      1.0  0.12222  0.74167  0.28941  1.0000
  C   C114      1.0  0.11179  0.72859  0.30674  1.0000
  C   C115      1.0  0.09693  0.72934  0.31694  1.0000
  P   P5        1.0  0.11680  0.71038  0.31400  1.0000
  C   C116      1.0  0.10942  0.69503  0.28469  1.0000
  C   C117      1.0  0.13981  0.71741  0.31942  1.0000
  C   C118      1.0  0.14713  0.70567  0.31479  1.0000
  C   C119      1.0  0.16500  0.71123  0.31737  1.0000
  C   C120      1.0  0.17570  0.72846  0.32495  1.0000
  C   C121      1.0  0.16849  0.74006  0.33087  1.0000
  C   C122      1.0  0.15058  0.73453  0.32841  1.0000
  C   C123      1.0  0.10482  0.67738  0.28884  1.0000
  C   C124      1.0  0.10009  0.66554  0.26623  1.0000
  C   C125      1.0  0.10000  0.67120  0.23917  1.0000
  C   C126      1.0  0.10444  0.68873  0.23479  1.0000
  C   C127      1.0  0.10914  0.70062  0.25742  1.0000
  C   C128      1.0  0.10641  0.70000  0.34500  1.0000
  C   C129      1.0  0.08899  0.68799  0.34344  1.0000
  C   C130      1.0  0.08104  0.67959  0.36723  1.0000
  C   C131      1.0  0.09034  0.68326  0.39277  1.0000
  C   C132      1.0  0.10756  0.69538  0.39458  1.0000
  C   C133      1.0  0.11562  0.70372  0.37082  1.0000
  H   H87       1.0  0.08126  0.74358  0.31824  1.0000
  H   H88       1.0  0.10002  0.76677  0.28816  1.0000
  H   H89       1.0  0.12615  0.76548  0.26952  1.0000
  H   H90       1.0  0.13352  0.74116  0.28073  1.0000
  H   H91       1.0  0.08848  0.71933  0.32994  1.0000
  H   H92       1.0  0.13912  0.69224  0.30887  1.0000
  H   H93       1.0  0.17064  0.70226  0.31292  1.0000
  H   H94       1.0  0.18958  0.73276  0.32600  1.0000
  H   H95       1.0  0.17682  0.75337  0.33706  1.0000
  H   H96       1.0  0.14523  0.74366  0.33329  1.0000
  H   H97       1.0  0.10542  0.67276  0.30950  1.0000
  H   H98       1.0  0.09707  0.65208  0.26982  1.0000
  H   H99       1.0  0.09690  0.66211  0.22153  1.0000
  H   H100      1.0  0.10466  0.69311  0.21372  1.0000
  H   H101      1.0  0.11288  0.71413  0.25336  1.0000
  H   H102      1.0  0.08162  0.68495  0.32377  1.0000
  H   H103      1.0  0.06773  0.67005  0.36589  1.0000
  H   H104      1.0  0.08435  0.67645  0.41114  1.0000
  H   H105      1.0  0.11480  0.69781  0.41436  1.0000
  H   H106      1.0  0.12907  0.71278  0.37268  1.0000
  H   H107      1.0  0.10131  0.55352  0.28785  1.0000
  S   S30       1.0  0.13976  0.50979  0.17511  1.0000
  C   C134      1.0  0.03706  0.49283  0.39196  1.0000
  H   H108      1.0  0.21369  0.70794  0.99524  1.0000
  H   H109      1.0  0.13977  0.50743  0.42010  1.0000
  C   C135      1.0  0.20115  0.70804  0.99187  1.0000
  C   C136      1.0  0.15973  0.57698  0.14009  1.0000
  C   C137      1.0  0.01391  0.60644  0.43523  1.0000
  C   C138      1.0  0.17487  0.61380  0.46146  1.0000
  H   H110      1.0  0.09052  0.54114  0.04837  1.0000
  C   C139      1.0  0.07694  0.51500  0.10322  1.0000
  C   C140      1.0  0.15220  0.63750  0.99390  1.0000
  H   H111      1.0  0.02424  0.53079  0.32245  1.0000
  C   C141      1.0  0.17625  0.49387  0.31745  1.0000
  C   C142      1.0  0.12974  0.55990  0.01506  1.0000
  H   H112      1.0  0.13476  0.51332  0.11649  1.0000
  C   C143      1.0  0.21883  0.78129  0.19341  1.0000
  H   H113      1.0  0.02708  0.61594  0.43359  1.0000
  H   H114      1.0  0.00498  0.56303  0.39062  1.0000
  C   C144      1.0  0.09694  0.52744  0.27705  1.0000
  C   C145      1.0  0.15295  0.55325  0.09529  1.0000
  H   H115      1.0  0.09705  0.56990  0.06143  1.0000
  H   H116      1.0  0.12348  0.62491  0.05522  1.0000
  H   H117      1.0  0.10284  0.53093  0.25714  1.0000
  C   C146      1.0  0.11194  0.49900  0.36126  1.0000
  H   H118      1.0  0.17263  0.54703  0.11473  1.0000
  C   C147      1.0  0.22964  0.81994  0.24203  1.0000
  C   C148      1.0  0.20824  0.80600  0.15519  1.0000
  H   H119      1.0  0.02530  0.55423  0.36696  1.0000
  H   H120      1.0  0.21799  0.81989  0.23243  1.0000
  C   C149      1.0  0.14340  0.56316  0.09719  1.0000
  H   H121      1.0  0.23130  0.77825  0.47023  1.0000
  C   C150      1.0  0.12482  0.58031  0.06728  1.0000
  C   C151      1.0  0.00976  0.53671  0.43961  1.0000
  H   H122      1.0  0.04468  0.50293  0.37831  1.0000
  C   C152      1.0  0.00945  0.55429  0.40067  1.0000
  C   C153      1.0  0.12462  0.53294  0.03736  1.0000
  C   C154      1.0  0.07637  0.52239  0.07777  1.0000
  C   C155      1.0  0.10398  0.49797  0.38698  1.0000
  C   C156      1.0  0.16903  0.56692  0.13820  1.0000
  C   C157      1.0  0.22487  0.75474  0.26529  1.0000
  H   H123      1.0  0.20138  0.63246  0.46008  1.0000
  H   H124      1.0  0.08169  0.57756  0.30502  1.0000
  H   H125      1.0  0.99928  0.53198  0.10319  1.0000
  C   C158      1.0  0.00396  0.54821  0.42712  1.0000
  H   H126      1.0  0.14818  0.51300  0.35865  1.0000
  H   H127      1.0  0.15042  0.54383  0.07842  1.0000
  C   C159      1.0  0.98920  0.55108  0.48060  1.0000
  C   C160      1.0  0.03679  0.54117  0.31917  1.0000
  H   H128      1.0  0.99060  0.50884  0.99637  1.0000
  C   C161      1.0  0.22207  0.81517  0.17430  1.0000
  H   H129      1.0  0.12333  0.56122  0.33185  1.0000
  C   C162      1.0  0.06926  0.56754  0.30969  1.0000
  H   H130      1.0  0.06600  0.50344  0.10912  1.0000
  C   C163      1.0  0.08659  0.53117  0.41794  1.0000
  C   C164      1.0  0.06888  0.56411  0.00451  1.0000
  C   C165      1.0  0.08305  0.54666  0.37806  1.0000
  C   C166      1.0  0.00077  0.61198  0.43724  1.0000
  H   H131      1.0  0.09304  0.58883  0.35467  1.0000
  C   C167      1.0  0.05438  0.56806  0.29763  1.0000
  C   C168      1.0  0.11970  0.60443  0.34752  1.0000
  P   P6        1.0  0.08693  0.55266  0.34232  1.0000
  C   C169      1.0  0.10603  0.54367  0.08625  1.0000
  H   H132      1.0  0.11794  0.54101  0.12556  1.0000
  H   H133      1.0  0.09264  0.51565  0.13938  1.0000
  H   H134      1.0  0.20917  0.78321  0.23381  1.0000
  C   C170      1.0  0.07564  0.53615  0.43287  1.0000
  C   C171      1.0  0.09090  0.53646  0.06907  1.0000
  H   H135      1.0  0.13876  0.53480  0.42845  1.0000
  C   C172      1.0  0.05164  0.54069  0.33140  1.0000
  C   C173      1.0  0.13671  0.58889  0.33553  1.0000
  H   H136      1.0  0.18256  0.56873  0.41014  1.0000
  C   C174      1.0  0.15287  0.53971  0.36432  1.0000
  H   H137      1.0  0.15261  0.59502  0.06962  1.0000
  C   C175      1.0  0.16563  0.55507  0.11584  1.0000
  H   H138      1.0  0.07261  0.53186  0.45390  1.0000
  C   C176      1.0  0.06797  0.55404  0.32716  1.0000
  H   H139      1.0  0.06065  0.55109  0.43258  1.0000
  C   C177      1.0  0.10906  0.58137  0.06260  1.0000
  C   C178      1.0  0.09076  0.53686  0.39094  1.0000
  C   C179      1.0  0.02082  0.54917  0.38708  1.0000
  H   H140      1.0  0.02545  0.52262  0.43562  1.0000
  P   P7        1.0  0.17137  0.50668  0.39800  1.0000
  H   H141      1.0  0.18742  0.54293  0.42115  1.0000
  C   C180      1.0  0.08890  0.53603  0.32076  1.0000
  S   S31       1.0  0.04329  0.51310  0.01713  1.0000
  C   C181      1.0  0.13941  0.55915  0.44313  1.0000
  H   H142      1.0  0.23083  0.80412  0.44795  1.0000
  H   H143      1.0  0.09966  0.53331  0.37988  1.0000
  C   C182      1.0  0.13838  0.62874  0.12775  1.0000
  C   C183      1.0  0.15301  0.63802  0.14494  1.0000
  C   C184      1.0  0.15429  0.63242  0.17162  1.0000
  C   C185      1.0  0.14091  0.61763  0.18126  1.0000
  C   C186      1.0  0.12623  0.60801  0.16398  1.0000
  C   C187      1.0  0.12506  0.61375  0.13708  1.0000
  P   P8        1.0  0.10837  0.58991  0.17790  1.0000
  C   C188      1.0  0.11339  0.57155  0.18380  1.0000
  C   C189      1.0  0.10472  0.59838  0.21045  1.0000
  C   C190      1.0  0.10640  0.59122  0.23587  1.0000
  C   C191      1.0  0.10504  0.59899  0.26100  1.0000
  C   C192      1.0  0.10172  0.61373  0.26090  1.0000
  C   C193      1.0  0.09999  0.62085  0.23566  1.0000
  C   C194      1.0  0.10181  0.61343  0.21060  1.0000
  C   C195      1.0  0.10007  0.55466  0.18240  1.0000
  C   C196      1.0  0.10367  0.54037  0.18751  1.0000
  C   C197      1.0  0.12057  0.54277  0.19399  1.0000
  C   C198      1.0  0.13382  0.55950  0.19612  1.0000
  C   C199      1.0  0.13028  0.57386  0.19119  1.0000
  C   C200      1.0  0.08954  0.58284  0.15420  1.0000
  C   C201      1.0  0.08928  0.57409  0.12900  1.0000
  C   C202      1.0  0.07484  0.56848  0.11050  1.0000
  C   C203      1.0  0.06064  0.57170  0.11681  1.0000
  C   C204      1.0  0.06065  0.58013  0.14198  1.0000
  C   C205      1.0  0.07496  0.58555  0.16073  1.0000
  H   H144      1.0  0.13706  0.63365  0.10764  1.0000
  H   H145      1.0  0.16312  0.64987  0.13795  1.0000
  H   H146      1.0  0.16544  0.63987  0.18522  1.0000
  H   H147      1.0  0.14185  0.61414  0.20259  1.0000
  H   H148      1.0  0.11367  0.60725  0.12358  1.0000
  H   H149      1.0  0.10945  0.58010  0.23650  1.0000
  H   H150      1.0  0.10724  0.59401  0.28057  1.0000
  H   H151      1.0  0.10119  0.62006  0.28036  1.0000
  H   H152      1.0  0.09820  0.63269  0.23537  1.0000
  H   H153      1.0  0.10142  0.61974  0.19134  1.0000
  H   H154      1.0  0.08686  0.55248  0.17753  1.0000
  H   H155      1.0  0.09338  0.52738  0.18644  1.0000
  H   H156      1.0  0.12341  0.53166  0.19758  1.0000
  H   H157      1.0  0.14685  0.56132  0.20192  1.0000
  H   H158      1.0  0.14075  0.58664  0.19353  1.0000
  H   H159      1.0  0.10029  0.57166  0.12366  1.0000
  H   H160      1.0  0.07455  0.56160  0.09120  1.0000
  H   H161      1.0  0.04960  0.56760  0.10219  1.0000
  H   H162      1.0  0.04956  0.58250  0.14694  1.0000
  H   H163      1.0  0.07445  0.59178  0.18019  1.0000
  C   C206      1.0  0.19024  0.62307  0.44824  1.0000
  C   C207      1.0  0.16122  0.59968  0.41734  1.0000
  C   C208      1.0  0.16027  0.60179  0.44620  1.0000
  H   H164      1.0  0.13437  0.67398  0.99473  1.0000
  C   C209      1.0  0.22091  0.51196  0.41411  1.0000
  C   C210      1.0  0.12445  0.59670  0.44377  1.0000
  C   C211      1.0  0.13018  0.61281  0.43104  1.0000
  C   C212      1.0  0.11839  0.61800  0.41802  1.0000
  C   C213      1.0  0.10075  0.60732  0.41801  1.0000
  C   C214      1.0  0.09493  0.59139  0.43083  1.0000
  C   C215      1.0  0.10668  0.58601  0.44360  1.0000
  H   H165      1.0  0.08123  0.58346  0.43156  1.0000
  C   C216      1.0  0.13247  0.56742  0.46124  1.0000
  H   H166      1.0  0.18913  0.75231  0.23431  1.0000
  C   C217      1.0  0.21155  0.52096  0.45592  1.0000
  H   H167      1.0  0.14989  0.59120  0.40485  1.0000
  H   H168      1.0  0.02073  0.58493  0.43649  1.0000
  H   H169      1.0  0.12292  0.63054  0.40859  1.0000
  H   H170      1.0  0.09154  0.61155  0.40875  1.0000
  S   S32       1.0  0.06091  0.62334  0.45873  1.0000
  H   H171      1.0  0.10175  0.57380  0.45398  1.0000
  H   H172      1.0  0.11066  0.49764  0.08161  1.0000
  H   H173      1.0  0.14933  0.56645  0.42928  1.0000
  H   H174      1.0  0.98902  0.53710  0.99539  1.0000
  H   H175      1.0  0.16236  0.58612  0.15751  1.0000
  C   C218      1.0  0.10510  0.58867  0.34898  1.0000
  H   H176      1.0  0.16070  0.56688  0.37330  1.0000
  H   H177      1.0  0.21797  0.75800  0.28113  1.0000
  C   C219      1.0  0.02647  0.53765  0.39957  1.0000
  H   H178      1.0  0.22038  0.72210  0.21962  1.0000
  C   C220      1.0  0.16805  0.52590  0.39089  1.0000
  C   C221      1.0  0.15560  0.52501  0.37039  1.0000
  H   H179      1.0  0.07551  0.51469  0.34780  1.0000
  C   C222      1.0  0.12298  0.50304  0.12307  1.0000
  C   C223      1.0  0.05877  0.53301  0.00704  1.0000
  C   C224      1.0  0.11402  0.53929  0.47888  1.0000
  H   H180      1.0  0.20539  0.50268  0.24341  1.0000
  C   C225      1.0  0.20513  0.50882  0.40041  1.0000
  H   H181      1.0  0.09637  0.59806  0.05588  1.0000
  C   C226      1.0  0.07258  0.55219  0.39356  1.0000
  H   H182      1.0  0.12157  0.51145  0.00981  1.0000
  C   C227      1.0  0.09055  0.51026  0.28532  1.0000
  H   H183      1.0  0.04553  0.54742  0.02372  1.0000
  H   H184      1.0  0.13925  0.58236  0.12240  1.0000
  H   H185      1.0  0.17871  0.56814  0.15428  1.0000
  Fe  Fe17      1.0  0.08860  0.64218  0.46712  1.0000
  C   C228      1.0  0.99369  0.57303  0.00851  1.0000
  H   H186      1.0  0.09172  0.52276  0.42737  1.0000
  Fe  Fe18      1.0  0.05301  0.49263  0.01168  1.0000
  C   C229      1.0  0.03815  0.55492  0.30245  1.0000
  H   H187      1.0  0.06725  0.56058  0.38466  1.0000
  C   C230      1.0  0.08191  0.51861  0.32848  1.0000
  S   S33       1.0  0.05607  0.49209  0.48223  1.0000
  C   C231      1.0  0.16259  0.55545  0.37859  1.0000
  C   C232      1.0  0.12208  0.57314  0.33646  1.0000
  H   H188      1.0  0.13128  0.57320  0.01570  1.0000
  P   P9        1.0  0.13977  0.59076  0.46229  1.0000
  C   C233      1.0  0.10636  0.53637  0.11217  1.0000
  C   C234      1.0  0.12095  0.53118  0.46079  1.0000
  C   C235      1.0  0.13976  0.61156  0.06254  1.0000
  C   C236      1.0  0.13356  0.54110  0.44278  1.0000
  C   C237      1.0  0.21851  0.84153  0.16513  1.0000
  C   C238      1.0  0.12420  0.52508  0.01141  1.0000
  Fe  Fe19      1.0  0.06754  0.60494  0.48381  1.0000
  C   C239      1.0  0.21744  0.76995  0.17090  1.0000
  C   C240      1.0  0.20614  0.75237  0.17154  1.0000
  C   C241      1.0  0.19587  0.74606  0.19432  1.0000
  C   C242      1.0  0.19683  0.75735  0.21640  1.0000
  C   C243      1.0  0.20835  0.77486  0.21611  1.0000
  C   C244      1.0  0.12739  0.55043  0.03944  1.0000
  H   H189      1.0  0.14664  0.61678  0.33859  1.0000
  C   C245      1.0  0.98852  0.50619  0.08435  1.0000
  H   H190      1.0  0.09150  0.50035  0.27190  1.0000
  H   H191      1.0  0.10660  0.67552  0.00022  1.0000
  C   C246      1.0  0.08306  0.50585  0.31103  1.0000
  C   C247      1.0  0.22616  0.73452  0.23074  1.0000
  C   C248      1.0  0.19572  0.51775  0.44235  1.0000
  H   H192      1.0  0.22252  0.85531  0.16892  1.0000
  C   C249      1.0  0.16846  0.49472  0.36537  1.0000
  C   C250      1.0  0.01020  0.58882  0.43678  1.0000
  H   H193      1.0  0.19799  0.83887  0.13552  1.0000
  C   C251      1.0  0.06882  0.54685  0.42080  1.0000
  H   H194      1.0  0.03519  0.53360  0.38905  1.0000
  H   H195      1.0  0.20407  0.79227  0.15090  1.0000
  H   H196      1.0  0.20550  0.74355  0.15457  1.0000
  H   H197      1.0  0.18746  0.73235  0.19529  1.0000
  C   C252      1.0  0.02097  0.53145  0.42582  1.0000
  C   C253      1.0  0.17662  0.60895  0.40420  1.0000
  H   H198      1.0  0.20299  0.62802  0.40939  1.0000
  H   H199      1.0  0.99765  0.56388  0.01831  1.0000
  C   C254      1.0  0.09191  0.52200  0.12038  1.0000
  S   S34       1.0  0.02859  0.59320  0.00639  1.0000
  H   H200      1.0  0.18594  0.51966  0.45379  1.0000
  C   C255      1.0  0.09615  0.54027  0.29467  1.0000
  C   C256      1.0  0.17493  0.55647  0.39923  1.0000
  H   H201      1.0  0.17721  0.60739  0.38189  1.0000
  H   H202      1.0  0.22758  0.83286  0.27978  1.0000
  C   C257      1.0  0.14213  0.49726  0.42984  1.0000
  C   C258      1.0  0.13546  0.60454  0.34053  1.0000
  C   C259      1.0  0.17766  0.54176  0.40540  1.0000
  H   H203      1.0  0.11881  0.61662  0.35139  1.0000
  H   H204      1.0  0.20758  0.73117  0.01749  1.0000
  H   H205      1.0  0.14886  0.58896  0.32961  1.0000
  H   H206      1.0  0.00552  0.53160  0.45982  1.0000
  C   C260      1.0  0.11968  0.55729  0.47907  1.0000
  C   C261      1.0  0.10604  0.57294  0.34243  1.0000
  S   S35       1.0  0.05441  0.57717  0.46838  1.0000
  H   H207      1.0  0.01445  0.49751  0.38602  1.0000
  S   S36       1.0  0.15569  0.49804  0.25272  1.0000
  C   C262      1.0  0.19960  0.81453  0.14130  1.0000
  H   H208      1.0  0.21394  0.52546  0.47753  1.0000
  H   H209      1.0  0.23055  0.50941  0.40334  1.0000
  H   H210      1.0  0.00384  0.62571  0.43742  1.0000
  C   C263      1.0  0.18161  0.72137  0.99985  1.0000
  C   C264      1.0  0.12166  0.49857  0.15128  1.0000
  H   H211      1.0  0.22864  0.49397  0.23076  1.0000
  C   C265      1.0  0.23495  0.82717  0.26896  1.0000
  S   S37       1.0  0.07147  0.64072  0.99022  1.0000
  C   C266      1.0  0.10932  0.49418  0.10318  1.0000
  C   C267      1.0  0.15669  0.65443  0.98524  1.0000
  P   P10       1.0  0.98837  0.55392  0.44360  1.0000
  C   C268      1.0  0.99316  0.57656  0.43994  1.0000
  C   C269      1.0  0.15597  0.49357  0.42236  1.0000
  H   H212      1.0  0.22518  0.77464  0.15296  1.0000
  C   C270      1.0  0.17849  0.50288  0.34291  1.0000
  H   H213      1.0  0.04006  0.54071  0.47801  1.0000
  C   C271      1.0  0.00112  0.60100  0.98868  1.0000
  H   H214      1.0  0.98644  0.50671  0.41329  1.0000
  C   C272      1.0  0.12643  0.53454  0.98730  1.0000
  H   H215      1.0  0.17896  0.73156  0.00942  1.0000
  H   H216      1.0  0.07458  0.52219  0.98779  1.0000
  H   H217      1.0  0.18182  0.69866  0.83961  1.0000
  S   S38       1.0  0.06101  0.61220  0.52538  1.0000
  H   H218      1.0  0.20698  0.74604  0.72635  1.0000
  H   H219      1.0  0.09444  0.56527  0.57944  1.0000
  H   H220      1.0  0.13047  0.61126  0.63344  1.0000
  S   S39       1.0  0.08473  0.64498  0.90986  1.0000
  H   H221      1.0  0.12965  0.52921  0.54750  1.0000
  H   H222      1.0  0.17979  0.62481  0.89119  1.0000
  Fe  Fe20      1.0  0.08864  0.63247  0.52924  1.0000
  S   S40       1.0  0.10811  0.63647  0.56622  1.0000
  S   S41       1.0  0.06623  0.60470  0.95689  1.0000
  S   S42       1.0  0.08262  0.65259  0.50717  1.0000
  C   C273      1.0  0.21817  0.49267  0.84921  1.0000
  C   C274      1.0  0.12263  0.54304  0.61062  1.0000
  S   S43       1.0  0.09155  0.49419  0.51343  1.0000
  C   C275      1.0  0.14141  0.60816  0.63582  1.0000
  S   S44       1.0  0.16719  0.53479  0.73215  1.0000
  C   C276      1.0  0.02391  0.59803  0.92867  1.0000
  H   H223      1.0  0.98865  0.57427  0.70540  1.0000
  S   S45       1.0  0.16695  0.52534  0.79866  1.0000
  H   H224      1.0  0.12554  0.52820  0.96717  1.0000
  Fe  Fe21      1.0  0.15825  0.54191  0.77170  1.0000
  S   S46       1.0  0.16153  0.56828  0.78830  1.0000
  Fe  Fe22      1.0  0.17410  0.51649  0.75823  1.0000
  C   C277      1.0  0.13967  0.59097  0.63390  1.0000
  S   S47       1.0  0.13108  0.52181  0.76501  1.0000
  Fe  Fe23      1.0  0.15239  0.66602  0.78043  1.0000
  S   S48       1.0  0.17991  0.67030  0.77404  1.0000
  S   S49       1.0  0.14245  0.65367  0.82225  1.0000
  Fe  Fe24      1.0  0.14803  0.67494  0.71946  1.0000
  S   S50       1.0  0.17504  0.67961  0.70980  1.0000
  S   S51       1.0  0.12915  0.67658  0.68576  1.0000
  Fe  Fe25      1.0  0.16972  0.65548  0.73353  1.0000
  S   S52       1.0  0.17539  0.63381  0.71508  1.0000
  Fe  Fe26      1.0  0.18338  0.69454  0.75110  1.0000
  S   S53       1.0  0.20969  0.71851  0.76067  1.0000
  S   S54       1.0  0.14227  0.64996  0.74066  1.0000
  S   S55       1.0  0.15629  0.69114  0.76011  1.0000
  C   C278      1.0  0.22441  0.74040  0.75327  1.0000
  C   C279      1.0  0.17294  0.52281  0.66610  1.0000
  C   C280      1.0  0.03843  0.62142  0.88674  1.0000
  C   C281      1.0  0.07269  0.59505  0.88371  1.0000
  H   H225      1.0  0.22147  0.49825  0.72608  1.0000
  C   C282      1.0  0.14000  0.59201  0.87734  1.0000
  H   H226      1.0  0.08022  0.52429  0.68307  1.0000
  C   C283      1.0  0.16363  0.58564  0.76686  1.0000
  C   C284      1.0  0.16437  0.60098  0.77935  1.0000
  C   C285      1.0  0.16727  0.61559  0.76344  1.0000
  C   C286      1.0  0.16979  0.61506  0.73495  1.0000
  C   C287      1.0  0.16869  0.59958  0.72230  1.0000
  C   C288      1.0  0.16545  0.58484  0.73815  1.0000
  H   H227      1.0  0.16301  0.60168  0.80154  1.0000
  H   H228      1.0  0.16807  0.62742  0.77342  1.0000
  H   H229      1.0  0.17067  0.59911  0.70033  1.0000
  H   H230      1.0  0.16506  0.57312  0.72841  1.0000
  C   C289      1.0  0.22110  0.51864  0.75293  1.0000
  C   C290      1.0  0.09751  0.58865  0.85479  1.0000
  H   H231      1.0  0.16245  0.54038  0.65216  1.0000
  H   H232      1.0  0.22560  0.54031  0.78073  1.0000
  C   C291      1.0  0.10444  0.53876  0.70561  1.0000
  H   H233      1.0  0.13661  0.56846  0.82640  1.0000
  H   H234      1.0  0.99183  0.54617  0.56062  1.0000
  H   H235      1.0  0.12113  0.53893  0.63189  1.0000
  C   C292      1.0  0.09384  0.55024  0.83988  1.0000
  C   C293      1.0  0.08195  0.58217  0.58451  1.0000
  C   C294      1.0  0.20315  0.55261  0.68092  1.0000
  H   H236      1.0  0.11636  0.61086  0.72633  1.0000
  Fe  Fe27      1.0  0.08273  0.63313  0.95290  1.0000
  C   C295      1.0  0.11342  0.64749  0.59962  1.0000
  C   C296      1.0  0.10405  0.65603  0.61066  1.0000
  C   C297      1.0  0.10887  0.66459  0.63715  1.0000
  C   C298      1.0  0.12310  0.66478  0.65304  1.0000
  C   C299      1.0  0.13239  0.65613  0.64210  1.0000
  C   C300      1.0  0.12759  0.64758  0.61561  1.0000
  H   H237      1.0  0.09309  0.65605  0.59879  1.0000
  H   H238      1.0  0.10153  0.67118  0.64535  1.0000
  H   H239      1.0  0.14341  0.65623  0.65392  1.0000
  H   H240      1.0  0.13500  0.64111  0.60734  1.0000
  C   C301      1.0  0.10055  0.64710  0.88521  1.0000
  C   C302      1.0  0.10251  0.65773  0.86224  1.0000
  C   C303      1.0  0.11511  0.65985  0.84254  1.0000
  C   C304      1.0  0.12583  0.65123  0.84552  1.0000
  C   C305      1.0  0.12356  0.64034  0.86816  1.0000
  C   C306      1.0  0.11109  0.63835  0.88791  1.0000
  H   H241      1.0  0.09438  0.66453  0.85980  1.0000
  H   H242      1.0  0.11661  0.66823  0.82523  1.0000
  H   H243      1.0  0.13161  0.63348  0.87063  1.0000
  H   H244      1.0  0.10963  0.63005  0.90530  1.0000
  C   C307      1.0  0.98550  0.56367  0.89743  1.0000
  H   H245      1.0  0.10164  0.52972  0.72233  1.0000
  C   C308      1.0  0.01078  0.52775  0.93082  1.0000
  C   C309      1.0  0.00815  0.62005  0.50664  1.0000
  H   H246      1.0  0.10478  0.59402  0.65786  1.0000
  P   P11       1.0  0.11423  0.58592  0.83598  1.0000
  H   H247      1.0  0.13969  0.61024  0.98222  1.0000
  H   H248      1.0  0.13291  0.61527  0.93365  1.0000
  C   C310      1.0  0.08437  0.56268  0.51820  1.0000
  C   C311      1.0  0.16931  0.67397  0.89669  1.0000
  H   H249      1.0  0.21612  0.77198  0.57565  1.0000
  H   H250      1.0  0.21304  0.60132  0.70519  1.0000
  H   H251      1.0  0.20707  0.49570  0.84924  1.0000
  C   C312      1.0  0.04116  0.62725  0.91456  1.0000
  C   C313      1.0  0.22295  0.58388  0.63854  1.0000
  C   C314      1.0  0.20150  0.68463  0.65159  1.0000
  C   C315      1.0  0.21183  0.68903  0.67614  1.0000
  C   C316      1.0  0.21491  0.70440  0.69088  1.0000
  C   C317      1.0  0.20774  0.71538  0.68103  1.0000
  C   C318      1.0  0.19760  0.71132  0.65612  1.0000
  C   C319      1.0  0.19441  0.69568  0.64159  1.0000
  P   P12       1.0  0.18877  0.72605  0.64359  1.0000
  C   C320      1.0  0.18006  0.73260  0.67308  1.0000
  C   C321      1.0  0.20612  0.74516  0.63067  1.0000
  C   C322      1.0  0.20445  0.75168  0.60463  1.0000
  C   C323      1.0  0.20806  0.57522  0.77212  1.0000
  C   C324      1.0  0.09104  0.53278  0.83914  1.0000
  C   C325      1.0  0.01765  0.56009  0.80091  1.0000
  C   C326      1.0  0.22090  0.75463  0.64788  1.0000
  C   C327      1.0  0.16850  0.71994  0.68975  1.0000
  C   C328      1.0  0.16104  0.72476  0.71178  1.0000
  C   C329      1.0  0.16570  0.74227  0.71825  1.0000
  C   C330      1.0  0.17748  0.75500  0.70216  1.0000
  C   C331      1.0  0.18447  0.75021  0.67940  1.0000
  C   C332      1.0  0.17172  0.71481  0.61720  1.0000
  C   C333      1.0  0.15425  0.70960  0.62294  1.0000
  C   C334      1.0  0.14120  0.69952  0.60344  1.0000
  C   C335      1.0  0.14536  0.69453  0.57801  1.0000
  C   C336      1.0  0.16265  0.70000  0.57171  1.0000
  C   C337      1.0  0.17577  0.71015  0.59112  1.0000
  H   H252      1.0  0.19850  0.67234  0.64084  1.0000
  C   C338      1.0  0.22623  0.49142  0.87434  1.0000
  H   H253      1.0  0.22214  0.70742  0.71072  1.0000
  H   H254      1.0  0.20956  0.72667  0.69358  1.0000
  H   H255      1.0  0.18602  0.69154  0.62312  1.0000
  H   H256      1.0  0.19289  0.74527  0.59142  1.0000
  C   C339      1.0  0.03386  0.61557  0.93548  1.0000
  H   H257      1.0  0.00550  0.50899  0.83323  1.0000
  C   C340      1.0  0.11446  0.59337  0.80094  1.0000
  H   H258      1.0  0.22229  0.75054  0.66857  1.0000
  H   H259      1.0  0.16472  0.70628  0.68509  1.0000
  H   H260      1.0  0.15147  0.71487  0.72362  1.0000
  H   H261      1.0  0.16007  0.74592  0.73564  1.0000
  H   H262      1.0  0.18110  0.76858  0.70722  1.0000
  H   H263      1.0  0.19322  0.76033  0.66694  1.0000
  H   H264      1.0  0.15040  0.71285  0.64256  1.0000
  H   H265      1.0  0.12779  0.69521  0.60837  1.0000
  H   H266      1.0  0.13514  0.68624  0.56336  1.0000
  H   H267      1.0  0.16579  0.69605  0.55194  1.0000
  H   H268      1.0  0.18909  0.71386  0.58620  1.0000
  H   H269      1.0  0.02020  0.55840  0.77940  1.0000
  C   C341      1.0  0.23225  0.77620  0.61292  1.0000
  H   H270      1.0  0.99067  0.57069  0.83931  1.0000
  H   H271      1.0  0.17122  0.63600  0.84863  1.0000
  Fe  Fe28      1.0  0.13983  0.50476  0.79020  1.0000
  H   H272      1.0  0.12983  0.55525  0.72266  1.0000
  C   C342      1.0  0.17375  0.53925  0.66098  1.0000
  H   H273      1.0  0.10964  0.59022  0.89572  1.0000
  S   S56       1.0  0.09720  0.49322  0.94655  1.0000
  H   H274      1.0  0.21868  0.49181  0.80446  1.0000
  H   H275      1.0  0.18888  0.56676  0.66567  1.0000
  H   H276      1.0  0.12248  0.58528  0.73448  1.0000
  C   C343      1.0  0.12791  0.53760  0.56308  1.0000
  C   C344      1.0  0.14651  0.61422  0.84316  1.0000
  C   C345      1.0  0.20514  0.59019  0.77229  1.0000
  H   H277      1.0  0.18469  0.62930  0.64951  1.0000
  H   H278      1.0  0.06024  0.59361  0.84354  1.0000
  H   H279      1.0  0.09674  0.56886  0.52940  1.0000
  H   H280      1.0  0.03625  0.62003  0.95710  1.0000
  C   C346      1.0  0.00192  0.60186  0.50753  1.0000
  H   H281      1.0  0.15360  0.57482  0.63482  1.0000
  C   C347      1.0  0.23240  0.76759  0.72889  1.0000
  C   C348      1.0  0.13104  0.60567  0.50820  1.0000
  C   C349      1.0  0.17228  0.61867  0.64419  1.0000
  H   H282      1.0  0.14324  0.61941  0.82462  1.0000
  C   C350      1.0  0.12780  0.55334  0.55564  1.0000
  C   C351      1.0  0.12473  0.56377  0.57550  1.0000
  C   C352      1.0  0.16731  0.61746  0.88077  1.0000
  H   H283      1.0  0.12564  0.52034  0.59645  1.0000
  H   H284      1.0  0.20583  0.56755  0.79053  1.0000
  H   H285      1.0  0.12962  0.55724  0.53435  1.0000
  H   H286      1.0  0.12426  0.57570  0.56926  1.0000
  C   C353      1.0  0.12455  0.56421  0.68326  1.0000
  C   C354      1.0  0.12381  0.55862  0.83001  1.0000
  C   C355      1.0  0.12550  0.53254  0.59062  1.0000
  C   C356      1.0  0.18872  0.55411  0.66863  1.0000
  C   C357      1.0  0.17215  0.69514  0.97056  1.0000
  C   C358      1.0  0.22871  0.58814  0.66652  1.0000
  C   C359      1.0  0.12042  0.55311  0.70566  1.0000
  C   C360      1.0  0.06656  0.49496  0.89117  1.0000
  C   C361      1.0  0.10217  0.57968  0.61902  1.0000
  H   H287      1.0  0.06359  0.59835  0.89474  1.0000
  C   C362      1.0  0.09241  0.53568  0.68345  1.0000
  H   H288      1.0  0.12454  0.61732  0.54337  1.0000
  C   C363      1.0  0.15604  0.60159  0.89102  1.0000
  C   C364      1.0  0.07497  0.54468  0.51834  1.0000
  C   C365      1.0  0.15762  0.62188  0.64124  1.0000
  H   H289      1.0  0.13716  0.57497  0.68358  1.0000
  C   C366      1.0  0.16254  0.62375  0.85684  1.0000
  H   H290      1.0  0.09945  0.51173  0.64458  1.0000
  S   S57       1.0  0.08357  0.53232  0.53620  1.0000
  S   S58       1.0  0.12362  0.51068  0.68653  1.0000
  P   P13       1.0  0.11880  0.57266  0.62889  1.0000
  H   H291      1.0  0.16295  0.59827  0.55981  1.0000
  H   H292      1.0  0.15979  0.59662  0.90942  1.0000
  C   C367      1.0  0.06165  0.51507  0.92197  1.0000
  C   C368      1.0  0.13504  0.59832  0.85341  1.0000
  H   H293      1.0  0.13150  0.57964  0.88537  1.0000
  C   C369      1.0  0.09649  0.54672  0.66101  1.0000
  C   C370      1.0  0.11268  0.56092  0.66054  1.0000
  Fe  Fe29      1.0  0.05531  0.63141  0.50057  1.0000
  H   H294      1.0  0.21677  0.68017  0.68447  1.0000
  H   H295      1.0  0.01863  0.58911  0.94526  1.0000
  H   H296      1.0  0.08796  0.59568  0.92071  1.0000
  H   H297      1.0  0.20430  0.61089  0.74816  1.0000
  P   P14       1.0  0.15622  0.67888  0.94750  1.0000
  H   H298      1.0  0.21233  0.53449  0.69839  1.0000
  C   C371      1.0  0.08649  0.59377  0.89827  1.0000
  C   C372      1.0  0.12179  0.55858  0.60304  1.0000
  H   H299      1.0  0.03581  0.50652  0.93572  1.0000
  H   H300      1.0  0.10987  0.61565  0.81345  1.0000
  C   C373      1.0  0.20725  0.59967  0.74820  1.0000
  S   S59       1.0  0.19800  0.51106  0.74869  1.0000
  H   H301      1.0  0.10443  0.68625  0.91361  1.0000
  H   H302      1.0  0.18215  0.59924  0.64389  1.0000
  H   H303      1.0  0.22408  0.59324  0.59699  1.0000
  H   H304      1.0  0.15874  0.63500  0.64398  1.0000
  H   H305      1.0  0.06662  0.52712  0.93422  1.0000
  Fe  Fe30      1.0  0.14030  0.51313  0.72676  1.0000
  C   C374      1.0  0.09307  0.57477  0.59311  1.0000
  H   H306      1.0  0.99288  0.53194  0.90303  1.0000
  H   H307      1.0  0.21424  0.57075  0.63204  1.0000
  C   C375      1.0  0.00521  0.55827  0.49545  1.0000
  C   C376      1.0  0.15458  0.58794  0.63618  1.0000
  C   C377      1.0  0.11564  0.60586  0.74704  1.0000
  H   H308      1.0  0.22878  0.77531  0.71463  1.0000
  C   C378      1.0  0.09890  0.59070  0.88391  1.0000
  H   H309      1.0  0.08321  0.55350  0.84416  1.0000
  H   H310      1.0  0.12141  0.57411  0.78152  1.0000
  C   C379      1.0  0.01521  0.55594  0.91355  1.0000
  C   C380      1.0  0.08749  0.59811  0.62855  1.0000
  C   C381      1.0  0.17080  0.60173  0.64125  1.0000
  H   H311      1.0  0.10413  0.53158  0.49268  1.0000
  C   C382      1.0  0.22864  0.59659  0.61851  1.0000
  H   H312      1.0  0.03979  0.57678  0.92660  1.0000
  C   C383      1.0  0.11028  0.56330  0.83524  1.0000
  H   H313      1.0  0.07548  0.49180  0.87944  1.0000
  C   C384      1.0  0.15243  0.59453  0.51748  1.0000
  C   C385      1.0  0.21570  0.57944  0.72379  1.0000
  H   H314      1.0  0.08734  0.54370  0.64337  1.0000
  C   C386      1.0  0.11202  0.61432  0.76937  1.0000
  C   C387      1.0  0.08302  0.58893  0.84045  1.0000
  H   H315      1.0  0.10996  0.62589  0.76607  1.0000
  C   C388      1.0  0.11841  0.58512  0.77846  1.0000
  C   C389      1.0  0.22000  0.75085  0.73529  1.0000
  H   H316      1.0  0.00070  0.64122  0.50588  1.0000
  C   C390      1.0  0.07949  0.59414  0.60195  1.0000
  C   C391      1.0  0.21329  0.56983  0.74795  1.0000
  C   C392      1.0  0.11181  0.60835  0.79626  1.0000
  H   H317      1.0  0.07540  0.57882  0.56413  1.0000
  H   H318      1.0  0.16836  0.66167  0.90386  1.0000
  H   H319      1.0  0.14537  0.61325  0.57607  1.0000
  C   C393      1.0  0.11901  0.59139  0.75163  1.0000
  C   C394      1.0  0.09850  0.59063  0.63729  1.0000
  H   H320      1.0  0.08133  0.58692  0.81808  1.0000
  C   C395      1.0  0.12202  0.50478  0.87279  1.0000
  H   H321      1.0  0.21516  0.55799  0.74798  1.0000
  C   C396      1.0  0.12697  0.68304  0.92804  1.0000
  Fe  Fe31      1.0  0.07195  0.50444  0.52126  1.0000
  H   H322      1.0  0.08549  0.60735  0.64209  1.0000
  H   H323      1.0  0.13061  0.55917  0.97035  1.0000
  C   C397      1.0  0.11242  0.67796  0.98016  1.0000
  C   C398      1.0  0.16888  0.70849  0.98288  1.0000
  C   C399      1.0  0.07085  0.59245  0.85483  1.0000
  C   C400      1.0  0.14378  0.62339  0.97526  1.0000
  C   C401      1.0  0.10456  0.52824  0.83354  1.0000
  S   S60       1.0  0.03043  0.63482  0.50537  1.0000
  C   C402      1.0  0.04425  0.50355  0.92255  1.0000
  C   C403      1.0  0.12094  0.54118  0.82906  1.0000
  H   H324      1.0  0.07843  0.52274  0.84302  1.0000
  C   C404      1.0  0.15305  0.65740  0.95764  1.0000
  P   P15       1.0  0.00810  0.56923  0.89228  1.0000
  C   C405      1.0  0.17727  0.69496  0.86032  1.0000
  C   C406      1.0  0.21756  0.76702  0.59570  1.0000
  H   H325      1.0  0.13182  0.51617  0.86412  1.0000
  S   S61       1.0  0.09812  0.58499  0.97882  1.0000
  H   H326      1.0  0.01506  0.50408  0.51117  1.0000
  C   C407      1.0  0.20200  0.53606  0.68688  1.0000
  C   C408      1.0  0.17302  0.70606  0.87699  1.0000
  H   H327      1.0  0.20056  0.59404  0.79078  1.0000
  H   H328      1.0  0.17444  0.71846  0.86930  1.0000
  H   H329      1.0  0.17860  0.67034  0.85703  1.0000
  H   H330      1.0  0.03904  0.55554  0.81750  1.0000
  C   C409      1.0  0.16442  0.68478  0.91322  1.0000
  H   H331      1.0  0.04894  0.55897  0.95653  1.0000
  C   C410      1.0  0.02632  0.53536  0.94661  1.0000
  H   H332      1.0  0.13149  0.53773  0.82475  1.0000
  P   P16       1.0  0.22187  0.57188  0.69263  1.0000
  H   H333      1.0  0.12201  0.51793  0.91168  1.0000
  H   H334      1.0  0.10243  0.51472  0.83273  1.0000
  C   C411      1.0  0.99618  0.62728  0.50640  1.0000
  C   C412      1.0  0.14440  0.64312  0.93924  1.0000
  C   C413      1.0  0.17551  0.67899  0.87023  1.0000
  H   H335      1.0  0.18610  0.50855  0.68458  1.0000
  C   C414      1.0  0.16671  0.70104  0.90336  1.0000
  H   H336      1.0  0.01858  0.56211  0.53544  1.0000
  H   H337      1.0  0.16110  0.51133  0.66111  1.0000
  H   H338      1.0  0.22138  0.49357  0.89387  1.0000
  H   H339      1.0  0.13187  0.68423  0.90738  1.0000
  C   C415      1.0  0.13252  0.61117  0.53609  1.0000
  C   C416      1.0  0.00402  0.56430  0.80716  1.0000
  C   C417      1.0  0.05248  0.54680  0.48896  1.0000
  H   H340      1.0  0.12194  0.60785  0.49446  1.0000
  C   C418      1.0  0.10252  0.50110  0.63869  1.0000
  H   H341      1.0  0.07142  0.60039  0.59480  1.0000
  C   C419      1.0  0.02823  0.55843  0.82236  1.0000
  H   H342      1.0  0.01097  0.59604  0.50778  1.0000
  C   C420      1.0  0.11134  0.68421  0.93147  1.0000
  C   C421      1.0  0.11643  0.50571  0.89994  1.0000
  C   C422      1.0  0.07788  0.57275  0.50325  1.0000
  C   C423      1.0  0.13567  0.67975  0.95089  1.0000
  H   H343      1.0  0.04445  0.63054  0.87069  1.0000
  C   C424      1.0  0.00094  0.56687  0.83487  1.0000
  C   C425      1.0  0.03132  0.56323  0.92803  1.0000
  C   C426      1.0  0.07280  0.51074  0.90635  1.0000
  C   C427      1.0  0.01134  0.56495  0.85656  1.0000
  C   C428      1.0  0.98968  0.50311  0.50363  1.0000
  C   C429      1.0  0.05897  0.53672  0.50391  1.0000
  C   C430      1.0  0.00615  0.55638  0.52418  1.0000
  H   H344      1.0  0.08525  0.58663  0.50297  1.0000
  H   H345      1.0  0.08645  0.51934  0.90669  1.0000
  H   H346      1.0  0.00296  0.51396  0.93168  1.0000
  H   H347      1.0  0.14066  0.64508  0.91847  1.0000
  C   C431      1.0  0.02512  0.56087  0.85010  1.0000
  H   H348      1.0  0.16006  0.58790  0.51062  1.0000
  H   H349      1.0  0.03371  0.55993  0.86641  1.0000
  C   C432      1.0  0.02828  0.60391  0.87978  1.0000
  C   C433      1.0  0.99109  0.54743  0.53831  1.0000
  C   C434      1.0  0.15414  0.60041  0.54528  1.0000
  H   H350      1.0  0.06880  0.49934  0.79164  1.0000
  C   C435      1.0  0.13994  0.62621  0.94787  1.0000
  C   C436      1.0  0.08532  0.54993  0.98451  1.0000
  C   C437      1.0  0.03671  0.55305  0.94478  1.0000
  C   C438      1.0  0.00512  0.53800  0.91457  1.0000
  H   H351      1.0  0.05156  0.52283  0.50448  1.0000
  C   C439      1.0  0.02103  0.59201  0.90078  1.0000
  H   H352      1.0  0.02634  0.59980  0.85807  1.0000
  C   C440      1.0  0.23152  0.53324  0.76962  1.0000
  C   C441      1.0  0.14120  0.59754  0.49853  1.0000
  H   H353      1.0  0.09153  0.68172  0.95975  1.0000
  H   H354      1.0  0.04926  0.64077  0.91996  1.0000
  H   H355      1.0  0.99601  0.56590  0.79049  1.0000
  C   C442      1.0  0.21226  0.59420  0.72388  1.0000
  C   C443      1.0  0.18703  0.52124  0.67919  1.0000
  C   C444      1.0  0.22926  0.50958  0.73904  1.0000
  C   C445      1.0  0.99527  0.50417  0.84779  1.0000
  C   C446      1.0  0.10400  0.68155  0.95745  1.0000
  C   C447      1.0  0.14424  0.60882  0.55453  1.0000
  H   H356      1.0  0.16339  0.70976  0.91599  1.0000
  C   C448      1.0  0.18843  0.69510  0.97494  1.0000
  H   H357      1.0  0.03035  0.52767  0.96040  1.0000
  H   H358      1.0  0.99007  0.51020  0.52276  1.0000
  C   C449      1.0  0.23383  0.77007  0.63910  1.0000
  H   H359      1.0  0.08652  0.49491  0.60056  1.0000
  C   C450      1.0  0.11385  0.49711  0.65607  1.0000
  S   S62       1.0  0.10503  0.63274  0.97816  1.0000
  H   H360      1.0  0.09621  0.55053  0.97311  1.0000
  H   H361      1.0  0.99000  0.58483  0.92728  1.0000
  C   C451      1.0  0.06202  0.56478  0.48842  1.0000
  H   H362      1.0  0.11405  0.56325  0.49323  1.0000
  C   C452      1.0  0.00379  0.49983  0.49699  1.0000
  H   H363      1.0  0.19127  0.68511  0.96512  1.0000
  C   C453      1.0  0.12817  0.67703  0.97692  1.0000
  S   S63       1.0  0.14727  0.49439  0.75124  1.0000
  S   S64       1.0  0.09566  0.62292  0.48939  1.0000
  H   H364      1.0  0.15661  0.70913  0.97931  1.0000
  C   C454      1.0  0.09505  0.49147  0.61367  1.0000
  C   C455      1.0  0.99581  0.49318  0.86871  1.0000
  Fe  Fe32      1.0  0.08778  0.60500  0.98464  1.0000
  H   H365      1.0  0.01064  0.61350  0.98292  1.0000
  H   H366      1.0  0.01700  0.56551  0.48489  1.0000
  H   H367      1.0  0.43118  0.08205  0.27374  1.0000
  H   H368      1.0  0.47589  0.25249  0.34728  1.0000
  C   C456      1.0  0.27409  0.47865  0.28646  1.0000
  H   H369      1.0  0.43117  0.44079  0.05912  1.0000
  C   C457      1.0  0.47318  0.44013  0.21293  1.0000
  Fe  Fe33      1.0  0.45858  0.10590  0.04742  1.0000
  S   S65       1.0  0.46596  0.12849  0.07988  1.0000
  C   C458      1.0  0.43067  0.41532  0.42108  1.0000
  S   S66       1.0  0.45677  0.12038  0.45567  1.0000
  S   S67       1.0  0.45018  0.07694  0.05014  1.0000
  C   C459      1.0  0.45545  0.45418  0.03992  1.0000
  H   H370      1.0  0.29195  0.47153  0.15512  1.0000
  H   H371      1.0  0.42848  0.47134  0.46235  1.0000
  S   S68       1.0  0.47429  0.16627  0.28137  1.0000
  Fe  Fe34      1.0  0.43472  0.07401  0.01000  1.0000
  C   C460      1.0  0.43473  0.46621  0.04637  1.0000
  C   C461      1.0  0.45224  0.10343  0.34535  1.0000
  H   H372      1.0  0.28037  0.43945  0.07990  1.0000
  H   H373      1.0  0.29457  0.47036  0.28312  1.0000
  C   C462      1.0  0.47225  0.29564  0.30631  1.0000
  C   C463      1.0  0.27815  0.48012  0.01496  1.0000
  H   H374      1.0  0.38701  0.01791  0.35542  1.0000
  S   S69       1.0  0.34091  0.47261  0.06868  1.0000
  H   H375      1.0  0.47723  0.24311  0.11582  1.0000
  Fe  Fe35      1.0  0.47892  0.41808  0.03092  1.0000
  H   H376      1.0  0.40628  0.05943  0.45836  1.0000
  C   C464      1.0  0.45536  0.45273  0.48196  1.0000
  C   C465      1.0  0.47567  0.47855  0.36918  1.0000
  H   H377      1.0  0.46682  0.20885  0.12928  1.0000
  C   C466      1.0  0.39644  0.99969  0.00167  1.0000
  Fe  Fe36      1.0  0.46027  0.37990  0.04345  1.0000
  S   S70       1.0  0.45605  0.40330  0.05603  1.0000
  C   C467      1.0  0.46150  0.48312  0.02395  1.0000
  C   C468      1.0  0.43479  0.07775  0.31711  1.0000
  H   H378      1.0  0.26089  0.46933  0.38578  1.0000
  C   C469      1.0  0.48109  0.35651  0.35642  1.0000
  H   H379      1.0  0.30280  0.42677  0.15228  1.0000
  H   H380      1.0  0.45935  0.45185  0.37598  1.0000
  C   C470      1.0  0.46496  0.18990  0.20294  1.0000
  C   C471      1.0  0.26573  0.48555  0.30407  1.0000
  H   H381      1.0  0.40802  0.43533  0.45168  1.0000
  C   C472      1.0  0.27278  0.47697  0.04229  1.0000
  C   C473      1.0  0.47910  0.21106  0.12075  1.0000
  C   C474      1.0  0.37799  0.01429  0.09337  1.0000
  S   S71       1.0  0.46373  0.41590  0.99099  1.0000
  H   H382      1.0  0.35985  0.99673  0.04326  1.0000
  H   H383      1.0  0.40480  0.99464  0.13611  1.0000
  Fe  Fe37      1.0  0.35474  0.48170  0.02823  1.0000
  C   C475      1.0  0.47163  0.36139  0.10475  1.0000
  H   H384      1.0  0.38825  0.04908  0.05186  1.0000
  C   C476      1.0  0.34791  0.48790  0.35098  1.0000
  C   C477      1.0  0.40225  0.99840  0.46233  1.0000
  H   H385      1.0  0.48303  0.16347  0.16770  1.0000
  H   H386      1.0  0.47380  0.22289  0.34139  1.0000
  C   C478      1.0  0.40234  0.44727  0.98832  1.0000
  C   C479      1.0  0.44719  0.10587  0.29612  1.0000
  H   H387      1.0  0.43182  0.10233  0.38567  1.0000
  C   C480      1.0  0.44552  0.48134  0.03351  1.0000
  C   C481      1.0  0.35015  0.48692  0.38008  1.0000
  C   C482      1.0  0.46071  0.06370  0.41049  1.0000
  C   C483      1.0  0.46777  0.36198  0.39802  1.0000
  C   C484      1.0  0.45682  0.21191  0.22116  1.0000
  C   C485      1.0  0.48184  0.37781  0.11686  1.0000
  H   H388      1.0  0.46744  0.19109  0.08857  1.0000
  H   H389      1.0  0.45646  0.35885  0.41006  1.0000
  C   C486      1.0  0.39147  0.43458  0.00560  1.0000
  C   C487      1.0  0.48350  0.37540  0.40749  1.0000
  S   S72       1.0  0.45107  0.07307  0.47418  1.0000
  S   S73       1.0  0.44312  0.37434  0.00414  1.0000
  H   H390      1.0  0.36618  0.01226  0.13313  1.0000
  C   C488      1.0  0.43716  0.08797  0.29374  1.0000
  H   H391      1.0  0.39102  0.48034  0.39212  1.0000
  C   C489      1.0  0.40131  0.45066  0.37870  1.0000
  H   H392      1.0  0.38909  0.02053  0.05307  1.0000
  C   C490      1.0  0.33368  0.47966  0.12164  1.0000
  C   C491      1.0  0.46402  0.41725  0.41831  1.0000
  C   C492      1.0  0.28791  0.47552  0.29679  1.0000
  C   C493      1.0  0.43974  0.45269  0.04977  1.0000
  H   H393      1.0  0.47953  0.45194  0.20173  1.0000
  C   C494      1.0  0.41118  0.42030  0.00666  1.0000
  H   H394      1.0  0.47591  0.09452  0.22390  1.0000
  H   H395      1.0  0.47240  0.30053  0.28571  1.0000
  C   C495      1.0  0.28556  0.48689  0.34213  1.0000
  H   H396      1.0  0.45785  0.48925  0.43645  1.0000
  C   C496      1.0  0.46892  0.13095  0.11694  1.0000
  C   C497      1.0  0.45746  0.29080  0.32160  1.0000
  H   H397      1.0  0.47619  0.05780  0.44120  1.0000
  C   C498      1.0  0.47282  0.13626  0.17590  1.0000
  H   H398      1.0  0.26998  0.47603  0.26464  1.0000
  C   C499      1.0  0.46425  0.11678  0.13426  1.0000
  C   C500      1.0  0.39784  0.99351  0.07988  1.0000
  C   C501      1.0  0.46161  0.43244  0.42144  1.0000
  H   H399      1.0  0.40293  0.04876  0.36967  1.0000
  C   C502      1.0  0.46843  0.12848  0.42488  1.0000
  C   C503      1.0  0.46361  0.13902  0.40744  1.0000
  C   C504      1.0  0.47250  0.14595  0.38308  1.0000
  H   H400      1.0  0.42220  0.38758  0.41770  1.0000
  C   C505      1.0  0.37116  0.02014  0.11534  1.0000
  H   H401      1.0  0.45292  0.14191  0.41289  1.0000
  C   C506      1.0  0.24484  0.44429  0.10956  1.0000
  C   C507      1.0  0.24491  0.47194  0.09800  1.0000
  C   C508      1.0  0.47474  0.41743  0.24137  1.0000
  C   C509      1.0  0.41747  0.09631  0.42227  1.0000
  C   C510      1.0  0.42816  0.07702  0.40027  1.0000
  C   C511      1.0  0.40634  0.43983  0.43140  1.0000
  C   C512      1.0  0.42233  0.43336  0.99023  1.0000
  H   H402      1.0  0.32741  0.48470  0.16317  1.0000
  C   C513      1.0  0.41176  0.06865  0.44217  1.0000
  C   C514      1.0  0.41787  0.45316  0.38819  1.0000
  H   H403      1.0  0.32972  0.46597  0.12460  1.0000
  C   C515      1.0  0.38350  0.04102  0.06965  1.0000
  H   H404      1.0  0.47686  0.09605  0.36436  1.0000
  C   C516      1.0  0.37059  0.03632  0.11444  1.0000
  C   C517      1.0  0.47042  0.34663  0.11903  1.0000
  H   H405      1.0  0.41675  0.10872  0.42329  1.0000
  H   H406      1.0  0.26868  0.48461  0.14940  1.0000
  Fe  Fe38      1.0  0.47251  0.39019  0.47887  1.0000
  C   C518      1.0  0.44245  0.08539  0.34317  1.0000
  H   H407      1.0  0.27048  0.48323  0.99951  1.0000
  H   H408      1.0  0.42848  0.45921  0.37471  1.0000
  C   C519      1.0  0.47940  0.20096  0.09769  1.0000
  H   H409      1.0  0.25139  0.43599  0.11291  1.0000
  H   H410      1.0  0.40271  0.00099  0.33929  1.0000
  C   C520      1.0  0.42778  0.02253  0.34456  1.0000
  H   H411      1.0  0.43987  0.99283  0.05261  1.0000
  C   C521      1.0  0.42804  0.00872  0.06910  1.0000
  C   C522      1.0  0.38731  0.44286  0.39563  1.0000
  C   C523      1.0  0.47624  0.06598  0.42414  1.0000
  H   H412      1.0  0.44910  0.11381  0.27801  1.0000
  H   H413      1.0  0.45086  0.04597  0.35219  1.0000
  H   H414      1.0  0.44953  0.21580  0.23552  1.0000
  H   H415      1.0  0.45888  0.10376  0.12514  1.0000
  S   S74       1.0  0.48416  0.39504  0.02097  1.0000
  H   H416      1.0  0.40390  0.08742  0.45985  1.0000
  H   H417      1.0  0.40732  0.99584  0.44336  1.0000
  C   C524      1.0  0.43316  0.40015  0.41804  1.0000
  C   C525      1.0  0.39577  0.42105  0.01437  1.0000
  H   H418      1.0  0.46199  0.10835  0.17663  1.0000
  C   C526      1.0  0.42821  0.99304  0.06032  1.0000
  H   H419      1.0  0.26097  0.47777  0.04761  1.0000
  C   C527      1.0  0.47789  0.15046  0.15859  1.0000
  C   C528      1.0  0.41031  0.08438  0.44295  1.0000
  C   C529      1.0  0.38405  0.02484  0.07046  1.0000
  C   C530      1.0  0.28559  0.45713  0.11556  1.0000
  H   H420      1.0  0.30435  0.47718  0.33251  1.0000
  H   H421      1.0  0.36528  0.04076  0.13139  1.0000
  P   P17       1.0  0.37841  0.99319  0.09406  1.0000
  C   C531      1.0  0.38984  0.43741  0.42193  1.0000
  C   C532      1.0  0.47957  0.24805  0.27460  1.0000
  H   H422      1.0  0.35230  0.48066  0.33702  1.0000
  H   H423      1.0  0.33216  0.39889  0.48329  1.0000
  S   S75       1.0  0.40761  0.05218  0.00218  1.0000
  H   H424      1.0  0.29162  0.42049  0.10318  1.0000
  Fe  Fe39      1.0  0.47121  0.08063  0.02096  1.0000
  C   C533      1.0  0.42630  0.09267  0.40098  1.0000
  H   H425      1.0  0.31563  0.47537  0.02204  1.0000
  H   H426      1.0  0.42223  0.46475  0.05304  1.0000
  H   H427      1.0  0.46516  0.41524  0.29748  1.0000
  H   H428      1.0  0.41733  0.48400  0.42002  1.0000
  C   C534      1.0  0.34020  0.48666  0.09600  1.0000
  S   S76       1.0  0.47877  0.34452  0.32421  1.0000
  H   H429      1.0  0.30652  0.47026  0.07014  1.0000
  H   H430      1.0  0.46255  0.33387  0.10990  1.0000
  C   C535      1.0  0.47561  0.41448  0.33831  1.0000
  H   H431      1.0  0.45810  0.10967  0.36520  1.0000
  H   H432      1.0  0.45911  0.44349  0.04193  1.0000
  C   C536      1.0  0.45746  0.46870  0.40874  1.0000
  H   H433      1.0  0.47837  0.33670  0.15545  1.0000
  C   C537      1.0  0.46622  0.46923  0.02688  1.0000
  H   H434      1.0  0.43978  0.99686  0.99904  1.0000
  H   H435      1.0  0.42694  0.06395  0.31464  1.0000
  H   H436      1.0  0.41878  0.02366  0.01396  1.0000
  H   H437      1.0  0.44887  0.05351  0.41706  1.0000
  S   S77       1.0  0.48093  0.10944  0.02127  1.0000
  H   H438      1.0  0.41796  0.02615  0.46242  1.0000
  C   C538      1.0  0.40980  0.01457  0.34552  1.0000
  H   H439      1.0  0.45434  0.34244  0.36563  1.0000
  C   C539      1.0  0.29354  0.47952  0.32464  1.0000
  Fe  Fe40      1.0  0.44088  0.39940  0.01526  1.0000
  C   C540      1.0  0.25389  0.46153  0.10168  1.0000
  S   S78       1.0  0.38348  0.49046  0.02835  1.0000
  C   C541      1.0  0.41005  0.04155  0.36293  1.0000
  H   H440      1.0  0.46686  0.24203  0.28283  1.0000
  S   S79       1.0  0.47432  0.13861  0.21301  1.0000
  C   C542      1.0  0.26539  0.48060  0.39989  1.0000
  C   C543      1.0  0.40834  0.01562  0.47312  1.0000
  C   C544      1.0  0.46605  0.11944  0.16350  1.0000
  H   H441      1.0  0.35618  0.47895  0.38826  1.0000
  C   C545      1.0  0.41299  0.00895  0.07920  1.0000
  C   C546      1.0  0.45712  0.28417  0.34803  1.0000
  H   H442      1.0  0.46587  0.41701  0.34882  1.0000
  H   H443      1.0  0.44296  0.99899  0.46582  1.0000
  C   C547      1.0  0.40095  0.02409  0.35462  1.0000
  C   C548      1.0  0.29149  0.43154  0.11452  1.0000
  H   H444      1.0  0.41767  0.41415  0.42291  1.0000
  H   H445      1.0  0.44613  0.18543  0.23393  1.0000
  H   H446      1.0  0.46189  0.44523  0.47415  1.0000
  C   C549      1.0  0.47165  0.28258  0.35927  1.0000
  H   H447      1.0  0.47025  0.23746  0.20639  1.0000
  H   H448      1.0  0.46374  0.17667  0.20272  1.0000
  S   S80       1.0  0.34941  0.46500  0.98854  1.0000
  H   H449      1.0  0.47833  0.27268  0.26887  1.0000
  C   C550      1.0  0.47695  0.20218  0.18645  1.0000
  H   H450      1.0  0.47694  0.41785  0.41878  1.0000
  C   C551      1.0  0.29830  0.47269  0.05487  1.0000
  H   H451      1.0  0.46883  0.26700  0.10684  1.0000
  C   C552      1.0  0.40574  0.01806  0.00504  1.0000
  C   C553      1.0  0.47628  0.08751  0.38095  1.0000
  H   H452      1.0  0.47810  0.46976  0.01903  1.0000
  C   C554      1.0  0.44468  0.45738  0.46434  1.0000
  C   C555      1.0  0.42815  0.04950  0.36286  1.0000
  H   H453      1.0  0.47427  0.29002  0.14318  1.0000
  C   C556      1.0  0.28282  0.47319  0.06250  1.0000
  C   C557      1.0  0.47964  0.25294  0.13200  1.0000
  C   C558      1.0  0.42065  0.06498  0.42102  1.0000
  H   H454      1.0  0.44630  0.29224  0.31295  1.0000
  C   C559      1.0  0.46048  0.07474  0.38925  1.0000
  H   H455      1.0  0.25164  0.48535  0.09241  1.0000
  H   H456      1.0  0.47551  0.49102  0.47877  1.0000
  H   H457      1.0  0.30258  0.39722  0.47771  1.0000
  H   H458      1.0  0.46392  0.02610  0.00832  1.0000
  C   C560      1.0  0.33230  0.49023  0.14352  1.0000
  S   S81       1.0  0.44113  0.10288  0.00923  1.0000
  H   H459      1.0  0.37899  0.43128  0.43507  1.0000
  C   C561      1.0  0.44689  0.41664  0.22676  1.0000
  H   H460      1.0  0.38700  0.41101  0.02700  1.0000
  H   H461      1.0  0.44758  0.43751  0.20142  1.0000
  H   H462      1.0  0.43462  0.01515  0.33741  1.0000
  P   P18       1.0  0.43994  0.07211  0.37332  1.0000
  C   C562      1.0  0.29355  0.47950  0.00758  1.0000
  C   C563      1.0  0.47793  0.27949  0.14723  1.0000
  C   C564      1.0  0.47096  0.37938  0.21990  1.0000
  C   C565      1.0  0.46177  0.36191  0.21172  1.0000
  C   C566      1.0  0.45726  0.34915  0.23158  1.0000
  C   C567      1.0  0.46187  0.35385  0.25965  1.0000
  C   C568      1.0  0.47112  0.37130  0.26795  1.0000
  S   S82       1.0  0.46029  0.35860  0.07189  1.0000
  C   C569      1.0  0.39786  0.02906  0.99744  1.0000
  C   C570      1.0  0.46375  0.46507  0.38399  1.0000
  H   H463      1.0  0.47118  0.27742  0.37980  1.0000
  C   C571      1.0  0.48237  0.12500  0.41747  1.0000
  C   C572      1.0  0.29158  0.46036  0.14354  1.0000
  C   C573      1.0  0.46289  0.48604  0.41796  1.0000
  C   C574      1.0  0.45496  0.19478  0.22037  1.0000
  H   H464      1.0  0.37637  0.05932  0.09089  1.0000
  C   C575      1.0  0.43665  0.46737  0.47540  1.0000
  C   C576      1.0  0.44982  0.40112  0.41651  1.0000
  H   H465      1.0  0.39929  0.45476  0.35822  1.0000
  H   H466      1.0  0.43292  0.41018  0.22628  1.0000
  H   H467      1.0  0.44996  0.39724  0.25130  1.0000
  C   C577      1.0  0.47572  0.38423  0.24808  1.0000
  H   H468      1.0  0.45850  0.35824  0.18986  1.0000
  H   H469      1.0  0.45038  0.33559  0.22518  1.0000
  H   H470      1.0  0.45844  0.34392  0.27502  1.0000
  C   C578      1.0  0.27099  0.47923  0.42702  1.0000
  C   C579      1.0  0.45662  0.40936  0.24098  1.0000
  C   C580      1.0  0.45593  0.02328  0.98927  1.0000
  H   H471      1.0  0.46854  0.15396  0.37002  1.0000
  C   C581      1.0  0.44487  0.43162  0.42240  1.0000
  H   H472      1.0  0.37447  0.44095  0.38839  1.0000
  P   P19       1.0  0.44187  0.45129  0.42767  1.0000
  C   C582      1.0  0.42053  0.44787  0.41478  1.0000
  S   S83       1.0  0.41547  0.40234  0.01659  1.0000
  C   C583      1.0  0.45516  0.43201  0.21273  1.0000
  H   H473      1.0  0.48278  0.38929  0.10631  1.0000
  C   C584      1.0  0.28527  0.44242  0.10132  1.0000
  H   H474      1.0  0.27071  0.46701  0.43372  1.0000
  Fe  Fe41      1.0  0.36030  0.48440  0.46669  1.0000
  C   C585      1.0  0.47888  0.21945  0.18701  1.0000
  C   C586      1.0  0.47585  0.14779  0.12934  1.0000
  C   C587      1.0  0.43694  0.03997  0.35308  1.0000
  Fe  Fe42      1.0  0.37856  0.47541  0.98761  1.0000
  S   S84       1.0  0.38072  0.47505  0.45768  1.0000
  C   C588      1.0  0.27117  0.48945  0.33223  1.0000
  C   C589      1.0  0.45468  0.11359  0.32195  1.0000
  H   H475      1.0  0.47458  0.38906  0.20411  1.0000
  C   C590      1.0  0.46660  0.35268  0.37270  1.0000
  H   H476      1.0  0.48468  0.00061  0.00499  1.0000
  H   H477      1.0  0.44563  0.28039  0.35987  1.0000
  H   H478      1.0  0.46238  0.12750  0.32386  1.0000
  C   C591      1.0  0.29768  0.44938  0.15675  1.0000
  P   P20       1.0  0.27701  0.47078  0.09853  1.0000
  H   H479      1.0  0.42169  0.05275  0.42115  1.0000
  H   H480      1.0  0.43958  0.02073  0.06806  1.0000
  C   C592      1.0  0.37680  0.04678  0.09163  1.0000
  H   H481      1.0  0.41327  0.02119  0.08644  1.0000
  C   C593      1.0  0.48297  0.43286  0.22712  1.0000
  C   C594      1.0  0.46878  0.22423  0.20468  1.0000
  H   H482      1.0  0.37950  0.43486  0.01147  1.0000
  C   C595      1.0  0.47488  0.26651  0.12678  1.0000
  H   H483      1.0  0.46422  0.34887  0.98866  1.0000
  S   S85       1.0  0.47985  0.21586  0.28056  1.0000
  C   C596      1.0  0.29774  0.43505  0.14219  1.0000
  H   H484      1.0  0.30270  0.45221  0.17813  1.0000
  H   H485      1.0  0.45180  0.38934  0.41506  1.0000
  H   H486      1.0  0.47284  0.44475  0.42394  1.0000
  H   H487      1.0  0.47463  0.37449  0.28984  1.0000
  C   C597      1.0  0.30358  0.47572  0.02755  1.0000
  H   H488      1.0  0.48484  0.19817  0.17357  1.0000
  C   C598      1.0  0.47523  0.41340  0.30919  1.0000
  C   C599      1.0  0.47935  0.34818  0.14492  1.0000
  H   H489      1.0  0.47944  0.15887  0.11623  1.0000
  H   H490      1.0  0.48053  0.47563  0.35020  1.0000
  C   C600      1.0  0.23735  0.48714  0.34762  1.0000
  H   H491      1.0  0.29082  0.49060  0.36322  1.0000
  H   H492      1.0  0.25523  0.48806  0.29534  1.0000
  H   H493      1.0  0.29784  0.48210  0.98650  1.0000
  C   C601      1.0  0.37942  0.99233  0.99005  1.0000
  C   C602      1.0  0.38090  0.02148  0.98622  1.0000
  H   H494      1.0  0.46598  0.45397  0.52363  1.0000
  S   S86       1.0  0.43699  0.09159  0.52141  1.0000
  C   C603      1.0  0.38394  0.42815  0.58481  1.0000
  C   C604      1.0  0.33190  0.39803  0.52794  1.0000
  C   C605      1.0  0.48009  0.14557  0.66079  1.0000
  Fe  Fe43      1.0  0.45891  0.09325  0.55083  1.0000
  H   H495      1.0  0.40782  0.37962  0.95692  1.0000
  C   C606      1.0  0.43196  0.00349  0.95962  1.0000
  S   S87       1.0  0.47723  0.12574  0.95082  1.0000
  S   S88       1.0  0.45384  0.06549  0.54054  1.0000
  S   S89       1.0  0.47304  0.36207  0.57142  1.0000
  C   C607      1.0  0.40135  0.01923  0.49695  1.0000
  C   C608      1.0  0.45082  0.17578  0.69256  1.0000
  H   H496      1.0  0.30040  0.36577  0.57181  1.0000
  H   H497      1.0  0.43347  0.04283  0.87205  1.0000
  H   H498      1.0  0.28582  0.39597  0.51940  1.0000
  C   C609      1.0  0.42913  0.13696  0.66188  1.0000
  C   C610      1.0  0.26749  0.45016  0.77068  1.0000
  C   C611      1.0  0.47379  0.33056  0.93197  1.0000
  Fe  Fe44      1.0  0.37051  0.45702  0.49306  1.0000
  H   H499      1.0  0.43084  0.42569  0.86924  1.0000
  S   S90       1.0  0.38759  0.47550  0.52616  1.0000
  P   P21       1.0  0.46295  0.42828  0.89740  1.0000
  H   H500      1.0  0.47509  0.12657  0.69217  1.0000
  C   C612      1.0  0.47343  0.35732  0.86025  1.0000
  C   C613      1.0  0.35488  0.40507  0.58403  1.0000
  C   C614      1.0  0.48016  0.37969  0.65279  1.0000
  H   H501      1.0  0.41619  0.05173  0.56971  1.0000
  C   C615      1.0  0.44897  0.01195  0.87647  1.0000
  C   C616      1.0  0.44068  0.43877  0.86737  1.0000
  Fe  Fe45      1.0  0.46797  0.38012  0.54121  1.0000
  S   S91       1.0  0.45828  0.40008  0.55232  1.0000
  H   H502      1.0  0.45588  0.47343  0.96793  1.0000
  C   C617      1.0  0.46377  0.03303  0.84224  1.0000
  C   C618      1.0  0.37082  0.11640  0.67660  1.0000
  C   C619      1.0  0.43649  0.45083  0.85327  1.0000
  C   C620      1.0  0.43346  0.11754  0.77072  1.0000
  C   C621      1.0  0.38663  0.02972  0.88227  1.0000
  C   C622      1.0  0.44489  0.41258  0.91486  1.0000
  H   H503      1.0  0.47571  0.48549  0.85825  1.0000
  H   H504      1.0  0.46836  0.31051  0.82933  1.0000
  C   C623      1.0  0.47122  0.41807  0.87214  1.0000
  H   H505      1.0  0.44408  0.47179  0.91982  1.0000
  C   C624      1.0  0.48438  0.14727  0.87425  1.0000
  H   H506      1.0  0.39961  0.05329  0.94327  1.0000
  C   C625      1.0  0.30831  0.34397  0.62485  1.0000
  S   S92       1.0  0.41459  0.38820  0.50811  1.0000
  H   H507      1.0  0.46536  0.28025  0.82790  1.0000
  Fe  Fe46      1.0  0.46343  0.10531  0.98312  1.0000
  H   H508      1.0  0.43082  0.15957  0.63989  1.0000
  C   C626      1.0  0.44961  0.46751  0.52104  1.0000
  S   S93       1.0  0.48050  0.38808  0.94343  1.0000
  H   H509      1.0  0.24101  0.43376  0.77850  1.0000
  S   S94       1.0  0.36711  0.42898  0.49112  1.0000
  C   C627      1.0  0.36631  0.42259  0.58881  1.0000
  H   H510      1.0  0.45401  0.39251  0.91272  1.0000
  C   C628      1.0  0.47136  0.13485  0.85698  1.0000
  C   C629      1.0  0.46421  0.33589  0.94975  1.0000
  H   H511      1.0  0.32689  0.45304  0.60417  1.0000
  C   C630      1.0  0.47881  0.43935  0.92505  1.0000
  C   C631      1.0  0.46117  0.36265  0.90287  1.0000
  C   C632      1.0  0.45938  0.35334  0.87748  1.0000
  C   C633      1.0  0.25238  0.44525  0.78522  1.0000
  C   C634      1.0  0.29997  0.34731  0.60174  1.0000
  H   H512      1.0  0.45030  0.35933  0.91600  1.0000
  H   H513      1.0  0.43302  0.43010  0.92355  1.0000
  H   H514      1.0  0.34307  0.38299  0.63270  1.0000
  H   H515      1.0  0.48323  0.46432  0.88305  1.0000
  C   C635      1.0  0.31632  0.42027  0.64961  1.0000
  C   C636      1.0  0.39931  0.42833  0.50454  1.0000
  C   C637      1.0  0.43439  0.14122  0.61264  1.0000
  H   H516      1.0  0.40886  0.40851  0.94819  1.0000
  C   C638      1.0  0.40281  0.40110  0.50423  1.0000
  C   C639      1.0  0.43226  0.41715  0.92562  1.0000
  C   C640      1.0  0.33656  0.48129  0.88019  1.0000
  S   S95       1.0  0.48202  0.33145  0.75571  1.0000
  H   H517      1.0  0.44998  0.10955  0.85565  1.0000
  C   C641      1.0  0.45556  0.19973  0.72483  1.0000
  C   C642      1.0  0.32499  0.44059  0.61241  1.0000
  H   H518      1.0  0.43306  0.06495  0.61360  1.0000
  S   S96       1.0  0.46334  0.41126  0.48609  1.0000
  H   H519      1.0  0.44706  0.34288  0.87127  1.0000
  C   C643      1.0  0.46106  0.19266  0.70284  1.0000
  H   H520      1.0  0.45413  0.02595  0.49564  1.0000
  H   H521      1.0  0.33029  0.35426  0.65383  1.0000
  C   C644      1.0  0.41713  0.11725  0.76609  1.0000
  C   C645      1.0  0.46013  0.40261  0.85786  1.0000
  C   C646      1.0  0.33107  0.37308  0.62380  1.0000
  H   H522      1.0  0.27293  0.43790  0.93216  1.0000
  C   C647      1.0  0.47801  0.45328  0.94003  1.0000
  H   H523      1.0  0.46960  0.01148  0.85252  1.0000
  C   C648      1.0  0.42495  0.01797  0.59012  1.0000
  C   C649      1.0  0.41844  0.02761  0.57399  1.0000
  C   C650      1.0  0.47447  0.12878  0.91461  1.0000
  C   C651      1.0  0.41797  0.38864  0.94471  1.0000
  H   H524      1.0  0.46966  0.04891  0.97407  1.0000
  Fe  Fe47      1.0  0.47934  0.41756  0.52600  1.0000
  C   C652      1.0  0.24700  0.48496  0.84896  1.0000
  S   S97       1.0  0.40694  0.04092  0.50939  1.0000
  H   H525      1.0  0.45126  0.04320  0.93109  1.0000
  C   C653      1.0  0.41349  0.12452  0.74225  1.0000
  C   C654      1.0  0.43822  0.02031  0.88147  1.0000
  C   C655      1.0  0.30713  0.36354  0.58965  1.0000
  S   S98       1.0  0.45561  0.07646  0.98099  1.0000
  C   C656      1.0  0.40892  0.02390  0.90662  1.0000
  H   H526      1.0  0.36172  0.10290  0.67392  1.0000
  H   H527      1.0  0.34495  0.39912  0.52962  1.0000
  H   H528      1.0  0.33370  0.46916  0.83936  1.0000
  C   C657      1.0  0.46508  0.99176  0.60802  1.0000
  C   C658      1.0  0.45778  0.45775  0.51019  1.0000
  C   C659      1.0  0.43907  0.99858  0.48708  1.0000
  Fe  Fe48      1.0  0.43328  0.06435  0.50949  1.0000
  C   C660      1.0  0.40970  0.03561  0.92811  1.0000
  H   H529      1.0  0.44452  0.04813  0.64284  1.0000
  C   C661      1.0  0.47726  0.43339  0.64676  1.0000
  C   C662      1.0  0.38753  0.04140  0.90367  1.0000
  C   C663      1.0  0.38858  0.00532  0.51022  1.0000
  H   H530      1.0  0.37918  0.04807  0.90273  1.0000
  C   C664      1.0  0.41865  0.40505  0.93992  1.0000
  H   H531      1.0  0.36112  0.39381  0.48856  1.0000
  C   C665      1.0  0.43068  0.38414  0.93462  1.0000
  H   H532      1.0  0.46315  0.36948  0.74718  1.0000
  H   H533      1.0  0.39235  0.11040  0.68634  1.0000
  Fe  Fe49      1.0  0.45673  0.10048  0.48778  1.0000
  H   H534      1.0  0.26786  0.44255  0.75264  1.0000
  H   H535      1.0  0.42602  0.45604  0.96703  1.0000
  H   H536      1.0  0.45268  0.13839  0.71313  1.0000
  H   H537      1.0  0.46792  0.45741  0.93518  1.0000
  C   C666      1.0  0.39907  0.04436  0.92650  1.0000
  C   C667      1.0  0.43054  0.05174  0.60742  1.0000
  H   H538      1.0  0.43277  0.47999  0.51200  1.0000
  H   H539      1.0  0.31843  0.39636  0.64264  1.0000
  C   C668      1.0  0.43985  0.18989  0.73664  1.0000
  C   C669      1.0  0.25538  0.44532  0.90851  1.0000
  H   H540      1.0  0.47305  0.04776  0.74784  1.0000
  H   H541      1.0  0.42361  0.42637  0.51293  1.0000
  H   H542      1.0  0.24102  0.45495  0.88181  1.0000
  H   H543      1.0  0.45897  0.12569  0.75549  1.0000
  C   C670      1.0  0.42921  0.12053  0.65902  1.0000
  S   S99       1.0  0.46270  0.09845  0.59849  1.0000
  H   H544      1.0  0.37161  0.46921  0.87799  1.0000
  C   C671      1.0  0.38815  0.12068  0.68380  1.0000
  C   C672      1.0  0.23905  0.48660  0.82380  1.0000
  H   H545      1.0  0.46184  0.27494  0.72034  1.0000
  H   H546      1.0  0.29617  0.47753  0.87339  1.0000
  H   H547      1.0  0.33379  0.43249  0.57596  1.0000
  C   C673      1.0  0.43144  0.14713  0.63838  1.0000
  H   H548      1.0  0.39260  0.44177  0.58783  1.0000
  H   H549      1.0  0.47757  0.38896  0.66520  1.0000
  Fe  Fe50      1.0  0.47178  0.07595  0.50617  1.0000
  H   H550      1.0  0.37758  0.02732  0.86468  1.0000
  S   S100      1.0  0.47183  0.17194  0.76108  1.0000
  H   H551      1.0  0.41780  0.16530  0.73654  1.0000
  H   H552      1.0  0.43225  0.10201  0.63107  1.0000
  C   C674      1.0  0.24071  0.48776  0.87424  1.0000
  C   C675      1.0  0.44001  0.01325  0.53112  1.0000
  C   C676      1.0  0.44532  0.01373  0.50386  1.0000
  C   C677      1.0  0.30586  0.39658  0.54838  1.0000
  H   H553      1.0  0.39639  0.01191  0.86701  1.0000
  H   H554      1.0  0.40478  0.44229  0.50723  1.0000
  H   H555      1.0  0.43653  0.14924  0.59466  1.0000
  C   C678      1.0  0.42962  0.17299  0.72646  1.0000
  C   C679      1.0  0.28222  0.46487  0.77955  1.0000
  C   C680      1.0  0.37906  0.39883  0.57155  1.0000
  C   C681      1.0  0.43188  0.11456  0.63317  1.0000
  H   H556      1.0  0.31556  0.44532  0.65113  1.0000
  C   C682      1.0  0.44096  0.03560  0.86762  1.0000
  C   C683      1.0  0.43423  0.02540  0.61528  1.0000
  H   H557      1.0  0.24034  0.45095  0.82002  1.0000
  C   C684      1.0  0.28471  0.46890  0.88354  1.0000
  C   C685      1.0  0.25202  0.45508  0.80859  1.0000
  H   H558      1.0  0.47130  0.00804  0.93132  1.0000
  S   S101      1.0  0.45066  0.37052  0.50206  1.0000
  H   H559      1.0  0.46432  0.43226  0.64954  1.0000
  H   H560      1.0  0.40353  0.16477  0.68369  1.0000
  H   H561      1.0  0.45111  0.33362  0.94364  1.0000
  H   H562      1.0  0.24398  0.43590  0.91774  1.0000
  H   H563      1.0  0.43592  0.19520  0.75430  1.0000
  C   C686      1.0  0.46657  0.39479  0.83829  1.0000
  H   H564      1.0  0.46373  0.21263  0.73331  1.0000
  C   C687      1.0  0.32385  0.35685  0.63586  1.0000
  H   H565      1.0  0.38399  0.38976  0.56408  1.0000
  C   C688      1.0  0.32686  0.41293  0.60725  1.0000
  C   C689      1.0  0.43495  0.16587  0.70414  1.0000
  P   P22       1.0  0.33184  0.39794  0.58622  1.0000
  H   H566      1.0  0.39200  0.46656  0.91355  1.0000
  H   H567      1.0  0.28791  0.33732  0.59320  1.0000
  H   H568      1.0  0.45166  0.35691  0.79226  1.0000
  C   C690      1.0  0.40998  0.41932  0.50768  1.0000
  H   H569      1.0  0.42349  0.44707  0.84465  1.0000
  C   C691      1.0  0.46307  0.28626  0.70896  1.0000
  H   H570      1.0  0.45568  0.17033  0.67635  1.0000
  C   C692      1.0  0.43454  0.12491  0.61002  1.0000
  C   C693      1.0  0.39448  0.15123  0.68243  1.0000
  H   H571      1.0  0.41826  0.03793  0.94632  1.0000
  C   C694      1.0  0.39029  0.41631  0.57606  1.0000
  C   C695      1.0  0.47009  0.46047  0.87509  1.0000
  C   C696      1.0  0.36530  0.12951  0.67238  1.0000
  H   H572      1.0  0.47356  0.20000  0.69443  1.0000
  H   H573      1.0  0.35285  0.37970  0.57112  1.0000
  H   H574      1.0  0.42704  0.11222  0.67658  1.0000
  S   S102      1.0  0.47057  0.34493  0.82875  1.0000
  C   C697      1.0  0.42616  0.13193  0.72268  1.0000
  H   H575      1.0  0.44511  0.02513  0.54374  1.0000
  C   C698      1.0  0.33403  0.48032  0.85094  1.0000
  S   S103      1.0  0.34841  0.46456  0.49984  1.0000
  H   H576      1.0  0.43037  0.37154  0.93880  1.0000
  C   C699      1.0  0.28182  0.47484  0.80270  1.0000
  Fe  Fe51      1.0  0.36658  0.48463  0.53112  1.0000
  P   P23       1.0  0.42259  0.14337  0.69375  1.0000
  C   C700      1.0  0.47906  0.36576  0.60760  1.0000
  C   C701      1.0  0.48224  0.43094  0.62027  1.0000
  C   C702      1.0  0.46008  0.11929  0.86872  1.0000
  H   H577      1.0  0.45138  0.47129  0.54294  1.0000
  H   H578      1.0  0.45834  0.00289  0.57254  1.0000
  H   H579      1.0  0.43703  0.12036  0.59018  1.0000
  C   C703      1.0  0.44907  0.46769  0.85013  1.0000
  C   C704      1.0  0.47234  0.28894  0.84529  1.0000
  C   C705      1.0  0.39729  0.02099  0.88371  1.0000
  C   C706      1.0  0.25377  0.45626  0.88831  1.0000
  C   C707      1.0  0.47551  0.13394  0.61251  1.0000
  H   H580      1.0  0.32910  0.48917  0.56880  1.0000
  C   C708      1.0  0.46156  0.01818  0.85669  1.0000
  C   C709      1.0  0.47707  0.37607  0.91133  1.0000
  H   H581      1.0  0.44581  0.47699  0.83910  1.0000
  C   C710      1.0  0.45742  0.44363  0.87891  1.0000
  C   C711      1.0  0.40005  0.13813  0.68714  1.0000
  H   H582      1.0  0.46783  0.32419  0.91227  1.0000
  P   P24       1.0  0.42244  0.01238  0.90777  1.0000
  C   C712      1.0  0.37713  0.14691  0.67524  1.0000
  C   C713      1.0  0.44613  0.12493  0.75137  1.0000
  H   H583      1.0  0.37291  0.15707  0.67152  1.0000
  P   P25       1.0  0.42223  0.99672  0.57761  1.0000
  C   C714      1.0  0.38379  0.28360  0.70693  1.0000
  C   C715      1.0  0.38066  0.26840  0.69152  1.0000
  C   C716      1.0  0.39388  0.26708  0.67682  1.0000
  C   C717      1.0  0.41031  0.28085  0.67785  1.0000
  C   C718      1.0  0.41369  0.29594  0.69397  1.0000
  C   C719      1.0  0.40019  0.29743  0.70787  1.0000
  P   P26       1.0  0.43462  0.31396  0.69385  1.0000
  C   C720      1.0  0.43946  0.32750  0.72503  1.0000
  C   C721      1.0  0.45145  0.30646  0.69378  1.0000
  C   C722      1.0  0.46711  0.31638  0.68172  1.0000
  C   C723      1.0  0.46158  0.11626  0.89729  1.0000
  H   H584      1.0  0.41161  0.02228  0.55436  1.0000
  C   C724      1.0  0.37469  0.40109  0.49413  1.0000
  C   C725      1.0  0.44962  0.29153  0.70796  1.0000
  C   C726      1.0  0.45015  0.34529  0.72398  1.0000
  C   C727      1.0  0.45446  0.35586  0.74812  1.0000
  C   C728      1.0  0.44813  0.34873  0.77350  1.0000
  C   C729      1.0  0.43797  0.33092  0.77494  1.0000
  C   C730      1.0  0.43378  0.32027  0.75082  1.0000
  C   C731      1.0  0.43418  0.32616  0.66370  1.0000
  C   C732      1.0  0.42744  0.33860  0.66542  1.0000
  C   C733      1.0  0.42758  0.34852  0.64247  1.0000
  C   C734      1.0  0.43411  0.34584  0.61751  1.0000
  C   C735      1.0  0.44014  0.33298  0.61531  1.0000
  C   C736      1.0  0.44006  0.32306  0.63821  1.0000
  H   H585      1.0  0.37347  0.28472  0.71797  1.0000
  H   H586      1.0  0.36793  0.25772  0.69069  1.0000
  H   H587      1.0  0.39138  0.25543  0.66445  1.0000
  H   H588      1.0  0.42036  0.27978  0.66593  1.0000
  H   H589      1.0  0.40230  0.30928  0.71931  1.0000
  H   H590      1.0  0.46910  0.32843  0.67220  1.0000
  C   C737      1.0  0.43496  0.01652  0.94028  1.0000
  H   H591      1.0  0.44749  0.00055  0.88781  1.0000
  C   C738      1.0  0.47611  0.37796  0.62386  1.0000
  H   H592      1.0  0.43801  0.28417  0.71873  1.0000
  H   H593      1.0  0.45552  0.35097  0.70461  1.0000
  H   H594      1.0  0.45272  0.10430  0.90594  1.0000
  C   C739      1.0  0.46588  0.47248  0.86093  1.0000
  H   H595      1.0  0.43388  0.32535  0.79497  1.0000
  H   H596      1.0  0.42640  0.30642  0.75241  1.0000
  H   H597      1.0  0.42235  0.34084  0.68462  1.0000
  H   H598      1.0  0.42283  0.35844  0.64409  1.0000
  H   H599      1.0  0.43470  0.35382  0.59987  1.0000
  H   H600      1.0  0.44531  0.33105  0.59593  1.0000
  H   H601      1.0  0.44485  0.31321  0.63601  1.0000
  H   H602      1.0  0.40747  0.11185  0.78146  1.0000
  C   C740      1.0  0.39436  0.47912  0.90532  1.0000
  H   H603      1.0  0.47040  0.38582  0.61425  1.0000
  H   H604      1.0  0.45568  0.05367  0.83736  1.0000
  C   C741      1.0  0.36143  0.39320  0.57558  1.0000
  H   H605      1.0  0.40101  0.12481  0.73966  1.0000
  C   C742      1.0  0.32896  0.42894  0.59655  1.0000
  C   C743      1.0  0.38287  0.48064  0.88537  1.0000
  H   H606      1.0  0.37936  0.37820  0.49523  1.0000
  S   S104      1.0  0.46868  0.13790  0.82071  1.0000
  H   H607      1.0  0.43651  0.11253  0.78972  1.0000
  C   C744      1.0  0.42106  0.04433  0.58269  1.0000
  H   H608      1.0  0.31134  0.41692  0.67014  1.0000
  H   H609      1.0  0.30270  0.33141  0.63423  1.0000
  H   H610      1.0  0.38273  0.00794  0.52821  1.0000
  C   C745      1.0  0.32278  0.37656  0.60057  1.0000
  C   C746      1.0  0.44252  0.13212  0.72744  1.0000
  H   H611      1.0  0.35190  0.12617  0.66654  1.0000
  C   C747      1.0  0.44408  0.39607  0.91981  1.0000
  H   H612      1.0  0.40386  0.42070  0.57217  1.0000
  C   C748      1.0  0.31865  0.43626  0.63892  1.0000
  H   H613      1.0  0.44655  0.39642  0.86203  1.0000
  S   S105      1.0  0.32710  0.49068  0.79988  1.0000
  C   C749      1.0  0.45367  0.04189  0.84801  1.0000
  C   C750      1.0  0.44869  0.03290  0.94563  1.0000
  C   C751      1.0  0.38159  0.41916  0.49733  1.0000
  Fe  Fe52      1.0  0.44278  0.39237  0.51163  1.0000
  H   H614      1.0  0.33786  0.47080  0.89089  1.0000
  C   C752      1.0  0.32254  0.39730  0.55167  1.0000
  C   C753      1.0  0.43707  0.04226  0.62377  1.0000
  C   C754      1.0  0.45368  0.99565  0.59107  1.0000
  Fe  Fe53      1.0  0.35202  0.48905  0.96559  1.0000
  H   H615      1.0  0.29899  0.45888  0.90991  1.0000
  H   H616      1.0  0.29405  0.46854  0.76859  1.0000
  C   C755      1.0  0.45131  0.48432  0.93024  1.0000
  H   H617      1.0  0.43950  0.01839  0.62822  1.0000
  C   C756      1.0  0.30804  0.39709  0.49831  1.0000
  C   C757      1.0  0.47840  0.29589  0.69597  1.0000
  H   H618      1.0  0.29337  0.48610  0.80948  1.0000
  C   C758      1.0  0.27167  0.44637  0.91653  1.0000
  C   C759      1.0  0.43912  0.47239  0.50363  1.0000
  C   C760      1.0  0.47034  0.11705  0.62177  1.0000
  H   H619      1.0  0.36174  0.43212  0.59499  1.0000
  C   C761      1.0  0.47973  0.06533  0.78359  1.0000
  C   C762      1.0  0.28633  0.45814  0.90399  1.0000
  C   C763      1.0  0.38511  0.39220  0.49778  1.0000
  C   C764      1.0  0.26850  0.46851  0.87630  1.0000
  H   H620      1.0  0.29848  0.39625  0.56638  1.0000
  C   C765      1.0  0.45914  0.03621  0.96995  1.0000
  H   H621      1.0  0.45811  0.38251  0.82814  1.0000
  C   C766      1.0  0.32042  0.40864  0.63390  1.0000
  H   H622      1.0  0.46642  0.10162  0.65819  1.0000
  C   C767      1.0  0.42824  0.99759  0.54176  1.0000
  C   C768      1.0  0.47045  0.11460  0.65070  1.0000
  S   S106      1.0  0.47876  0.10389  0.51834  1.0000
  C   C769      1.0  0.29864  0.39641  0.52179  1.0000
  H   H623      1.0  0.24416  0.48540  0.80398  1.0000
  C   C770      1.0  0.47159  0.34449  0.97513  1.0000
  C   C771      1.0  0.41771  0.44647  0.98064  1.0000
  C   C772      1.0  0.32465  0.39791  0.50142  1.0000
  C   C773      1.0  0.48046  0.31100  0.68249  1.0000
  C   C774      1.0  0.26671  0.47006  0.81726  1.0000
  H   H624      1.0  0.47325  0.42802  0.60242  1.0000
  C   C775      1.0  0.47531  0.12873  0.67008  1.0000
  H   H625      1.0  0.38861  0.99900  0.57672  1.0000
  H   H626      1.0  0.35892  0.99808  0.97311  1.0000
  H   H627      1.0  0.46902  0.06879  0.77984  1.0000
  H   H628      1.0  0.47336  0.03772  0.82667  1.0000
  H   H629      1.0  0.47544  0.13609  0.59042  1.0000
  S   S107      1.0  0.39702  0.46370  0.97407  1.0000
  P   P27       1.0  0.26652  0.48175  0.84868  1.0000
  C   C776      1.0  0.48021  0.14804  0.63189  1.0000
  H   H630      1.0  0.37460  0.02966  0.98026  1.0000
  H   H631      1.0  0.48053  0.25023  0.80728  1.0000
  Fe  Fe54      1.0  0.48403  0.16083  0.79330  1.0000
  H   H632      1.0  0.24716  0.48740  0.89383  1.0000
  H   H633      1.0  0.47833  0.99597  0.60245  1.0000
  C   C777      1.0  0.47403  0.30599  0.84609  1.0000
  C   C778      1.0  0.37193  0.00346  0.98224  1.0000
  H   H634      1.0  0.47983  0.02122  0.52452  1.0000
  C   C779      1.0  0.48330  0.31734  0.86822  1.0000
  C   C780      1.0  0.47989  0.28321  0.86669  1.0000
  H   H635      1.0  0.47881  0.27005  0.86577  1.0000
  C   C781      1.0  0.45789  0.48528  0.95758  1.0000
  H   H636      1.0  0.47907  0.04587  0.55106  1.0000
  H   H637      1.0  0.48489  0.33064  0.86828  1.0000
  H   H638      1.0  0.48380  0.16097  0.62441  1.0000
  C   C782      1.0  0.48200  0.05350  0.76554  1.0000
  C   C783      1.0  0.48502  0.01431  0.93622  1.0000
  C   C784      1.0  0.48398  0.40262  0.83213  1.0000
  Fe  Fe55      1.0  0.46715  0.39131  0.98240  1.0000
  H   H639      1.0  0.43427  0.43305  0.98431  1.0000
  C   C785      1.0  0.44236  0.00691  0.98407  1.0000
  S   S108      1.0  0.47138  0.94361  0.44721  1.0000
  Fe  Fe56      1.0  0.38616  0.92372  0.01359  1.0000
  H   H640      1.0  0.33160  0.87827  0.20772  1.0000
  H   H641      1.0  0.41997  0.66451  0.30131  1.0000
  Fe  Fe57      1.0  0.34909  0.91080  0.03035  1.0000
  S   S109      1.0  0.38167  0.96319  0.46020  1.0000
  S   S110      1.0  0.33176  0.90116  0.06778  1.0000
  C   C786      1.0  0.24182  0.80539  0.46124  1.0000
  S   S111      1.0  0.34141  0.87467  0.42765  1.0000
  H   H642      1.0  0.26108  0.80620  0.23129  1.0000
  C   C787      1.0  0.37571  0.53904  0.44520  1.0000
  S   S112      1.0  0.36379  0.89755  0.01010  1.0000
  S   S113      1.0  0.37204  0.93658  0.03614  1.0000
  Fe  Fe58      1.0  0.43763  0.63877  0.21665  1.0000
  S   S114      1.0  0.46160  0.63721  0.23356  1.0000
  S   S115      1.0  0.41588  0.61289  0.20366  1.0000
  Fe  Fe59      1.0  0.45470  0.67902  0.21801  1.0000
  C   C788      1.0  0.37998  0.55628  0.45306  1.0000
  S   S116      1.0  0.45110  0.65844  0.18484  1.0000
  S   S117      1.0  0.43875  0.65898  0.24798  1.0000
  Fe  Fe60      1.0  0.29487  0.51801  0.24676  1.0000
  S   S118      1.0  0.26526  0.50845  0.24279  1.0000
  Fe  Fe61      1.0  0.33072  0.54770  0.25526  1.0000
  S   S119      1.0  0.34430  0.53099  0.24609  1.0000
  S   S120      1.0  0.34606  0.57628  0.26574  1.0000
  Fe  Fe62      1.0  0.32497  0.51981  0.21016  1.0000
  C   C789      1.0  0.47600  0.69038  0.44586  1.0000
  Fe  Fe63      1.0  0.32504  0.51167  0.27328  1.0000
  H   H643      1.0  0.27971  0.60852  0.14641  1.0000
  S   S121      1.0  0.31230  0.53786  0.21815  1.0000
  S   S122      1.0  0.31255  0.52930  0.28497  1.0000
  C   C790      1.0  0.36195  0.56948  0.38671  1.0000
  S   S123      1.0  0.46122  0.81477  0.18122  1.0000
  Fe  Fe64      1.0  0.46934  0.83604  0.25652  1.0000
  S   S124      1.0  0.45064  0.80807  0.24671  1.0000
  Fe  Fe65      1.0  0.47091  0.80629  0.21977  1.0000
  C   C791      1.0  0.33964  0.49777  0.33974  1.0000
  Fe  Fe66      1.0  0.44226  0.81839  0.20914  1.0000
  S   S125      1.0  0.41498  0.81098  0.19154  1.0000
  S   S126      1.0  0.45942  0.84623  0.22017  1.0000
  Fe  Fe67      1.0  0.32085  0.83650  0.20413  1.0000
  S   S127      1.0  0.31824  0.80928  0.21091  1.0000
  S   S128      1.0  0.33095  0.84777  0.16149  1.0000
  Fe  Fe68      1.0  0.31492  0.84110  0.26674  1.0000
  S   S129      1.0  0.31176  0.81423  0.27681  1.0000
  S   S130      1.0  0.31549  0.86201  0.29848  1.0000
  Fe  Fe69      1.0  0.33459  0.82007  0.25010  1.0000
  S   S131      1.0  0.35801  0.81667  0.26745  1.0000
  Fe  Fe70      1.0  0.29528  0.80522  0.23685  1.0000
  S   S132      1.0  0.27202  0.77824  0.22919  1.0000
  S   S133      1.0  0.33852  0.84728  0.24215  1.0000
  S   S134      1.0  0.29704  0.83209  0.22778  1.0000
  H   H644      1.0  0.39151  0.91546  0.24204  1.0000
  H   H645      1.0  0.29590  0.63483  0.11999  1.0000
  H   H646      1.0  0.31662  0.53315  0.10722  1.0000
  C   C792      1.0  0.27847  0.82724  0.15234  1.0000
  C   C793      1.0  0.44045  0.56672  0.47999  1.0000
  S   S135      1.0  0.41250  0.92895  0.03169  1.0000
  C   C794      1.0  0.31945  0.84484  0.48142  1.0000
  H   H647      1.0  0.40402  0.90699  0.08547  1.0000
  H   H648      1.0  0.29050  0.85255  0.38873  1.0000
  C   C795      1.0  0.47006  0.67659  0.07713  1.0000
  H   H649      1.0  0.47265  0.77606  0.07351  1.0000
  C   C796      1.0  0.37473  0.87508  0.28443  1.0000
  C   C797      1.0  0.25273  0.80778  0.17497  1.0000
  C   C798      1.0  0.39916  0.81228  0.21300  1.0000
  C   C799      1.0  0.40231  0.81571  0.24167  1.0000
  C   C800      1.0  0.38945  0.81673  0.25811  1.0000
  C   C801      1.0  0.37358  0.81489  0.24595  1.0000
  C   C802      1.0  0.37043  0.81148  0.21728  1.0000
  C   C803      1.0  0.38309  0.80993  0.20095  1.0000
  H   H650      1.0  0.41459  0.81744  0.25124  1.0000
  H   H651      1.0  0.39187  0.81916  0.28031  1.0000
  H   H652      1.0  0.35815  0.80976  0.20777  1.0000
  H   H653      1.0  0.38046  0.80704  0.17885  1.0000
  C   C804      1.0  0.33597  0.50580  0.38725  1.0000
  C   C805      1.0  0.25077  0.76321  0.23834  1.0000
  C   C806      1.0  0.45792  0.91516  0.37775  1.0000
  H   H654      1.0  0.47468  0.90269  0.37012  1.0000
  H   H655      1.0  0.42657  0.86657  0.16880  1.0000
  H   H656      1.0  0.35351  0.87588  0.30607  1.0000
  H   H657      1.0  0.28618  0.83980  0.14403  1.0000
  C   C807      1.0  0.35254  0.96028  0.07932  1.0000
  C   C808      1.0  0.24914  0.51546  0.25286  1.0000
  C   C809      1.0  0.25293  0.53032  0.26975  1.0000
  C   C810      1.0  0.44569  0.90712  0.07796  1.0000
  H   H658      1.0  0.26609  0.53808  0.27715  1.0000
  C   C811      1.0  0.45645  0.72428  0.21182  1.0000
  H   H659      1.0  0.46820  0.64971  0.13224  1.0000
  C   C812      1.0  0.24283  0.74686  0.22426  1.0000
  C   C813      1.0  0.47058  0.76127  0.21775  1.0000
  H   H660      1.0  0.33715  0.55062  0.37057  1.0000
  C   C814      1.0  0.28904  0.54842  0.33203  1.0000
  H   H661      1.0  0.32791  0.64853  0.12318  1.0000
  C   C815      1.0  0.39762  0.60250  0.22355  1.0000
  C   C816      1.0  0.38605  0.58547  0.21575  1.0000
  C   C817      1.0  0.37064  0.57713  0.22948  1.0000
  C   C818      1.0  0.36629  0.58596  0.25040  1.0000
  C   C819      1.0  0.37795  0.60293  0.25849  1.0000
  C   C820      1.0  0.39379  0.61105  0.24558  1.0000
  H   H662      1.0  0.38891  0.57877  0.19872  1.0000
  H   H663      1.0  0.36178  0.56412  0.22298  1.0000
  H   H664      1.0  0.37462  0.60991  0.27439  1.0000
  H   H665      1.0  0.40266  0.62416  0.25187  1.0000
  C   C821      1.0  0.33509  0.87196  0.39133  1.0000
  C   C822      1.0  0.33243  0.88465  0.37631  1.0000
  C   C823      1.0  0.32636  0.88135  0.34809  1.0000
  C   C824      1.0  0.32331  0.86553  0.33415  1.0000
  C   C825      1.0  0.32642  0.85304  0.34897  1.0000
  C   C826      1.0  0.33204  0.85616  0.37736  1.0000
  H   H666      1.0  0.33463  0.89685  0.38664  1.0000
  H   H667      1.0  0.32402  0.89115  0.33698  1.0000
  H   H668      1.0  0.32428  0.84085  0.33865  1.0000
  H   H669      1.0  0.33410  0.84624  0.38859  1.0000
  C   C827      1.0  0.33194  0.88670  0.09426  1.0000
  C   C828      1.0  0.34243  0.87787  0.09305  1.0000
  C   C829      1.0  0.34197  0.86612  0.11379  1.0000
  C   C830      1.0  0.33107  0.86309  0.13630  1.0000
  C   C831      1.0  0.32083  0.87227  0.13795  1.0000
  C   C832      1.0  0.32120  0.88390  0.11698  1.0000
  H   H670      1.0  0.35079  0.88012  0.07589  1.0000
  H   H671      1.0  0.35004  0.85925  0.11234  1.0000
  H   H672      1.0  0.31248  0.87025  0.15517  1.0000
  H   H673      1.0  0.31303  0.89070  0.11827  1.0000
  H   H674      1.0  0.29523  0.59598  0.17609  1.0000
  H   H675      1.0  0.43978  0.94764  0.44835  1.0000
  H   H676      1.0  0.45861  0.64666  0.36863  1.0000
  C   C833      1.0  0.47781  0.64626  0.12336  1.0000
  C   C834      1.0  0.42328  0.55478  0.47577  1.0000
  H   H677      1.0  0.46333  0.59269  0.41390  1.0000
  H   H678      1.0  0.41344  0.96535  0.05505  1.0000
  C   C835      1.0  0.42412  0.92264  0.00816  1.0000
  H   H679      1.0  0.47726  0.73126  0.14807  1.0000
  H   H680      1.0  0.30554  0.50408  0.08517  1.0000
  H   H681      1.0  0.25410  0.83291  0.30265  1.0000
  C   C836      1.0  0.43741  0.60729  0.29425  1.0000
  C   C837      1.0  0.42828  0.59353  0.27536  1.0000
  C   C838      1.0  0.41087  0.58303  0.27893  1.0000
  C   C839      1.0  0.40242  0.58657  0.30089  1.0000
  C   C840      1.0  0.41135  0.60070  0.31961  1.0000
  C   C841      1.0  0.42903  0.61080  0.31630  1.0000
  P   P28       1.0  0.40011  0.60762  0.34500  1.0000
  C   C842      1.0  0.37986  0.58997  0.35361  1.0000
  C   C843      1.0  0.41365  0.61575  0.37639  1.0000
  C   C844      1.0  0.39686  0.62549  0.33006  1.0000
  C   C845      1.0  0.38037  0.62531  0.32723  1.0000
  C   C846      1.0  0.37814  0.63888  0.31424  1.0000
  C   C847      1.0  0.39236  0.65294  0.30471  1.0000
  C   C848      1.0  0.43611  0.92641  0.23729  1.0000
  C   C849      1.0  0.41111  0.63995  0.32110  1.0000
  H   H682      1.0  0.45086  0.61569  0.29129  1.0000
  H   H683      1.0  0.43457  0.59128  0.25756  1.0000
  H   H684      1.0  0.40368  0.57258  0.26392  1.0000
  H   H685      1.0  0.38886  0.57846  0.30231  1.0000
  H   H686      1.0  0.43635  0.62182  0.33018  1.0000
  H   H687      1.0  0.38718  0.58940  0.39694  1.0000
  H   H688      1.0  0.36788  0.58746  0.31263  1.0000
  H   H689      1.0  0.36913  0.61469  0.33449  1.0000
  H   H690      1.0  0.36533  0.63838  0.31128  1.0000
  H   H691      1.0  0.39065  0.66337  0.29443  1.0000
  C   C850      1.0  0.39996  0.53186  0.08745  1.0000
  C   C851      1.0  0.38986  0.52594  0.11053  1.0000
  C   C852      1.0  0.38961  0.53782  0.13076  1.0000
  C   C853      1.0  0.39920  0.55565  0.12765  1.0000
  C   C854      1.0  0.40862  0.56170  0.10371  1.0000
  C   C855      1.0  0.40948  0.54965  0.08424  1.0000
  P   P29       1.0  0.42068  0.58462  0.09872  1.0000
  C   C856      1.0  0.41184  0.59796  0.11560  1.0000
  C   C857      1.0  0.44248  0.59034  0.11168  1.0000
  C   C858      1.0  0.44711  0.59517  0.13987  1.0000
  C   C859      1.0  0.46420  0.60042  0.14969  1.0000
  H   H692      1.0  0.39349  0.57691  0.00414  1.0000
  H   H693      1.0  0.29263  0.52500  0.33515  1.0000
  C   C860      1.0  0.45497  0.59002  0.09377  1.0000
  C   C861      1.0  0.42263  0.61537  0.12287  1.0000
  C   C862      1.0  0.41576  0.62618  0.13422  1.0000
  C   C863      1.0  0.39810  0.61976  0.13832  1.0000
  C   C864      1.0  0.38724  0.60255  0.13073  1.0000
  C   C865      1.0  0.39401  0.59174  0.11896  1.0000
  C   C866      1.0  0.41994  0.58983  0.06266  1.0000
  C   C867      1.0  0.40556  0.57993  0.04504  1.0000
  C   C868      1.0  0.40442  0.58491  0.01777  1.0000
  C   C869      1.0  0.41747  0.59997  0.00807  1.0000
  C   C870      1.0  0.43181  0.60989  0.02549  1.0000
  C   C871      1.0  0.43298  0.60492  0.05272  1.0000
  H   H694      1.0  0.40023  0.52270  0.07174  1.0000
  H   H695      1.0  0.38222  0.51215  0.11269  1.0000
  H   H696      1.0  0.38182  0.53317  0.14873  1.0000
  H   H697      1.0  0.39912  0.56463  0.14381  1.0000
  H   H698      1.0  0.41729  0.55400  0.06626  1.0000
  H   H699      1.0  0.43763  0.59526  0.15417  1.0000
  H   H700      1.0  0.46787  0.60484  0.17119  1.0000
  C   C872      1.0  0.44402  0.81705  0.42426  1.0000
  Fe  Fe71      1.0  0.35260  0.89716  0.46076  1.0000
  H   H701      1.0  0.45169  0.58617  0.07199  1.0000
  H   H702      1.0  0.43636  0.62065  0.11974  1.0000
  H   H703      1.0  0.42420  0.63946  0.14032  1.0000
  H   H704      1.0  0.39289  0.62810  0.14754  1.0000
  H   H705      1.0  0.37359  0.59761  0.13407  1.0000
  H   H706      1.0  0.38532  0.57861  0.11238  1.0000
  H   H707      1.0  0.39525  0.56829  0.05220  1.0000
  H   H708      1.0  0.28041  0.51389  0.17164  1.0000
  H   H709      1.0  0.34373  0.63606  0.15242  1.0000
  H   H710      1.0  0.44210  0.62145  0.01798  1.0000
  H   H711      1.0  0.44405  0.61290  0.06603  1.0000
  H   H712      1.0  0.31748  0.84720  0.45984  1.0000
  C   C873      1.0  0.45001  0.58096  0.34636  1.0000
  C   C874      1.0  0.46053  0.59030  0.36924  1.0000
  C   C875      1.0  0.42913  0.56155  0.37746  1.0000
  C   C876      1.0  0.43438  0.56664  0.35038  1.0000
  P   P30       1.0  0.40874  0.54329  0.38311  1.0000
  C   C877      1.0  0.39580  0.53783  0.35099  1.0000
  C   C878      1.0  0.41196  0.52452  0.39365  1.0000
  C   C879      1.0  0.42673  0.52645  0.40962  1.0000
  C   C880      1.0  0.38304  0.54387  0.34620  1.0000
  C   C881      1.0  0.37324  0.53964  0.32107  1.0000
  C   C882      1.0  0.37618  0.52946  0.30066  1.0000
  C   C883      1.0  0.38893  0.52354  0.30518  1.0000
  C   C884      1.0  0.39880  0.52778  0.33018  1.0000
  C   C885      1.0  0.39722  0.54846  0.41001  1.0000
  C   C886      1.0  0.40114  0.56577  0.41761  1.0000
  C   C887      1.0  0.39269  0.56966  0.43925  1.0000
  C   C888      1.0  0.47604  0.64073  0.09512  1.0000
  C   C889      1.0  0.33229  0.95411  0.03982  1.0000
  C   C890      1.0  0.38425  0.53511  0.42377  1.0000
  H   H713      1.0  0.45388  0.58496  0.32546  1.0000
  H   H714      1.0  0.42643  0.55984  0.33225  1.0000
  H   H715      1.0  0.44468  0.95740  0.18907  1.0000
  H   H716      1.0  0.43632  0.53915  0.41613  1.0000
  H   H717      1.0  0.38052  0.55165  0.36185  1.0000
  H   H718      1.0  0.36307  0.54387  0.31752  1.0000
  H   H719      1.0  0.36828  0.52571  0.28157  1.0000
  H   H720      1.0  0.39093  0.51543  0.28939  1.0000
  H   H721      1.0  0.40869  0.52313  0.33331  1.0000
  H   H722      1.0  0.41090  0.57628  0.40723  1.0000
  H   H723      1.0  0.37447  0.96985  0.20505  1.0000
  C   C891      1.0  0.24208  0.79082  0.47381  1.0000
  C   C892      1.0  0.45403  0.93516  0.46894  1.0000
  H   H724      1.0  0.38074  0.52161  0.41825  1.0000
  C   C893      1.0  0.33730  0.50793  0.13992  1.0000
  H   H725      1.0  0.36408  0.92072  0.11251  1.0000
  H   H726      1.0  0.25823  0.83415  0.16387  1.0000
  H   H727      1.0  0.45371  0.93430  0.08759  1.0000
  C   C894      1.0  0.43963  0.84897  0.43175  1.0000
  H   H728      1.0  0.32285  0.84115  0.98807  1.0000
  C   C895      1.0  0.47203  0.59527  0.10367  1.0000
  H   H729      1.0  0.46440  0.55221  0.39105  1.0000
  C   C896      1.0  0.36021  0.97794  0.07297  1.0000
  H   H730      1.0  0.44012  0.85404  0.31201  1.0000
  C   C897      1.0  0.29174  0.85881  0.40904  1.0000
  C   C898      1.0  0.46537  0.79946  0.10868  1.0000
  C   C899      1.0  0.48074  0.75216  0.22334  1.0000
  H   H731      1.0  0.44684  0.89094  0.42110  1.0000
  C   C900      1.0  0.48158  0.86130  0.32755  1.0000
  H   H732      1.0  0.44819  0.93524  0.03197  1.0000
  C   C901      1.0  0.29899  0.52550  0.14046  1.0000
  C   C902      1.0  0.24980  0.82714  0.28194  1.0000
  S   S136      1.0  0.34220  0.91541  0.47908  1.0000
  H   H733      1.0  0.46484  0.92649  0.99885  1.0000
  H   H734      1.0  0.47909  0.51285  0.41048  1.0000
  C   C903      1.0  0.43981  0.93903  0.46461  1.0000
  H   H735      1.0  0.36942  0.91458  0.16086  1.0000
  C   C904      1.0  0.36642  0.58244  0.33330  1.0000
  Fe  Fe72      1.0  0.47528  0.65805  0.20330  1.0000
  C   C905      1.0  0.45703  0.66829  0.47540  1.0000
  C   C906      1.0  0.40121  0.49319  0.39638  1.0000
  S   S137      1.0  0.48463  0.63258  0.47142  1.0000
  H   H736      1.0  0.46193  0.90492  0.24735  1.0000
  C   C907      1.0  0.37721  0.98610  0.12946  1.0000
  C   C908      1.0  0.48404  0.87484  0.37414  1.0000
  C   C909      1.0  0.47450  0.55081  0.05174  1.0000
  H   H737      1.0  0.33556  0.97580  0.01453  1.0000
  H   H738      1.0  0.35748  0.95546  0.09660  1.0000
  H   H739      1.0  0.46330  0.54517  0.44096  1.0000
  H   H740      1.0  0.44308  0.65939  0.07885  1.0000
  H   H741      1.0  0.27349  0.52347  0.40287  1.0000
  C   C910      1.0  0.36022  0.97234  0.16889  1.0000
  H   H742      1.0  0.38496  0.81435  0.35083  1.0000
  H   H743      1.0  0.47437  0.56224  0.06185  1.0000
  C   C911      1.0  0.29689  0.87671  0.41120  1.0000
  H   H744      1.0  0.42407  0.78523  0.12920  1.0000
  C   C912      1.0  0.44004  0.87691  0.42085  1.0000
  H   H745      1.0  0.41452  0.93452  0.47768  1.0000
  C   C913      1.0  0.42051  0.91396  0.22561  1.0000
  Fe  Fe73      1.0  0.46374  0.65856  0.26379  1.0000
  C   C914      1.0  0.38382  0.91431  0.09615  1.0000
  H   H746      1.0  0.40113  0.83833  0.16749  1.0000
  H   H747      1.0  0.29736  0.81734  0.14463  1.0000
  H   H748      1.0  0.44420  0.66050  0.48231  1.0000
  C   C915      1.0  0.41335  0.97757  0.06170  1.0000
  H   H749      1.0  0.47253  0.60157  0.36620  1.0000
  H   H750      1.0  0.46500  0.63994  0.08264  1.0000
  H   H751      1.0  0.47705  0.83835  0.11756  1.0000
  C   C916      1.0  0.27806  0.50956  0.43650  1.0000
  H   H752      1.0  0.28200  0.49269  0.46617  1.0000
  C   C917      1.0  0.42547  0.93150  0.48103  1.0000
  C   C918      1.0  0.45094  0.89418  0.07004  1.0000
  Fe  Fe74      1.0  0.38315  0.51205  0.00284  1.0000
  C   C919      1.0  0.44671  0.84233  0.00793  1.0000
  C   C920      1.0  0.48141  0.86076  0.46997  1.0000
  C   C921      1.0  0.44038  0.80385  0.37785  1.0000
  H   H753      1.0  0.40555  0.52790  0.47335  1.0000
  H   H754      1.0  0.44120  0.63189  0.44579  1.0000
  H   H755      1.0  0.48089  0.77410  0.02539  1.0000
  C   C922      1.0  0.33721  0.57692  0.12308  1.0000
  C   C923      1.0  0.34257  0.56553  0.13669  1.0000
  C   C924      1.0  0.34441  0.56628  0.16566  1.0000
  C   C925      1.0  0.34078  0.57826  0.18112  1.0000
  C   C926      1.0  0.33567  0.58993  0.16772  1.0000
  C   C927      1.0  0.33394  0.58924  0.13851  1.0000
  P   P31       1.0  0.33225  0.60604  0.18832  1.0000
  C   C928      1.0  0.31896  0.59542  0.21692  1.0000
  C   C929      1.0  0.35282  0.62322  0.20017  1.0000
  C   C930      1.0  0.35357  0.63898  0.21105  1.0000
  C   C931      1.0  0.36948  0.65272  0.21863  1.0000
  C   C932      1.0  0.38479  0.65096  0.21501  1.0000
  C   C933      1.0  0.38419  0.63544  0.20397  1.0000
  C   C934      1.0  0.36832  0.62155  0.19683  1.0000
  C   C935      1.0  0.30686  0.57798  0.21373  1.0000
  C   C936      1.0  0.29599  0.56989  0.23519  1.0000
  C   C937      1.0  0.29697  0.57913  0.25992  1.0000
  C   C938      1.0  0.30891  0.59647  0.26331  1.0000
  C   C939      1.0  0.31990  0.60458  0.24195  1.0000
  C   C940      1.0  0.32068  0.61529  0.16704  1.0000
  C   C941      1.0  0.32976  0.63003  0.15162  1.0000
  C   C942      1.0  0.32084  0.63708  0.13483  1.0000
  C   C943      1.0  0.30281  0.62936  0.13301  1.0000
  C   C944      1.0  0.29369  0.61456  0.14794  1.0000
  C   C945      1.0  0.30257  0.60751  0.16486  1.0000
  H   H756      1.0  0.33576  0.57630  0.10058  1.0000
  H   H757      1.0  0.34533  0.55608  0.12494  1.0000
  H   H758      1.0  0.34866  0.55754  0.17623  1.0000
  H   H759      1.0  0.34202  0.57852  0.20360  1.0000
  H   H760      1.0  0.33005  0.59811  0.12758  1.0000
  H   H761      1.0  0.34187  0.64077  0.21328  1.0000
  H   H762      1.0  0.36998  0.66484  0.22699  1.0000
  H   H763      1.0  0.39717  0.66162  0.22061  1.0000
  H   H764      1.0  0.39610  0.63412  0.20114  1.0000
  H   H765      1.0  0.36839  0.60966  0.18867  1.0000
  H   H766      1.0  0.30571  0.57059  0.19462  1.0000
  H   H767      1.0  0.28676  0.55640  0.23264  1.0000
  H   H768      1.0  0.28845  0.57283  0.27639  1.0000
  H   H769      1.0  0.30966  0.60363  0.28250  1.0000
  H   H770      1.0  0.32902  0.61795  0.24513  1.0000
  C   C946      1.0  0.43990  0.57094  0.40025  1.0000
  C   C947      1.0  0.37732  0.58359  0.38060  1.0000
  H   H771      1.0  0.44979  0.83123  0.00778  1.0000
  C   C948      1.0  0.45321  0.75168  0.20937  1.0000
  H   H772      1.0  0.43423  0.76825  0.16035  1.0000
  H   H773      1.0  0.36727  0.91132  0.27143  1.0000
  C   C949      1.0  0.25610  0.52925  0.35130  1.0000
  C   C950      1.0  0.43786  0.94532  0.19937  1.0000
  C   C951      1.0  0.43515  0.61472  0.40977  1.0000
  H   H774      1.0  0.38726  0.50584  0.37602  1.0000
  C   C952      1.0  0.44629  0.73339  0.20616  1.0000
  Fe  Fe75      1.0  0.47896  0.84213  0.19424  1.0000
  H   H775      1.0  0.38137  0.91688  0.07489  1.0000
  C   C953      1.0  0.42794  0.83277  0.12004  1.0000
  H   H776      1.0  0.33727  0.89238  0.25488  1.0000
  H   H777      1.0  0.41659  0.87639  0.40225  1.0000
  S   S138      1.0  0.35492  0.50450  0.00557  1.0000
  C   C954      1.0  0.43819  0.85965  0.09500  1.0000
  S   S139      1.0  0.44703  0.70115  0.20636  1.0000
  C   C955      1.0  0.29956  0.50602  0.10357  1.0000
  C   C956      1.0  0.45544  0.58526  0.39612  1.0000
  P   P32       1.0  0.47524  0.50267  0.00685  1.0000
  C   C957      1.0  0.48384  0.85297  0.07981  1.0000
  C   C958      1.0  0.43349  0.62745  0.42647  1.0000
  C   C959      1.0  0.39959  0.85016  0.17158  1.0000
  H   H778      1.0  0.37209  0.83707  0.17571  1.0000
  H   H779      1.0  0.42085  0.83594  0.47780  1.0000
  C   C960      1.0  0.44485  0.94203  0.22409  1.0000
  H   H780      1.0  0.43064  0.57249  0.01364  1.0000
  C   C961      1.0  0.45121  0.92260  0.99471  1.0000
  C   C962      1.0  0.39913  0.50773  0.38730  1.0000
  H   H781      1.0  0.43613  0.56743  0.42130  1.0000
  S   S140      1.0  0.33557  0.52189  0.16643  1.0000
  C   C963      1.0  0.28381  0.53094  0.33802  1.0000
  H   H782      1.0  0.46101  0.85404  0.35604  1.0000
  H   H783      1.0  0.34942  0.97655  0.13033  1.0000
  S   S141      1.0  0.34515  0.49384  0.43550  1.0000
  C   C964      1.0  0.33393  0.50696  0.35814  1.0000
  H   H784      1.0  0.46186  0.86455  0.15562  1.0000
  H   H785      1.0  0.23796  0.84044  0.19341  1.0000
  H   H786      1.0  0.42410  0.87334  0.47416  1.0000
  H   H787      1.0  0.34807  0.52867  0.11134  1.0000
  C   C965      1.0  0.44426  0.87951  0.23176  1.0000
  H   H788      1.0  0.29944  0.88424  0.39259  1.0000
  H   H789      1.0  0.24736  0.77945  0.27002  1.0000
  H   H790      1.0  0.43995  0.51343  0.43170  1.0000
  C   C966      1.0  0.38329  0.84947  0.17624  1.0000
  C   C967      1.0  0.44067  0.84089  0.14101  1.0000
  C   C968      1.0  0.41208  0.88140  0.17779  1.0000
  C   C969      1.0  0.34399  0.51497  0.11436  1.0000
  C   C970      1.0  0.39837  0.87457  0.31322  1.0000
  C   C971      1.0  0.44336  0.84862  0.03302  1.0000
  H   H791      1.0  0.44404  0.84217  0.05183  1.0000
  C   C972      1.0  0.42825  0.84578  0.32142  1.0000
  H   H792      1.0  0.34098  0.56253  0.32321  1.0000
  S   S142      1.0  0.46853  0.84528  0.30176  1.0000
  P   P33       1.0  0.39322  0.90094  0.18601  1.0000
  C   C973      1.0  0.41396  0.86612  0.17235  1.0000
  H   H793      1.0  0.41687  0.93587  0.16877  1.0000
  H   H794      1.0  0.35567  0.88248  0.17777  1.0000
  C   C974      1.0  0.34891  0.56174  0.36601  1.0000
  Fe  Fe76      1.0  0.36563  0.94306  0.99372  1.0000
  S   S143      1.0  0.37948  0.91810  0.45851  1.0000
  C   C975      1.0  0.44454  0.81851  0.39524  1.0000
  C   C976      1.0  0.43708  0.78624  0.12786  1.0000
  C   C977      1.0  0.28558  0.51174  0.15239  1.0000
  H   H795      1.0  0.47285  0.75478  0.12483  1.0000
  H   H796      1.0  0.47761  0.69977  0.43002  1.0000
  S   S144      1.0  0.33571  0.49708  0.30281  1.0000
  C   C978      1.0  0.42883  0.51186  0.41852  1.0000
  C   C979      1.0  0.24157  0.76704  0.25892  1.0000
  H   H797      1.0  0.40099  0.84426  0.40220  1.0000
  H   H798      1.0  0.48179  0.59590  0.08940  1.0000
  C   C980      1.0  0.39227  0.98839  0.14496  1.0000
  C   C981      1.0  0.35108  0.56837  0.33938  1.0000
  H   H799      1.0  0.38434  0.87673  0.02367  1.0000
  C   C982      1.0  0.38131  0.86472  0.18157  1.0000
  C   C983      1.0  0.41199  0.62850  0.39337  1.0000
  H   H800      1.0  0.41386  0.87926  0.02366  1.0000
  C   C984      1.0  0.38985  0.87340  0.04201  1.0000
  H   H801      1.0  0.36849  0.86367  0.18476  1.0000
  H   H802      1.0  0.42341  0.89362  0.17790  1.0000
  H   H803      1.0  0.30438  0.53827  0.15058  1.0000
  C   C985      1.0  0.37709  0.91275  0.14479  1.0000
  C   C986      1.0  0.44841  0.79775  0.10963  1.0000
  C   C987      1.0  0.34542  0.50443  0.09252  1.0000
  H   H804      1.0  0.36019  0.56438  0.40742  1.0000
  H   H805      1.0  0.36699  0.86641  0.06516  1.0000
  C   C988      1.0  0.42530  0.60887  0.38478  1.0000
  H   H806      1.0  0.36651  0.87582  0.35293  1.0000
  C   C989      1.0  0.40668  0.87474  0.04208  1.0000
  C   C990      1.0  0.39569  0.88088  0.18230  1.0000
  H   H807      1.0  0.41398  0.90180  0.23591  1.0000
  C   C991      1.0  0.46097  0.52580  0.02018  1.0000
  H   H808      1.0  0.30401  0.89897  0.43902  1.0000
  H   H809      1.0  0.40296  0.63386  0.38743  1.0000
  C   C992      1.0  0.38969  0.98447  0.47588  1.0000
  C   C993      1.0  0.41422  0.85063  0.41035  1.0000
  H   H810      1.0  0.43508  0.82421  0.32199  1.0000
  C   C994      1.0  0.39126  0.98255  0.17214  1.0000
  C   C995      1.0  0.43999  0.86344  0.03364  1.0000
  C   C996      1.0  0.44089  0.87226  0.00889  1.0000
  C   C997      1.0  0.38015  0.86785  0.06555  1.0000
  H   H811      1.0  0.43874  0.92511  0.38094  1.0000
  C   C998      1.0  0.43002  0.90262  0.35294  1.0000
  H   H812      1.0  0.47271  0.88893  0.05971  1.0000
  C   C999      1.0  0.28478  0.81456  0.15257  1.0000
  H   H813      1.0  0.42671  0.59891  0.37220  1.0000
  C   C1000     1.0  0.28887  0.84914  0.43306  1.0000
  H   H814      1.0  0.41552  0.82678  0.42108  1.0000
  C   C1001     1.0  0.42250  0.84077  0.42102  1.0000
  C   C1002     1.0  0.39722  0.82325  0.34325  1.0000
  C   C1003     1.0  0.37341  0.87563  0.33452  1.0000
  H   H815      1.0  0.40758  0.80416  0.34161  1.0000
  H   H816      1.0  0.38960  0.84404  0.34070  1.0000
  H   H817      1.0  0.39483  0.87464  0.35763  1.0000
  C   C1004     1.0  0.41397  0.87047  0.06576  1.0000
  C   C1005     1.0  0.38746  0.86426  0.08960  1.0000
  H   H818      1.0  0.38005  0.86036  0.10810  1.0000
  S   S145      1.0  0.47992  0.67985  0.23529  1.0000
  C   C1006     1.0  0.26723  0.52118  0.34736  1.0000
  C   C1007     1.0  0.23940  0.81294  0.22767  1.0000
  H   H819      1.0  0.43981  0.88447  0.00895  1.0000
  C   C1008     1.0  0.40992  0.81748  0.33797  1.0000
  C   C1009     1.0  0.39998  0.84027  0.33748  1.0000
  C   C1010     1.0  0.46845  0.89871  0.06607  1.0000
  H   H820      1.0  0.44514  0.75838  0.20517  1.0000
  C   C1011     1.0  0.41336  0.91721  0.20085  1.0000
  C   C1012     1.0  0.37860  0.90729  0.23409  1.0000
  S   S146      1.0  0.40094  0.53997  0.01209  1.0000
  H   H821      1.0  0.27055  0.81928  0.27837  1.0000
  C   C1013     1.0  0.42995  0.86426  0.23736  1.0000
  H   H822      1.0  0.42407  0.64084  0.32370  1.0000
  C   C1014     1.0  0.45787  0.92433  0.08199  1.0000
  C   C1015     1.0  0.42664  0.84212  0.09713  1.0000
  C   C1016     1.0  0.40434  0.86571  0.08982  1.0000
  C   C1017     1.0  0.38948  0.87502  0.33707  1.0000
  H   H823      1.0  0.44409  0.60939  0.41637  1.0000
  C   C1018     1.0  0.37554  0.89881  0.20774  1.0000
  C   C1019     1.0  0.38956  0.90647  0.15095  1.0000
  H   H824      1.0  0.44112  0.49141  0.03068  1.0000
  C   C1020     1.0  0.40886  0.65356  0.30846  1.0000
  H   H825      1.0  0.40243  0.99129  0.00786  1.0000
  H   H826      1.0  0.41806  0.90349  0.34763  1.0000
  C   C1021     1.0  0.47484  0.49949  0.40312  1.0000
  H   H827      1.0  0.32747  0.51452  0.34993  1.0000
  C   C1022     1.0  0.48061  0.91586  0.07055  1.0000
  C   C1023     1.0  0.36483  0.90513  0.25086  1.0000
  H   H828      1.0  0.25514  0.83286  0.45633  1.0000
  C   C1024     1.0  0.34471  0.88654  0.21505  1.0000
  C   C1025     1.0  0.28594  0.49215  0.11521  1.0000
  H   H829      1.0  0.45373  0.88011  0.33812  1.0000
  H   H830      1.0  0.45028  0.51808  0.00589  1.0000
  H   H831      1.0  0.23739  0.50135  0.31052  1.0000
  C   C1026     1.0  0.47495  0.52144  0.02476  1.0000
  P   P34       1.0  0.43566  0.87177  0.06599  1.0000
  H   H832      1.0  0.43226  0.90406  0.08082  1.0000
  H   H833      1.0  0.46156  0.87362  0.43906  1.0000
  H   H834      1.0  0.44809  0.90233  0.29224  1.0000
  C   C1027     1.0  0.36605  0.87567  0.30817  1.0000
  C   C1028     1.0  0.43308  0.56353  0.00028  1.0000
  C   C1029     1.0  0.42209  0.93302  0.18786  1.0000
  C   C1030     1.0  0.39942  0.90463  0.12939  1.0000
  C   C1031     1.0  0.37415  0.91651  0.11743  1.0000
  C   C1032     1.0  0.34791  0.89455  0.24151  1.0000
  C   C1033     1.0  0.35843  0.88873  0.19823  1.0000
  H   H835      1.0  0.40927  0.90007  0.13343  1.0000
  H   H836      1.0  0.40974  0.86305  0.10886  1.0000
  C   C1034     1.0  0.39655  0.90857  0.10216  1.0000
  S   S147      1.0  0.48044  0.78452  0.22055  1.0000
  H   H837      1.0  0.44145  0.92393  0.25656  1.0000
  C   C1035     1.0  0.42193  0.63436  0.41828  1.0000
  C   C1036     1.0  0.42540  0.82875  0.32702  1.0000
  C   C1037     1.0  0.41556  0.85172  0.32647  1.0000
  C   C1038     1.0  0.30591  0.52264  0.11603  1.0000
  H   H838      1.0  0.36888  0.87472  0.26403  1.0000
  H   H839      1.0  0.43973  0.67145  0.12450  1.0000
  H   H840      1.0  0.30173  0.55579  0.32420  1.0000
  H   H841      1.0  0.24275  0.54668  0.29004  1.0000
  P   P35       1.0  0.41896  0.87334  0.31647  1.0000
  C   C1039     1.0  0.42854  0.87628  0.28291  1.0000
  C   C1040     1.0  0.45211  0.67666  0.11497  1.0000
  H   H842      1.0  0.45063  0.88051  0.21236  1.0000
  C   C1041     1.0  0.39075  0.87449  0.28685  1.0000
  H   H843      1.0  0.43203  0.77617  0.37569  1.0000
  H   H844      1.0  0.41112  0.85074  0.26685  1.0000
  C   C1042     1.0  0.44177  0.92749  0.01351  1.0000
  H   H845      1.0  0.34482  0.84654  0.47477  1.0000
  H   H846      1.0  0.44131  0.80519  0.35551  1.0000
  C   C1043     1.0  0.23962  0.53514  0.27710  1.0000
  C   C1044     1.0  0.42209  0.86269  0.26275  1.0000
  H   H847      1.0  0.35049  0.51006  0.07297  1.0000
  H   H848      1.0  0.43057  0.77324  0.42691  1.0000
  H   H849      1.0  0.42514  0.85340  0.22238  1.0000
  C   C1045     1.0  0.48439  0.69000  0.09077  1.0000
  C   C1046     1.0  0.35388  0.98343  0.04952  1.0000
  H   H850      1.0  0.33108  0.51259  0.40119  1.0000
  S   S148      1.0  0.46351  0.65614  0.31142  1.0000
  C   C1047     1.0  0.45009  0.88962  0.34760  1.0000
  H   H851      1.0  0.28324  0.52082  0.45063  1.0000
  H   H852      1.0  0.44418  0.80566  0.09674  1.0000
  H   H853      1.0  0.33271  0.93490  0.06790  1.0000
  P   P36       1.0  0.26041  0.49857  0.35483  1.0000
  C   C1048     1.0  0.27249  0.51098  0.40935  1.0000
  C   C1049     1.0  0.44278  0.89168  0.27703  1.0000
  C   C1050     1.0  0.48122  0.49573  0.37876  1.0000
  C   C1051     1.0  0.43528  0.78753  0.38925  1.0000
  H   H854      1.0  0.47117  0.67108  0.05730  1.0000
  C   C1052     1.0  0.44189  0.91520  0.37148  1.0000
  H   H855      1.0  0.44175  0.83367  0.15869  1.0000
  H   H856      1.0  0.41657  0.83575  0.08115  1.0000
  H   H857      1.0  0.24968  0.74366  0.20826  1.0000
  H   H858      1.0  0.23634  0.52037  0.45243  1.0000
  C   C1053     1.0  0.43386  0.88944  0.34129  1.0000
  C   C1054     1.0  0.47043  0.64600  0.36280  1.0000
  H   H859      1.0  0.39685  0.87363  0.26798  1.0000
  H   H860      1.0  0.36589  0.52862  0.45593  1.0000
  H   H861      1.0  0.28537  0.83536  0.43094  1.0000
  C   C1055     1.0  0.47533  0.92870  0.07830  1.0000
  H   H862      1.0  0.46424  0.77181  0.15986  1.0000
  H   H863      1.0  0.25224  0.78277  0.18441  1.0000
  H   H864      1.0  0.47408  0.80866  0.09482  1.0000
  C   C1056     1.0  0.45092  0.86768  0.11627  1.0000
  C   C1057     1.0  0.46208  0.90249  0.36559  1.0000
  H   H865      1.0  0.44846  0.83107  0.38606  1.0000
  C   C1058     1.0  0.43897  0.80062  0.43562  1.0000
  C   C1059     1.0  0.33853  0.94849  0.06298  1.0000
  H   H866      1.0  0.40292  0.98428  0.18396  1.0000
  C   C1060     1.0  0.41868  0.53704  0.47806  1.0000
  H   H867      1.0  0.28022  0.78879  0.16486  1.0000
  C   C1061     1.0  0.47521  0.54890  0.43040  1.0000
  H   H868      1.0  0.28176  0.56978  0.33070  1.0000
  Fe  Fe77      1.0  0.47446  0.60418  0.47870  1.0000
  C   C1062     1.0  0.27781  0.55630  0.33565  1.0000
  C   C1063     1.0  0.47667  0.60056  0.13157  1.0000
  C   C1064     1.0  0.44279  0.77663  0.14541  1.0000
  H   H869      1.0  0.34780  0.96607  0.17813  1.0000
  H   H870      1.0  0.41651  0.60394  0.98710  1.0000
  C   C1065     1.0  0.44834  0.86707  0.43134  1.0000
  H   H871      1.0  0.48477  0.94202  0.08127  1.0000
  C   C1066     1.0  0.45063  0.89324  0.25153  1.0000
  H   H872      1.0  0.46006  0.88110  0.11536  1.0000
  H   H873      1.0  0.45705  0.95157  0.23301  1.0000
  C   C1067     1.0  0.46075  0.54038  0.03369  1.0000
  C   C1068     1.0  0.25916  0.79509  0.17488  1.0000
  C   C1069     1.0  0.45983  0.77856  0.14487  1.0000
  H   H874      1.0  0.46474  0.69516  0.14872  1.0000
  C   C1070     1.0  0.42061  0.54647  0.99604  1.0000
  H   H875      1.0  0.41902  0.81928  0.12183  1.0000
  H   H876      1.0  0.43290  0.72623  0.19937  1.0000
  C   C1071     1.0  0.47586  0.55287  0.40229  1.0000
  P   P37       1.0  0.45019  0.83633  0.44629  1.0000
  C   C1072     1.0  0.33997  0.97156  0.03311  1.0000
  C   C1073     1.0  0.45401  0.66992  0.08927  1.0000
  H   H877      1.0  0.39625  0.58305  0.44562  1.0000
  C   C1074     1.0  0.42299  0.86870  0.41032  1.0000
  C   C1075     1.0  0.46623  0.69008  0.12860  1.0000
  C   C1076     1.0  0.48228  0.69677  0.11654  1.0000
  H   H878      1.0  0.42062  0.64423  0.43125  1.0000
  C   C1077     1.0  0.27511  0.79848  0.16379  1.0000
  C   C1078     1.0  0.45201  0.85833  0.13926  1.0000
  H   H879      1.0  0.44997  0.54369  0.02986  1.0000
  C   C1079     1.0  0.47114  0.78966  0.12600  1.0000
  C   C1080     1.0  0.47374  0.73384  0.22065  1.0000
  C   C1081     1.0  0.39829  0.97781  0.07164  1.0000
  C   C1082     1.0  0.47431  0.86256  0.35289  1.0000
  C   C1083     1.0  0.43451  0.78591  0.41811  1.0000
  C   C1084     1.0  0.26136  0.54672  0.34534  1.0000
  H   H880      1.0  0.47824  0.87551  0.39346  1.0000
  C   C1085     1.0  0.37525  0.97446  0.18405  1.0000
  S   S149      1.0  0.44588  0.58871  0.47499  1.0000
  H   H881      1.0  0.43845  0.79910  0.45789  1.0000
  C   C1086     1.0  0.45943  0.68034  0.45474  1.0000
  C   C1087     1.0  0.25913  0.81952  0.26824  1.0000
  H   H882      1.0  0.25253  0.55274  0.34770  1.0000
  H   H883      1.0  0.47787  0.83837  0.40875  1.0000
  C   C1088     1.0  0.29098  0.85730  0.45948  1.0000
  Fe  Fe78      1.0  0.36980  0.93621  0.47892  1.0000
  C   C1089     1.0  0.27903  0.49514  0.13978  1.0000
  C   C1090     1.0  0.36119  0.97823  0.14177  1.0000
  H   H884      1.0  0.24326  0.52203  0.35853  1.0000
  C   C1091     1.0  0.25569  0.82164  0.46586  1.0000
  H   H885      1.0  0.46713  0.92496  0.39205  1.0000
  C   C1092     1.0  0.26254  0.82393  0.16356  1.0000
  C   C1093     1.0  0.27737  0.49371  0.44530  1.0000
  H   H886      1.0  0.32176  0.94485  0.02673  1.0000
  S   S150      1.0  0.30632  0.49899  0.23632  1.0000
  C   C1094     1.0  0.47577  0.64956  0.33532  1.0000
  C   C1095     1.0  0.26617  0.49651  0.39075  1.0000
  H   H887      1.0  0.38702  0.96572  0.07310  1.0000
  H   H888      1.0  0.44848  0.68195  0.44556  1.0000
  C   C1096     1.0  0.47338  0.84883  0.44766  1.0000
  C   C1097     1.0  0.25383  0.81228  0.24136  1.0000
  C   C1098     1.0  0.48041  0.64190  0.38297  1.0000
  H   H889      1.0  0.41356  0.55924  0.47042  1.0000
  H   H890      1.0  0.48179  0.72714  0.22502  1.0000
  H   H891      1.0  0.37353  0.55923  0.47001  1.0000
  H   H892      1.0  0.47622  0.63942  0.40405  1.0000
  C   C1099     1.0  0.29649  0.87536  0.46146  1.0000
  C   C1100     1.0  0.48353  0.84718  0.42646  1.0000
  C   C1101     1.0  0.29941  0.88500  0.43737  1.0000
  S   S151      1.0  0.34098  0.91816  0.98888  1.0000
  H   H893      1.0  0.47689  0.84175  0.06617  1.0000
  C   C1102     1.0  0.27007  0.82340  0.48286  1.0000
  S   S152      1.0  0.48491  0.62885  0.04719  1.0000
  H   H894      1.0  0.45393  0.96709  0.99112  1.0000
  C   C1103     1.0  0.41605  0.49524  0.41202  1.0000
  C   C1104     1.0  0.44365  0.83089  0.48155  1.0000
  C   C1105     1.0  0.34399  0.49568  0.39850  1.0000
  C   C1106     1.0  0.48449  0.75791  0.13765  1.0000
  H   H895      1.0  0.29885  0.88214  0.48145  1.0000
  C   C1107     1.0  0.48390  0.85097  0.10899  1.0000
  H   H896      1.0  0.48356  0.98001  0.43511  1.0000
  H   H897      1.0  0.42206  0.97130  0.48415  1.0000
  H   H898      1.0  0.45860  0.58201  0.99162  1.0000
  C   C1108     1.0  0.44892  0.56896  0.98769  1.0000
  C   C1109     1.0  0.39980  0.51192  0.88575  1.0000
  Fe  Fe79      1.0  0.38397  0.91171  0.50212  1.0000
  C   C1110     1.0  0.34594  0.54722  0.63121  1.0000
  S   S153      1.0  0.40726  0.90982  0.52133  1.0000
  Fe  Fe80      1.0  0.34992  0.90871  0.52161  1.0000
  H   H899      1.0  0.35270  0.94587  0.58333  1.0000
  S   S154      1.0  0.33511  0.90379  0.56196  1.0000
  H   H900      1.0  0.24477  0.62336  0.61065  1.0000
  S   S155      1.0  0.35194  0.88711  0.93146  1.0000
  H   H901      1.0  0.39189  0.54849  0.51267  1.0000
  C   C1111     1.0  0.39597  0.96362  0.87159  1.0000
  S   S156      1.0  0.35815  0.88921  0.50340  1.0000
  S   S157      1.0  0.37628  0.93095  0.52228  1.0000
  Fe  Fe81      1.0  0.43913  0.65819  0.73413  1.0000
  S   S158      1.0  0.45520  0.64363  0.72891  1.0000
  S   S159      1.0  0.40993  0.64434  0.73534  1.0000
  Fe  Fe82      1.0  0.47012  0.69335  0.73203  1.0000
  C   C1112     1.0  0.40762  0.81128  0.81941  1.0000
  S   S160      1.0  0.45101  0.67588  0.69902  1.0000
  S   S161      1.0  0.45692  0.67642  0.76775  1.0000
  Fe  Fe83      1.0  0.30257  0.52958  0.74886  1.0000
  S   S162      1.0  0.28096  0.53765  0.76175  1.0000
  Fe  Fe84      1.0  0.34222  0.54395  0.74263  1.0000
  S   S163      1.0  0.34047  0.51721  0.73365  1.0000
  S   S164      1.0  0.37082  0.56247  0.74506  1.0000
  Fe  Fe85      1.0  0.31755  0.51306  0.70572  1.0000
  C   C1113     1.0  0.33502  0.84433  0.48983  1.0000
  Fe  Fe86      1.0  0.32262  0.50885  0.76907  1.0000
  P   P38       1.0  0.42381  0.87304  0.59257  1.0000
  S   S165      1.0  0.31998  0.54034  0.71267  1.0000
  S   S166      1.0  0.32546  0.53570  0.77954  1.0000
  H   H902      1.0  0.40979  0.95191  0.93484  1.0000
  S   S167      1.0  0.45639  0.82600  0.67186  1.0000
  Fe  Fe87      1.0  0.46876  0.84305  0.74909  1.0000
  S   S168      1.0  0.44553  0.81834  0.73624  1.0000
  Fe  Fe88      1.0  0.46293  0.81251  0.70776  1.0000
  S   S169      1.0  0.45778  0.78356  0.70184  1.0000
  Fe  Fe89      1.0  0.44095  0.83355  0.70193  1.0000
  S   S170      1.0  0.41613  0.83506  0.68716  1.0000
  S   S171      1.0  0.46292  0.85854  0.71615  1.0000
  Fe  Fe90      1.0  0.32180  0.84519  0.70683  1.0000
  S   S172      1.0  0.31472  0.81667  0.71216  1.0000
  S   S173      1.0  0.33221  0.85408  0.66312  1.0000
  Fe  Fe91      1.0  0.31754  0.85005  0.77065  1.0000
  S   S174      1.0  0.31002  0.82187  0.77877  1.0000
  S   S175      1.0  0.31952  0.86995  0.80552  1.0000
  Fe  Fe92      1.0  0.33185  0.82515  0.75101  1.0000
  S   S176      1.0  0.35232  0.81613  0.76420  1.0000
  Fe  Fe93      1.0  0.29322  0.81566  0.73914  1.0000
  S   S177      1.0  0.26470  0.79550  0.73062  1.0000
  S   S178      1.0  0.34011  0.85348  0.74474  1.0000
  S   S179      1.0  0.29944  0.84400  0.73206  1.0000
  H   H903      1.0  0.46521  0.92140  0.49396  1.0000
  C   C1114     1.0  0.30566  0.76660  0.56310  1.0000
  C   C1115     1.0  0.25937  0.80032  0.83960  1.0000
  H   H904      1.0  0.39779  0.87019  0.49804  1.0000
  H   H905      1.0  0.31155  0.55703  0.62125  1.0000
  C   C1116     1.0  0.30511  0.52759  0.87881  1.0000
  H   H906      1.0  0.35760  0.82697  0.65422  1.0000
  H   H907      1.0  0.27586  0.79910  0.67212  1.0000
  H   H908      1.0  0.38135  0.81318  0.60771  1.0000
  Fe  Fe94      1.0  0.47875  0.85042  0.68758  1.0000
  C   C1117     1.0  0.43985  0.54032  0.96647  1.0000
  C   C1118     1.0  0.37870  0.53913  0.55041  1.0000
  H   H909      1.0  0.40635  0.79884  0.81116  1.0000
  C   C1119     1.0  0.39935  0.83120  0.71021  1.0000
  C   C1120     1.0  0.39902  0.82350  0.73577  1.0000
  C   C1121     1.0  0.38467  0.81920  0.75245  1.0000
  C   C1122     1.0  0.37065  0.82271  0.74379  1.0000
  C   C1123     1.0  0.37133  0.83107  0.71880  1.0000
  C   C1124     1.0  0.38560  0.83524  0.70203  1.0000
  H   H910      1.0  0.40963  0.82050  0.74238  1.0000
  H   H911      1.0  0.38432  0.81293  0.77191  1.0000
  H   H912      1.0  0.36062  0.83390  0.71199  1.0000
  H   H913      1.0  0.38585  0.84130  0.68239  1.0000
  H   H914      1.0  0.35855  0.51945  0.79844  1.0000
  C   C1125     1.0  0.24937  0.77449  0.74081  1.0000
  C   C1126     1.0  0.30733  0.53847  0.85645  1.0000
  H   H915      1.0  0.25399  0.83787  0.51539  1.0000
  H   H916      1.0  0.45416  0.58376  0.91478  1.0000
  H   H917      1.0  0.24225  0.78826  0.60631  1.0000
  C   C1127     1.0  0.24739  0.51502  0.74157  1.0000
  S   S180      1.0  0.38135  0.93179  0.97123  1.0000
  C   C1128     1.0  0.25780  0.52967  0.75818  1.0000
  H   H918      1.0  0.41909  0.90090  0.94608  1.0000
  H   H919      1.0  0.25741  0.54996  0.78519  1.0000
  C   C1129     1.0  0.32716  0.49889  0.63788  1.0000
  C   C1130     1.0  0.47443  0.73997  0.72670  1.0000
  C   C1131     1.0  0.45771  0.73615  0.71626  1.0000
  C   C1132     1.0  0.45292  0.74962  0.70907  1.0000
  C   C1133     1.0  0.46453  0.76724  0.71294  1.0000
  H   H920      1.0  0.44842  0.72279  0.71388  1.0000
  S   S181      1.0  0.29898  0.50212  0.74028  1.0000
  C   C1134     1.0  0.25914  0.55398  0.68594  1.0000
  C   C1135     1.0  0.39917  0.62166  0.73938  1.0000
  C   C1136     1.0  0.38108  0.61343  0.73614  1.0000
  C   C1137     1.0  0.37213  0.59531  0.73805  1.0000
  C   C1138     1.0  0.38123  0.58530  0.74337  1.0000
  C   C1139     1.0  0.39930  0.59355  0.74709  1.0000
  C   C1140     1.0  0.40823  0.61164  0.74512  1.0000
  H   H921      1.0  0.37397  0.62110  0.73177  1.0000
  H   H922      1.0  0.35822  0.58910  0.73519  1.0000
  H   H923      1.0  0.40644  0.58592  0.75145  1.0000
  H   H924      1.0  0.42210  0.61783  0.74808  1.0000
  C   C1141     1.0  0.34333  0.88300  0.89616  1.0000
  C   C1142     1.0  0.34415  0.86923  0.88047  1.0000
  C   C1143     1.0  0.33729  0.86519  0.85271  1.0000
  C   C1144     1.0  0.32924  0.87479  0.84016  1.0000
  C   C1145     1.0  0.32850  0.88861  0.85583  1.0000
  C   C1146     1.0  0.33551  0.89273  0.88350  1.0000
  H   H925      1.0  0.35012  0.86157  0.88991  1.0000
  H   H926      1.0  0.33803  0.85452  0.84115  1.0000
  H   H927      1.0  0.32238  0.89618  0.84647  1.0000
  H   H928      1.0  0.33470  0.90334  0.89510  1.0000
  C   C1147     1.0  0.33469  0.89000  0.58996  1.0000
  C   C1148     1.0  0.34294  0.87886  0.58908  1.0000
  C   C1149     1.0  0.34200  0.86804  0.61159  1.0000
  C   C1150     1.0  0.33295  0.86822  0.63547  1.0000
  C   C1151     1.0  0.32466  0.87931  0.63629  1.0000
  C   C1152     1.0  0.32552  0.89007  0.61372  1.0000
  H   H929      1.0  0.35008  0.87863  0.57109  1.0000
  H   H930      1.0  0.34853  0.85959  0.61063  1.0000
  H   H931      1.0  0.31761  0.87964  0.65435  1.0000
  H   H932      1.0  0.31911  0.89861  0.61478  1.0000
  C   C1153     1.0  0.47274  0.91128  0.60671  1.0000
  H   H933      1.0  0.28229  0.84844  0.64250  1.0000
  P   P39       1.0  0.38124  0.56551  0.62336  1.0000
  C   C1154     1.0  0.43997  0.91700  0.50699  1.0000
  S   S182      1.0  0.48256  0.61362  0.97309  1.0000
  C   C1155     1.0  0.39602  0.81211  0.83849  1.0000
  C   C1156     1.0  0.38080  0.53750  0.69174  1.0000
  H   H934      1.0  0.42096  0.54883  0.82423  1.0000
  H   H935      1.0  0.44008  0.90856  0.52344  1.0000
  C   C1157     1.0  0.29406  0.86914  0.53392  1.0000
  H   H936      1.0  0.42736  0.63234  0.66777  1.0000
  H   H937      1.0  0.30932  0.49296  0.60234  1.0000
  C   C1158     1.0  0.43100  0.98154  0.62296  1.0000
  H   H938      1.0  0.47377  0.92933  0.89755  1.0000
  C   C1159     1.0  0.45421  0.92433  0.49036  1.0000
  C   C1160     1.0  0.34967  0.49433  0.59954  1.0000
  H   H939      1.0  0.28099  0.80986  0.50909  1.0000
  H   H940      1.0  0.40609  0.84725  0.94946  1.0000
  H   H941      1.0  0.36408  0.80380  0.67536  1.0000
  C   C1161     1.0  0.45002  0.96088  0.53802  1.0000
  C   C1162     1.0  0.39491  0.82189  0.60750  1.0000
  H   H942      1.0  0.29785  0.76769  0.52042  1.0000
  S   S183      1.0  0.46818  0.84837  0.79598  1.0000
  C   C1163     1.0  0.43854  0.87417  0.51217  1.0000
  C   C1164     1.0  0.41749  0.85072  0.60129  1.0000
  C   C1165     1.0  0.39995  0.83913  0.60017  1.0000
  C   C1166     1.0  0.40887  0.88046  0.60726  1.0000
  C   C1167     1.0  0.39559  0.53316  0.83932  1.0000
  C   C1168     1.0  0.44904  0.88388  0.63578  1.0000
  C   C1169     1.0  0.46541  0.89410  0.64785  1.0000
  H   H943      1.0  0.23634  0.55137  0.66246  1.0000
  C   C1170     1.0  0.40482  0.89289  0.59391  1.0000
  C   C1171     1.0  0.39266  0.89799  0.60479  1.0000
  C   C1172     1.0  0.38490  0.89116  0.62958  1.0000
  C   C1173     1.0  0.38944  0.87935  0.64367  1.0000
  C   C1174     1.0  0.40149  0.87412  0.63271  1.0000
  C   C1175     1.0  0.28095  0.80887  0.65673  1.0000
  H   H944      1.0  0.30421  0.83890  0.85187  1.0000
  H   H945      1.0  0.39017  0.84354  0.59429  1.0000
  H   H946      1.0  0.44004  0.87333  0.64741  1.0000
  H   H947      1.0  0.46906  0.89113  0.66823  1.0000
  H   H948      1.0  0.39622  0.95669  0.85262  1.0000
  H   H949      1.0  0.41092  0.89852  0.57497  1.0000
  H   H950      1.0  0.38913  0.90713  0.59380  1.0000
  H   H951      1.0  0.37531  0.89495  0.63785  1.0000
  H   H952      1.0  0.38349  0.87415  0.66302  1.0000
  H   H953      1.0  0.40496  0.86506  0.64406  1.0000
  C   C1176     1.0  0.42075  0.82653  0.81060  1.0000
  C   C1177     1.0  0.42231  0.84263  0.82078  1.0000
  C   C1178     1.0  0.41080  0.84363  0.84014  1.0000
  C   C1179     1.0  0.39756  0.82821  0.84875  1.0000
  P   P40       1.0  0.41167  0.86441  0.85128  1.0000
  C   C1180     1.0  0.43403  0.88004  0.85270  1.0000
  C   C1181     1.0  0.39997  0.87128  0.82589  1.0000
  C   C1182     1.0  0.40114  0.88825  0.82757  1.0000
  C   C1183     1.0  0.39218  0.89371  0.80797  1.0000
  C   C1184     1.0  0.38236  0.88241  0.78617  1.0000
  C   C1185     1.0  0.38148  0.86566  0.78400  1.0000
  C   C1186     1.0  0.39011  0.86003  0.80383  1.0000
  C   C1187     1.0  0.44414  0.88393  0.87767  1.0000
  C   C1188     1.0  0.46182  0.89457  0.87778  1.0000
  C   C1189     1.0  0.47730  0.90769  0.63323  1.0000
  C   C1190     1.0  0.45954  0.89816  0.82831  1.0000
  C   C1191     1.0  0.44183  0.88757  0.82811  1.0000
  C   C1192     1.0  0.40301  0.86284  0.88552  1.0000
  C   C1193     1.0  0.40778  0.85411  0.90637  1.0000
  C   C1194     1.0  0.40200  0.85362  0.93333  1.0000
  C   C1195     1.0  0.39128  0.86170  0.93964  1.0000
  C   C1196     1.0  0.38616  0.87005  0.91892  1.0000
  C   C1197     1.0  0.39186  0.87054  0.89193  1.0000
  H   H954      1.0  0.42969  0.82597  0.79558  1.0000
  H   H955      1.0  0.43247  0.85417  0.81316  1.0000
  H   H956      1.0  0.38833  0.82862  0.86316  1.0000
  H   H957      1.0  0.40882  0.89718  0.84424  1.0000
  H   H958      1.0  0.39278  0.90666  0.80970  1.0000
  H   H959      1.0  0.37537  0.88659  0.77098  1.0000
  H   H960      1.0  0.37403  0.85692  0.76696  1.0000
  H   H961      1.0  0.38906  0.84693  0.80158  1.0000
  H   H962      1.0  0.43867  0.87872  0.89716  1.0000
  C   C1198     1.0  0.25624  0.79249  0.49101  1.0000
  C   C1199     1.0  0.37220  0.52547  0.80419  1.0000
  H   H963      1.0  0.43436  0.88469  0.80852  1.0000
  H   H964      1.0  0.41633  0.84804  0.90192  1.0000
  H   H965      1.0  0.26203  0.54563  0.67179  1.0000
  C   C1200     1.0  0.27191  0.77558  0.94569  1.0000
  H   H966      1.0  0.37791  0.87637  0.92387  1.0000
  H   H967      1.0  0.38753  0.87704  0.87644  1.0000
  C   C1201     1.0  0.42381  0.87300  0.55498  1.0000
  C   C1202     1.0  0.31531  0.85749  0.96252  1.0000
  C   C1203     1.0  0.48047  0.86548  0.60579  1.0000
  C   C1204     1.0  0.28046  0.77101  0.65195  1.0000
  C   C1205     1.0  0.26412  0.84871  0.52658  1.0000
  H   H968      1.0  0.46241  0.98310  0.51327  1.0000
  C   C1206     1.0  0.48458  0.55250  0.54387  1.0000
  H   H969      1.0  0.31916  0.86790  0.97820  1.0000
  H   H970      1.0  0.31653  0.55193  0.85833  1.0000
  C   C1207     1.0  0.40137  0.61229  0.66653  1.0000
  C   C1208     1.0  0.29115  0.80728  0.63553  1.0000
  C   C1209     1.0  0.33129  0.49329  0.83664  1.0000
  C   C1210     1.0  0.32885  0.54521  0.63047  1.0000
  C   C1211     1.0  0.44089  0.70601  0.66026  1.0000
  C   C1212     1.0  0.28341  0.50353  0.85129  1.0000
  C   C1213     1.0  0.46415  0.97572  0.53024  1.0000
  H   H971      1.0  0.35878  0.97695  0.57883  1.0000
  C   C1214     1.0  0.41855  0.61967  0.65914  1.0000
  H   H972      1.0  0.44352  0.85313  0.60813  1.0000
  C   C1215     1.0  0.27858  0.76324  0.94273  1.0000
  C   C1216     1.0  0.40736  0.54196  0.81906  1.0000
  C   C1217     1.0  0.33168  0.50761  0.85194  1.0000
  H   H973      1.0  0.48207  0.92159  0.59515  1.0000
  C   C1218     1.0  0.26611  0.57188  0.72818  1.0000
  C   C1219     1.0  0.43482  0.71662  0.61678  1.0000
  C   C1220     1.0  0.38637  0.98561  0.57881  1.0000
  C   C1221     1.0  0.31732  0.79379  0.64829  1.0000
  Fe  Fe95      1.0  0.47399  0.66264  0.76045  1.0000
  C   C1222     1.0  0.42542  0.90828  0.96493  1.0000
  C   C1223     1.0  0.27019  0.75785  0.69600  1.0000
  H   H974      1.0  0.27343  0.75148  0.95441  1.0000
  C   C1224     1.0  0.32114  0.78078  0.66033  1.0000
  C   C1225     1.0  0.45229  0.97268  0.92116  1.0000
  C   C1226     1.0  0.26992  0.56136  0.70956  1.0000
  H   H975      1.0  0.34867  0.53649  0.63770  1.0000
  H   H976      1.0  0.41363  0.83052  0.52680  1.0000
  H   H977      1.0  0.24700  0.73426  0.69398  1.0000
  H   H978      1.0  0.45310  0.90412  0.57403  1.0000
  H   H979      1.0  0.43451  0.82284  0.62161  1.0000
  H   H980      1.0  0.44996  0.87532  0.55288  1.0000
  C   C1227     1.0  0.38919  0.52743  0.68311  1.0000
  C   C1228     1.0  0.30865  0.85935  0.93649  1.0000
  H   H981      1.0  0.28108  0.55867  0.71373  1.0000
  H   H982      1.0  0.27437  0.57731  0.74672  1.0000
  C   C1229     1.0  0.35500  0.57619  0.61390  1.0000
  C   C1230     1.0  0.37644  0.57003  0.81847  1.0000
  C   C1231     1.0  0.36425  0.57365  0.83247  1.0000
  C   C1232     1.0  0.36965  0.58802  0.85090  1.0000
  C   C1233     1.0  0.38725  0.59876  0.85528  1.0000
  C   C1234     1.0  0.39959  0.59512  0.84141  1.0000
  C   C1235     1.0  0.39405  0.58070  0.82281  1.0000
  P   P41       1.0  0.42220  0.60958  0.84675  1.0000
  C   C1236     1.0  0.42456  0.63109  0.83815  1.0000
  C   C1237     1.0  0.42969  0.60862  0.88208  1.0000
  C   C1238     1.0  0.44732  0.61748  0.88983  1.0000
  C   C1239     1.0  0.45320  0.61704  0.91714  1.0000
  C   C1240     1.0  0.44170  0.60708  0.93664  1.0000
  C   C1241     1.0  0.42432  0.59749  0.92875  1.0000
  C   C1242     1.0  0.41829  0.59830  0.90166  1.0000
  C   C1243     1.0  0.41376  0.63295  0.81702  1.0000
  C   C1244     1.0  0.41552  0.64942  0.80976  1.0000
  C   C1245     1.0  0.42823  0.66421  0.82310  1.0000
  C   C1246     1.0  0.43919  0.66253  0.84386  1.0000
  C   C1247     1.0  0.43735  0.64606  0.85145  1.0000
  C   C1248     1.0  0.43509  0.60319  0.82422  1.0000
  C   C1249     1.0  0.44198  0.61239  0.80032  1.0000
  C   C1250     1.0  0.45219  0.60739  0.78345  1.0000
  C   C1251     1.0  0.45576  0.59333  0.79043  1.0000
  C   C1252     1.0  0.44894  0.58411  0.81418  1.0000
  C   C1253     1.0  0.43858  0.58896  0.83095  1.0000
  H   H983      1.0  0.37216  0.55911  0.80376  1.0000
  H   H984      1.0  0.35062  0.56544  0.82859  1.0000
  H   H985      1.0  0.36019  0.59100  0.86141  1.0000
  H   H986      1.0  0.39127  0.61005  0.86925  1.0000
  H   H987      1.0  0.40314  0.57783  0.81112  1.0000
  H   H988      1.0  0.45660  0.62476  0.87480  1.0000
  H   H989      1.0  0.46679  0.62422  0.92300  1.0000
  H   H990      1.0  0.44634  0.60643  0.95766  1.0000
  H   H991      1.0  0.41556  0.58911  0.94346  1.0000
  H   H992      1.0  0.40483  0.59055  0.89613  1.0000
  H   H993      1.0  0.40413  0.62172  0.80571  1.0000
  H   H994      1.0  0.40722  0.65074  0.79329  1.0000
  H   H995      1.0  0.42979  0.67696  0.81691  1.0000
  H   H996      1.0  0.44930  0.67401  0.85380  1.0000
  H   H997      1.0  0.44613  0.64527  0.86739  1.0000
  H   H998      1.0  0.43985  0.62365  0.79484  1.0000
  H   H999      1.0  0.45784  0.61486  0.76547  1.0000
  H   H1000     1.0  0.24382  0.73341  0.64234  1.0000
  H   H1001     1.0  0.45192  0.57340  0.81989  1.0000
  H   H1002     1.0  0.43343  0.58178  0.84935  1.0000
  C   C1254     1.0  0.33352  0.81121  0.83625  1.0000
  C   C1255     1.0  0.34983  0.82002  0.84931  1.0000
  C   C1256     1.0  0.35141  0.82643  0.87673  1.0000
  C   C1257     1.0  0.33668  0.82442  0.89083  1.0000
  C   C1258     1.0  0.32026  0.81609  0.87743  1.0000
  C   C1259     1.0  0.31879  0.80911  0.85027  1.0000
  P   P42       1.0  0.30107  0.81390  0.89471  1.0000
  C   C1260     1.0  0.29204  0.79374  0.91263  1.0000
  C   C1261     1.0  0.30647  0.83111  0.92100  1.0000
  C   C1262     1.0  0.31310  0.82933  0.94735  1.0000
  S   S184      1.0  0.33529  0.49493  0.93258  1.0000
  H   H1003     1.0  0.25573  0.63081  0.65978  1.0000
  C   C1263     1.0  0.24033  0.61354  0.62618  1.0000
  C   C1264     1.0  0.30424  0.84625  0.91579  1.0000
  H   H1004     1.0  0.24489  0.73974  0.77991  1.0000
  H   H1005     1.0  0.33398  0.51940  0.89297  1.0000
  H   H1006     1.0  0.46440  0.54886  0.86119  1.0000
  C   C1265     1.0  0.45963  0.97385  0.94811  1.0000
  C   C1266     1.0  0.29865  0.78128  0.90969  1.0000
  C   C1267     1.0  0.28609  0.81459  0.86774  1.0000
  C   C1268     1.0  0.26991  0.80053  0.86266  1.0000
  C   C1269     1.0  0.31750  0.84246  0.96796  1.0000
  H   H1007     1.0  0.29711  0.75653  0.92252  1.0000
  C   C1270     1.0  0.28087  0.82814  0.82647  1.0000
  C   C1271     1.0  0.29152  0.82829  0.84924  1.0000
  H   H1008     1.0  0.33233  0.80627  0.81497  1.0000
  H   H1009     1.0  0.36113  0.82195  0.83786  1.0000
  H   H1010     1.0  0.36405  0.83327  0.88693  1.0000
  H   H1011     1.0  0.33823  0.82977  0.91182  1.0000
  H   H1012     1.0  0.30628  0.80237  0.83955  1.0000
  H   H1013     1.0  0.31510  0.81788  0.95188  1.0000
  C   C1272     1.0  0.47426  0.63709  0.60316  1.0000
  C   C1273     1.0  0.45936  0.98238  0.63202  1.0000
  C   C1274     1.0  0.48504  0.76252  0.63986  1.0000
  H   H1014     1.0  0.29938  0.84826  0.89582  1.0000
  C   C1275     1.0  0.27863  0.79079  0.93074  1.0000
  C   C1276     1.0  0.45309  0.56093  0.48707  1.0000
  H   H1015     1.0  0.45807  0.53859  0.49585  1.0000
  C   C1277     1.0  0.44972  0.82315  0.52784  1.0000
  H   H1016     1.0  0.30905  0.78328  0.89599  1.0000
  C   C1278     1.0  0.39463  0.98162  0.91991  1.0000
  C   C1279     1.0  0.33629  0.49524  0.89563  1.0000
  H   H1017     1.0  0.46560  0.90332  0.80908  1.0000
  H   H1018     1.0  0.28532  0.83877  0.81224  1.0000
  H   H1019     1.0  0.44964  0.84605  0.96391  1.0000
  C   C1280     1.0  0.38311  0.98801  0.50021  1.0000
  C   C1281     1.0  0.28559  0.51462  0.82903  1.0000
  H   H1020     1.0  0.34072  0.77447  0.67986  1.0000
  H   H1021     1.0  0.30005  0.84584  0.60470  1.0000
  H   H1022     1.0  0.47661  0.52933  0.96752  1.0000
  H   H1023     1.0  0.31282  0.75910  0.55817  1.0000
  H   H1024     1.0  0.39731  0.86957  0.54907  1.0000
  H   H1025     1.0  0.26159  0.77340  0.95968  1.0000
  C   C1282     1.0  0.38453  0.55066  0.64664  1.0000
  H   H1026     1.0  0.38570  0.80027  0.84502  1.0000
  C   C1283     1.0  0.37854  0.54914  0.67368  1.0000
  C   C1284     1.0  0.33410  0.50851  0.88125  1.0000
  H   H1027     1.0  0.45337  0.77786  0.79416  1.0000
  C   C1285     1.0  0.27018  0.80873  0.49560  1.0000
  C   C1286     1.0  0.42893  0.83217  0.49133  1.0000
  H   H1028     1.0  0.29945  0.88780  0.56786  1.0000
  H   H1029     1.0  0.44258  0.53127  0.95379  1.0000
  C   C1287     1.0  0.30504  0.77160  0.59072  1.0000
  C   C1288     1.0  0.42993  0.84456  0.60796  1.0000
  C   C1289     1.0  0.44461  0.88694  0.60866  1.0000
  C   C1290     1.0  0.25978  0.85639  0.54920  1.0000
  H   H1030     1.0  0.36356  0.56093  0.89602  1.0000
  H   H1031     1.0  0.46232  0.85379  0.85279  1.0000
  H   H1032     1.0  0.31263  0.53257  0.89813  1.0000
  H   H1033     1.0  0.43792  0.97019  0.65830  1.0000
  S   S185      1.0  0.46879  0.64733  0.65515  1.0000
  H   H1034     1.0  0.37669  0.93702  0.58549  1.0000
  C   C1291     1.0  0.45312  0.57815  0.67492  1.0000
  H   H1035     1.0  0.29252  0.78171  0.69243  1.0000
  H   H1036     1.0  0.42284  0.56579  0.90812  1.0000
  H   H1037     1.0  0.46047  0.97722  0.90365  1.0000
  H   H1038     1.0  0.41270  0.97023  0.53197  1.0000
  H   H1039     1.0  0.46921  0.94856  0.59099  1.0000
  C   C1292     1.0  0.34746  0.81399  0.65560  1.0000
  C   C1293     1.0  0.29437  0.83528  0.61877  1.0000
  H   H1040     1.0  0.32824  0.82077  0.63689  1.0000
  C   C1294     1.0  0.29744  0.53202  0.83172  1.0000
  H   H1041     1.0  0.44093  0.93930  0.56515  1.0000
  H   H1042     1.0  0.37578  0.53614  0.71232  1.0000
  C   C1295     1.0  0.48357  0.81595  0.82245  1.0000
  H   H1043     1.0  0.46940  0.65685  0.50308  1.0000
  C   C1296     1.0  0.46399  0.59537  0.68315  1.0000
  C   C1297     1.0  0.24963  0.53865  0.77221  1.0000
  H   H1044     1.0  0.39052  0.51813  0.69697  1.0000
  H   H1045     1.0  0.30082  0.83866  0.54424  1.0000
  C   C1298     1.0  0.39024  0.53750  0.92632  1.0000
  C   C1299     1.0  0.39733  0.56926  0.54317  1.0000
  C   C1300     1.0  0.35109  0.80100  0.66762  1.0000
  C   C1301     1.0  0.33068  0.81042  0.64590  1.0000
  C   C1302     1.0  0.28437  0.83679  0.64011  1.0000
  H   H1046     1.0  0.30635  0.82017  0.60078  1.0000
  H   H1047     1.0  0.45795  0.81997  0.54214  1.0000
  H   H1048     1.0  0.46599  0.55603  0.56916  1.0000
  C   C1303     1.0  0.42193  0.98246  0.52464  1.0000
  C   C1304     1.0  0.29792  0.82070  0.61665  1.0000
  C   C1305     1.0  0.44938  0.57247  0.90077  1.0000
  C   C1306     1.0  0.27764  0.82357  0.65903  1.0000
  H   H1049     1.0  0.27025  0.82489  0.67608  1.0000
  H   H1050     1.0  0.40233  0.90930  0.97953  1.0000
  C   C1307     1.0  0.33791  0.78444  0.67013  1.0000
  H   H1051     1.0  0.24651  0.85150  0.55516  1.0000
  H   H1052     1.0  0.39686  0.61928  0.68088  1.0000
  C   C1308     1.0  0.39648  0.96304  0.58196  1.0000
  P   P43       1.0  0.29600  0.78851  0.63308  1.0000
  H   H1053     1.0  0.31175  0.76777  0.60680  1.0000
  H   H1054     1.0  0.40351  0.80289  0.62206  1.0000
  C   C1309     1.0  0.43166  0.56216  0.89709  1.0000
  C   C1310     1.0  0.40737  0.81605  0.61539  1.0000
  H   H1055     1.0  0.32975  0.51779  0.84127  1.0000
  C   C1311     1.0  0.45637  0.90110  0.59458  1.0000
  C   C1312     1.0  0.37111  0.55451  0.90453  1.0000
  H   H1056     1.0  0.32844  0.83798  0.55885  1.0000
  C   C1313     1.0  0.43438  0.96485  0.91645  1.0000
  H   H1057     1.0  0.45843  0.56982  0.66584  1.0000
  C   C1314     1.0  0.42486  0.82733  0.61530  1.0000
  C   C1315     1.0  0.29598  0.78152  0.59737  1.0000
  C   C1316     1.0  0.48211  0.86259  0.82280  1.0000
  C   C1317     1.0  0.46679  0.50143  0.97152  1.0000
  H   H1058     1.0  0.24882  0.58323  0.73800  1.0000
  H   H1059     1.0  0.31122  0.76775  0.66205  1.0000
  C   C1318     1.0  0.28784  0.78094  0.54833  1.0000
  C   C1319     1.0  0.40156  0.54232  0.79165  1.0000
  C   C1320     1.0  0.24042  0.56741  0.69982  1.0000
  C   C1321     1.0  0.42543  0.92020  0.50183  1.0000
  C   C1322     1.0  0.44233  0.97732  0.63954  1.0000
  H   H1060     1.0  0.42248  0.95386  0.98261  1.0000
  C   C1323     1.0  0.42386  0.87267  0.49659  1.0000
  C   C1324     1.0  0.46523  0.78689  0.80481  1.0000
  H   H1061     1.0  0.47174  0.57479  0.71934  1.0000
  C   C1325     1.0  0.39058  0.54076  0.89783  1.0000
  S   S186      1.0  0.37713  0.50481  0.49878  1.0000
  H   H1062     1.0  0.37262  0.95820  0.92927  1.0000
  C   C1326     1.0  0.41595  0.91305  0.98384  1.0000
  H   H1063     1.0  0.27346  0.80034  0.93339  1.0000
  H   H1064     1.0  0.36843  0.51894  0.84697  1.0000
  H   H1065     1.0  0.48265  0.78576  0.65269  1.0000
  C   C1327     1.0  0.28211  0.77117  0.68109  1.0000
  C   C1328     1.0  0.24082  0.60507  0.67390  1.0000
  H   H1066     1.0  0.40041  0.58714  0.57709  1.0000
  H   H1067     1.0  0.25331  0.50793  0.73050  1.0000
  C   C1329     1.0  0.32579  0.83958  0.53715  1.0000
  H   H1068     1.0  0.31869  0.53315  0.63672  1.0000
  C   C1330     1.0  0.38439  0.56064  0.58785  1.0000
  C   C1331     1.0  0.44303  0.91298  0.97041  1.0000
  H   H1069     1.0  0.46643  0.94568  0.93314  1.0000
  C   C1332     1.0  0.46956  0.90152  0.85310  1.0000
  C   C1333     1.0  0.25635  0.74433  0.68208  1.0000
  C   C1334     1.0  0.43845  0.87412  0.54122  1.0000
  C   C1335     1.0  0.31018  0.84008  0.52879  1.0000
  H   H1070     1.0  0.39770  0.53111  0.93523  1.0000
  H   H1071     1.0  0.37326  0.97751  0.51063  1.0000
  C   C1336     1.0  0.47119  0.66625  0.48712  1.0000
  C   C1337     1.0  0.40890  0.87081  0.53912  1.0000
  H   H1072     1.0  0.41062  0.54932  0.77620  1.0000
  H   H1073     1.0  0.46617  0.70122  0.58700  1.0000
  C   C1338     1.0  0.25461  0.74393  0.65304  1.0000
  H   H1074     1.0  0.27160  0.75819  0.71849  1.0000
  H   H1075     1.0  0.44436  0.87250  0.96477  1.0000
  P   P44       1.0  0.40277  0.53335  0.87531  1.0000
  H   H1076     1.0  0.29881  0.54055  0.81460  1.0000
  S   S187      1.0  0.47206  0.56401  0.95498  1.0000
  C   C1339     1.0  0.45675  0.60593  0.69451  1.0000
  C   C1340     1.0  0.46808  0.80416  0.80946  1.0000
  H   H1077     1.0  0.47137  0.85327  0.61333  1.0000
  C   C1341     1.0  0.42408  0.53480  0.97936  1.0000
  C   C1342     1.0  0.26663  0.75725  0.63795  1.0000
  C   C1343     1.0  0.40901  0.87082  0.51005  1.0000
  C   C1344     1.0  0.38128  0.54973  0.88719  1.0000
  H   H1078     1.0  0.40193  0.52125  0.64960  1.0000
  H   H1079     1.0  0.40564  0.57922  0.52985  1.0000
  C   C1345     1.0  0.24453  0.55712  0.68091  1.0000
  H   H1080     1.0  0.26498  0.75687  0.61552  1.0000
  C   C1346     1.0  0.40771  0.98983  0.90134  1.0000
  C   C1347     1.0  0.38337  0.95539  0.89070  1.0000
  C   C1348     1.0  0.41327  0.59407  0.63046  1.0000
  H   H1081     1.0  0.27958  0.79306  0.58056  1.0000
  H   H1082     1.0  0.43798  0.61613  0.63618  1.0000
  C   C1349     1.0  0.47565  0.86227  0.84940  1.0000
  C   C1350     1.0  0.40012  0.98070  0.57972  1.0000
  H   H1083     1.0  0.37396  0.94209  0.88673  1.0000
  H   H1084     1.0  0.43999  0.74637  0.70066  1.0000
  C   C1351     1.0  0.48113  0.77111  0.72422  1.0000
  H   H1085     1.0  0.46468  0.61940  0.70004  1.0000
  C   C1352     1.0  0.38400  0.53395  0.78419  1.0000
  C   C1353     1.0  0.29718  0.77140  0.54187  1.0000
  C   C1354     1.0  0.28705  0.78584  0.57598  1.0000
  H   H1086     1.0  0.42572  0.71839  0.60241  1.0000
  C   C1355     1.0  0.25357  0.76435  0.75972  1.0000
  C   C1356     1.0  0.42558  0.54712  0.87987  1.0000
  H   H1087     1.0  0.28126  0.78458  0.53185  1.0000
  C   C1357     1.0  0.42475  0.82908  0.51919  1.0000
  C   C1358     1.0  0.48198  0.97110  0.56648  1.0000
  C   C1359     1.0  0.47702  0.54025  0.58908  1.0000
  S   S188      1.0  0.36453  0.49163  0.57692  1.0000
  C   C1360     1.0  0.48232  0.94284  0.90187  1.0000
  C   C1361     1.0  0.47773  0.78131  0.81372  1.0000
  H   H1088     1.0  0.36727  0.49980  0.63517  1.0000
  C   C1362     1.0  0.40851  0.49390  0.91565  1.0000
  H   H1089     1.0  0.36217  0.55389  0.94606  1.0000
  H   H1090     1.0  0.39854  0.54202  0.61786  1.0000
  C   C1363     1.0  0.36590  0.95564  0.58271  1.0000
  H   H1091     1.0  0.37694  0.59022  0.66250  1.0000
  H   H1092     1.0  0.41475  0.52148  0.97665  1.0000
  C   C1364     1.0  0.45391  0.82618  0.50000  1.0000
  C   C1365     1.0  0.37791  0.52513  0.83164  1.0000
  C   C1366     1.0  0.43537  0.57149  0.67874  1.0000
  C   C1367     1.0  0.35920  0.56291  0.62359  1.0000
  C   C1368     1.0  0.43517  0.82464  0.53743  1.0000
  H   H1093     1.0  0.45844  0.80858  0.80258  1.0000
  Fe  Fe96      1.0  0.35739  0.90651  0.96875  1.0000
  C   C1369     1.0  0.38954  0.55197  0.53339  1.0000
  Fe  Fe97      1.0  0.46838  0.66218  0.69547  1.0000
  S   S189      1.0  0.31240  0.50111  0.66124  1.0000
  C   C1370     1.0  0.43901  0.59921  0.69844  1.0000
  C   C1371     1.0  0.47893  0.86999  0.57795  1.0000
  C   C1372     1.0  0.45379  0.49951  0.91655  1.0000
  S   S190      1.0  0.45445  0.90674  0.94642  1.0000
  C   C1373     1.0  0.37604  0.54344  0.57741  1.0000
  C   C1374     1.0  0.45843  0.71285  0.65478  1.0000
  C   C1375     1.0  0.39581  0.58684  0.63693  1.0000
  H   H1094     1.0  0.48110  0.87213  0.89208  1.0000
  C   C1376     1.0  0.33823  0.84178  0.51768  1.0000
  H   H1095     1.0  0.46407  0.58986  0.77767  1.0000
  C   C1377     1.0  0.28134  0.85500  0.51879  1.0000
  H   H1096     1.0  0.25686  0.81377  0.80331  1.0000
  C   C1378     1.0  0.47972  0.65076  0.62332  1.0000
  C   C1379     1.0  0.42451  0.61053  0.64121  1.0000
  H   H1097     1.0  0.30746  0.87427  0.52841  1.0000
  H   H1098     1.0  0.35052  0.84189  0.52423  1.0000
  C   C1380     1.0  0.46782  0.95620  0.57411  1.0000
  H   H1099     1.0  0.43765  0.95677  0.52685  1.0000
  H   H1100     1.0  0.46736  0.71175  0.67030  1.0000
  C   C1381     1.0  0.43749  0.54230  0.86706  1.0000
  C   C1382     1.0  0.46952  0.51665  0.95743  1.0000
  H   H1101     1.0  0.40673  0.95875  0.58184  1.0000
  C   C1383     1.0  0.29193  0.76609  0.92474  1.0000
  H   H1102     1.0  0.41828  0.58695  0.61738  1.0000
  H   H1103     1.0  0.33472  0.58449  0.60609  1.0000
  H   H1104     1.0  0.26556  0.78944  0.87579  1.0000
  H   H1105     1.0  0.45663  0.73035  0.59218  1.0000
  C   C1384     1.0  0.42832  0.58199  0.69068  1.0000
  H   H1106     1.0  0.42880  0.96342  0.89552  1.0000
  H   H1107     1.0  0.47415  0.68606  0.54991  1.0000
  H   H1108     1.0  0.38162  0.55284  0.86551  1.0000
  C   C1385     1.0  0.48281  0.63876  0.57807  1.0000
  C   C1386     1.0  0.39006  0.59587  0.65576  1.0000
  C   C1387     1.0  0.27253  0.87042  0.56412  1.0000
  C   C1388     1.0  0.28962  0.87681  0.55640  1.0000
  C   C1389     1.0  0.47821  0.95221  0.92220  1.0000
  H   H1109     1.0  0.43645  0.69953  0.67954  1.0000
  H   H1110     1.0  0.43347  0.60745  0.70708  1.0000
  H   H1111     1.0  0.36767  0.53322  0.59029  1.0000
  H   H1112     1.0  0.47546  0.76789  0.81008  1.0000
  C   C1390     1.0  0.42912  0.70798  0.64142  1.0000
  H   H1113     1.0  0.37247  0.52572  0.54299  1.0000
  H   H1114     1.0  0.43302  0.53043  0.85440  1.0000
  C   C1391     1.0  0.44838  0.54314  0.49021  1.0000
  H   H1115     1.0  0.36498  0.58816  0.60701  1.0000
  P   P45       1.0  0.28728  0.84467  0.49046  1.0000
  H   H1116     1.0  0.46330  0.62509  0.60693  1.0000
  C   C1392     1.0  0.39343  0.54088  0.63836  1.0000
  C   C1393     1.0  0.26486  0.81410  0.82150  1.0000
  C   C1394     1.0  0.32204  0.49460  0.60956  1.0000
  H   H1117     1.0  0.37940  0.53915  0.96538  1.0000
  C   C1395     1.0  0.40801  0.98082  0.87672  1.0000
  C   C1396     1.0  0.38005  0.54226  0.94359  1.0000
  H   H1118     1.0  0.47092  0.60340  0.62597  1.0000
  H   H1119     1.0  0.46813  0.97910  0.64486  1.0000
  S   S191      1.0  0.38046  0.49814  0.96193  1.0000
  H   H1120     1.0  0.27791  0.50996  0.80974  1.0000
  H   H1121     1.0  0.41456  0.57692  0.69364  1.0000
  H   H1122     1.0  0.47487  0.57564  0.89121  1.0000
  C   C1397     1.0  0.45231  0.72333  0.61105  1.0000
  C   C1398     1.0  0.43082  0.95940  0.96552  1.0000
  C   C1399     1.0  0.39458  0.57365  0.57019  1.0000
  H   H1123     1.0  0.37188  0.55675  0.68076  1.0000
  C   C1400     1.0  0.24127  0.74746  0.76565  1.0000
  H   H1124     1.0  0.46644  0.57012  0.49011  1.0000
  H   H1125     1.0  0.42707  0.55819  0.67255  1.0000
  C   C1401     1.0  0.39561  0.52921  0.65649  1.0000
  C   C1402     1.0  0.37036  0.55061  0.93268  1.0000
  C   C1403     1.0  0.32482  0.55867  0.62165  1.0000
  C   C1404     1.0  0.45521  0.55268  0.87077  1.0000
  C   C1405     1.0  0.33788  0.57413  0.61320  1.0000
  H   H1126     1.0  0.42182  0.52153  0.91522  1.0000
  C   C1406     1.0  0.46423  0.72149  0.63001  1.0000
  C   C1407     1.0  0.25147  0.57499  0.72332  1.0000
  H   H1127     1.0  0.44848  0.49876  0.89556  1.0000
  H   H1128     1.0  0.38701  0.86165  0.96061  1.0000
  H   H1129     1.0  0.34780  0.50418  0.66850  1.0000
  H   H1130     1.0  0.41694  0.49275  0.93207  1.0000
  C   C1408     1.0  0.46114  0.56781  0.88752  1.0000
  H   H1131     1.0  0.37943  0.53435  0.76306  1.0000
  H   H1132     1.0  0.46489  0.52752  0.91972  1.0000
  C   C1409     1.0  0.46298  0.51566  0.93010  1.0000
  H   H1133     1.0  0.26923  0.87644  0.58161  1.0000
  C   C1410     1.0  0.24649  0.61774  0.65384  1.0000
  C   C1411     1.0  0.47499  0.55016  0.56755  1.0000
  C   C1412     1.0  0.36934  0.97311  0.58012  1.0000
  H   H1134     1.0  0.45016  0.87579  0.50184  1.0000
  H   H1135     1.0  0.41563  0.70300  0.64619  1.0000
  C   C1413     1.0  0.34366  0.50097  0.64683  1.0000
  H   H1136     1.0  0.43207  0.82252  0.55908  1.0000
  C   C1414     1.0  0.44674  0.85073  0.98326  1.0000
  C   C1415     1.0  0.38265  0.96444  0.91474  1.0000
  H   H1137     1.0  0.24495  0.77738  0.65294  1.0000
  H   H1138     1.0  0.26641  0.76939  0.76943  1.0000
  H   H1139     1.0  0.46851  0.86110  0.56436  1.0000
  H   H1140     1.0  0.24709  0.78928  0.83534  1.0000
  C   C1416     1.0  0.37948  0.95065  0.58392  1.0000
  H   H1141     1.0  0.47717  0.59770  0.57807  1.0000
  H   H1142     1.0  0.47806  0.75541  0.65736  1.0000
  C   C1417     1.0  0.45187  0.95103  0.55972  1.0000
  H   H1143     1.0  0.46952  0.53842  0.60740  1.0000
  P   P46       1.0  0.48279  0.98196  0.95290  1.0000
  H   H1144     1.0  0.46960  0.89713  0.89703  1.0000
  C   C1418     1.0  0.45227  0.55740  0.97061  1.0000
  H   H1145     1.0  0.37614  0.49766  0.86081  1.0000
  H   H1146     1.0  0.46543  0.82527  0.49303  1.0000
  H   H1147     1.0  0.29128  0.50226  0.89431  1.0000
  C   C1419     1.0  0.30697  0.84290  0.50086  1.0000
  H   H1148     1.0  0.30746  0.87125  0.93205  1.0000
  C   C1420     1.0  0.29308  0.51024  0.87639  1.0000
  C   C1421     1.0  0.43648  0.99034  0.59819  1.0000
  H   H1149     1.0  0.48323  0.56036  0.52725  1.0000
  S   S192      1.0  0.48155  0.72341  0.73472  1.0000
  C   C1422     1.0  0.42365  0.95824  0.93861  1.0000
  H   H1150     1.0  0.25634  0.78116  0.50073  1.0000
  H   H1151     1.0  0.41800  0.97798  0.62954  1.0000
  C   C1423     1.0  0.42735  0.98297  0.49745  1.0000
  H   H1152     1.0  0.47842  0.62808  0.56290  1.0000
  C   C1424     1.0  0.41117  0.51022  0.90606  1.0000
  C   C1425     1.0  0.35473  0.49856  0.62784  1.0000
  H   H1153     1.0  0.24587  0.60845  0.69521  1.0000
  Fe  Fe98      1.0  0.48034  0.90867  0.96182  1.0000
  Fe  Fe99      1.0  0.39657  0.49406  0.49167  1.0000
  C   C1426     1.0  0.47929  0.70681  0.58030  1.0000
  S   S193      1.0  0.42534  0.50899  0.48906  1.0000
  H   H1154     1.0  0.48339  0.90921  0.85318  1.0000
  H   H1155     1.0  0.48110  0.50459  0.52581  1.0000
  C   C1427     1.0  0.38552  0.49694  0.87567  1.0000
  C   C1428     1.0  0.33324  0.49242  0.59046  1.0000
  S   S194      1.0  0.36660  0.96964  0.98348  1.0000
  H   H1156     1.0  0.41725  0.98702  0.86118  1.0000
  C   C1429     1.0  0.44874  0.96707  0.97029  1.0000
  C   C1430     1.0  0.48037  0.98073  0.54399  1.0000
  H   H1157     1.0  0.39353  0.98855  0.93834  1.0000
  C   C1431     1.0  0.48111  0.59930  0.62271  1.0000
  H   H1158     1.0  0.42164  0.99070  0.95613  1.0000
  S   S195      1.0  0.48496  0.88475  0.95763  1.0000
  C   C1432     1.0  0.44380  0.86567  0.98376  1.0000
  H   H1159     1.0  0.47394  0.86262  0.48639  1.0000
  C   C1433     1.0  0.48377  0.69808  0.55928  1.0000
  H   H1160     1.0  0.48465  0.56412  0.75672  1.0000
  C   C1434     1.0  0.48465  0.59611  0.59557  1.0000
  C   C1435     1.0  0.43114  0.53119  0.48570  1.0000
  C   C1436     1.0  0.49458  0.22351  0.13323  1.0000
  C   C1437     1.0  0.52837  0.00307  0.40298  1.0000
  H   H1161     1.0  0.56982  0.14526  0.27474  1.0000
  H   H1162     1.0  0.50955  0.40341  0.30166  1.0000
  Fe  Fe100     1.0  0.59942  0.09153  0.00355  1.0000
  C   C1438     1.0  0.58911  0.46395  0.25490  1.0000
  S   S196      1.0  0.60600  0.09575  0.05060  1.0000
  C   C1439     1.0  0.50823  0.43513  0.15064  1.0000
  P   P47       1.0  0.72431  0.18381  0.26870  1.0000
  C   C1440     1.0  0.58674  0.13270  0.27079  1.0000
  S   S197      1.0  0.61547  0.12551  0.39677  1.0000
  C   C1441     1.0  0.70777  0.23684  0.30737  1.0000
  C   C1442     1.0  0.53178  0.10634  0.33425  1.0000
  Fe  Fe101     1.0  0.64630  0.16760  0.17833  1.0000
  S   S198      1.0  0.64099  0.19123  0.18340  1.0000
  S   S199      1.0  0.65002  0.16043  0.13350  1.0000
  Fe  Fe102     1.0  0.64599  0.16272  0.24260  1.0000
  S   S200      1.0  0.64096  0.18620  0.25103  1.0000
  S   S201      1.0  0.64654  0.14350  0.27532  1.0000
  Fe  Fe103     1.0  0.62188  0.17599  0.21453  1.0000
  S   S202      1.0  0.59296  0.16693  0.21378  1.0000
  Fe  Fe104     1.0  0.66102  0.19953  0.21905  1.0000
  S   S203      1.0  0.68046  0.22846  0.22388  1.0000
  S   S204      1.0  0.62611  0.15195  0.20735  1.0000
  S   S205      1.0  0.66718  0.17653  0.21278  1.0000
  H   H1163     1.0  0.54826  0.02804  0.41566  1.0000
  S   S206      1.0  0.51209  0.19588  0.30427  1.0000
  C   C1443     1.0  0.58561  0.47736  0.30655  1.0000
  C   C1444     1.0  0.57063  0.46321  0.37125  1.0000
  S   S207      1.0  0.50144  0.19053  0.23627  1.0000
  Fe  Fe105     1.0  0.52238  0.18999  0.26504  1.0000
  S   S208      1.0  0.54975  0.20693  0.25389  1.0000
  C   C1445     1.0  0.55690  0.99277  0.48010  1.0000
  H   H1164     1.0  0.49812  0.29798  0.30519  1.0000
  S   S209      1.0  0.50933  0.16122  0.27004  1.0000
  H   H1165     1.0  0.53136  0.06757  0.28305  1.0000
  S   S210      1.0  0.64557  0.47062  0.26888  1.0000
  H   H1166     1.0  0.67881  0.24872  0.27457  1.0000
  Fe  Fe106     1.0  0.63104  0.46357  0.22738  1.0000
  S   S211      1.0  0.60749  0.43976  0.21082  1.0000
  C   C1446     1.0  0.54994  0.18393  0.32894  1.0000
  S   S212      1.0  0.51821  0.33628  0.29525  1.0000
  H   H1167     1.0  0.71629  0.46067  0.26713  1.0000
  S   S213      1.0  0.52611  0.34380  0.22924  1.0000
  Fe  Fe107     1.0  0.50875  0.32126  0.25433  1.0000
  S   S214      1.0  0.51134  0.29564  0.24518  1.0000
  Fe  Fe108     1.0  0.53383  0.35906  0.26964  1.0000
  S   S215      1.0  0.56163  0.37637  0.28339  1.0000
  C   C1447     1.0  0.65332  0.06784  0.98720  1.0000
  H   H1168     1.0  0.52657  0.02299  0.33174  1.0000
  C   C1448     1.0  0.69297  0.17451  0.33461  1.0000
  C   C1449     1.0  0.57528  0.05338  0.37899  1.0000
  H   H1169     1.0  0.53710  0.40418  0.21472  1.0000
  P   P48       1.0  0.55772  0.13968  0.33176  1.0000
  H   H1170     1.0  0.57025  0.02621  0.37401  1.0000
  H   H1171     1.0  0.50661  0.39302  0.22555  1.0000
  H   H1172     1.0  0.53177  0.32246  0.37042  1.0000
  H   H1173     1.0  0.51699  0.45590  0.44802  1.0000
  H   H1174     1.0  0.71140  0.22206  0.21473  1.0000
  H   H1175     1.0  0.63711  0.37532  0.10300  1.0000
  C   C1450     1.0  0.66023  0.08136  0.00732  1.0000
  H   H1176     1.0  0.49413  0.35421  0.00275  1.0000
  H   H1177     1.0  0.52063  0.38580  0.00853  1.0000
  H   H1178     1.0  0.49877  0.43557  0.10862  1.0000
  C   C1451     1.0  0.73249  0.30568  0.29725  1.0000
  H   H1179     1.0  0.66835  0.18479  0.28800  1.0000
  C   C1452     1.0  0.57422  0.39399  0.26304  1.0000
  C   C1453     1.0  0.56786  0.39695  0.23746  1.0000
  C   C1454     1.0  0.57823  0.41103  0.22168  1.0000
  C   C1455     1.0  0.59494  0.42237  0.23149  1.0000
  C   C1456     1.0  0.60130  0.41948  0.25711  1.0000
  C   C1457     1.0  0.59101  0.40525  0.27270  1.0000
  H   H1180     1.0  0.55502  0.38825  0.22972  1.0000
  H   H1181     1.0  0.57326  0.41318  0.20183  1.0000
  H   H1182     1.0  0.61414  0.42817  0.26482  1.0000
  H   H1183     1.0  0.59608  0.40288  0.29226  1.0000
  H   H1184     1.0  0.61178  0.46764  0.38436  1.0000
  C   C1458     1.0  0.50550  0.24621  0.26037  1.0000
  C   C1459     1.0  0.51209  0.26377  0.25278  1.0000
  C   C1460     1.0  0.50254  0.27366  0.25620  1.0000
  H   H1185     1.0  0.59107  0.44335  0.27756  1.0000
  H   H1186     1.0  0.51308  0.23888  0.25779  1.0000
  H   H1187     1.0  0.52472  0.26972  0.24427  1.0000
  H   H1188     1.0  0.59047  0.13747  0.25024  1.0000
  S   S216      1.0  0.57998  0.09494  0.44376  1.0000
  C   C1461     1.0  0.58220  0.17866  0.22760  1.0000
  C   C1462     1.0  0.58935  0.19680  0.22824  1.0000
  C   C1463     1.0  0.57936  0.20548  0.23652  1.0000
  C   C1464     1.0  0.56236  0.19604  0.24448  1.0000
  C   C1465     1.0  0.55550  0.17799  0.24453  1.0000
  C   C1466     1.0  0.56531  0.16934  0.23589  1.0000
  H   H1189     1.0  0.60230  0.20407  0.22146  1.0000
  H   H1190     1.0  0.58471  0.21949  0.23642  1.0000
  H   H1191     1.0  0.54249  0.17062  0.25064  1.0000
  H   H1192     1.0  0.55955  0.15535  0.23506  1.0000
  C   C1467     1.0  0.62412  0.13033  0.36293  1.0000
  C   C1468     1.0  0.63033  0.11971  0.34891  1.0000
  C   C1469     1.0  0.63702  0.12395  0.32221  1.0000
  C   C1470     1.0  0.63754  0.13877  0.30888  1.0000
  C   C1471     1.0  0.63126  0.14937  0.32279  1.0000
  C   C1472     1.0  0.62472  0.14522  0.34965  1.0000
  H   H1193     1.0  0.63005  0.10825  0.35867  1.0000
  H   H1194     1.0  0.64185  0.11566  0.31175  1.0000
  H   H1195     1.0  0.63158  0.16085  0.31300  1.0000
  H   H1196     1.0  0.62022  0.15371  0.36030  1.0000
  C   C1473     1.0  0.61691  0.11466  0.07268  1.0000
  C   C1474     1.0  0.62875  0.13041  0.06276  1.0000
  C   C1475     1.0  0.63845  0.14439  0.08158  1.0000
  C   C1476     1.0  0.63618  0.14302  0.11046  1.0000
  C   C1477     1.0  0.62380  0.12753  0.12022  1.0000
  C   C1478     1.0  0.61437  0.11342  0.10149  1.0000
  H   H1197     1.0  0.63096  0.13160  0.04074  1.0000
  H   H1198     1.0  0.64802  0.15626  0.07374  1.0000
  H   H1199     1.0  0.62208  0.12616  0.14233  1.0000
  H   H1200     1.0  0.60535  0.10130  0.10947  1.0000
  C   C1479     1.0  0.51625  0.00031  0.35606  1.0000
  H   H1201     1.0  0.59068  0.15005  0.36332  1.0000
  H   H1202     1.0  0.57561  0.11767  0.34598  1.0000
  C   C1480     1.0  0.53482  0.31731  0.35176  1.0000
  H   H1203     1.0  0.54098  0.23330  0.22596  1.0000
  C   C1481     1.0  0.52109  0.43342  0.16732  1.0000
  H   H1204     1.0  0.57339  0.42553  0.37994  1.0000
  H   H1205     1.0  0.52895  0.99728  0.42262  1.0000
  C   C1482     1.0  0.60137  0.02138  0.98662  1.0000
  H   H1206     1.0  0.53115  0.04644  0.41487  1.0000
  H   H1207     1.0  0.72925  0.34180  0.25196  1.0000
  C   C1483     1.0  0.56586  0.41979  0.36086  1.0000
  C   C1484     1.0  0.55468  0.08276  0.37970  1.0000
  C   C1485     1.0  0.57053  0.13784  0.00709  1.0000
  C   C1486     1.0  0.51055  0.21590  0.09874  1.0000
  C   C1487     1.0  0.54910  0.32808  0.33719  1.0000
  H   H1208     1.0  0.56338  0.02274  0.00172  1.0000
  C   C1488     1.0  0.70299  0.24232  0.22065  1.0000
  H   H1209     1.0  0.51026  0.38934  0.39840  1.0000
  H   H1210     1.0  0.49359  0.99742  0.05313  1.0000
  C   C1489     1.0  0.55948  0.42125  0.31177  1.0000
  H   H1211     1.0  0.54022  0.18803  0.33552  1.0000
  C   C1490     1.0  0.53926  0.02047  0.39890  1.0000
  H   H1212     1.0  0.50755  0.03528  0.45037  1.0000
  C   C1491     1.0  0.70330  0.26654  0.29338  1.0000
  H   H1213     1.0  0.58813  0.48674  0.23787  1.0000
  C   C1492     1.0  0.63864  0.46014  0.33537  1.0000
  C   C1493     1.0  0.54344  0.26846  0.19040  1.0000
  H   H1214     1.0  0.52839  0.24173  0.35753  1.0000
  C   C1494     1.0  0.51830  0.26107  0.35937  1.0000
  C   C1495     1.0  0.72709  0.13812  0.28721  1.0000
  H   H1215     1.0  0.70881  0.14890  0.29237  1.0000
  C   C1496     1.0  0.51689  0.99299  0.38161  1.0000
  H   H1216     1.0  0.59515  0.10892  0.32023  1.0000
  C   C1497     1.0  0.50180  0.09776  0.32015  1.0000
  H   H1217     1.0  0.70132  0.27781  0.28751  1.0000
  C   C1498     1.0  0.56903  0.47195  0.39505  1.0000
  H   H1218     1.0  0.66669  0.10832  0.01693  1.0000
  C   C1499     1.0  0.66178  0.09793  0.00115  1.0000
  H   H1219     1.0  0.53534  0.01810  0.46946  1.0000
  H   H1220     1.0  0.71798  0.31306  0.32680  1.0000
  H   H1221     1.0  0.48849  0.41230  0.37651  1.0000
  C   C1500     1.0  0.63335  0.44795  0.12515  1.0000
  H   H1222     1.0  0.53721  0.13472  0.38127  1.0000
  C   C1501     1.0  0.53236  0.46588  0.04211  1.0000
  C   C1502     1.0  0.54416  0.42884  0.23636  1.0000
  C   C1503     1.0  0.54766  0.06519  0.38653  1.0000
  H   H1223     1.0  0.62697  0.45439  0.11315  1.0000
  H   H1224     1.0  0.59531  0.41915  0.33675  1.0000
  C   C1504     1.0  0.55117  0.46057  0.01045  1.0000
  S   S217      1.0  0.57173  0.07301  0.99296  1.0000
  H   H1225     1.0  0.52274  0.21768  0.09031  1.0000
  H   H1226     1.0  0.65541  0.36103  0.17839  1.0000
  H   H1227     1.0  0.49000  0.08682  0.26391  1.0000
  C   C1505     1.0  0.69283  0.18461  0.27963  1.0000
  H   H1228     1.0  0.49787  0.09505  0.98923  1.0000
  H   H1229     1.0  0.56360  0.08735  0.36312  1.0000
  C   C1506     1.0  0.52074  0.43266  0.25801  1.0000
  H   H1230     1.0  0.55813  0.48433  0.03440  1.0000
  C   C1507     1.0  0.55339  0.05461  0.33113  1.0000
  C   C1508     1.0  0.71521  0.48319  0.24901  1.0000
  H   H1231     1.0  0.52387  0.06741  0.44054  1.0000
  H   H1232     1.0  0.56786  0.12456  0.01171  1.0000
  H   H1233     1.0  0.54150  0.06930  0.06413  1.0000
  C   C1509     1.0  0.64289  0.37867  0.12390  1.0000
  H   H1234     1.0  0.54169  0.10309  0.34340  1.0000
  H   H1235     1.0  0.69269  0.18887  0.25862  1.0000
  C   C1510     1.0  0.51673  0.06774  0.00183  1.0000
  H   H1236     1.0  0.56560  0.20835  0.31115  1.0000
  C   C1511     1.0  0.70917  0.18255  0.17538  1.0000
  H   H1237     1.0  0.52088  0.28127  0.30876  1.0000
  H   H1238     1.0  0.51944  0.08103  0.06384  1.0000
  S   S218      1.0  0.65523  0.47344  0.20353  1.0000
  H   H1239     1.0  0.69920  0.26567  0.22572  1.0000
  C   C1512     1.0  0.62480  0.43700  0.14634  1.0000
  H   H1240     1.0  0.48636  0.11703  0.43062  1.0000
  H   H1241     1.0  0.55224  0.28180  0.18710  1.0000
  C   C1513     1.0  0.65862  0.44269  0.13548  1.0000
  C   C1514     1.0  0.65030  0.43211  0.15741  1.0000
  C   C1515     1.0  0.63322  0.42910  0.16242  1.0000
  P   P49       1.0  0.66087  0.42128  0.17745  1.0000
  C   C1516     1.0  0.65497  0.39980  0.16240  1.0000
  C   C1517     1.0  0.49524  0.00793  0.43945  1.0000
  H   H1242     1.0  0.55679  0.34133  0.34456  1.0000
  H   H1243     1.0  0.69293  0.17050  0.35587  1.0000
  C   C1518     1.0  0.64753  0.39537  0.13528  1.0000
  C   C1519     1.0  0.65357  0.41964  0.21259  1.0000
  C   C1520     1.0  0.63916  0.40489  0.22037  1.0000
  C   C1521     1.0  0.63339  0.40379  0.24743  1.0000
  C   C1522     1.0  0.64185  0.41745  0.26684  1.0000
  C   C1523     1.0  0.65597  0.43226  0.25915  1.0000
  C   C1524     1.0  0.66177  0.43337  0.23216  1.0000
  H   H1244     1.0  0.61178  0.43495  0.15084  1.0000
  C   C1525     1.0  0.72354  0.47266  0.25698  1.0000
  Fe  Fe109     1.0  0.49680  0.34486  0.28913  1.0000
  C   C1526     1.0  0.49330  0.09298  0.09401  1.0000
  H   H1245     1.0  0.62639  0.42089  0.17900  1.0000
  H   H1246     1.0  0.65690  0.45936  0.10339  1.0000
  H   H1247     1.0  0.52187  0.43061  0.08686  1.0000
  H   H1248     1.0  0.64526  0.40475  0.12283  1.0000
  H   H1249     1.0  0.63218  0.39434  0.20550  1.0000
  H   H1250     1.0  0.62215  0.39250  0.25325  1.0000
  H   H1251     1.0  0.63725  0.41670  0.28765  1.0000
  H   H1252     1.0  0.66240  0.44306  0.27392  1.0000
  H   H1253     1.0  0.67255  0.44509  0.22671  1.0000
  H   H1254     1.0  0.51637  0.44050  0.27075  1.0000
  C   C1527     1.0  0.53593  0.12324  0.32551  1.0000
  H   H1255     1.0  0.66348  0.39042  0.19885  1.0000
  C   C1528     1.0  0.53261  0.41231  0.22657  1.0000
  H   H1256     1.0  0.50436  0.37867  0.05165  1.0000
  C   C1529     1.0  0.50502  0.07514  0.00402  1.0000
  C   C1530     1.0  0.49842  0.11070  0.09920  1.0000
  H   H1257     1.0  0.71454  0.47567  0.18591  1.0000
  C   C1531     1.0  0.71659  0.28512  0.39733  1.0000
  C   C1532     1.0  0.50902  0.09172  0.13602  1.0000
  C   C1533     1.0  0.51470  0.10966  0.14088  1.0000
  C   C1534     1.0  0.50910  0.11906  0.12253  1.0000
  P   P50       1.0  0.52873  0.12005  0.17098  1.0000
  C   C1535     1.0  0.51671  0.10923  0.20060  1.0000
  C   C1536     1.0  0.54891  0.11797  0.16852  1.0000
  C   C1537     1.0  0.56208  0.12563  0.18924  1.0000
  C   C1538     1.0  0.57792  0.12473  0.18704  1.0000
  C   C1539     1.0  0.58094  0.11641  0.16400  1.0000
  C   C1540     1.0  0.56804  0.10889  0.14310  1.0000
  C   C1541     1.0  0.55211  0.10968  0.14522  1.0000
  C   C1542     1.0  0.49897  0.10503  0.20083  1.0000
  C   C1543     1.0  0.71859  0.26828  0.30751  1.0000
  C   C1544     1.0  0.69124  0.45200  0.18149  1.0000
  H   H1258     1.0  0.50383  0.10016  0.38905  1.0000
  C   C1545     1.0  0.52464  0.10491  0.22345  1.0000
  C   C1546     1.0  0.53292  0.14280  0.17421  1.0000
  C   C1547     1.0  0.51989  0.14764  0.18235  1.0000
  C   C1548     1.0  0.52322  0.16514  0.18573  1.0000
  C   C1549     1.0  0.53955  0.17802  0.18091  1.0000
  C   C1550     1.0  0.55252  0.17341  0.17238  1.0000
  C   C1551     1.0  0.54925  0.15591  0.16900  1.0000
  C   C1552     1.0  0.49682  0.36973  0.36615  1.0000
  C   C1553     1.0  0.49083  0.37937  0.14270  1.0000
  H   H1259     1.0  0.51262  0.42544  0.01223  1.0000
  H   H1260     1.0  0.51297  0.08419  0.15024  1.0000
  H   H1261     1.0  0.51274  0.13274  0.12625  1.0000
  H   H1262     1.0  0.56035  0.13279  0.20676  1.0000
  H   H1263     1.0  0.58814  0.13103  0.20275  1.0000
  H   H1264     1.0  0.59342  0.11619  0.16209  1.0000
  H   H1265     1.0  0.57057  0.10279  0.12492  1.0000
  H   H1266     1.0  0.54270  0.10427  0.12813  1.0000
  C   C1554     1.0  0.50741  0.29354  0.39551  1.0000
  H   H1267     1.0  0.59083  0.45893  0.23497  1.0000
  H   H1268     1.0  0.57581  0.14747  0.44768  1.0000
  C   C1555     1.0  0.62313  0.46193  0.33508  1.0000
  H   H1269     1.0  0.53817  0.10771  0.22397  1.0000
  H   H1270     1.0  0.50716  0.13806  0.18648  1.0000
  H   H1271     1.0  0.51319  0.16866  0.19279  1.0000
  H   H1272     1.0  0.54231  0.19157  0.18469  1.0000
  H   H1273     1.0  0.56538  0.18339  0.16960  1.0000
  H   H1274     1.0  0.55972  0.15283  0.16315  1.0000
  C   C1556     1.0  0.67916  0.18267  0.29640  1.0000
  C   C1557     1.0  0.60478  0.07251  0.39415  1.0000
  H   H1275     1.0  0.59953  0.03062  0.38940  1.0000
  C   C1558     1.0  0.48651  0.14254  0.37578  1.0000
  H   H1276     1.0  0.60877  0.48320  0.42595  1.0000
  H   H1277     1.0  0.51583  0.28341  0.46093  1.0000
  H   H1278     1.0  0.58144  0.48592  0.43297  1.0000
  H   H1279     1.0  0.61030  0.48710  0.10023  1.0000
  H   H1280     1.0  0.55045  0.99377  0.02287  1.0000
  H   H1281     1.0  0.51494  0.05629  0.01324  1.0000
  C   C1559     1.0  0.53708  0.24118  0.21232  1.0000
  C   C1560     1.0  0.50592  0.11439  0.31053  1.0000
  H   H1282     1.0  0.49785  0.43710  0.16007  1.0000
  C   C1561     1.0  0.56431  0.19541  0.31548  1.0000
  H   H1283     1.0  0.54726  0.45180  0.25992  1.0000
  Fe  Fe110     1.0  0.48744  0.16198  0.24377  1.0000
  C   C1562     1.0  0.70914  0.46168  0.18301  1.0000
  H   H1284     1.0  0.71752  0.17453  0.32683  1.0000
  H   H1285     1.0  0.70944  0.22529  0.31261  1.0000
  S   S219      1.0  0.61063  0.12884  0.47493  1.0000
  H   H1286     1.0  0.51465  0.27387  0.41193  1.0000
  C   C1563     1.0  0.52255  0.43817  0.01745  1.0000
  H   H1287     1.0  0.49590  0.11770  0.30168  1.0000
  H   H1288     1.0  0.62261  0.41616  0.33650  1.0000
  C   C1564     1.0  0.50268  0.02225  0.45798  1.0000
  H   H1289     1.0  0.49653  0.26515  0.19825  1.0000
  C   C1565     1.0  0.55007  0.99465  0.00047  1.0000
  Fe  Fe111     1.0  0.49037  0.19516  0.27573  1.0000
  H   H1290     1.0  0.58671  0.47763  0.06353  1.0000
  Fe  Fe112     1.0  0.58706  0.07805  0.47243  1.0000
  C   C1566     1.0  0.72134  0.15121  0.28485  1.0000
  C   C1567     1.0  0.49173  0.07924  0.41667  1.0000
  S   S220      1.0  0.50188  0.36748  0.18887  1.0000
  C   C1568     1.0  0.72978  0.33151  0.26440  1.0000
  C   C1569     1.0  0.53302  0.08982  0.06453  1.0000
  C   C1570     1.0  0.54542  0.08319  0.06470  1.0000
  C   C1571     1.0  0.56289  0.09448  0.06502  1.0000
  C   C1572     1.0  0.56802  0.11240  0.06480  1.0000
  C   C1573     1.0  0.55561  0.11920  0.06424  1.0000
  C   C1574     1.0  0.53804  0.10772  0.06426  1.0000
  P   P51       1.0  0.56253  0.14235  0.06177  1.0000
  C   C1575     1.0  0.54553  0.14881  0.07012  1.0000
  C   C1576     1.0  0.58146  0.15246  0.08492  1.0000
  C   C1577     1.0  0.58008  0.14990  0.11362  1.0000
  C   C1578     1.0  0.59472  0.15714  0.13163  1.0000
  C   C1579     1.0  0.61090  0.16642  0.12096  1.0000
  C   C1580     1.0  0.61250  0.16861  0.09237  1.0000
  C   C1581     1.0  0.59786  0.16170  0.07435  1.0000
  C   C1582     1.0  0.54695  0.15944  0.09366  1.0000
  C   C1583     1.0  0.53346  0.16395  0.09980  1.0000
  C   C1584     1.0  0.51859  0.15814  0.08232  1.0000
  C   C1585     1.0  0.51739  0.14822  0.05826  1.0000
  C   C1586     1.0  0.53082  0.14366  0.05205  1.0000
  C   C1587     1.0  0.56833  0.14901  0.02681  1.0000
  C   C1588     1.0  0.57185  0.16609  0.01976  1.0000
  C   C1589     1.0  0.53647  0.05974  0.40858  1.0000
  C   C1590     1.0  0.53878  0.02794  0.37325  1.0000
  C   C1591     1.0  0.51933  0.44940  0.03551  1.0000
  C   C1592     1.0  0.58276  0.47909  0.41470  1.0000
  C   C1593     1.0  0.56540  0.05283  0.31369  1.0000
  H   H1291     1.0  0.57250  0.08932  0.06497  1.0000
  H   H1292     1.0  0.58168  0.12089  0.06451  1.0000
  H   H1293     1.0  0.52809  0.11235  0.06374  1.0000
  H   H1294     1.0  0.56770  0.14227  0.12199  1.0000
  H   H1295     1.0  0.59364  0.15539  0.15386  1.0000
  H   H1296     1.0  0.62230  0.17160  0.13473  1.0000
  H   H1297     1.0  0.62521  0.17537  0.08424  1.0000
  H   H1298     1.0  0.59957  0.16325  0.05225  1.0000
  H   H1299     1.0  0.55839  0.16442  0.10730  1.0000
  H   H1300     1.0  0.53444  0.17183  0.11828  1.0000
  H   H1301     1.0  0.50791  0.16119  0.08744  1.0000
  H   H1302     1.0  0.50586  0.14383  0.04468  1.0000
  H   H1303     1.0  0.52961  0.13586  0.03332  1.0000
  H   H1304     1.0  0.57034  0.17492  0.03481  1.0000
  C   C1594     1.0  0.56518  0.05645  0.28546  1.0000
  C   C1595     1.0  0.58708  0.46154  0.30503  1.0000
  H   H1305     1.0  0.50907  0.30828  0.47300  1.0000
  C   C1596     1.0  0.54822  0.47155  0.02941  1.0000
  C   C1597     1.0  0.54343  0.40599  0.02852  1.0000
  C   C1598     1.0  0.52659  0.39290  0.02777  1.0000
  C   C1599     1.0  0.51735  0.38895  0.05198  1.0000
  C   C1600     1.0  0.52467  0.39845  0.07668  1.0000
  C   C1601     1.0  0.54134  0.41200  0.07745  1.0000
  C   C1602     1.0  0.55092  0.41532  0.05340  1.0000
  P   P52       1.0  0.55045  0.42355  0.11011  1.0000
  C   C1603     1.0  0.55533  0.40836  0.13034  1.0000
  C   C1604     1.0  0.56927  0.44388  0.10709  1.0000
  C   C1605     1.0  0.58242  0.44970  0.12825  1.0000
  C   C1606     1.0  0.59715  0.46521  0.12573  1.0000
  S   S221      1.0  0.49887  0.44359  0.04869  1.0000
  C   C1607     1.0  0.58549  0.46982  0.08166  1.0000
  C   C1608     1.0  0.57065  0.45440  0.08426  1.0000
  C   C1609     1.0  0.54261  0.39606  0.14606  1.0000
  C   C1610     1.0  0.54623  0.38391  0.16089  1.0000
  C   C1611     1.0  0.56247  0.38379  0.15992  1.0000
  C   C1612     1.0  0.57504  0.39566  0.14372  1.0000
  C   C1613     1.0  0.57142  0.40775  0.12866  1.0000
  C   C1614     1.0  0.53440  0.42887  0.12599  1.0000
  C   C1615     1.0  0.53422  0.43041  0.15505  1.0000
  C   C1616     1.0  0.49046  0.26535  0.17821  1.0000
  C   C1617     1.0  0.54664  0.40435  0.31187  1.0000
  H   H1306     1.0  0.67164  0.44489  0.13070  1.0000
  C   C1618     1.0  0.52182  0.43128  0.10937  1.0000
  C   C1619     1.0  0.72859  0.19694  0.21495  1.0000
  C   C1620     1.0  0.53370  0.47553  0.47773  1.0000
  H   H1307     1.0  0.51721  0.39524  0.09518  1.0000
  H   H1308     1.0  0.56409  0.42507  0.05364  1.0000
  H   H1309     1.0  0.58137  0.44230  0.14677  1.0000
  H   H1310     1.0  0.71592  0.33585  0.29793  1.0000
  C   C1621     1.0  0.59979  0.46874  0.38690  1.0000
  C   C1622     1.0  0.48835  0.41190  0.35397  1.0000
  H   H1311     1.0  0.56036  0.45068  0.06830  1.0000
  H   H1312     1.0  0.52979  0.39561  0.14668  1.0000
  H   H1313     1.0  0.53637  0.37449  0.17304  1.0000
  H   H1314     1.0  0.56524  0.37444  0.17169  1.0000
  H   H1315     1.0  0.58759  0.39546  0.14279  1.0000
  H   H1316     1.0  0.58114  0.41653  0.11562  1.0000
  H   H1317     1.0  0.54402  0.42895  0.16821  1.0000
  H   H1318     1.0  0.50804  0.37282  0.35412  1.0000
  C   C1623     1.0  0.54614  0.01484  0.47284  1.0000
  C   C1624     1.0  0.72009  0.45336  0.18149  1.0000
  Fe  Fe113     1.0  0.66997  0.48296  0.24461  1.0000
  H   H1319     1.0  0.54084  0.43510  0.99074  1.0000
  C   C1625     1.0  0.67909  0.17736  0.32371  1.0000
  C   C1626     1.0  0.56946  0.42900  0.33614  1.0000
  C   C1627     1.0  0.71541  0.23592  0.21649  1.0000
  H   H1320     1.0  0.65051  0.44231  0.33547  1.0000
  H   H1321     1.0  0.54527  0.13820  0.43165  1.0000
  H   H1322     1.0  0.49530  0.19535  0.06905  1.0000
  C   C1628     1.0  0.49745  0.09295  0.24629  1.0000
  C   C1629     1.0  0.65317  0.37061  0.16639  1.0000
  C   C1630     1.0  0.52713  0.01771  0.35184  1.0000
  H   H1323     1.0  0.49685  0.43917  0.22645  1.0000
  H   H1324     1.0  0.49244  0.10806  0.18346  1.0000
  C   C1631     1.0  0.70859  0.26047  0.22271  1.0000
  C   C1632     1.0  0.50870  0.43422  0.12169  1.0000
  C   C1633     1.0  0.57781  0.17203  0.99354  1.0000
  C   C1634     1.0  0.51920  0.46037  0.46960  1.0000
  C   C1635     1.0  0.51478  0.09365  0.33162  1.0000
  C   C1636     1.0  0.59635  0.04166  0.38832  1.0000
  H   H1325     1.0  0.51165  0.08076  0.33903  1.0000
  H   H1326     1.0  0.58519  0.16973  0.30611  1.0000
  C   C1637     1.0  0.57500  0.17326  0.31203  1.0000
  C   C1638     1.0  0.57691  0.19014  0.30732  1.0000
  H   H1327     1.0  0.58804  0.19907  0.29684  1.0000
  C   C1639     1.0  0.55504  0.14049  0.41652  1.0000
  C   C1640     1.0  0.69524  0.42556  0.17647  1.0000
  C   C1641     1.0  0.58807  0.07009  0.38597  1.0000
  C   C1642     1.0  0.54309  0.99727  0.47550  1.0000
  C   C1643     1.0  0.54357  0.39502  0.33621  1.0000
  C   C1644     1.0  0.54804  0.16710  0.33384  1.0000
  C   C1645     1.0  0.65024  0.45075  0.11969  1.0000
  Fe  Fe114     1.0  0.60817  0.11103  0.43813  1.0000
  H   H1328     1.0  0.55986  0.45770  0.35618  1.0000
  C   C1646     1.0  0.48746  0.25225  0.15781  1.0000
  H   H1329     1.0  0.60314  0.11922  0.27268  1.0000
  H   H1330     1.0  0.73397  0.46092  0.18322  1.0000
  H   H1331     1.0  0.53700  0.15858  0.34495  1.0000
  C   C1647     1.0  0.55314  0.32197  0.31257  1.0000
  H   H1332     1.0  0.66817  0.17532  0.33631  1.0000
  S   S222      1.0  0.62791  0.48842  0.22511  1.0000
  C   C1648     1.0  0.70647  0.18105  0.29004  1.0000
  C   C1649     1.0  0.70675  0.17658  0.31797  1.0000
  C   C1650     1.0  0.56299  0.02818  0.47453  1.0000
  H   H1333     1.0  0.68818  0.15804  0.18314  1.0000
  C   C1651     1.0  0.69957  0.16882  0.19204  1.0000
  P   P53       1.0  0.55371  0.05018  0.36768  1.0000
  C   C1652     1.0  0.57224  0.14570  0.42565  1.0000
  S   S223      1.0  0.51308  0.36858  0.26616  1.0000
  H   H1334     1.0  0.52577  0.13964  0.30462  1.0000
  C   C1653     1.0  0.70415  0.16933  0.22037  1.0000
  C   C1654     1.0  0.56326  0.14143  0.36852  1.0000
  H   H1335     1.0  0.65075  0.47156  0.33451  1.0000
  H   H1336     1.0  0.59827  0.15271  0.41354  1.0000
  C   C1655     1.0  0.52296  0.12699  0.31268  1.0000
  C   C1656     1.0  0.51503  0.09684  0.24621  1.0000
  C   C1657     1.0  0.50090  0.23044  0.34966  1.0000
  C   C1658     1.0  0.54085  0.06344  0.29162  1.0000
  H   H1337     1.0  0.69628  0.15878  0.23315  1.0000
  C   C1659     1.0  0.58943  0.11671  0.31029  1.0000
  H   H1338     1.0  0.73117  0.20720  0.17383  1.0000
  C   C1660     1.0  0.50713  0.08960  0.98852  1.0000
  C   C1661     1.0  0.56020  0.16137  0.32444  1.0000
  C   C1662     1.0  0.50907  0.41604  0.24814  1.0000
  C   C1663     1.0  0.59810  0.47745  0.41071  1.0000
  H   H1339     1.0  0.56176  0.42783  0.29239  1.0000
  C   C1664     1.0  0.49852  0.08347  0.11247  1.0000
  C   C1665     1.0  0.57531  0.13742  0.28502  1.0000
  H   H1340     1.0  0.69029  0.41164  0.17395  1.0000
  P   P54       1.0  0.50559  0.28634  0.35952  1.0000
  C   C1666     1.0  0.69040  0.25006  0.28626  1.0000
  C   C1667     1.0  0.55053  0.13841  0.38801  1.0000
  C   C1668     1.0  0.64573  0.36631  0.13942  1.0000
  H   H1341     1.0  0.53000  0.47436  0.05662  1.0000
  C   C1669     1.0  0.65773  0.38727  0.17789  1.0000
  C   C1670     1.0  0.68409  0.43381  0.17836  1.0000
  C   C1671     1.0  0.58496  0.14883  0.40638  1.0000
  C   C1672     1.0  0.58055  0.14703  0.37791  1.0000
  C   C1673     1.0  0.72709  0.30125  0.40995  1.0000
  H   H1342     1.0  0.58537  0.08137  0.38525  1.0000
  C   C1674     1.0  0.57170  0.13273  0.31268  1.0000
  C   C1675     1.0  0.57840  0.12181  0.32489  1.0000
  C   C1676     1.0  0.59387  0.12243  0.28344  1.0000
  H   H1343     1.0  0.49987  0.21740  0.34626  1.0000
  H   H1344     1.0  0.68303  0.45875  0.18325  1.0000
  H   H1345     1.0  0.55715  0.47322  0.39847  1.0000
  H   H1346     1.0  0.64218  0.35339  0.13055  1.0000
  H   H1347     1.0  0.55069  0.40905  0.00984  1.0000
  C   C1677     1.0  0.50025  0.40694  0.31158  1.0000
  C   C1678     1.0  0.53962  0.08914  0.41677  1.0000
  C   C1679     1.0  0.73157  0.16684  0.27241  1.0000
  H   H1348     1.0  0.56391  0.33048  0.30092  1.0000
  C   C1680     1.0  0.48744  0.25042  0.35027  1.0000
  C   C1681     1.0  0.58922  0.45514  0.27907  1.0000
  S   S224      1.0  0.61562  0.09301  0.46448  1.0000
  H   H1349     1.0  0.61452  0.08547  0.39958  1.0000
  H   H1350     1.0  0.72530  0.30405  0.43136  1.0000
  C   C1682     1.0  0.48616  0.23355  0.34702  1.0000
  C   C1683     1.0  0.51251  0.29022  0.44459  1.0000
  H   H1351     1.0  0.57497  0.04869  0.32182  1.0000
  H   H1352     1.0  0.71059  0.26883  0.36052  1.0000
  H   H1353     1.0  0.55772  0.43358  0.23208  1.0000
  S   S225      1.0  0.57036  0.46765  0.99271  1.0000
  C   C1684     1.0  0.69265  0.23523  0.29308  1.0000
  H   H1354     1.0  0.51191  0.22093  0.20321  1.0000
  C   C1685     1.0  0.51524  0.24433  0.18223  1.0000
  C   C1686     1.0  0.53823  0.43906  0.25202  1.0000
  C   C1687     1.0  0.72066  0.25331  0.31475  1.0000
  H   H1355     1.0  0.52243  0.23538  0.13120  1.0000
  H   H1356     1.0  0.48523  0.08662  0.07571  1.0000
  C   C1688     1.0  0.49799  0.37909  0.39135  1.0000
  H   H1357     1.0  0.49864  0.39215  0.15179  1.0000
  H   H1358     1.0  0.70655  0.27546  0.40889  1.0000
  H   H1359     1.0  0.60736  0.46954  0.14197  1.0000
  C   C1689     1.0  0.51519  0.40598  0.23250  1.0000
  C   C1690     1.0  0.63848  0.44367  0.33586  1.0000
  C   C1691     1.0  0.59878  0.47517  0.10229  1.0000
  H   H1360     1.0  0.54581  0.30040  0.28313  1.0000
  S   S226      1.0  0.56576  0.05001  0.47031  1.0000
  C   C1692     1.0  0.58750  0.47959  0.25653  1.0000
  C   C1693     1.0  0.57966  0.03921  0.37983  1.0000
  C   C1694     1.0  0.58608  0.46166  0.36686  1.0000
  C   C1695     1.0  0.52453  0.30029  0.34179  1.0000
  C   C1696     1.0  0.52055  0.23418  0.19944  1.0000
  C   C1697     1.0  0.62279  0.42897  0.33645  1.0000
  H   H1361     1.0  0.50748  0.99238  0.33940  1.0000
  C   C1698     1.0  0.53232  0.07165  0.42334  1.0000
  H   H1362     1.0  0.52075  0.43416  0.18974  1.0000
  C   C1699     1.0  0.55087  0.09469  0.39504  1.0000
  S   S227      1.0  0.48622  0.32858  0.24890  1.0000
  H   H1363     1.0  0.68276  0.22253  0.28674  1.0000
  H   H1364     1.0  0.49435  0.00980  0.41735  1.0000
  C   C1700     1.0  0.52697  0.26143  0.17729  1.0000
  C   C1701     1.0  0.54300  0.30505  0.30260  1.0000
  P   P55       1.0  0.49408  0.23505  0.16485  1.0000
  C   C1702     1.0  0.55297  0.06182  0.27445  1.0000
  C   C1703     1.0  0.60727  0.43075  0.33669  1.0000
  C   C1704     1.0  0.60736  0.44730  0.33625  1.0000
  C   C1705     1.0  0.71315  0.43531  0.17807  1.0000
  C   C1706     1.0  0.54099  0.05977  0.31984  1.0000
  C   C1707     1.0  0.52878  0.29424  0.31714  1.0000
  S   S228      1.0  0.54793  0.48730  0.45250  1.0000
  H   H1365     1.0  0.50359  0.08147  0.42820  1.0000
  H   H1366     1.0  0.53088  0.27162  0.36386  1.0000
  H   H1367     1.0  0.52128  0.09382  0.26395  1.0000
  H   H1368     1.0  0.50012  0.31452  0.38649  1.0000
  C   C1708     1.0  0.60890  0.05830  0.39554  1.0000
  H   H1369     1.0  0.62181  0.06020  0.40222  1.0000
  C   C1709     1.0  0.71898  0.28139  0.36980  1.0000
  H   H1370     1.0  0.53428  0.38157  0.33564  1.0000
  C   C1710     1.0  0.54848  0.25834  0.20797  1.0000
  H   H1371     1.0  0.57456  0.05515  0.27212  1.0000
  Fe  Fe115     1.0  0.50432  0.35201  0.22641  1.0000
  C   C1711     1.0  0.53851  0.44371  0.00512  1.0000
  C   C1712     1.0  0.50076  0.40834  0.34056  1.0000
  H   H1372     1.0  0.55722  0.10836  0.39093  1.0000
  H   H1373     1.0  0.55045  0.39563  0.37980  1.0000
  H   H1374     1.0  0.55291  0.06471  0.25259  1.0000
  Fe  Fe116     1.0  0.49701  0.16684  0.30742  1.0000
  H   H1375     1.0  0.56119  0.26377  0.21830  1.0000
  C   C1713     1.0  0.48574  0.27889  0.17293  1.0000
  H   H1376     1.0  0.53962  0.39821  0.29267  1.0000
  C   C1714     1.0  0.72616  0.27202  0.22050  1.0000
  S   S229      1.0  0.69301  0.47659  0.25713  1.0000
  H   H1377     1.0  0.48822  0.28895  0.18889  1.0000
  H   H1378     1.0  0.66407  0.07894  0.02792  1.0000
  H   H1379     1.0  0.55434  0.48305  0.09853  1.0000
  C   C1715     1.0  0.55293  0.40285  0.36087  1.0000
  H   H1380     1.0  0.73222  0.25437  0.32614  1.0000
  H   H1381     1.0  0.62338  0.47472  0.33382  1.0000
  H   H1382     1.0  0.53709  0.09851  0.42916  1.0000
  H   H1383     1.0  0.72169  0.42888  0.17692  1.0000
  P   P56       1.0  0.58754  0.45004  0.33605  1.0000
  C   C1716     1.0  0.50355  0.26433  0.35645  1.0000
  C   C1717     1.0  0.49137  0.13206  0.39324  1.0000
  H   H1384     1.0  0.58495  0.48318  0.32636  1.0000
  C   C1718     1.0  0.72377  0.31538  0.30678  1.0000
  H   H1385     1.0  0.70520  0.18237  0.15368  1.0000
  S   S230      1.0  0.48793  0.06645  0.02636  1.0000
  C   C1719     1.0  0.48672  0.28782  0.34424  1.0000
  C   C1720     1.0  0.72244  0.32824  0.29039  1.0000
  C   C1721     1.0  0.51696  0.24418  0.35590  1.0000
  H   H1386     1.0  0.53145  0.06098  0.33285  1.0000
  H   H1387     1.0  0.59477  0.02294  0.00455  1.0000
  C   C1722     1.0  0.48972  0.36458  0.15684  1.0000
  H   H1388     1.0  0.50220  0.12938  0.38799  1.0000
  H   H1389     1.0  0.52340  0.26944  0.16354  1.0000
  H   H1390     1.0  0.51208  0.46273  0.98607  1.0000
  S   S231      1.0  0.49806  0.15045  0.34483  1.0000
  C   C1723     1.0  0.51186  0.28486  0.41674  1.0000
  Fe  Fe117     1.0  0.58307  0.11166  0.48150  1.0000
  H   H1391     1.0  0.49443  0.06970  0.10838  1.0000
  H   H1392     1.0  0.58985  0.03381  0.48039  1.0000
  C   C1724     1.0  0.48945  0.09714  0.22368  1.0000
  H   H1393     1.0  0.49395  0.11792  0.08519  1.0000
  C   C1725     1.0  0.51032  0.22596  0.12192  1.0000
  H   H1394     1.0  0.72996  0.28584  0.22123  1.0000
  C   C1726     1.0  0.48760  0.40965  0.29562  1.0000
  P   P57       1.0  0.48688  0.40698  0.25824  1.0000
  C   C1727     1.0  0.57377  0.00615  0.48204  1.0000
  C   C1728     1.0  0.50870  0.30423  0.45141  1.0000
  C   C1729     1.0  0.71852  0.18356  0.23216  1.0000
  C   C1730     1.0  0.72374  0.19655  0.18679  1.0000
  C   C1731     1.0  0.48615  0.26559  0.26700  1.0000
  C   C1732     1.0  0.49512  0.20334  0.08673  1.0000
  H   H1395     1.0  0.51054  0.40620  0.35268  1.0000
  H   H1396     1.0  0.72619  0.21849  0.26332  1.0000
  C   C1733     1.0  0.50367  0.30766  0.40255  1.0000
  H   H1397     1.0  0.71919  0.12615  0.29704  1.0000
  C   C1734     1.0  0.50430  0.31295  0.43039  1.0000
  H   H1398     1.0  0.50123  0.32376  0.43562  1.0000
  H   H1399     1.0  0.48854  0.08810  0.31869  1.0000
  C   C1735     1.0  0.48913  0.23817  0.27127  1.0000
  C   C1736     1.0  0.57682  0.02374  0.47918  1.0000
  C   C1737     1.0  0.49180  0.08981  0.39477  1.0000
  C   C1738     1.0  0.58583  0.48634  0.28236  1.0000
  S   S232      1.0  0.48584  0.38852  0.43837  1.0000
  H   H1400     1.0  0.58074  0.18528  0.98834  1.0000
  C   C1739     1.0  0.48684  0.29418  0.31752  1.0000
  H   H1401     1.0  0.53066  0.12284  0.48288  1.0000
  C   C1740     1.0  0.73192  0.29385  0.35461  1.0000
  C   C1741     1.0  0.73303  0.24749  0.21447  1.0000
  H   H1402     1.0  0.65181  0.05498  0.99257  1.0000
  C   C1742     1.0  0.55745  0.01113  0.98852  1.0000
  H   H1403     1.0  0.50136  0.09916  0.48426  1.0000
  P   P58       1.0  0.73479  0.28941  0.31869  1.0000
  C   C1743     1.0  0.53086  0.07519  0.98495  1.0000
  H   H1404     1.0  0.49670  0.43891  0.48304  1.0000
  H   H1405     1.0  0.50500  0.28641  0.98784  1.0000
  H   H1406     1.0  0.53929  0.48236  0.95533  1.0000
  C   C1744     1.0  0.52046  0.36254  0.90578  1.0000
  S   S233      1.0  0.58090  0.07968  0.92705  1.0000
  H   H1407     1.0  0.57099  0.45561  0.79178  1.0000
  Fe  Fe118     1.0  0.61603  0.11018  0.50174  1.0000
  H   H1408     1.0  0.48894  0.39637  0.81719  1.0000
  S   S234      1.0  0.63714  0.12177  0.53644  1.0000
  C   C1745     1.0  0.50821  0.48426  0.62481  1.0000
  C   C1746     1.0  0.56193  0.49075  0.64615  1.0000
  Fe  Fe119     1.0  0.60775  0.09744  0.94181  1.0000
  S   S235      1.0  0.62937  0.11284  0.91302  1.0000
  S   S236      1.0  0.58839  0.09425  0.51083  1.0000
  H   H1409     1.0  0.49337  0.07621  0.92984  1.0000
  Fe  Fe120     1.0  0.64168  0.16176  0.69809  1.0000
  S   S237      1.0  0.64920  0.19056  0.69560  1.0000
  S   S238      1.0  0.63058  0.13975  0.66421  1.0000
  Fe  Fe121     1.0  0.63639  0.16225  0.76283  1.0000
  S   S239      1.0  0.64323  0.19100  0.76377  1.0000
  S   S240      1.0  0.62041  0.14210  0.79433  1.0000
  Fe  Fe122     1.0  0.62730  0.18613  0.72373  1.0000
  S   S241      1.0  0.60549  0.19337  0.71072  1.0000
  Fe  Fe123     1.0  0.66511  0.19373  0.73582  1.0000
  S   S242      1.0  0.69258  0.21509  0.74873  1.0000
  S   S243      1.0  0.61931  0.15774  0.72440  1.0000
  S   S244      1.0  0.65880  0.16474  0.73681  1.0000
  H   H1410     1.0  0.53241  0.39317  0.96327  1.0000
  S   S245      1.0  0.50339  0.18724  0.80818  1.0000
  C   C1747     1.0  0.60206  0.45537  0.60056  1.0000
  H   H1411     1.0  0.51859  0.05440  0.93536  1.0000
  S   S246      1.0  0.51093  0.19656  0.74258  1.0000
  Fe  Fe124     1.0  0.52005  0.18373  0.77573  1.0000
  S   S247      1.0  0.54751  0.19045  0.79095  1.0000
  H   H1412     1.0  0.61592  0.48781  0.94518  1.0000
  C   C1748     1.0  0.72949  0.47805  0.71545  1.0000
  S   S248      1.0  0.50131  0.15671  0.76235  1.0000
  C   C1749     1.0  0.66391  0.03626  0.88054  1.0000
  S   S249      1.0  0.64409  0.46754  0.77020  1.0000
  H   H1413     1.0  0.53819  0.02695  0.88912  1.0000
  Fe  Fe125     1.0  0.62990  0.45887  0.72858  1.0000
  S   S250      1.0  0.61094  0.43151  0.71539  1.0000
  H   H1414     1.0  0.58435  0.20492  0.64380  1.0000
  S   S251      1.0  0.51336  0.34029  0.80357  1.0000
  C   C1750     1.0  0.58492  0.46019  0.89917  1.0000
  S   S252      1.0  0.52239  0.35073  0.73812  1.0000
  Fe  Fe126     1.0  0.50602  0.32654  0.76131  1.0000
  C   C1751     1.0  0.63141  0.42044  0.51798  1.0000
  Fe  Fe127     1.0  0.52804  0.36449  0.77998  1.0000
  S   S253      1.0  0.55324  0.38598  0.79707  1.0000
  S   S254      1.0  0.50572  0.37167  0.77620  1.0000
  C   C1752     1.0  0.52458  0.07570  0.49525  1.0000
  H   H1415     1.0  0.64088  0.46285  0.50851  1.0000
  C   C1753     1.0  0.71425  0.47934  0.72346  1.0000
  P   P59       1.0  0.56182  0.45059  0.89294  1.0000
  H   H1416     1.0  0.49177  0.42236  0.92255  1.0000
  C   C1754     1.0  0.51037  0.45653  0.51730  1.0000
  C   C1755     1.0  0.52474  0.47183  0.52541  1.0000
  H   H1417     1.0  0.50324  0.39078  0.89972  1.0000
  H   H1418     1.0  0.62371  0.08657  0.60571  1.0000
  C   C1756     1.0  0.62548  0.48410  0.50234  1.0000
  H   H1419     1.0  0.52684  0.47632  0.54695  1.0000
  C   C1757     1.0  0.55464  0.46728  0.90131  1.0000
  H   H1420     1.0  0.62758  0.24440  0.71268  1.0000
  H   H1421     1.0  0.56098  0.28959  0.65998  1.0000
  S   S255      1.0  0.55142  0.10024  0.95023  1.0000
  H   H1422     1.0  0.50986  0.38502  0.57512  1.0000
  C   C1758     1.0  0.50350  0.44215  0.95457  1.0000
  C   C1759     1.0  0.56934  0.39838  0.77427  1.0000
  C   C1760     1.0  0.57057  0.39176  0.74802  1.0000
  C   C1761     1.0  0.58357  0.40193  0.73039  1.0000
  C   C1762     1.0  0.59530  0.41887  0.73866  1.0000
  C   C1763     1.0  0.59416  0.42544  0.76500  1.0000
  C   C1764     1.0  0.58133  0.41517  0.78280  1.0000
  H   H1423     1.0  0.56154  0.37879  0.74135  1.0000
  H   H1424     1.0  0.58440  0.39671  0.71011  1.0000
  H   H1425     1.0  0.60313  0.43846  0.77162  1.0000
  H   H1426     1.0  0.58055  0.42036  0.80313  1.0000
  C   C1765     1.0  0.65858  0.47273  0.86505  1.0000
  H   H1427     1.0  0.49669  0.05677  0.59498  1.0000
  C   C1766     1.0  0.61653  0.46331  0.58439  1.0000
  C   C1767     1.0  0.50324  0.27968  0.75970  1.0000
  H   H1428     1.0  0.55745  0.20690  0.62693  1.0000
  C   C1768     1.0  0.57337  0.01148  0.63718  1.0000
  C   C1769     1.0  0.56707  0.46327  0.53449  1.0000
  C   C1770     1.0  0.56314  0.44765  0.80784  1.0000
  H   H1429     1.0  0.72345  0.24011  0.77769  1.0000
  C   C1771     1.0  0.58872  0.18970  0.73360  1.0000
  C   C1772     1.0  0.59199  0.19175  0.76244  1.0000
  C   C1773     1.0  0.57908  0.19152  0.77996  1.0000
  C   C1774     1.0  0.56270  0.18872  0.76881  1.0000
  C   C1775     1.0  0.55909  0.18554  0.74020  1.0000
  C   C1776     1.0  0.57217  0.18636  0.72257  1.0000
  H   H1430     1.0  0.60475  0.19447  0.77109  1.0000
  H   H1431     1.0  0.58191  0.19393  0.80213  1.0000
  H   H1432     1.0  0.54640  0.18311  0.73161  1.0000
  H   H1433     1.0  0.56958  0.18476  0.70029  1.0000
  C   C1777     1.0  0.62681  0.12060  0.87973  1.0000
  C   C1778     1.0  0.64105  0.13399  0.86824  1.0000
  C   C1779     1.0  0.63943  0.14077  0.84219  1.0000
  C   C1780     1.0  0.62359  0.13401  0.82706  1.0000
  C   C1781     1.0  0.60947  0.12035  0.83834  1.0000
  C   C1782     1.0  0.61098  0.11380  0.86457  1.0000
  H   H1434     1.0  0.65336  0.13935  0.87972  1.0000
  H   H1435     1.0  0.65044  0.15122  0.83382  1.0000
  H   H1436     1.0  0.59729  0.11475  0.82661  1.0000
  H   H1437     1.0  0.59993  0.10345  0.87300  1.0000
  C   C1783     1.0  0.63450  0.12820  0.57088  1.0000
  C   C1784     1.0  0.64870  0.14108  0.58590  1.0000
  C   C1785     1.0  0.64752  0.14552  0.61399  1.0000
  C   C1786     1.0  0.63224  0.13673  0.62776  1.0000
  C   C1787     1.0  0.61805  0.12390  0.61268  1.0000
  C   C1788     1.0  0.61902  0.11991  0.58437  1.0000
  H   H1438     1.0  0.66077  0.14758  0.57581  1.0000
  H   H1439     1.0  0.65863  0.15529  0.62524  1.0000
  H   H1440     1.0  0.60630  0.11675  0.62314  1.0000
  H   H1441     1.0  0.60795  0.11004  0.57325  1.0000
  C   C1789     1.0  0.51388  0.04518  0.85757  1.0000
  C   C1790     1.0  0.53513  0.42609  0.92181  1.0000
  H   H1442     1.0  0.55056  0.03607  0.59810  1.0000
  H   H1443     1.0  0.53134  0.40744  0.81643  1.0000
  H   H1444     1.0  0.54596  0.44776  0.50598  1.0000
  C   C1791     1.0  0.53810  0.40415  0.95009  1.0000
  C   C1792     1.0  0.52050  0.39762  0.57940  1.0000
  H   H1445     1.0  0.57965  0.00451  0.64808  1.0000
  H   H1446     1.0  0.67173  0.49081  0.83385  1.0000
  C   C1793     1.0  0.58324  0.02787  0.62697  1.0000
  C   C1794     1.0  0.56442  0.43310  0.69543  1.0000
  H   H1447     1.0  0.51586  0.01778  0.58635  1.0000
  C   C1795     1.0  0.63926  0.43709  0.50758  1.0000
  H   H1448     1.0  0.56085  0.47124  0.54162  1.0000
  H   H1449     1.0  0.59188  0.49021  0.61208  1.0000
  C   C1796     1.0  0.59209  0.45668  0.53516  1.0000
  H   H1450     1.0  0.55490  0.48993  0.57610  1.0000
  H   H1451     1.0  0.55533  0.30807  0.69512  1.0000
  C   C1797     1.0  0.50537  0.06863  0.81115  1.0000
  H   H1452     1.0  0.60347  0.42641  0.56086  1.0000
  C   C1798     1.0  0.53654  0.48118  0.50570  1.0000
  H   H1453     1.0  0.54953  0.99797  0.92047  1.0000
  H   H1454     1.0  0.64027  0.03927  0.87987  1.0000
  C   C1799     1.0  0.48704  0.03966  0.55883  1.0000
  H   H1455     1.0  0.72035  0.26464  0.68635  1.0000
  C   C1800     1.0  0.53926  0.35725  0.86306  1.0000
  C   C1801     1.0  0.54482  0.46750  0.60170  1.0000
  C   C1802     1.0  0.49812  0.34218  0.96537  1.0000
  H   H1456     1.0  0.54257  0.18044  0.97473  1.0000
  C   C1803     1.0  0.55751  0.01247  0.95957  1.0000
  H   H1457     1.0  0.49315  0.15932  0.86569  1.0000
  C   C1804     1.0  0.52038  0.03150  0.95019  1.0000
  C   C1805     1.0  0.52393  0.14082  0.94177  1.0000
  C   C1806     1.0  0.56254  0.42411  0.92585  1.0000
  H   H1458     1.0  0.55193  0.46875  0.67209  1.0000
  C   C1807     1.0  0.62694  0.07612  0.86809  1.0000
  H   H1459     1.0  0.56713  0.44959  0.66101  1.0000
  Fe  Fe128     1.0  0.49057  0.34679  0.79677  1.0000
  H   H1460     1.0  0.52707  0.39977  0.71282  1.0000
  C   C1808     1.0  0.54794  0.43007  0.59053  1.0000
  C   C1809     1.0  0.63507  0.46975  0.62644  1.0000
  H   H1461     1.0  0.51589  0.40991  0.67245  1.0000
  C   C1810     1.0  0.62608  0.48309  0.53143  1.0000
  H   H1462     1.0  0.53410  0.03815  0.95568  1.0000
  H   H1463     1.0  0.58931  0.15266  0.51922  1.0000
  C   C1811     1.0  0.54377  0.48163  0.93476  1.0000
  H   H1464     1.0  0.60104  0.04260  0.92172  1.0000
  C   C1812     1.0  0.70407  0.43094  0.71339  1.0000
  C   C1813     1.0  0.68883  0.41687  0.70429  1.0000
  C   C1814     1.0  0.68955  0.40249  0.69092  1.0000
  C   C1815     1.0  0.70550  0.40220  0.68647  1.0000
  C   C1816     1.0  0.50794  0.02392  0.57833  1.0000
  C   C1817     1.0  0.51887  0.99807  0.53928  1.0000
  C   C1818     1.0  0.52940  0.41679  0.67898  1.0000
  C   C1819     1.0  0.63576  0.07092  0.88832  1.0000
  C   C1820     1.0  0.56620  0.45379  0.83556  1.0000
  C   C1821     1.0  0.50894  0.10165  0.86252  1.0000
  H   H1465     1.0  0.51854  0.05360  0.79575  1.0000
  C   C1822     1.0  0.72091  0.41652  0.69482  1.0000
  H   H1466     1.0  0.53800  0.45872  0.58431  1.0000
  Fe  Fe129     1.0  0.49893  0.35637  0.73539  1.0000
  H   H1467     1.0  0.62212  0.46166  0.66478  1.0000
  H   H1468     1.0  0.70354  0.44204  0.72400  1.0000
  H   H1469     1.0  0.67647  0.41705  0.70772  1.0000
  H   H1470     1.0  0.67770  0.39149  0.68416  1.0000
  H   H1471     1.0  0.70565  0.39069  0.67691  1.0000
  C   C1823     1.0  0.62075  0.47484  0.90994  1.0000
  H   H1472     1.0  0.58580  0.05130  0.88573  1.0000
  H   H1473     1.0  0.50284  0.10766  0.62422  1.0000
  C   C1824     1.0  0.59236  0.47144  0.92238  1.0000
  C   C1825     1.0  0.55047  0.43102  0.80097  1.0000
  C   C1826     1.0  0.54079  0.42054  0.82180  1.0000
  C   C1827     1.0  0.54376  0.42665  0.84955  1.0000
  H   H1474     1.0  0.64973  0.07671  0.88911  1.0000
  C   C1828     1.0  0.49393  0.03209  0.93191  1.0000
  P   P60       1.0  0.49869  0.99980  0.53359  1.0000
  H   H1475     1.0  0.62363  0.01570  0.92083  1.0000
  H   H1476     1.0  0.54847  0.42604  0.77961  1.0000
  H   H1477     1.0  0.53631  0.41809  0.86525  1.0000
  P   P61       1.0  0.58828  0.05801  0.59942  1.0000
  C   C1829     1.0  0.60099  0.07164  0.62864  1.0000
  C   C1830     1.0  0.60113  0.05640  0.57134  1.0000
  C   C1831     1.0  0.61019  0.07105  0.55575  1.0000
  C   C1832     1.0  0.60077  0.04034  0.56291  1.0000
  C   C1833     1.0  0.59377  0.06973  0.65490  1.0000
  C   C1834     1.0  0.60299  0.08077  0.67740  1.0000
  C   C1835     1.0  0.60472  0.00296  0.95071  1.0000
  H   H1478     1.0  0.63408  0.08599  0.85368  1.0000
  C   C1836     1.0  0.61772  0.08455  0.62551  1.0000
  C   C1837     1.0  0.57429  0.06698  0.58461  1.0000
  C   C1838     1.0  0.56669  0.06132  0.55782  1.0000
  C   C1839     1.0  0.55504  0.06727  0.54653  1.0000
  C   C1840     1.0  0.55121  0.07928  0.56155  1.0000
  C   C1841     1.0  0.55887  0.08517  0.58809  1.0000
  C   C1842     1.0  0.57036  0.07903  0.59968  1.0000
  H   H1479     1.0  0.61017  0.08347  0.56103  1.0000
  H   H1480     1.0  0.59345  0.02865  0.57371  1.0000
  H   H1481     1.0  0.58088  0.05993  0.65789  1.0000
  H   H1482     1.0  0.59730  0.07945  0.69748  1.0000
  H   H1483     1.0  0.61877  0.15834  0.53717  1.0000
  H   H1484     1.0  0.56994  0.05253  0.54531  1.0000
  H   H1485     1.0  0.54949  0.06298  0.52565  1.0000
  H   H1486     1.0  0.54258  0.08424  0.55230  1.0000
  H   H1487     1.0  0.55602  0.09463  0.59956  1.0000
  H   H1488     1.0  0.57623  0.08387  0.62016  1.0000
  H   H1489     1.0  0.55373  0.30064  0.74473  1.0000
  C   C1843     1.0  0.55816  0.43902  0.67254  1.0000
  H   H1490     1.0  0.53375  0.18134  0.60337  1.0000
  C   C1844     1.0  0.65398  0.45601  0.87465  1.0000
  C   C1845     1.0  0.60956  0.03908  0.53960  1.0000
  C   C1846     1.0  0.57522  0.03688  0.61251  1.0000
  P   P62       1.0  0.53234  0.43849  0.63477  1.0000
  H   H1491     1.0  0.53966  0.33043  0.92170  1.0000
  C   C1847     1.0  0.57652  0.14385  0.98095  1.0000
  H   H1492     1.0  0.64937  0.44008  0.49289  1.0000
  H   H1493     1.0  0.52655  0.33021  0.87175  1.0000
  H   H1494     1.0  0.51308  0.43756  0.96065  1.0000
  H   H1495     1.0  0.48930  0.08207  0.81979  1.0000
  C   C1848     1.0  0.55261  0.47311  0.65097  1.0000
  C   C1849     1.0  0.54442  0.46127  0.62866  1.0000
  H   H1496     1.0  0.58514  0.16558  0.95406  1.0000
  H   H1497     1.0  0.57838  0.13518  0.96608  1.0000
  H   H1498     1.0  0.56090  0.05628  0.88271  1.0000
  Fe  Fe130     1.0  0.49066  0.16956  0.73128  1.0000
  C   C1850     1.0  0.51797  0.03253  0.86991  1.0000
  H   H1499     1.0  0.59299  0.44859  0.64190  1.0000
  C   C1851     1.0  0.51023  0.07951  0.49306  1.0000
  H   H1500     1.0  0.49126  0.30157  0.95980  1.0000
  C   C1852     1.0  0.54884  0.41917  0.56916  1.0000
  C   C1853     1.0  0.52812  0.34315  0.87774  1.0000
  H   H1501     1.0  0.52706  0.43200  0.91345  1.0000
  C   C1854     1.0  0.67859  0.03793  0.89629  1.0000
  H   H1502     1.0  0.60216  0.07343  0.85180  1.0000
  C   C1855     1.0  0.55531  0.41002  0.94314  1.0000
  C   C1856     1.0  0.53570  0.41093  0.70184  1.0000
  S   S256      1.0  0.48550  0.16390  0.68404  1.0000
  P   P63       1.0  0.50374  0.32716  0.91711  1.0000
  H   H1503     1.0  0.56308  0.40370  0.95118  1.0000
  H   H1504     1.0  0.64783  0.47558  0.63660  1.0000
  C   C1857     1.0  0.49083  0.33360  0.93972  1.0000
  C   C1858     1.0  0.51242  0.09636  0.48759  1.0000
  C   C1859     1.0  0.70780  0.24325  0.71337  1.0000
  C   C1860     1.0  0.53145  0.37657  0.89075  1.0000
  H   H1505     1.0  0.48890  0.29193  0.69708  1.0000
  C   C1861     1.0  0.51966  0.40838  0.60101  1.0000
  H   H1506     1.0  0.50454  0.13995  0.82749  1.0000
  C   C1862     1.0  0.63624  0.41139  0.76435  1.0000
  C   C1863     1.0  0.64242  0.41983  0.73973  1.0000
  C   C1864     1.0  0.65884  0.43352  0.73969  1.0000
  C   C1865     1.0  0.66941  0.43832  0.76402  1.0000
  C   C1866     1.0  0.66365  0.42927  0.78849  1.0000
  C   C1867     1.0  0.64674  0.41623  0.78878  1.0000
  P   P64       1.0  0.67707  0.43577  0.82009  1.0000
  C   C1868     1.0  0.69950  0.44560  0.81172  1.0000
  C   C1869     1.0  0.67044  0.45038  0.83867  1.0000
  C   C1870     1.0  0.62059  0.46200  0.64237  1.0000
  C   C1871     1.0  0.52812  0.41233  0.93971  1.0000
  C   C1872     1.0  0.49460  0.09785  0.90609  1.0000
  C   C1873     1.0  0.49099  0.38025  0.89377  1.0000
  C   C1874     1.0  0.65964  0.44475  0.86123  1.0000
  C   C1875     1.0  0.71137  0.46051  0.82635  1.0000
  C   C1876     1.0  0.70544  0.43747  0.79167  1.0000
  C   C1877     1.0  0.67530  0.41756  0.84056  1.0000
  C   C1878     1.0  0.66938  0.40082  0.82834  1.0000
  C   C1879     1.0  0.66869  0.38696  0.84429  1.0000
  C   C1880     1.0  0.67422  0.38978  0.87236  1.0000
  C   C1881     1.0  0.68059  0.40649  0.88445  1.0000
  C   C1882     1.0  0.68128  0.42036  0.86856  1.0000
  H   H1507     1.0  0.62315  0.40138  0.76454  1.0000
  H   H1508     1.0  0.63421  0.41613  0.72087  1.0000
  H   H1509     1.0  0.66323  0.44068  0.72094  1.0000
  H   H1510     1.0  0.68191  0.44930  0.76375  1.0000
  H   H1511     1.0  0.64161  0.40988  0.80786  1.0000
  S   S257      1.0  0.65345  0.47345  0.70392  1.0000
  H   H1512     1.0  0.54915  0.38476  0.85754  1.0000
  C   C1883     1.0  0.50737  0.03787  0.59342  1.0000
  H   H1513     1.0  0.65528  0.43162  0.86820  1.0000
  C   C1884     1.0  0.54337  0.10600  0.48926  1.0000
  H   H1514     1.0  0.69657  0.42576  0.78052  1.0000
  H   H1515     1.0  0.66552  0.39844  0.80646  1.0000
  H   H1516     1.0  0.66403  0.37405  0.83479  1.0000
  H   H1517     1.0  0.67376  0.37905  0.88466  1.0000
  H   H1518     1.0  0.68516  0.40875  0.90608  1.0000
  H   H1519     1.0  0.68661  0.43331  0.87805  1.0000
  C   C1885     1.0  0.51363  0.11006  0.61113  1.0000
  C   C1886     1.0  0.51089  0.10118  0.58547  1.0000
  C   C1887     1.0  0.52471  0.10446  0.56836  1.0000
  C   C1888     1.0  0.54129  0.11678  0.57668  1.0000
  C   C1889     1.0  0.54404  0.12628  0.60200  1.0000
  C   C1890     1.0  0.53013  0.12248  0.61944  1.0000
  P   P65       1.0  0.56470  0.14373  0.61262  1.0000
  C   C1891     1.0  0.57095  0.13769  0.64557  1.0000
  C   C1892     1.0  0.58180  0.14835  0.58853  1.0000
  C   C1893     1.0  0.59880  0.15262  0.59857  1.0000
  C   C1894     1.0  0.61207  0.15639  0.58009  1.0000
  C   C1895     1.0  0.60856  0.15596  0.55149  1.0000
  C   C1896     1.0  0.59193  0.15263  0.54141  1.0000
  C   C1897     1.0  0.57866  0.14919  0.55985  1.0000
  C   C1898     1.0  0.56909  0.14518  0.67078  1.0000
  C   C1899     1.0  0.57456  0.14079  0.69599  1.0000
  C   C1900     1.0  0.58165  0.12869  0.69626  1.0000
  C   C1901     1.0  0.58336  0.12104  0.67131  1.0000
  C   C1902     1.0  0.57783  0.12536  0.64608  1.0000
  C   C1903     1.0  0.56232  0.16375  0.61666  1.0000
  C   C1904     1.0  0.54725  0.16503  0.60687  1.0000
  C   C1905     1.0  0.54549  0.18052  0.61071  1.0000
  C   C1906     1.0  0.55885  0.19492  0.62396  1.0000
  C   C1907     1.0  0.57398  0.19382  0.63338  1.0000
  C   C1908     1.0  0.57578  0.17835  0.62957  1.0000
  C   C1909     1.0  0.61428  0.03590  0.97535  1.0000
  H   H1520     1.0  0.49798  0.09194  0.57869  1.0000
  H   H1521     1.0  0.50052  0.48635  0.55560  1.0000
  H   H1522     1.0  0.55173  0.11878  0.56314  1.0000
  H   H1523     1.0  0.53195  0.12953  0.63915  1.0000
  H   H1524     1.0  0.60203  0.15321  0.62065  1.0000
  H   H1525     1.0  0.62508  0.15946  0.58797  1.0000
  C   C1910     1.0  0.59974  0.05680  0.88625  1.0000
  C   C1911     1.0  0.51138  0.08652  0.86666  1.0000
  H   H1526     1.0  0.56602  0.14717  0.55153  1.0000
  H   H1527     1.0  0.56377  0.15468  0.67116  1.0000
  H   H1528     1.0  0.57390  0.14727  0.71523  1.0000
  H   H1529     1.0  0.58644  0.12575  0.71572  1.0000
  H   H1530     1.0  0.58969  0.11236  0.67145  1.0000
  H   H1531     1.0  0.57958  0.11963  0.62685  1.0000
  H   H1532     1.0  0.53682  0.15416  0.59618  1.0000
  C   C1912     1.0  0.59552  0.45570  0.88213  1.0000
  H   H1533     1.0  0.57594  0.42855  0.92091  1.0000
  H   H1534     1.0  0.58760  0.17771  0.63708  1.0000
  H   H1535     1.0  0.61807  0.47267  0.48931  1.0000
  C   C1913     1.0  0.53453  0.01304  0.54127  1.0000
  C   C1914     1.0  0.49747  0.08312  0.91079  1.0000
  C   C1915     1.0  0.54780  0.05319  0.87550  1.0000
  H   H1536     1.0  0.61264  0.40385  0.54562  1.0000
  H   H1537     1.0  0.60901  0.02661  0.53290  1.0000
  C   C1916     1.0  0.58375  0.44358  0.51456  1.0000
  H   H1538     1.0  0.58921  0.44945  0.59098  1.0000
  H   H1539     1.0  0.59011  0.44649  0.86476  1.0000
  C   C1917     1.0  0.65668  0.10105  0.97472  1.0000
  C   C1918     1.0  0.54378  0.06590  0.86330  1.0000
  C   C1919     1.0  0.50580  0.07744  0.89118  1.0000
  C   C1920     1.0  0.67478  0.46709  0.82897  1.0000
  C   C1921     1.0  0.58364  0.46653  0.54491  1.0000
  C   C1922     1.0  0.53943  0.09644  0.82750  1.0000
  C   C1923     1.0  0.55226  0.10768  0.84653  1.0000
  C   C1924     1.0  0.56737  0.12063  0.83694  1.0000
  C   C1925     1.0  0.56955  0.12295  0.80845  1.0000
  C   C1926     1.0  0.55654  0.11235  0.78940  1.0000
  C   C1927     1.0  0.54154  0.09912  0.79882  1.0000
  H   H1540     1.0  0.56461  0.26353  0.67434  1.0000
  H   H1541     1.0  0.49894  0.46532  0.59092  1.0000
  H   H1542     1.0  0.55089  0.10608  0.86877  1.0000
  H   H1543     1.0  0.57763  0.12871  0.85150  1.0000
  H   H1544     1.0  0.58142  0.13293  0.80118  1.0000
  H   H1545     1.0  0.55824  0.11432  0.76731  1.0000
  H   H1546     1.0  0.53178  0.09103  0.78353  1.0000
  H   H1547     1.0  0.51293  0.36489  0.92158  1.0000
  H   H1548     1.0  0.55808  0.27532  0.75972  1.0000
  H   H1549     1.0  0.66197  0.03129  0.85920  1.0000
  H   H1550     1.0  0.59250  0.26707  0.69292  1.0000
  C   C1928     1.0  0.58792  0.13875  0.90786  1.0000
  C   C1929     1.0  0.60316  0.14717  0.89396  1.0000
  C   C1930     1.0  0.60484  0.16043  0.87598  1.0000
  C   C1931     1.0  0.59156  0.16582  0.87280  1.0000
  C   C1932     1.0  0.57650  0.15801  0.88778  1.0000
  C   C1933     1.0  0.57457  0.14406  0.90471  1.0000
  P   P66       1.0  0.55958  0.16537  0.88407  1.0000
  C   C1934     1.0  0.56919  0.18848  0.87911  1.0000
  C   C1935     1.0  0.54614  0.15494  0.85335  1.0000
  C   C1936     1.0  0.55375  0.15276  0.82905  1.0000
  C   C1937     1.0  0.54364  0.14559  0.80471  1.0000
  H   H1551     1.0  0.50768  0.47486  0.64010  1.0000
  H   H1552     1.0  0.58444  0.47468  0.93636  1.0000
  C   C1938     1.0  0.52833  0.15046  0.85252  1.0000
  C   C1939     1.0  0.56115  0.19577  0.86086  1.0000
  C   C1940     1.0  0.56912  0.21340  0.85536  1.0000
  C   C1941     1.0  0.58499  0.22403  0.86855  1.0000
  C   C1942     1.0  0.59285  0.21700  0.88749  1.0000
  C   C1943     1.0  0.58498  0.19929  0.89282  1.0000
  C   C1944     1.0  0.54720  0.16081  0.91504  1.0000
  C   C1945     1.0  0.53417  0.14415  0.91866  1.0000
  H   H1553     1.0  0.50838  0.42458  0.84024  1.0000
  C   C1946     1.0  0.54731  0.01302  0.61921  1.0000
  C   C1947     1.0  0.50482  0.30474  0.95762  1.0000
  C   C1948     1.0  0.55027  0.17387  0.93558  1.0000
  H   H1554     1.0  0.58643  0.12798  0.92091  1.0000
  H   H1555     1.0  0.61358  0.14321  0.89674  1.0000
  H   H1556     1.0  0.61640  0.16638  0.86426  1.0000
  H   H1557     1.0  0.59308  0.17605  0.85858  1.0000
  H   H1558     1.0  0.56290  0.13729  0.91571  1.0000
  H   H1559     1.0  0.56754  0.15704  0.82848  1.0000
  H   H1560     1.0  0.54970  0.14444  0.78587  1.0000
  H   H1561     1.0  0.67105  0.05382  0.95701  1.0000
  H   H1562     1.0  0.61980  0.26480  0.68545  1.0000
  H   H1563     1.0  0.52224  0.15302  0.87030  1.0000
  H   H1564     1.0  0.54887  0.18782  0.85027  1.0000
  H   H1565     1.0  0.56304  0.21860  0.84024  1.0000
  H   H1566     1.0  0.59125  0.23765  0.86391  1.0000
  H   H1567     1.0  0.60519  0.22523  0.89766  1.0000
  H   H1568     1.0  0.59133  0.19399  0.90726  1.0000
  H   H1569     1.0  0.53178  0.13379  0.90343  1.0000
  C   C1949     1.0  0.50762  0.05680  0.79277  1.0000
  C   C1950     1.0  0.65169  0.04093  0.89231  1.0000
  H   H1570     1.0  0.70720  0.46683  0.84228  1.0000
  H   H1571     1.0  0.56026  0.18681  0.93352  1.0000
  C   C1951     1.0  0.53493  0.23486  0.79792  1.0000
  C   C1952     1.0  0.54747  0.24123  0.81960  1.0000
  C   C1953     1.0  0.56490  0.24947  0.81366  1.0000
  C   C1954     1.0  0.56979  0.25101  0.78603  1.0000
  C   C1955     1.0  0.55724  0.24415  0.76414  1.0000
  C   C1956     1.0  0.53977  0.23656  0.77032  1.0000
  P   P67       1.0  0.56330  0.24775  0.72843  1.0000
  C   C1957     1.0  0.58442  0.24798  0.72495  1.0000
  C   C1958     1.0  0.54817  0.23007  0.70625  1.0000
  C   C1959     1.0  0.55126  0.21544  0.70017  1.0000
  C   C1960     1.0  0.53948  0.20173  0.68330  1.0000
  C   C1961     1.0  0.52459  0.20256  0.67210  1.0000
  C   C1962     1.0  0.52141  0.21707  0.67790  1.0000
  C   C1963     1.0  0.53309  0.23075  0.69501  1.0000
  C   C1964     1.0  0.58912  0.23665  0.74048  1.0000
  C   C1965     1.0  0.60475  0.23563  0.73628  1.0000
  C   C1966     1.0  0.61574  0.24569  0.71638  1.0000
  C   C1967     1.0  0.61128  0.25710  0.70101  1.0000
  C   C1968     1.0  0.59572  0.25831  0.70532  1.0000
  C   C1969     1.0  0.56219  0.26766  0.71820  1.0000
  C   C1970     1.0  0.55909  0.27831  0.73791  1.0000
  C   C1971     1.0  0.55665  0.29280  0.72953  1.0000
  C   C1972     1.0  0.55743  0.29692  0.70150  1.0000
  C   C1973     1.0  0.56059  0.28649  0.68176  1.0000
  C   C1974     1.0  0.56281  0.27183  0.69001  1.0000
  H   H1572     1.0  0.52139  0.22873  0.80249  1.0000
  H   H1573     1.0  0.54360  0.23988  0.84095  1.0000
  H   H1574     1.0  0.57462  0.25469  0.83045  1.0000
  H   H1575     1.0  0.58332  0.25775  0.78178  1.0000
  H   H1576     1.0  0.52984  0.23224  0.75386  1.0000
  H   H1577     1.0  0.56260  0.21438  0.70865  1.0000
  H   H1578     1.0  0.54174  0.19029  0.67935  1.0000
  H   H1579     1.0  0.51530  0.19174  0.65948  1.0000
  H   H1580     1.0  0.50966  0.21748  0.66965  1.0000
  H   H1581     1.0  0.53017  0.24168  0.69978  1.0000
  H   H1582     1.0  0.58046  0.22809  0.75515  1.0000
  H   H1583     1.0  0.60817  0.22663  0.74788  1.0000
  C   C1975     1.0  0.60412  0.45474  0.62943  1.0000
  C   C1976     1.0  0.54050  0.43120  0.66462  1.0000
  C   C1977     1.0  0.53504  0.40303  0.56339  1.0000
  C   C1978     1.0  0.51823  0.14317  0.82816  1.0000
  C   C1979     1.0  0.50417  0.25135  0.75160  1.0000
  C   C1980     1.0  0.72294  0.44439  0.78590  1.0000
  C   C1981     1.0  0.50767  0.45076  0.48942  1.0000
  H   H1584     1.0  0.56280  0.48095  0.86309  1.0000
  C   C1982     1.0  0.53319  0.42487  0.60628  1.0000
  H   H1585     1.0  0.53587  0.29300  0.98274  1.0000
  C   C1983     1.0  0.70847  0.23603  0.73912  1.0000
  C   C1984     1.0  0.61339  0.46329  0.88719  1.0000
  C   C1985     1.0  0.61948  0.09379  0.67391  1.0000
  C   C1986     1.0  0.53192  0.32091  0.93603  1.0000
  C   C1987     1.0  0.61915  0.06979  0.53273  1.0000
  H   H1586     1.0  0.56249  0.99411  0.54648  1.0000
  C   C1988     1.0  0.51255  0.29609  0.97347  1.0000
  C   C1989     1.0  0.55657  0.44333  0.85674  1.0000
  C   C1990     1.0  0.52674  0.06200  0.85413  1.0000
  C   C1991     1.0  0.54088  0.37394  0.86951  1.0000
  P   P68       1.0  0.61417  0.46245  0.54684  1.0000
  H   H1587     1.0  0.59716  0.03350  0.63015  1.0000
  H   H1588     1.0  0.65397  0.48140  0.87500  1.0000
  H   H1589     1.0  0.55794  0.41469  0.72803  1.0000
  H   H1590     1.0  0.50799  0.01968  0.87294  1.0000
  C   C1992     1.0  0.72266  0.24545  0.75774  1.0000
  H   H1591     1.0  0.69712  0.23630  0.69868  1.0000
  C   C1993     1.0  0.61879  0.05381  0.52457  1.0000
  H   H1592     1.0  0.62623  0.08126  0.52105  1.0000
  P   P69       1.0  0.52081  0.07848  0.84002  1.0000
  S   S258      1.0  0.56751  0.03276  0.94304  1.0000
  H   H1593     1.0  0.68804  0.03428  0.88717  1.0000
  C   C1994     1.0  0.51056  0.43573  0.63959  1.0000
  Fe  Fe131     1.0  0.58140  0.06111  0.95966  1.0000
  C   C1995     1.0  0.53495  0.03657  0.87899  1.0000
  C   C1996     1.0  0.61338  0.42949  0.54580  1.0000
  C   C1997     1.0  0.50564  0.43868  0.66601  1.0000
  Fe  Fe132     1.0  0.57267  0.09222  0.96106  1.0000
  H   H1594     1.0  0.48806  0.10215  0.92129  1.0000
  H   H1595     1.0  0.73176  0.44178  0.71612  1.0000
  H   H1596     1.0  0.72961  0.47222  0.69536  1.0000
  H   H1597     1.0  0.57661  0.46642  0.84049  1.0000
  C   C1998     1.0  0.62106  0.44618  0.53519  1.0000
  H   H1598     1.0  0.55405  0.07868  0.86140  1.0000
  C   C1999     1.0  0.55314  0.41921  0.71026  1.0000
  H   H1599     1.0  0.57807  0.43911  0.70159  1.0000
  H   H1600     1.0  0.50791  0.06607  0.89542  1.0000
  C   C2000     1.0  0.55252  0.43233  0.91519  1.0000
  H   H1601     1.0  0.49601  0.15396  0.91589  1.0000
  S   S259      1.0  0.48969  0.06338  0.49820  1.0000
  Fe  Fe133     1.0  0.66721  0.48400  0.74555  1.0000
  H   H1602     1.0  0.53232  0.38944  0.89500  1.0000
  H   H1603     1.0  0.55876  0.44249  0.59485  1.0000
  C   C2001     1.0  0.51878  0.34570  0.89946  1.0000
  C   C2002     1.0  0.62687  0.09556  0.64808  1.0000
  H   H1604     1.0  0.49671  0.34991  0.65891  1.0000
  C   C2003     1.0  0.49077  0.35758  0.64939  1.0000
  C   C2004     1.0  0.48899  0.43736  0.66960  1.0000
  H   H1605     1.0  0.50062  0.04196  0.85123  1.0000
  C   C2005     1.0  0.52699  0.15386  0.96199  1.0000
  C   C2006     1.0  0.64992  0.08762  0.95451  1.0000
  H   H1606     1.0  0.56022  0.42322  0.55707  1.0000
  H   H1607     1.0  0.51466  0.44195  0.68385  1.0000
  H   H1608     1.0  0.48709  0.03931  0.92365  1.0000
  H   H1609     1.0  0.62550  0.05281  0.50640  1.0000
  C   C2007     1.0  0.61020  0.47872  0.92770  1.0000
  C   C2008     1.0  0.54117  0.08893  0.49279  1.0000
  S   S260      1.0  0.50932  0.30158  0.74908  1.0000
  S   S261      1.0  0.49601  0.44467  0.54222  1.0000
  H   H1610     1.0  0.62647  0.10279  0.69101  1.0000
  H   H1611     1.0  0.59006  0.47700  0.56019  1.0000
  H   H1612     1.0  0.64574  0.45164  0.89215  1.0000
  C   C2009     1.0  0.73068  0.37970  0.62716  1.0000
  H   H1613     1.0  0.56231  0.02301  0.54451  1.0000
  C   C2010     1.0  0.53962  0.31226  0.95197  1.0000
  C   C2011     1.0  0.49382  0.00497  0.94731  1.0000
  C   C2012     1.0  0.49135  0.07289  0.80630  1.0000
  H   H1614     1.0  0.52291  0.06260  0.49891  1.0000
  C   C2013     1.0  0.73135  0.39366  0.64375  1.0000
  C   C2014     1.0  0.71377  0.48686  0.74938  1.0000
  C   C2015     1.0  0.61855  0.41668  0.53722  1.0000
  H   H1615     1.0  0.50838  0.24322  0.73931  1.0000
  H   H1616     1.0  0.53559  0.39463  0.54664  1.0000
  S   S262      1.0  0.62051  0.47976  0.72717  1.0000
  H   H1617     1.0  0.51852  0.00697  0.96400  1.0000
  C   C2016     1.0  0.50876  0.26878  0.74439  1.0000
  S   S263      1.0  0.59943  0.11166  0.97385  1.0000
  H   H1618     1.0  0.68250  0.47143  0.81094  1.0000
  H   H1619     1.0  0.51656  0.27385  0.72666  1.0000
  C   C2017     1.0  0.50288  0.45628  0.96895  1.0000
  C   C2018     1.0  0.48905  0.29451  0.88899  1.0000
  H   H1620     1.0  0.54624  0.35523  0.84598  1.0000
  C   C2019     1.0  0.52587  0.14057  0.80437  1.0000
  C   C2020     1.0  0.51162  0.04064  0.93869  1.0000
  H   H1621     1.0  0.49500  0.28977  0.90492  1.0000
  H   H1622     1.0  0.65753  0.11381  0.96997  1.0000
  H   H1623     1.0  0.49257  0.31877  0.67324  1.0000
  H   H1624     1.0  0.54722  0.45871  0.94307  1.0000
  H   H1625     1.0  0.52247  0.09764  0.54834  1.0000
  H   H1626     1.0  0.51492  0.40797  0.94554  1.0000
  C   C2021     1.0  0.72005  0.43075  0.70882  1.0000
  C   C2022     1.0  0.66879  0.47816  0.84203  1.0000
  C   C2023     1.0  0.49888  0.43228  0.61663  1.0000
  P   P70       1.0  0.63802  0.05297  0.93529  1.0000
  H   H1627     1.0  0.51011  0.03107  0.50037  1.0000
  H   H1628     1.0  0.64569  0.09046  0.93459  1.0000
  C   C2024     1.0  0.60850  0.05181  0.90677  1.0000
  H   H1629     1.0  0.63952  0.10595  0.64530  1.0000
  H   H1630     1.0  0.51502  0.04262  0.61269  1.0000
  C   C2025     1.0  0.72111  0.25937  0.70638  1.0000
  C   C2026     1.0  0.63308  0.47012  0.59751  1.0000
  C   C2027     1.0  0.60893  0.06910  0.86711  1.0000
  C   C2028     1.0  0.52993  0.29981  0.97059  1.0000
  H   H1631     1.0  0.52327  0.10858  0.96063  1.0000
  C   C2029     1.0  0.49074  0.31170  0.88999  1.0000
  H   H1632     1.0  0.50258  0.43062  0.59584  1.0000
  H   H1633     1.0  0.49784  0.04023  0.75592  1.0000
  H   H1634     1.0  0.51888  0.15115  0.97974  1.0000
  C   C2030     1.0  0.66889  0.04904  0.93563  1.0000
  C   C2031     1.0  0.55714  0.02940  0.60892  1.0000
  H   H1635     1.0  0.50846  0.40379  0.61359  1.0000
  H   H1636     1.0  0.50013  0.37416  0.85541  1.0000
  Fe  Fe134     1.0  0.49282  0.19844  0.77386  1.0000
  C   C2032     1.0  0.55542  0.00405  0.63325  1.0000
  C   C2033     1.0  0.54025  0.17034  0.95902  1.0000
  C   C2034     1.0  0.52899  0.10970  0.48629  1.0000
  C   C2035     1.0  0.49391  0.24442  0.77430  1.0000
  H   H1637     1.0  0.51334  0.10897  0.84395  1.0000
  H   H1638     1.0  0.51338  0.12820  0.94392  1.0000
  H   H1639     1.0  0.70290  0.47452  0.70954  1.0000
  C   C2036     1.0  0.51150  0.01380  0.95478  1.0000
  C   C2037     1.0  0.49595  0.04925  0.77012  1.0000
  C   C2038     1.0  0.62659  0.05890  0.90810  1.0000
  H   H1640     1.0  0.55310  0.31513  0.94974  1.0000
  C   C2039     1.0  0.49309  0.27280  0.78251  1.0000
  H   H1641     1.0  0.62146  0.46037  0.87312  1.0000
  H   H1642     1.0  0.49813  0.11860  0.87850  1.0000
  S   S264      1.0  0.60936  0.07807  0.97229  1.0000
  C   C2040     1.0  0.51441  0.31710  0.93860  1.0000
  C   C2041     1.0  0.48925  0.37087  0.86851  1.0000
  C   C2042     1.0  0.54819  0.46808  0.92756  1.0000
  C   C2043     1.0  0.55020  0.01159  0.54435  1.0000
  C   C2044     1.0  0.55411  0.48517  0.59699  1.0000
  H   H1643     1.0  0.72356  0.37657  0.60726  1.0000
  H   H1644     1.0  0.58611  0.99377  0.98255  1.0000
  C   C2045     1.0  0.48594  0.14421  0.90278  1.0000
  H   H1645     1.0  0.51127  0.34476  0.97171  1.0000
  C   C2046     1.0  0.55877  0.45013  0.51423  1.0000
  C   C2047     1.0  0.68105  0.04428  0.92384  1.0000
  C   C2048     1.0  0.49736  0.00298  0.49675  1.0000
  H   H1646     1.0  0.51812  0.13520  0.78538  1.0000
  C   C2049     1.0  0.50034  0.10713  0.88199  1.0000
  C   C2050     1.0  0.54957  0.99715  0.94286  1.0000
  C   C2051     1.0  0.56710  0.44028  0.50427  1.0000
  C   C2052     1.0  0.58025  0.16093  0.97420  1.0000
  C   C2053     1.0  0.50324  0.47886  0.59706  1.0000
  C   C2054     1.0  0.55707  0.48064  0.88282  1.0000
  C   C2055     1.0  0.49837  0.01803  0.55299  1.0000
  H   H1647     1.0  0.72749  0.43822  0.77026  1.0000
  C   C2056     1.0  0.63425  0.44998  0.51633  1.0000
  C   C2057     1.0  0.65414  0.04749  0.91992  1.0000
  S   S265      1.0  0.49024  0.39835  0.51755  1.0000
  H   H1648     1.0  0.53470  0.02578  0.53934  1.0000
  C   C2058     1.0  0.53345  0.09017  0.97053  1.0000
  C   C2059     1.0  0.48857  0.42620  0.86506  1.0000
  C   C2060     1.0  0.50410  0.49091  0.57705  1.0000
  C   C2061     1.0  0.48728  0.36933  0.66580  1.0000
  C   C2062     1.0  0.48642  0.35562  0.62057  1.0000
  S   S266      1.0  0.48705  0.22223  0.78400  1.0000
  H   H1649     1.0  0.64447  0.47577  0.58544  1.0000
  H   H1650     1.0  0.63540  0.41051  0.51133  1.0000
  C   C2063     1.0  0.61774  0.01745  0.93945  1.0000
  C   C2064     1.0  0.49701  0.04581  0.58357  1.0000
  C   C2065     1.0  0.59650  0.00493  0.97422  1.0000
  H   H1651     1.0  0.49723  0.43849  0.87493  1.0000
  H   H1652     1.0  0.72554  0.21077  0.73450  1.0000
  H   H1653     1.0  0.72490  0.40144  0.63627  1.0000
  C   C2066     1.0  0.72887  0.46739  0.82052  1.0000
  C   C2067     1.0  0.62263  0.03406  0.95170  1.0000
  H   H1654     1.0  0.55227  0.08600  0.49405  1.0000
  H   H1655     1.0  0.53946  0.06909  0.98269  1.0000
  H   H1656     1.0  0.69238  0.04549  0.93612  1.0000
  H   H1657     1.0  0.63461  0.48109  0.91366  1.0000
  H   H1658     1.0  0.53341  0.00719  0.61615  1.0000
  C   C2068     1.0  0.48761  0.02575  0.54370  1.0000
  H   H1659     1.0  0.59014  0.43613  0.50601  1.0000
  H   H1660     1.0  0.48878  0.34616  0.60822  1.0000
  C   C2069     1.0  0.52142  0.09719  0.97205  1.0000
  H   H1661     1.0  0.48880  0.28093  0.79462  1.0000
  S   S267      1.0  0.49142  0.37163  0.70254  1.0000
  C   C2070     1.0  0.64791  0.07079  0.96067  1.0000
  H   H1662     1.0  0.61066  0.49035  0.65268  1.0000
  C   C2071     1.0  0.48844  0.25533  0.78966  1.0000
  C   C2072     1.0  0.55035  0.99527  0.54545  1.0000
  C   C2073     1.0  0.49494  0.41841  0.84531  1.0000
  S   S268      1.0  0.69479  0.48849  0.76134  1.0000
  Fe  Fe135     1.0  0.63608  0.48956  0.76778  1.0000
  C   C2074     1.0  0.49143  0.43362  0.93283  1.0000
  C   C2075     1.0  0.73464  0.45936  0.80028  1.0000
  H   H1663     1.0  0.56069  0.43025  0.48828  1.0000
  H   H1664     1.0  0.48517  0.43936  0.69012  1.0000
  C   C2076     1.0  0.49012  0.46180  0.96171  1.0000
  H   H1665     1.0  0.48947  0.47251  0.97320  1.0000
  C   C2077     1.0  0.50394  0.01980  0.48647  1.0000
  S   S269      1.0  0.56398  0.12274  0.48840  1.0000
  H   H1666     1.0  0.58456  0.00287  0.48565  1.0000
  C   C2078     1.0  0.48852  0.34758  0.98299  1.0000
  H   H1667     1.0  0.61734  0.04855  0.98476  1.0000
  S   S270      1.0  0.49290  0.91599  0.00457  1.0000
  S   S271      1.0  0.65836  0.51136  0.16095  1.0000
  H   H1668     1.0  0.54412  0.50876  0.00398  1.0000
  H   H1669     1.0  0.51587  0.59010  0.35775  1.0000
  C   C2079     1.0  0.51442  0.76530  0.17067  1.0000
  Fe  Fe136     1.0  0.51016  0.91391  0.43694  1.0000
  S   S272      1.0  0.51467  0.90127  0.39703  1.0000
  Fe  Fe137     1.0  0.49939  0.89309  0.99957  1.0000
  C   C2080     1.0  0.50849  0.70010  0.99031  1.0000
  S   S273      1.0  0.51453  0.94191  0.43526  1.0000
  C   C2081     1.0  0.69181  0.51558  0.30615  1.0000
  S   S274      1.0  0.53436  0.95884  0.00003  1.0000
  H   H1670     1.0  0.52166  0.83529  0.20226  1.0000
  C   C2082     1.0  0.48706  0.74449  0.15040  1.0000
  C   C2083     1.0  0.70256  0.58181  0.29507  1.0000
  C   C2084     1.0  0.67404  0.55571  0.25930  1.0000
  C   C2085     1.0  0.56902  0.57540  0.48338  1.0000
  C   C2086     1.0  0.73022  0.60266  0.31493  1.0000
  H   H1671     1.0  0.53156  0.49348  0.10480  1.0000
  C   C2087     1.0  0.51838  0.58621  0.31424  1.0000
  C   C2088     1.0  0.50051  0.69274  0.39061  1.0000
  C   C2089     1.0  0.48844  0.63635  0.08284  1.0000
  S   S275      1.0  0.48546  0.90575  0.45900  1.0000
  Fe  Fe138     1.0  0.64374  0.49621  0.26589  1.0000
  S   S276      1.0  0.66882  0.50902  0.24345  1.0000
  C   C2090     1.0  0.71358  0.61216  0.28331  1.0000
  C   C2091     1.0  0.53099  0.50749  0.00457  1.0000
  H   H1672     1.0  0.49032  0.50613  0.36713  1.0000
  C   C2092     1.0  0.51393  0.72239  0.07968  1.0000
  C   C2093     1.0  0.54340  0.68146  0.12065  1.0000
  H   H1673     1.0  0.51263  0.63469  0.09020  1.0000
  C   C2094     1.0  0.51931  0.50848  0.48105  1.0000
  Fe  Fe139     1.0  0.52842  0.94624  0.47699  1.0000
  Fe  Fe140     1.0  0.50350  0.62808  0.44503  1.0000
  S   S277      1.0  0.50979  0.63763  0.40086  1.0000
  S   S278      1.0  0.50366  0.59663  0.01047  1.0000
  H   H1674     1.0  0.53002  0.98725  0.47447  1.0000
  Fe  Fe141     1.0  0.61081  0.52842  0.02349  1.0000
  S   S279      1.0  0.58187  0.51651  0.01818  1.0000
  S   S280      1.0  0.61999  0.53677  0.06880  1.0000
  S   S281      1.0  0.55152  0.60887  0.99543  1.0000
  S   S282      1.0  0.58772  0.53012  0.44309  1.0000
  S   S283      1.0  0.63050  0.52346  0.43057  1.0000
  H   H1675     1.0  0.71708  0.55940  0.27137  1.0000
  H   H1676     1.0  0.51580  0.64438  0.14003  1.0000
  C   C2095     1.0  0.64874  0.56208  0.34288  1.0000
  C   C2096     1.0  0.50935  0.74871  0.08287  1.0000
  H   H1677     1.0  0.53921  0.52502  0.10727  1.0000
  H   H1678     1.0  0.49000  0.60518  0.13900  1.0000
  C   C2097     1.0  0.50815  0.78837  0.03491  1.0000
  H   H1679     1.0  0.52997  0.50936  0.46864  1.0000
  C   C2098     1.0  0.49340  0.96542  0.99445  1.0000
  H   H1680     1.0  0.50069  0.75502  0.08238  1.0000
  C   C2099     1.0  0.50288  0.63786  0.09924  1.0000
  C   C2100     1.0  0.49924  0.87076  0.47108  1.0000
  C   C2101     1.0  0.54824  0.67497  0.45908  1.0000
  H   H1681     1.0  0.50833  0.82677  0.10053  1.0000
  C   C2102     1.0  0.57058  0.58941  0.99636  1.0000
  H   H1682     1.0  0.61681  0.58230  0.03449  1.0000
  C   C2103     1.0  0.52091  0.79703  0.05567  1.0000
  C   C2104     1.0  0.72489  0.49868  0.23587  1.0000
  C   C2105     1.0  0.63105  0.51045  0.33636  1.0000
  C   C2106     1.0  0.64300  0.50905  0.35569  1.0000
  C   C2107     1.0  0.64234  0.51264  0.38437  1.0000
  C   C2108     1.0  0.62960  0.51743  0.39440  1.0000
  C   C2109     1.0  0.61728  0.51821  0.37522  1.0000
  C   C2110     1.0  0.61813  0.51493  0.34647  1.0000
  H   H1683     1.0  0.64925  0.53916  0.27503  1.0000
  H   H1684     1.0  0.50451  0.80581  0.18240  1.0000
  H   H1685     1.0  0.60740  0.52185  0.38244  1.0000
  H   H1686     1.0  0.60878  0.51606  0.33192  1.0000
  C   C2111     1.0  0.64504  0.51498  0.13492  1.0000
  C   C2112     1.0  0.63136  0.51907  0.14157  1.0000
  C   C2113     1.0  0.62330  0.52508  0.12088  1.0000
  C   C2114     1.0  0.62819  0.52623  0.09306  1.0000
  C   C2115     1.0  0.64105  0.52101  0.08611  1.0000
  C   C2116     1.0  0.64962  0.51574  0.10701  1.0000
  C   C2117     1.0  0.48843  0.54657  0.05653  1.0000
  H   H1687     1.0  0.61357  0.52932  0.12667  1.0000
  H   H1688     1.0  0.64518  0.52210  0.06495  1.0000
  H   H1689     1.0  0.49970  0.52909  0.04701  1.0000
  P   P71       1.0  0.50528  0.69903  0.07538  1.0000
  Fe  Fe142     1.0  0.49099  0.93388  0.46003  1.0000
  S   S284      1.0  0.49200  0.59927  0.45000  1.0000
  H   H1690     1.0  0.58324  0.59094  0.12563  1.0000
  S   S285      1.0  0.52617  0.91859  0.47739  1.0000
  H   H1691     1.0  0.65008  0.54392  0.18646  1.0000
  Fe  Fe143     1.0  0.58530  0.49664  0.99114  1.0000
  C   C2118     1.0  0.49604  0.64160  0.37599  1.0000
  C   C2119     1.0  0.50125  0.64500  0.34846  1.0000
  H   H1692     1.0  0.52493  0.85613  0.12099  1.0000
  C   C2120     1.0  0.71013  0.54740  0.28175  1.0000
  H   H1693     1.0  0.51331  0.64487  0.34279  1.0000
  H   H1694     1.0  0.49550  0.65168  0.30726  1.0000
  C   C2121     1.0  0.50949  0.81656  0.16858  1.0000
  C   C2122     1.0  0.66795  0.55422  0.37149  1.0000
  C   C2123     1.0  0.67765  0.55488  0.34839  1.0000
  H   H1695     1.0  0.58114  0.60299  0.47764  1.0000
  C   C2124     1.0  0.70062  0.59522  0.28088  1.0000
  S   S286      1.0  0.52305  0.63304  0.48105  1.0000
  H   H1696     1.0  0.56092  0.53921  0.15710  1.0000
  C   C2125     1.0  0.49270  0.86933  0.06812  1.0000
  Fe  Fe144     1.0  0.49874  0.62066  0.01326  1.0000
  H   H1697     1.0  0.50865  0.97944  0.38487  1.0000
  C   C2126     1.0  0.50133  0.88602  0.37051  1.0000
  H   H1698     1.0  0.54682  0.72865  0.45381  1.0000
  H   H1699     1.0  0.49519  0.67940  0.39703  1.0000
  H   H1700     1.0  0.50903  0.85657  0.41057  1.0000
  C   C2127     1.0  0.49880  0.87258  0.32381  1.0000
  C   C2128     1.0  0.50859  0.88474  0.34518  1.0000
  H   H1701     1.0  0.55712  0.53936  0.04885  1.0000
  H   H1702     1.0  0.50466  0.87185  0.30455  1.0000
  H   H1703     1.0  0.52194  0.89327  0.34203  1.0000
  H   H1704     1.0  0.53679  0.54325  0.01534  1.0000
  C   C2129     1.0  0.51996  0.69182  0.09312  1.0000
  H   H1705     1.0  0.65487  0.56666  0.30007  1.0000
  H   H1706     1.0  0.49910  0.55471  0.07048  1.0000
  C   C2130     1.0  0.50603  0.81387  0.13974  1.0000
  H   H1707     1.0  0.50894  0.68977  0.13362  1.0000
  C   C2131     1.0  0.52702  0.75852  0.08826  1.0000
  H   H1708     1.0  0.51155  0.71858  0.02329  1.0000
  C   C2132     1.0  0.49001  0.55002  0.44506  1.0000
  H   H1709     1.0  0.55417  0.68239  0.08059  1.0000
  H   H1710     1.0  0.55217  0.67711  0.13122  1.0000
  S   S287      1.0  0.63176  0.50715  0.29950  1.0000
  C   C2133     1.0  0.48916  0.99116  0.44944  1.0000
  C   C2134     1.0  0.49828  0.96362  0.02183  1.0000
  H   H1711     1.0  0.53203  0.77242  0.09198  1.0000
  C   C2135     1.0  0.49825  0.69613  0.36279  1.0000
  H   H1712     1.0  0.49826  0.49746  0.04874  1.0000
  H   H1713     1.0  0.69689  0.56960  0.23624  1.0000
  C   C2136     1.0  0.54597  0.74780  0.48265  1.0000
  Fe  Fe145     1.0  0.57239  0.50855  0.47063  1.0000
  H   H1714     1.0  0.55375  0.57867  0.10332  1.0000
  P   P72       1.0  0.51169  0.70180  0.44611  1.0000
  H   H1715     1.0  0.49414  0.91918  0.06767  1.0000
  H   H1716     1.0  0.53399  0.55889  0.28684  1.0000
  H   H1717     1.0  0.71878  0.57566  0.32435  1.0000
  H   H1718     1.0  0.48908  0.72332  0.07430  1.0000
  C   C2137     1.0  0.65850  0.56289  0.31975  1.0000
  Fe  Fe146     1.0  0.61044  0.52591  0.45935  1.0000
  C   C2138     1.0  0.50199  0.74818  0.16697  1.0000
  C   C2139     1.0  0.50282  0.73073  0.07841  1.0000
  H   H1719     1.0  0.53416  0.58287  0.06863  1.0000
  C   C2140     1.0  0.68307  0.56191  0.23507  1.0000
  C   C2141     1.0  0.53171  0.73238  0.08462  1.0000
  H   H1720     1.0  0.62765  0.51856  0.16289  1.0000
  C   C2142     1.0  0.51632  0.79833  0.08293  1.0000
  C   C2143     1.0  0.50134  0.85741  0.42747  1.0000
  H   H1721     1.0  0.58012  0.60027  0.00844  1.0000
  C   C2144     1.0  0.51162  0.82829  0.12263  1.0000
  H   H1722     1.0  0.52258  0.58005  0.27237  1.0000
  C   C2145     1.0  0.48841  0.99020  0.00950  1.0000
  C   C2146     1.0  0.71730  0.58571  0.31250  1.0000
  C   C2147     1.0  0.65632  0.54486  0.25688  1.0000
  H   H1723     1.0  0.67284  0.52512  0.31463  1.0000
  H   H1724     1.0  0.68908  0.59264  0.26809  1.0000
  H   H1725     1.0  0.51891  0.74016  0.36631  1.0000
  H   H1726     1.0  0.52956  0.68104  0.15738  1.0000
  H   H1727     1.0  0.64568  0.55671  0.38654  1.0000
  C   C2148     1.0  0.50191  0.88162  0.11534  1.0000
  Fe  Fe147     1.0  0.52664  0.61221  0.98561  1.0000
  C   C2149     1.0  0.52974  0.56542  0.30237  1.0000
  H   H1728     1.0  0.52290  0.87746  0.45006  1.0000
  C   C2150     1.0  0.52491  0.84749  0.16274  1.0000
  C   C2151     1.0  0.49115  0.64882  0.32820  1.0000
  C   C2152     1.0  0.52338  0.57739  0.29420  1.0000
  H   H1729     1.0  0.60548  0.56782  0.13333  1.0000
  H   H1730     1.0  0.71882  0.50701  0.22960  1.0000
  H   H1731     1.0  0.52169  0.79188  0.16107  1.0000
  C   C2153     1.0  0.53294  0.68971  0.07849  1.0000
  H   H1732     1.0  0.50867  0.89630  0.07775  1.0000
  C   C2154     1.0  0.51913  0.83328  0.17996  1.0000
  C   C2155     1.0  0.67275  0.55880  0.32217  1.0000
  H   H1733     1.0  0.49713  0.66578  0.04715  1.0000
  H   H1734     1.0  0.58685  0.56810  0.04880  1.0000
  H   H1735     1.0  0.52589  0.76817  0.18382  1.0000
  C   C2156     1.0  0.54927  0.52059  0.10508  1.0000
  C   C2157     1.0  0.54448  0.68439  0.09217  1.0000
  S   S288      1.0  0.49530  0.65512  0.17550  1.0000
  P   P73       1.0  0.68567  0.56006  0.29265  1.0000
  H   H1736     1.0  0.50374  0.73782  0.17744  1.0000
  H   H1737     1.0  0.52305  0.73446  0.41537  1.0000
  C   C2158     1.0  0.50555  0.55528  0.43168  1.0000
  C   C2159     1.0  0.50640  0.55945  0.40352  1.0000
  C   C2160     1.0  0.53102  0.68417  0.42812  1.0000
  P   P74       1.0  0.52694  0.56679  0.38748  1.0000
  C   C2161     1.0  0.54145  0.58770  0.40231  1.0000
  C   C2162     1.0  0.53462  0.55048  0.39505  1.0000
  C   C2163     1.0  0.54705  0.55338  0.41668  1.0000
  C   C2164     1.0  0.55195  0.54027  0.42412  1.0000
  C   C2165     1.0  0.54443  0.52408  0.41022  1.0000
  C   C2166     1.0  0.53177  0.52091  0.38905  1.0000
  C   C2167     1.0  0.52675  0.53402  0.38167  1.0000
  C   C2168     1.0  0.55915  0.59422  0.39766  1.0000
  C   C2169     1.0  0.57049  0.61062  0.40840  1.0000
  C   C2170     1.0  0.56417  0.62082  0.42317  1.0000
  C   C2171     1.0  0.54650  0.61459  0.42724  1.0000
  C   C2172     1.0  0.53517  0.59805  0.41706  1.0000
  C   C2173     1.0  0.52530  0.57043  0.35079  1.0000
  H   H1738     1.0  0.53438  0.80283  0.05061  1.0000
  C   C2174     1.0  0.67437  0.55782  0.20895  1.0000
  H   H1739     1.0  0.51380  0.59578  0.30800  1.0000
  C   C2175     1.0  0.50396  0.69273  0.03892  1.0000
  C   C2176     1.0  0.53089  0.56208  0.33058  1.0000
  H   H1740     1.0  0.64115  0.58938  0.06913  1.0000
  C   C2177     1.0  0.70738  0.51884  0.29382  1.0000
  H   H1741     1.0  0.67146  0.55071  0.39155  1.0000
  H   H1742     1.0  0.51699  0.55640  0.44346  1.0000
  C   C2178     1.0  0.56653  0.53262  0.10321  1.0000
  H   H1743     1.0  0.55276  0.56560  0.42842  1.0000
  H   H1744     1.0  0.56149  0.54270  0.44099  1.0000
  H   H1745     1.0  0.54832  0.51396  0.41609  1.0000
  H   H1746     1.0  0.52580  0.50824  0.37864  1.0000
  H   H1747     1.0  0.51669  0.53134  0.36567  1.0000
  H   H1748     1.0  0.56422  0.58654  0.38600  1.0000
  H   H1749     1.0  0.58420  0.61540  0.40536  1.0000
  H   H1750     1.0  0.57294  0.63351  0.43155  1.0000
  H   H1751     1.0  0.54157  0.62252  0.43852  1.0000
  H   H1752     1.0  0.52157  0.59347  0.42068  1.0000
  C   C2179     1.0  0.55771  0.49684  0.10015  1.0000
  H   H1753     1.0  0.56221  0.55153  0.20430  1.0000
  C   C2180     1.0  0.57927  0.52655  0.10000  1.0000
  C   C2181     1.0  0.49708  0.50456  0.00594  1.0000
  H   H1754     1.0  0.53648  0.55328  0.33640  1.0000
  C   C2182     1.0  0.65666  0.54733  0.20680  1.0000
  C   C2183     1.0  0.64764  0.54079  0.23073  1.0000
  H   H1755     1.0  0.52634  0.80500  0.09889  1.0000
  H   H1756     1.0  0.63402  0.53217  0.22899  1.0000
  C   C2184     1.0  0.71650  0.53471  0.28152  1.0000
  H   H1757     1.0  0.71208  0.62245  0.27219  1.0000
  C   C2185     1.0  0.54220  0.67621  0.43224  1.0000
  H   H1758     1.0  0.55192  0.75800  0.09298  1.0000
  C   C2186     1.0  0.68535  0.52819  0.30628  1.0000
  C   C2187     1.0  0.50918  0.86922  0.44972  1.0000
  H   H1759     1.0  0.52556  0.56519  0.02471  1.0000
  C   C2188     1.0  0.57826  0.58218  0.14256  1.0000
  S   S289      1.0  0.61393  0.50751  0.99851  1.0000
  C   C2189     1.0  0.69468  0.54436  0.29465  1.0000
  C   C2190     1.0  0.49032  0.68831  0.45737  1.0000
  C   C2191     1.0  0.50462  0.64334  0.12757  1.0000
  S   S290      1.0  0.49428  0.86360  0.16414  1.0000
  C   C2192     1.0  0.51895  0.68875  0.12173  1.0000
  H   H1760     1.0  0.68892  0.55224  0.35103  1.0000
  S   S291      1.0  0.52283  0.63705  0.99121  1.0000
  H   H1761     1.0  0.68446  0.50301  0.31470  1.0000
  H   H1762     1.0  0.63746  0.56474  0.34084  1.0000
  C   C2193     1.0  0.49887  0.79121  0.08951  1.0000
  C   C2194     1.0  0.50235  0.49939  0.47056  1.0000
  C   C2195     1.0  0.48869  0.53196  0.04312  1.0000
  C   C2196     1.0  0.53074  0.68378  0.13542  1.0000
  H   H1763     1.0  0.54058  0.72633  0.08538  1.0000
  H   H1764     1.0  0.50244  0.95353  0.02651  1.0000
  Fe  Fe148     1.0  0.65274  0.49873  0.20326  1.0000
  C   C2197     1.0  0.50165  0.88366  0.08621  1.0000
  C   C2198     1.0  0.52577  0.69100  0.45092  1.0000
  C   C2199     1.0  0.54490  0.50275  0.10364  1.0000
  C   C2200     1.0  0.49305  0.86530  0.12704  1.0000
  C   C2201     1.0  0.52200  0.50277  0.02897  1.0000
  S   S292      1.0  0.49245  0.87095  0.03094  1.0000
  H   H1765     1.0  0.68139  0.56236  0.19023  1.0000
  C   C2202     1.0  0.57488  0.50876  0.09834  1.0000
  H   H1766     1.0  0.50303  0.71575  0.33248  1.0000
  H   H1767     1.0  0.66028  0.51279  0.10163  1.0000
  H   H1768     1.0  0.63538  0.58220  0.11847  1.0000
  C   C2203     1.0  0.53820  0.75038  0.08892  1.0000
  H   H1769     1.0  0.57374  0.58340  0.21245  1.0000
  H   H1770     1.0  0.54586  0.67062  0.41458  1.0000
  H   H1771     1.0  0.58416  0.60302  0.17298  1.0000
  C   C2204     1.0  0.50490  0.71320  0.35406  1.0000
  H   H1772     1.0  0.59258  0.53550  0.09822  1.0000
  C   C2205     1.0  0.65342  0.55766  0.36869  1.0000
  C   C2206     1.0  0.49137  0.55803  0.38878  1.0000
  C   C2207     1.0  0.49211  0.64756  0.13989  1.0000
  H   H1773     1.0  0.53416  0.69203  0.05645  1.0000
  H   H1774     1.0  0.50912  0.89280  0.12895  1.0000
  H   H1775     1.0  0.71213  0.50887  0.29307  1.0000
  C   C2208     1.0  0.52110  0.84500  0.13411  1.0000
  H   H1776     1.0  0.52819  0.50037  0.04734  1.0000
  H   H1777     1.0  0.52650  0.68478  0.40709  1.0000
  C   C2209     1.0  0.51184  0.77876  0.15804  1.0000
  C   C2210     1.0  0.51949  0.58288  0.34242  1.0000
  H   H1778     1.0  0.65296  0.50554  0.34852  1.0000
  H   H1779     1.0  0.58487  0.50432  0.09520  1.0000
  C   C2211     1.0  0.62472  0.57947  0.10352  1.0000
  C   C2212     1.0  0.62799  0.58351  0.07569  1.0000
  C   C2213     1.0  0.61425  0.57949  0.05617  1.0000
  C   C2214     1.0  0.59723  0.57137  0.06441  1.0000
  C   C2215     1.0  0.59384  0.56730  0.09236  1.0000
  C   C2216     1.0  0.60774  0.57133  0.11183  1.0000
  P   P75       1.0  0.57201  0.55560  0.10319  1.0000
  C   C2217     1.0  0.57146  0.56414  0.13763  1.0000
  C   C2218     1.0  0.55692  0.55858  0.07893  1.0000
  C   C2219     1.0  0.55020  0.57075  0.08439  1.0000
  C   C2220     1.0  0.53887  0.57305  0.06491  1.0000
  C   C2221     1.0  0.53396  0.56306  0.04013  1.0000
  C   C2222     1.0  0.54032  0.55072  0.03482  1.0000
  C   C2223     1.0  0.55186  0.54857  0.05394  1.0000
  C   C2224     1.0  0.56570  0.55312  0.16010  1.0000
  C   C2225     1.0  0.56649  0.56007  0.18698  1.0000
  C   C2226     1.0  0.57304  0.57803  0.19161  1.0000
  C   C2227     1.0  0.57891  0.58908  0.16939  1.0000
  H   H1780     1.0  0.65196  0.51198  0.39890  1.0000
  H   H1781     1.0  0.53171  0.86052  0.17172  1.0000
  C   C2228     1.0  0.50817  0.70508  0.01813  1.0000
  C   C2229     1.0  0.50002  0.67541  0.03138  1.0000
  C   C2230     1.0  0.50023  0.67045  0.00360  1.0000
  C   C2231     1.0  0.51622  0.72359  0.40100  1.0000
  C   C2232     1.0  0.51386  0.72692  0.37314  1.0000
  H   H1782     1.0  0.49308  0.70717  0.12747  1.0000
  C   C2233     1.0  0.52091  0.72159  0.46734  1.0000
  H   H1783     1.0  0.63399  0.50050  0.46737  1.0000
  C   C2234     1.0  0.50960  0.70644  0.40994  1.0000
  H   H1784     1.0  0.55447  0.60736  0.48405  1.0000
  H   H1785     1.0  0.58537  0.49884  0.28381  1.0000
  H   H1786     1.0  0.51171  0.78747  0.01374  1.0000
  H   H1787     1.0  0.49149  0.56096  0.36703  1.0000
  C   C2235     1.0  0.53865  0.73229  0.46673  1.0000
  C   C2236     1.0  0.49032  0.98866  0.47795  1.0000
  C   C2237     1.0  0.49338  0.98840  0.03681  1.0000
  H   H1788     1.0  0.49129  0.68552  0.34791  1.0000
  H   H1789     1.0  0.48962  0.54727  0.46703  1.0000
  H   H1790     1.0  0.49419  0.75937  0.22978  1.0000
  H   H1791     1.0  0.49729  0.65705  0.99805  1.0000
  C   C2238     1.0  0.49663  0.77522  0.14201  1.0000
  C   C2239     1.0  0.56918  0.59198  0.48153  1.0000
  C   C2240     1.0  0.50510  0.50125  0.02969  1.0000
  C   C2241     1.0  0.48615  0.78214  0.06873  1.0000
  C   C2242     1.0  0.49843  0.97517  0.04294  1.0000
  C   C2243     1.0  0.48853  0.97882  0.98810  1.0000
  H   H1792     1.0  0.50272  0.97401  0.06392  1.0000
  S   S293      1.0  0.49028  0.83383  0.23162  1.0000
  H   H1793     1.0  0.49988  0.49317  0.45003  1.0000
  C   C2244     1.0  0.49078  0.78087  0.04147  1.0000
  H   H1794     1.0  0.55966  0.75602  0.48199  1.0000
  C   C2245     1.0  0.48776  0.67617  0.47813  1.0000
  H   H1795     1.0  0.55666  0.66850  0.46223  1.0000
  H   H1796     1.0  0.72829  0.53696  0.27124  1.0000
  C   C2246     1.0  0.53206  0.68984  0.47783  1.0000
  S   S294      1.0  0.58838  0.57278  0.47875  1.0000
  H   H1797     1.0  0.58582  0.57449  0.99757  1.0000
  Fe  Fe149     1.0  0.59139  0.54726  0.48133  1.0000
  C   C2247     1.0  0.54310  0.68171  0.48188  1.0000
  C   C2248     1.0  0.72840  0.61588  0.30025  1.0000
  P   P76       1.0  0.49320  0.79237  0.12497  1.0000
  S   S295      1.0  0.61431  0.54567  0.98651  1.0000
  C   C2249     1.0  0.51059  0.72669  0.48402  1.0000
  H   H1798     1.0  0.49687  0.71877  0.48481  1.0000
  C   C2250     1.0  0.57386  0.57477  0.99028  1.0000
  C   C2251     1.0  0.55513  0.59015  0.98690  1.0000
  C   C2252     1.0  0.53705  0.86116  0.83327  1.0000
  P   P77       1.0  0.51287  0.52465  0.55892  1.0000
  S   S296      1.0  0.49690  0.87131  0.65899  1.0000
  C   C2253     1.0  0.51026  0.71061  0.67650  1.0000
  H   H1799     1.0  0.52688  0.80667  0.80468  1.0000
  Fe  Fe150     1.0  0.50929  0.90211  0.93794  1.0000
  S   S297      1.0  0.51778  0.89611  0.89592  1.0000
  Fe  Fe151     1.0  0.50131  0.91178  0.49974  1.0000
  H   H1800     1.0  0.50090  0.51305  0.96338  1.0000
  C   C2254     1.0  0.50455  0.68280  0.98306  1.0000
  C   C2255     1.0  0.51403  0.50178  0.63267  1.0000
  H   H1801     1.0  0.54153  0.86299  0.85492  1.0000
  H   H1802     1.0  0.50500  0.67891  0.96158  1.0000
  H   H1803     1.0  0.51823  0.58568  0.60974  1.0000
  H   H1804     1.0  0.55314  0.88766  0.82386  1.0000
  C   C2256     1.0  0.50900  0.72817  0.58523  1.0000
  H   H1805     1.0  0.52668  0.72413  0.55817  1.0000
  H   H1806     1.0  0.51313  0.68012  0.58855  1.0000
  H   H1807     1.0  0.50688  0.81407  0.94433  1.0000
  H   H1808     1.0  0.51800  0.50599  0.65417  1.0000
  C   C2257     1.0  0.49944  0.72908  0.65221  1.0000
  S   S298      1.0  0.48663  0.83660  0.72206  1.0000
  S   S299      1.0  0.50385  0.92570  0.93989  1.0000
  C   C2258     1.0  0.48865  0.49812  0.48674  1.0000
  S   S300      1.0  0.65985  0.50666  0.74561  1.0000
  H   H1809     1.0  0.49926  0.62397  0.87450  1.0000
  H   H1810     1.0  0.54356  0.88391  0.77389  1.0000
  H   H1811     1.0  0.48965  0.52475  0.60358  1.0000
  C   C2259     1.0  0.54301  0.57601  0.97109  1.0000
  C   C2260     1.0  0.50891  0.51485  0.52427  1.0000
  C   C2261     1.0  0.50261  0.78133  0.59495  1.0000
  Fe  Fe152     1.0  0.50272  0.63516  0.50813  1.0000
  S   S301      1.0  0.50808  0.65694  0.54104  1.0000
  Fe  Fe153     1.0  0.50656  0.62885  0.95073  1.0000
  H   H1812     1.0  0.50431  0.69729  0.53549  1.0000
  H   H1813     1.0  0.65060  0.52592  0.54782  1.0000
  S   S302      1.0  0.51265  0.60575  0.94349  1.0000
  Fe  Fe154     1.0  0.59812  0.52201  0.52065  1.0000
  S   S303      1.0  0.57434  0.52580  0.50744  1.0000
  S   S304      1.0  0.59672  0.51227  0.56545  1.0000
  Fe  Fe155     1.0  0.61492  0.52327  0.96072  1.0000
  S   S305      1.0  0.58636  0.51087  0.95194  1.0000
  S   S306      1.0  0.63430  0.52520  0.92752  1.0000
  H   H1814     1.0  0.52248  0.61284  0.70058  1.0000
  H   H1815     1.0  0.56873  0.49975  0.66330  1.0000
  H   H1816     1.0  0.65658  0.57110  0.89915  1.0000
  C   C2262     1.0  0.48860  0.66100  0.84581  1.0000
  H   H1817     1.0  0.65242  0.53414  0.62052  1.0000
  C   C2263     1.0  0.69605  0.52322  0.81529  1.0000
  C   C2264     1.0  0.49102  0.59774  0.64547  1.0000
  C   C2265     1.0  0.49404  0.87658  0.62371  1.0000
  C   C2266     1.0  0.50895  0.96792  0.89457  1.0000
  Fe  Fe156     1.0  0.64469  0.49507  0.70515  1.0000
  C   C2267     1.0  0.70734  0.58607  0.80686  1.0000
  C   C2268     1.0  0.49374  0.66633  0.61773  1.0000
  H   H1818     1.0  0.53586  0.52276  0.51558  1.0000
  H   H1819     1.0  0.54493  0.52125  0.57141  1.0000
  C   C2269     1.0  0.63510  0.49832  0.54777  1.0000
  C   C2270     1.0  0.55713  0.56985  0.55898  1.0000
  C   C2271     1.0  0.64342  0.51498  0.50613  1.0000
  H   H1820     1.0  0.53685  0.55065  0.95261  1.0000
  C   C2272     1.0  0.62459  0.50297  0.83678  1.0000
  C   C2273     1.0  0.64088  0.50866  0.85025  1.0000
  C   C2274     1.0  0.64356  0.51524  0.87804  1.0000
  C   C2275     1.0  0.62993  0.51587  0.89297  1.0000
  C   C2276     1.0  0.61347  0.50954  0.87979  1.0000
  C   C2277     1.0  0.54812  0.53485  0.56853  1.0000
  H   H1821     1.0  0.65145  0.50834  0.83900  1.0000
  H   H1822     1.0  0.65630  0.51999  0.88802  1.0000
  H   H1823     1.0  0.60282  0.50981  0.89095  1.0000
  S   S307      1.0  0.61576  0.54487  0.49638  1.0000
  C   C2278     1.0  0.48854  0.64810  0.82726  1.0000
  H   H1824     1.0  0.49342  0.67112  0.88833  1.0000
  C   C2279     1.0  0.62840  0.52474  0.59593  1.0000
  C   C2280     1.0  0.61124  0.51237  0.59322  1.0000
  C   C2281     1.0  0.52638  0.85694  0.77694  1.0000
  C   C2282     1.0  0.51115  0.81961  0.90094  1.0000
  H   H1825     1.0  0.49219  0.62458  0.82406  1.0000
  H   H1826     1.0  0.63332  0.53459  0.58060  1.0000
  S   S308      1.0  0.48809  0.89070  0.53197  1.0000
  H   H1827     1.0  0.54344  0.50568  0.92221  1.0000
  C   C2283     1.0  0.51071  0.58221  0.74966  1.0000
  H   H1828     1.0  0.70164  0.51398  0.81767  1.0000
  H   H1829     1.0  0.55524  0.50483  0.87622  1.0000
  H   H1830     1.0  0.49388  0.70267  0.63940  1.0000
  H   H1831     1.0  0.67701  0.57523  0.86201  1.0000
  C   C2284     1.0  0.48855  0.53256  0.58684  1.0000
  C   C2285     1.0  0.51854  0.72378  0.69674  1.0000
  H   H1832     1.0  0.50101  0.58912  0.56982  1.0000
  H   H1833     1.0  0.57039  0.51035  0.61524  1.0000
  C   C2286     1.0  0.63297  0.51208  0.63944  1.0000
  C   C2287     1.0  0.56549  0.54664  0.56917  1.0000
  S   S309      1.0  0.50343  0.64860  0.92124  1.0000
  C   C2288     1.0  0.50594  0.63763  0.66440  1.0000
  C   C2289     1.0  0.49692  0.65425  0.57256  1.0000
  C   C2290     1.0  0.49289  0.66076  0.87445  1.0000
  C   C2291     1.0  0.56999  0.56412  0.56421  1.0000
  H   H1834     1.0  0.51175  0.85576  0.87074  1.0000
  H   H1835     1.0  0.50995  0.74605  0.51290  1.0000
  C   C2292     1.0  0.49821  0.53480  0.56299  1.0000
  C   C2293     1.0  0.65724  0.56037  0.83057  1.0000
  H   H1836     1.0  0.59823  0.49891  0.84166  1.0000
  H   H1837     1.0  0.50695  0.75457  0.67188  1.0000
  S   S310      1.0  0.64716  0.51270  0.66810  1.0000
  C   C2294     1.0  0.50353  0.88376  0.86779  1.0000
  C   C2295     1.0  0.50999  0.88415  0.84115  1.0000
  H   H1838     1.0  0.51194  0.80750  0.89605  1.0000
  C   C2296     1.0  0.53488  0.98035  0.54272  1.0000
  C   C2297     1.0  0.53973  0.55811  0.55840  1.0000
  C   C2298     1.0  0.51923  0.98172  0.53917  1.0000
  H   H1839     1.0  0.52336  0.89250  0.83788  1.0000
  C   C2299     1.0  0.49187  0.72203  0.59334  1.0000
  H   H1840     1.0  0.49018  0.91516  0.64226  1.0000
  C   C2300     1.0  0.53603  0.81031  0.82238  1.0000
  C   C2301     1.0  0.50443  0.89684  0.58538  1.0000
  C   C2302     1.0  0.50603  0.89225  0.61317  1.0000
  C   C2303     1.0  0.49641  0.78919  0.61485  1.0000
  H   H1841     1.0  0.53109  0.57633  0.96359  1.0000
  S   S311      1.0  0.62078  0.49617  0.80093  1.0000
  H   H1842     1.0  0.51376  0.90894  0.57780  1.0000
  H   H1843     1.0  0.51665  0.90094  0.62665  1.0000
  C   C2304     1.0  0.49935  0.87367  0.81877  1.0000
  H   H1844     1.0  0.51365  0.99077  0.91903  1.0000
  H   H1845     1.0  0.67367  0.59708  0.81408  1.0000
  H   H1846     1.0  0.50465  0.75816  0.58155  1.0000
  P   P78       1.0  0.51684  0.82656  0.84499  1.0000
  C   C2305     1.0  0.50998  0.50856  0.58476  1.0000
  H   H1847     1.0  0.51632  0.57764  0.76646  1.0000
  P   P79       1.0  0.67243  0.56257  0.80403  1.0000
  C   C2306     1.0  0.69016  0.58388  0.80813  1.0000
  C   C2307     1.0  0.53830  0.56380  0.49147  1.0000
  S   S312      1.0  0.56489  0.54166  0.96639  1.0000
  C   C2308     1.0  0.49287  0.57460  0.74415  1.0000
  C   C2309     1.0  0.50822  0.82325  0.92825  1.0000
  C   C2310     1.0  0.56174  0.56067  0.97446  1.0000
  C   C2311     1.0  0.66333  0.56795  0.85726  1.0000
  C   C2312     1.0  0.52132  0.59588  0.73375  1.0000
  C   C2313     1.0  0.49598  0.54473  0.54146  1.0000
  H   H1848     1.0  0.64336  0.55134  0.69306  1.0000
  H   H1849     1.0  0.53514  0.60193  0.73823  1.0000
  C   C2314     1.0  0.63944  0.55061  0.82535  1.0000
  P   P80       1.0  0.48707  0.60333  0.68013  1.0000
  H   H1850     1.0  0.67471  0.58649  0.75859  1.0000
  C   C2315     1.0  0.49912  0.63373  0.71301  1.0000
  C   C2316     1.0  0.50814  0.65158  0.71826  1.0000
  C   C2317     1.0  0.51612  0.66247  0.69667  1.0000
  C   C2318     1.0  0.51507  0.65548  0.66981  1.0000
  C   C2319     1.0  0.66615  0.57341  0.75169  1.0000
  H   H1851     1.0  0.51225  0.59138  0.65770  1.0000
  H   H1852     1.0  0.68983  0.52318  0.85833  1.0000
  C   C2320     1.0  0.50832  0.85040  0.91399  1.0000
  C   C2321     1.0  0.65181  0.56570  0.87836  1.0000
  C   C2322     1.0  0.50435  0.59264  0.64066  1.0000
  C   C2323     1.0  0.68938  0.52836  0.83806  1.0000
  H   H1853     1.0  0.71040  0.57513  0.80313  1.0000
  S   S313      1.0  0.48514  0.64862  0.79036  1.0000
  C   C2324     1.0  0.49189  0.50581  0.51349  1.0000
  H   H1854     1.0  0.52546  0.72157  0.71441  1.0000
  H   H1855     1.0  0.56065  0.58332  0.55433  1.0000
  C   C2325     1.0  0.68793  0.54154  0.78570  1.0000
  H   H1856     1.0  0.50753  0.97001  0.53539  1.0000
  H   H1857     1.0  0.52298  0.67632  0.70074  1.0000
  H   H1858     1.0  0.52113  0.66393  0.65300  1.0000
  C   C2326     1.0  0.51409  0.60200  0.71238  1.0000
  H   H1859     1.0  0.53012  0.56286  0.55339  1.0000
  S   S314      1.0  0.51903  0.58269  0.49592  1.0000
  H   H1860     1.0  0.51091  0.69822  0.67827  1.0000
  C   C2327     1.0  0.54383  0.87515  0.81563  1.0000
  H   H1861     1.0  0.52329  0.74960  0.71094  1.0000
  C   C2328     1.0  0.50781  0.58940  0.61346  1.0000
  H   H1862     1.0  0.53515  0.96772  0.54166  1.0000
  H   H1863     1.0  0.51995  0.52750  0.61896  1.0000
  C   C2329     1.0  0.48625  0.87276  0.87172  1.0000
  C   C2330     1.0  0.50064  0.71319  0.65445  1.0000
  H   H1864     1.0  0.50115  0.94315  0.87307  1.0000
  H   H1865     1.0  0.61429  0.54063  0.84252  1.0000
  C   C2331     1.0  0.49772  0.95064  0.88812  1.0000
  H   H1866     1.0  0.58347  0.57315  0.56378  1.0000
  C   C2332     1.0  0.49618  0.63424  0.86678  1.0000
  C   C2333     1.0  0.53508  0.54047  0.56301  1.0000
  C   C2334     1.0  0.49692  0.64751  0.88515  1.0000
  C   C2335     1.0  0.68192  0.54006  0.83467  1.0000
  C   C2336     1.0  0.63918  0.52451  0.61876  1.0000
  H   H1867     1.0  0.49380  0.95653  0.97840  1.0000
  C   C2337     1.0  0.54240  0.97931  0.98375  1.0000
  C   C2338     1.0  0.50225  0.66806  0.59250  1.0000
  C   C2339     1.0  0.54684  0.82528  0.86706  1.0000
  S   S315      1.0  0.49103  0.60675  0.51706  1.0000
  C   C2340     1.0  0.55343  0.56133  0.48835  1.0000
  S   S316      1.0  0.50477  0.93965  0.50202  1.0000
  C   C2341     1.0  0.48560  0.58067  0.72276  1.0000
  H   H1868     1.0  0.52639  0.55272  0.49509  1.0000
  C   C2342     1.0  0.50643  0.50984  0.98176  1.0000
  H   H1869     1.0  0.64799  0.53166  0.77286  1.0000
  C   C2343     1.0  0.48922  0.96970  0.92838  1.0000
  C   C2344     1.0  0.69536  0.52984  0.78918  1.0000
  H   H1870     1.0  0.66236  0.58127  0.71053  1.0000
  H   H1871     1.0  0.52223  0.85527  0.75511  1.0000
  C   C2345     1.0  0.68106  0.54667  0.80841  1.0000
  H   H1872     1.0  0.51040  0.83054  0.78568  1.0000
  C   C2346     1.0  0.50697  0.83874  0.93483  1.0000
  C   C2347     1.0  0.66236  0.55943  0.76943  1.0000
  C   C2348     1.0  0.64429  0.53982  0.73215  1.0000
  H   H1873     1.0  0.53618  0.96904  0.94167  1.0000
  C   C2349     1.0  0.53844  0.87305  0.78751  1.0000
  H   H1874     1.0  0.70037  0.52567  0.77148  1.0000
  H   H1875     1.0  0.49418  0.97499  0.57806  1.0000
  C   C2350     1.0  0.50789  0.74231  0.67254  1.0000
  H   H1876     1.0  0.68757  0.54655  0.76525  1.0000
  C   C2351     1.0  0.72093  0.60257  0.81062  1.0000
  H   H1877     1.0  0.72876  0.49901  0.78698  1.0000
  C   C2352     1.0  0.50004  0.76404  0.59745  1.0000
  C   C2353     1.0  0.65116  0.54265  0.75954  1.0000
  C   C2354     1.0  0.50080  0.70440  0.55116  1.0000
  H   H1878     1.0  0.50933  0.78867  0.57749  1.0000
  H   H1879     1.0  0.50880  0.65697  0.73912  1.0000
  C   C2355     1.0  0.52459  0.84504  0.82296  1.0000
  C   C2356     1.0  0.64839  0.55371  0.71448  1.0000
  Fe  Fe157     1.0  0.50997  0.60417  0.48760  1.0000
  C   C2357     1.0  0.56087  0.82093  0.86642  1.0000
  C   C2358     1.0  0.61089  0.50329  0.85183  1.0000
  C   C2359     1.0  0.51503  0.51390  0.61271  1.0000
  C   C2360     1.0  0.51340  0.71948  0.56404  1.0000
  C   C2361     1.0  0.52261  0.51607  0.50786  1.0000
  H   H1880     1.0  0.51907  0.73936  0.59593  1.0000
  C   C2362     1.0  0.50470  0.97747  0.91449  1.0000
  H   H1881     1.0  0.62529  0.55381  0.88959  1.0000
  H   H1882     1.0  0.63430  0.54424  0.80532  1.0000
  C   C2363     1.0  0.51737  0.73962  0.69472  1.0000
  H   H1883     1.0  0.52823  0.69497  0.49580  1.0000
  C   C2364     1.0  0.51954  0.84296  0.79451  1.0000
  C   C2365     1.0  0.64379  0.51418  0.53511  1.0000
  C   C2366     1.0  0.61575  0.49984  0.63687  1.0000
  H   H1884     1.0  0.50265  0.78846  0.83376  1.0000
  C   C2367     1.0  0.51796  0.74220  0.50001  1.0000
  H   H1885     1.0  0.49822  0.67689  0.63306  1.0000
  C   C2368     1.0  0.54634  0.56144  0.96485  1.0000
  H   H1886     1.0  0.50450  0.87399  0.79848  1.0000
  H   H1887     1.0  0.54133  0.76482  0.51155  1.0000
  H   H1888     1.0  0.49305  0.62553  0.73008  1.0000
  C   C2369     1.0  0.51113  0.84674  0.88664  1.0000
  H   H1889     1.0  0.67676  0.54377  0.85255  1.0000
  H   H1890     1.0  0.63605  0.52676  0.72437  1.0000
  C   C2370     1.0  0.70046  0.61498  0.81671  1.0000
  H   H1891     1.0  0.57550  0.54214  0.57268  1.0000
  C   C2371     1.0  0.71751  0.61702  0.81554  1.0000
  C   C2372     1.0  0.49808  0.59129  0.59092  1.0000
  H   H1892     1.0  0.54773  0.49277  0.51220  1.0000
  H   H1893     1.0  0.69782  0.62620  0.82054  1.0000
  H   H1894     1.0  0.49834  0.80256  0.61291  1.0000
  C   C2373     1.0  0.49645  0.81062  0.83052  1.0000
  C   C2374     1.0  0.54197  0.98069  0.95483  1.0000
  C   C2375     1.0  0.65917  0.57052  0.72432  1.0000
  C   C2376     1.0  0.62796  0.54853  0.84646  1.0000
  C   C2377     1.0  0.55000  0.80586  0.82191  1.0000
  H   H1895     1.0  0.55134  0.79851  0.80424  1.0000
  H   H1896     1.0  0.52109  0.97385  0.88443  1.0000
  C   C2378     1.0  0.53846  0.58039  0.49002  1.0000
  C   C2379     1.0  0.53564  0.75276  0.49930  1.0000
  H   H1897     1.0  0.57069  0.82538  0.88319  1.0000
  H   H1898     1.0  0.49028  0.78452  0.72739  1.0000
  H   H1899     1.0  0.50311  0.54658  0.52275  1.0000
  C   C2380     1.0  0.63414  0.55599  0.87296  1.0000
  C   C2381     1.0  0.49617  0.59440  0.70662  1.0000
  C   C2382     1.0  0.56276  0.49676  0.61915  1.0000
  H   H1900     1.0  0.53037  0.51519  0.96238  1.0000
  H   H1901     1.0  0.50515  0.63264  0.64332  1.0000
  C   C2383     1.0  0.68682  0.59848  0.81304  1.0000
  C   C2384     1.0  0.52321  0.51106  0.98104  1.0000
  C   C2385     1.0  0.49785  0.62659  0.68600  1.0000
  H   H1902     1.0  0.64987  0.52731  0.49627  1.0000
  H   H1903     1.0  0.63517  0.49817  0.57023  1.0000
  H   H1904     1.0  0.57330  0.80782  0.84340  1.0000
  H   H1905     1.0  0.55307  0.54852  0.48975  1.0000
  H   H1906     1.0  0.48572  0.97554  0.48523  1.0000
  C   C2386     1.0  0.51308  0.83156  0.88008  1.0000
  Fe  Fe158     1.0  0.48972  0.59131  0.96873  1.0000
  S   S317      1.0  0.48847  0.68050  0.72659  1.0000
  H   H1907     1.0  0.49898  0.76081  0.73905  1.0000
  H   H1908     1.0  0.50482  0.84169  0.95599  1.0000
  C   C2387     1.0  0.49137  0.75455  0.62011  1.0000
  C   C2388     1.0  0.53410  0.81967  0.84530  1.0000
  C   C2389     1.0  0.56239  0.81112  0.84394  1.0000
  S   S318      1.0  0.59467  0.50310  0.48502  1.0000
  S   S319      1.0  0.52465  0.90883  0.97933  1.0000
  H   H1909     1.0  0.50715  0.86232  0.91902  1.0000
  H   H1910     1.0  0.72808  0.62979  0.81845  1.0000
  C   C2390     1.0  0.49085  0.88573  0.56747  1.0000
  C   C2391     1.0  0.60505  0.49993  0.61387  1.0000
  P   P81       1.0  0.48690  0.73192  0.62340  1.0000
  H   H1911     1.0  0.54618  0.83333  0.88425  1.0000
  C   C2392     1.0  0.48761  0.77976  0.63727  1.0000
  C   C2393     1.0  0.48604  0.75759  0.73078  1.0000
  H   H1912     1.0  0.54744  0.68037  0.50279  1.0000
  C   C2394     1.0  0.49323  0.79308  0.82685  1.0000
  Fe  Fe159     1.0  0.58534  0.53210  0.97977  1.0000
  H   H1913     1.0  0.49840  0.67413  0.48747  1.0000
  H   H1914     1.0  0.51200  0.70965  0.97434  1.0000
  C   C2395     1.0  0.63438  0.49990  0.48980  1.0000
  C   C2396     1.0  0.49217  0.63464  0.83808  1.0000
  Fe  Fe160     1.0  0.51723  0.93144  0.98213  1.0000
  H   H1915     1.0  0.73415  0.60414  0.80974  1.0000
  C   C2397     1.0  0.54612  0.49476  0.91613  1.0000
  C   C2398     1.0  0.55282  0.49429  0.89022  1.0000
  H   H1916     1.0  0.60074  0.99021  0.94092  1.0000
  C   C2399     1.0  0.72885  0.49315  0.76691  1.0000
  H   H1917     1.0  0.50529  0.87999  0.48829  1.0000
  H   H1918     1.0  0.54779  0.99131  0.64106  1.0000
  H   H1919     1.0  0.48565  0.82935  0.82560  1.0000
  H   H1920     1.0  0.48594  0.67150  0.83797  1.0000
  S   S320      1.0  0.55366  0.97084  0.48526  1.0000
  C   C2400     1.0  0.55403  0.59449  0.48494  1.0000
  H   H1921     1.0  0.75553  0.35418  0.30422  1.0000
  H   H1922     1.0  0.87683  0.47282  0.09486  1.0000
  S   S321      1.0  0.86401  0.38163  0.40836  1.0000
  C   C2401     1.0  0.91326  0.45691  0.99931  1.0000
  S   S322      1.0  0.88814  0.39222  0.01983  1.0000
  C   C2402     1.0  0.77486  0.43479  0.33746  1.0000
  S   S323      1.0  0.88986  0.35884  0.98680  1.0000
  S   S324      1.0  0.93585  0.40080  0.01119  1.0000
  Fe  Fe161     1.0  0.87012  0.36423  0.01076  1.0000
  S   S325      1.0  0.85024  0.34580  0.04001  1.0000
  C   C2403     1.0  0.87324  0.26817  0.16643  1.0000
  H   H1923     1.0  0.81005  0.43308  0.43361  1.0000
  P   P82       1.0  0.80963  0.40576  0.32904  1.0000
  H   H1924     1.0  0.97129  0.45813  0.36738  1.0000
  S   S326      1.0  0.80060  0.47117  0.25957  1.0000
  Fe  Fe162     1.0  0.81116  0.46603  0.21980  1.0000
  S   S327      1.0  0.81052  0.44150  0.19941  1.0000
  H   H1925     1.0  0.87039  0.34250  0.17278  1.0000
  H   H1926     1.0  0.92682  0.41425  0.06693  1.0000
  Fe  Fe163     1.0  0.81248  0.33852  0.19954  1.0000
  S   S328      1.0  0.78389  0.33101  0.19334  1.0000
  S   S329      1.0  0.83408  0.35079  0.16867  1.0000
  Fe  Fe164     1.0  0.81013  0.33243  0.26325  1.0000
  S   S330      1.0  0.78150  0.32434  0.26107  1.0000
  S   S331      1.0  0.82347  0.33008  0.30445  1.0000
  Fe  Fe165     1.0  0.77972  0.30874  0.22185  1.0000
  S   S332      1.0  0.76114  0.27965  0.21361  1.0000
  Fe  Fe166     1.0  0.78734  0.34686  0.23304  1.0000
  S   S333      1.0  0.77422  0.36458  0.24136  1.0000
  S   S334      1.0  0.80832  0.31534  0.22563  1.0000
  S   S335      1.0  0.81602  0.35590  0.23767  1.0000
  C   C2404     1.0  0.80094  0.42061  0.21312  1.0000
  C   C2405     1.0  0.78725  0.41586  0.23096  1.0000
  C   C2406     1.0  0.77917  0.39864  0.23970  1.0000
  C   C2407     1.0  0.78489  0.38620  0.23093  1.0000
  C   C2408     1.0  0.79873  0.39105  0.21344  1.0000
  C   C2409     1.0  0.80664  0.40816  0.20449  1.0000
  H   H1927     1.0  0.78265  0.42533  0.23745  1.0000
  H   H1928     1.0  0.76839  0.39491  0.25310  1.0000
  H   H1929     1.0  0.80317  0.38156  0.20639  1.0000
  H   H1930     1.0  0.81720  0.41175  0.19074  1.0000
  H   H1931     1.0  0.86105  0.35380  0.25613  1.0000
  H   H1932     1.0  0.84458  0.32251  0.26358  1.0000
  C   C2410     1.0  0.82406  0.40925  0.35921  1.0000
  P   P83       1.0  0.97401  0.47265  0.05965  1.0000
  H   H1933     1.0  0.96313  0.48375  0.44716  1.0000
  H   H1934     1.0  0.86836  0.48918  0.34967  1.0000
  H   H1935     1.0  0.80385  0.39327  0.38574  1.0000
  C   C2411     1.0  0.76538  0.23781  0.29751  1.0000
  H   H1936     1.0  0.79413  0.40528  0.45585  1.0000
  H   H1937     1.0  0.80426  0.46881  0.37635  1.0000
  H   H1938     1.0  0.90128  0.42903  0.00138  1.0000
  C   C2412     1.0  0.85236  0.36691  0.38003  1.0000
  C   C2413     1.0  0.84935  0.37367  0.35486  1.0000
  C   C2414     1.0  0.84045  0.36268  0.33167  1.0000
  C   C2415     1.0  0.83439  0.34467  0.33325  1.0000
  C   C2416     1.0  0.83741  0.33789  0.35836  1.0000
  C   C2417     1.0  0.84623  0.34887  0.38160  1.0000
  H   H1939     1.0  0.85405  0.38756  0.35322  1.0000
  H   H1940     1.0  0.83843  0.36816  0.31250  1.0000
  H   H1941     1.0  0.83296  0.32401  0.35986  1.0000
  H   H1942     1.0  0.84846  0.34340  0.40064  1.0000
  C   C2418     1.0  0.84573  0.34810  0.07559  1.0000
  C   C2419     1.0  0.85822  0.35945  0.09481  1.0000
  C   C2420     1.0  0.85438  0.35997  0.12307  1.0000
  C   C2421     1.0  0.83799  0.34932  0.13263  1.0000
  C   C2422     1.0  0.82549  0.33796  0.11345  1.0000
  C   C2423     1.0  0.82939  0.33730  0.08522  1.0000
  H   H1943     1.0  0.87094  0.36760  0.08801  1.0000
  H   H1944     1.0  0.86422  0.36866  0.13770  1.0000
  H   H1945     1.0  0.81285  0.32963  0.12035  1.0000
  H   H1946     1.0  0.81966  0.32832  0.07071  1.0000
  H   H1947     1.0  0.75762  0.19534  0.30105  1.0000
  H   H1948     1.0  0.76805  0.33328  0.31433  1.0000
  H   H1949     1.0  0.97095  0.41051  0.40202  1.0000
  H   H1950     1.0  0.88875  0.32439  0.15620  1.0000
  H   H1951     1.0  0.95717  0.43516  0.06413  1.0000
  Fe  Fe167     1.0  0.87305  0.38213  0.45442  1.0000
  H   H1952     1.0  0.92454  0.45843  0.01187  1.0000
  C   C2424     1.0  0.81569  0.43012  0.45209  1.0000
  C   C2425     1.0  0.90055  0.46905  0.43856  1.0000
  H   H1953     1.0  0.94148  0.47719  0.06630  1.0000
  C   C2426     1.0  0.97132  0.41804  0.02008  1.0000
  C   C2427     1.0  0.76793  0.22308  0.30397  1.0000
  C   C2428     1.0  0.82877  0.40206  0.40658  1.0000
  H   H1954     1.0  0.86070  0.43739  0.44756  1.0000
  C   C2429     1.0  0.77870  0.37662  0.31642  1.0000
  C   C2430     1.0  0.73861  0.26566  0.21648  1.0000
  C   C2431     1.0  0.78577  0.29794  0.32843  1.0000
  C   C2432     1.0  0.78835  0.29056  0.30388  1.0000
  C   C2433     1.0  0.77468  0.28246  0.28443  1.0000
  C   C2434     1.0  0.93868  0.46358  0.06657  1.0000
  H   H1955     1.0  0.87385  0.36366  0.21051  1.0000
  C   C2435     1.0  0.75845  0.28189  0.28933  1.0000
  H   H1956     1.0  0.94301  0.40126  0.42484  1.0000
  C   C2436     1.0  0.88750  0.45250  0.44189  1.0000
  C   C2437     1.0  0.79279  0.35305  0.32835  1.0000
  C   C2438     1.0  0.97205  0.47114  0.36935  1.0000
  H   H1957     1.0  0.96843  0.41911  0.04147  1.0000
  H   H1958     1.0  0.79656  0.30448  0.34323  1.0000
  H   H1959     1.0  0.80107  0.29149  0.29969  1.0000
  H   H1960     1.0  0.77675  0.27691  0.26522  1.0000
  C   C2439     1.0  0.83674  0.45749  0.36154  1.0000
  H   H1961     1.0  0.77510  0.43567  0.29272  1.0000
  C   C2440     1.0  0.79633  0.41745  0.33277  1.0000
  H   H1962     1.0  0.95743  0.44746  0.01237  1.0000
  H   H1963     1.0  0.76670  0.44160  0.33920  1.0000
  C   C2441     1.0  0.74117  0.47744  0.25200  1.0000
  C   C2442     1.0  0.80285  0.37086  0.33247  1.0000
  C   C2443     1.0  0.87956  0.48115  0.44005  1.0000
  C   C2444     1.0  0.78071  0.42934  0.36131  1.0000
  C   C2445     1.0  0.82171  0.41228  0.29787  1.0000
  C   C2446     1.0  0.82392  0.40001  0.28047  1.0000
  C   C2447     1.0  0.83333  0.40522  0.25651  1.0000
  C   C2448     1.0  0.84041  0.42265  0.24950  1.0000
  C   C2449     1.0  0.83820  0.43492  0.26658  1.0000
  C   C2450     1.0  0.82900  0.42980  0.29075  1.0000
  S   S336      1.0  0.80502  0.48509  0.19486  1.0000
  H   H1964     1.0  0.74806  0.27569  0.27379  1.0000
  H   H1965     1.0  0.95420  0.45412  0.44502  1.0000
  C   C2451     1.0  0.79013  0.42273  0.30894  1.0000
  H   H1966     1.0  0.79847  0.34398  0.33201  1.0000
  H   H1967     1.0  0.81620  0.37536  0.33964  1.0000
  H   H1968     1.0  0.81818  0.38636  0.28489  1.0000
  H   H1969     1.0  0.83463  0.39564  0.24287  1.0000
  H   H1970     1.0  0.84720  0.42657  0.23044  1.0000
  H   H1971     1.0  0.84331  0.44837  0.26076  1.0000
  H   H1972     1.0  0.82725  0.43950  0.30345  1.0000
  C   C2452     1.0  0.95174  0.45777  0.06416  1.0000
  C   C2453     1.0  0.74213  0.31018  0.36726  1.0000
  H   H1973     1.0  0.79342  0.42007  0.28844  1.0000
  C   C2454     1.0  0.95157  0.41493  0.42378  1.0000
  H   H1974     1.0  0.95931  0.46929  0.32920  1.0000
  H   H1975     1.0  0.88653  0.26078  0.19891  1.0000
  P   P84       1.0  0.84440  0.46181  0.44631  1.0000
  C   C2455     1.0  0.97426  0.45035  0.42344  1.0000
  C   C2456     1.0  0.77959  0.43147  0.31129  1.0000
  C   C2457     1.0  0.81755  0.40105  0.38410  1.0000
  C   C2458     1.0  0.84314  0.45722  0.38854  1.0000
  C   C2459     1.0  0.87052  0.45029  0.44468  1.0000
  H   H1976     1.0  0.87432  0.25935  0.15090  1.0000
  H   H1977     1.0  0.82380  0.39527  0.42542  1.0000
  C   C2460     1.0  0.91719  0.43389  0.06876  1.0000
  H   H1978     1.0  0.84745  0.42453  0.33820  1.0000
  C   C2461     1.0  0.76955  0.29740  0.33343  1.0000
  C   C2462     1.0  0.84198  0.41849  0.35728  1.0000
  H   H1979     1.0  0.81799  0.46211  0.33616  1.0000
  C   C2463     1.0  0.73918  0.30863  0.27067  1.0000
  C   C2464     1.0  0.94685  0.42733  0.43543  1.0000
  H   H1980     1.0  0.93464  0.42316  0.44541  1.0000
  C   C2465     1.0  0.90017  0.44027  0.99316  1.0000
  H   H1981     1.0  0.77707  0.43197  0.38161  1.0000
  C   C2466     1.0  0.75282  0.15562  0.26331  1.0000
  H   H1982     1.0  0.74821  0.24730  0.27755  1.0000
  C   C2467     1.0  0.83197  0.44176  0.46321  1.0000
  C   C2468     1.0  0.88014  0.26899  0.19345  1.0000
  C   C2469     1.0  0.74285  0.14035  0.27655  1.0000
  H   H1983     1.0  0.84070  0.30097  0.22583  1.0000
  H   H1984     1.0  0.97363  0.47092  0.12011  1.0000
  H   H1985     1.0  0.75188  0.32013  0.35577  1.0000
  H   H1986     1.0  0.79314  0.29814  0.16084  1.0000
  C   C2470     1.0  0.91175  0.47154  0.98922  1.0000
  H   H1987     1.0  0.88430  0.33441  0.06973  1.0000
  C   C2471     1.0  0.92149  0.45166  0.06876  1.0000
  H   H1988     1.0  0.74725  0.46915  0.25838  1.0000
  H   H1989     1.0  0.73874  0.28469  0.99041  1.0000
  H   H1990     1.0  0.79603  0.41697  0.37778  1.0000
  H   H1991     1.0  0.82466  0.31438  0.16753  1.0000
  C   C2472     1.0  0.79591  0.38279  0.32641  1.0000
  H   H1992     1.0  0.85265  0.31784  0.07011  1.0000
  H   H1993     1.0  0.90381  0.42464  0.06953  1.0000
  H   H1994     1.0  0.81524  0.46810  0.42436  1.0000
  H   H1995     1.0  0.89060  0.44141  0.44316  1.0000
  H   H1996     1.0  0.90240  0.33759  0.11282  1.0000
  C   C2473     1.0  0.93013  0.42805  0.06729  1.0000
  C   C2474     1.0  0.85316  0.41939  0.37979  1.0000
  H   H1997     1.0  0.78010  0.26632  0.15230  1.0000
  C   C2475     1.0  0.77566  0.34702  0.31847  1.0000
  C   C2476     1.0  0.94733  0.43993  0.06537  1.0000
  C   C2477     1.0  0.84655  0.41109  0.40432  1.0000
  S   S337      1.0  0.89518  0.40777  0.46744  1.0000
  C   C2478     1.0  0.81495  0.46533  0.37988  1.0000
  C   C2479     1.0  0.78953  0.40322  0.13904  1.0000
  C   C2480     1.0  0.78237  0.38552  0.14436  1.0000
  C   C2481     1.0  0.79230  0.37612  0.14177  1.0000
  C   C2482     1.0  0.80948  0.38449  0.13446  1.0000
  C   C2483     1.0  0.81701  0.40244  0.13036  1.0000
  C   C2484     1.0  0.80671  0.41162  0.13167  1.0000
  P   P85       1.0  0.83935  0.41305  0.12160  1.0000
  C   C2485     1.0  0.85289  0.40678  0.14422  1.0000
  C   C2486     1.0  0.83988  0.40676  0.08577  1.0000
  C   C2487     1.0  0.84506  0.39363  0.07897  1.0000
  C   C2488     1.0  0.84612  0.38938  0.05111  1.0000
  C   C2489     1.0  0.84177  0.39800  0.02988  1.0000
  C   C2490     1.0  0.83605  0.41069  0.03647  1.0000
  C   C2491     1.0  0.83490  0.41493  0.06433  1.0000
  C   C2492     1.0  0.86985  0.41062  0.13705  1.0000
  C   C2493     1.0  0.88063  0.40614  0.15451  1.0000
  C   C2494     1.0  0.87458  0.39789  0.17934  1.0000
  C   C2495     1.0  0.85781  0.39425  0.18683  1.0000
  C   C2496     1.0  0.84705  0.39883  0.16953  1.0000
  C   C2497     1.0  0.84854  0.43645  0.12544  1.0000
  C   C2498     1.0  0.84471  0.44451  0.14826  1.0000
  C   C2499     1.0  0.85200  0.46261  0.15132  1.0000
  C   C2500     1.0  0.86354  0.47280  0.13205  1.0000
  C   C2501     1.0  0.86785  0.46489  0.10976  1.0000
  C   C2502     1.0  0.86053  0.44680  0.10660  1.0000
  H   H1998     1.0  0.78192  0.41057  0.14137  1.0000
  H   H1999     1.0  0.76921  0.37914  0.15082  1.0000
  H   H2000     1.0  0.78677  0.36239  0.14590  1.0000
  H   H2001     1.0  0.81701  0.37699  0.13262  1.0000
  H   H2002     1.0  0.81191  0.42532  0.12762  1.0000
  H   H2003     1.0  0.84828  0.38667  0.09510  1.0000
  H   H2004     1.0  0.85038  0.37944  0.04590  1.0000
  C   C2503     1.0  0.95770  0.40906  0.00035  1.0000
  H   H2005     1.0  0.83272  0.41737  0.01996  1.0000
  H   H2006     1.0  0.83044  0.42480  0.06916  1.0000
  H   H2007     1.0  0.87470  0.41700  0.11785  1.0000
  H   H2008     1.0  0.89362  0.40892  0.14864  1.0000
  H   H2009     1.0  0.88282  0.39418  0.19268  1.0000
  H   H2010     1.0  0.85296  0.38747  0.20574  1.0000
  H   H2011     1.0  0.83419  0.39597  0.17600  1.0000
  H   H2012     1.0  0.83601  0.43687  0.16366  1.0000
  H   H2013     1.0  0.84862  0.46874  0.16862  1.0000
  H   H2014     1.0  0.86435  0.44098  0.08948  1.0000
  H   H2015     1.0  0.88454  0.28136  0.23420  1.0000
  H   H2016     1.0  0.83870  0.30559  0.11330  1.0000
  C   C2504     1.0  0.82125  0.46498  0.40697  1.0000
  C   C2505     1.0  0.96736  0.42016  0.41118  1.0000
  C   C2506     1.0  0.83553  0.46112  0.41146  1.0000
  C   C2507     1.0  0.86643  0.46463  0.44401  1.0000
  C   C2508     1.0  0.82267  0.46155  0.35719  1.0000
  C   C2509     1.0  0.87897  0.28055  0.21334  1.0000
  C   C2510     1.0  0.87076  0.29119  0.20636  1.0000
  C   C2511     1.0  0.86350  0.29025  0.17937  1.0000
  C   C2512     1.0  0.86505  0.27882  0.15936  1.0000
  P   P86       1.0  0.85296  0.30397  0.16957  1.0000
  C   C2513     1.0  0.86271  0.31409  0.13809  1.0000
  C   C2514     1.0  0.82993  0.29172  0.16362  1.0000
  C   C2515     1.0  0.82248  0.27368  0.15849  1.0000
  C   C2516     1.0  0.80458  0.26457  0.15414  1.0000
  C   C2517     1.0  0.79400  0.27337  0.15510  1.0000
  C   C2518     1.0  0.80134  0.29132  0.15991  1.0000
  C   C2519     1.0  0.81921  0.30046  0.16393  1.0000
  C   C2520     1.0  0.88074  0.32304  0.13758  1.0000
  C   C2521     1.0  0.88852  0.33042  0.11305  1.0000
  C   C2522     1.0  0.87838  0.32857  0.08875  1.0000
  C   C2523     1.0  0.86049  0.31929  0.08899  1.0000
  C   C2524     1.0  0.85262  0.31230  0.11361  1.0000
  C   C2525     1.0  0.85602  0.32000  0.19690  1.0000
  C   C2526     1.0  0.84842  0.31460  0.22250  1.0000
  C   C2527     1.0  0.85056  0.32674  0.24392  1.0000
  C   C2528     1.0  0.85986  0.34442  0.23971  1.0000
  C   C2529     1.0  0.86715  0.34995  0.21411  1.0000
  C   C2530     1.0  0.86522  0.33782  0.19273  1.0000
  H   H2017     1.0  0.87041  0.30023  0.22208  1.0000
  H   H2018     1.0  0.85996  0.27819  0.13821  1.0000
  H   H2019     1.0  0.83032  0.26654  0.15791  1.0000
  H   H2020     1.0  0.79886  0.25066  0.15021  1.0000
  H   H2021     1.0  0.85526  0.41105  0.42123  1.0000
  C   C2531     1.0  0.74716  0.16878  0.26108  1.0000
  H   H2022     1.0  0.86700  0.42596  0.37793  1.0000
  H   H2023     1.0  0.77317  0.38548  0.31064  1.0000
  C   C2532     1.0  0.75576  0.28958  0.31367  1.0000
  H   H2024     1.0  0.84313  0.45523  0.34391  1.0000
  C   C2533     1.0  0.97854  0.43779  0.41058  1.0000
  C   C2534     1.0  0.73986  0.31377  0.39491  1.0000
  H   H2025     1.0  0.85425  0.45436  0.39131  1.0000
  C   C2535     1.0  0.95813  0.44493  0.43538  1.0000
  Fe  Fe168     1.0  0.90748  0.38752  0.99368  1.0000
  C   C2536     1.0  0.79148  0.42079  0.35903  1.0000
  C   C2537     1.0  0.76859  0.35879  0.31278  1.0000
  H   H2026     1.0  0.74720  0.13013  0.27824  1.0000
  H   H2027     1.0  0.74801  0.32629  0.40468  1.0000
  C   C2538     1.0  0.89659  0.48338  0.43782  1.0000
  H   H2028     1.0  0.76807  0.30321  0.35264  1.0000
  C   C2539     1.0  0.97017  0.45652  0.00691  1.0000
  H   H2029     1.0  0.76488  0.15721  0.25458  1.0000
  H   H2030     1.0  0.77951  0.22446  0.31570  1.0000
  C   C2540     1.0  0.73803  0.32162  0.25450  1.0000
  C   C2541     1.0  0.98066  0.47024  0.02519  1.0000
  H   H2031     1.0  0.84288  0.39484  0.00833  1.0000
  H   H2032     1.0  0.91143  0.45622  0.06953  1.0000
  H   H2033     1.0  0.77502  0.25058  0.30403  1.0000
  C   C2542     1.0  0.73788  0.21961  0.27444  1.0000
  C   C2543     1.0  0.84422  0.48019  0.46567  1.0000
  C   C2544     1.0  0.96528  0.47745  0.34760  1.0000
  C   C2545     1.0  0.75033  0.23603  0.28278  1.0000
  H   H2034     1.0  0.74241  0.24230  0.21117  1.0000
  H   H2035     1.0  0.86917  0.48683  0.13441  1.0000
  H   H2036     1.0  0.74546  0.30109  0.26229  1.0000
  C   C2546     1.0  0.75555  0.20658  0.29538  1.0000
  H   H2037     1.0  0.75488  0.18045  0.25040  1.0000
  C   C2547     1.0  0.97451  0.48799  0.46096  1.0000
  H   H2038     1.0  0.74010  0.20780  0.22304  1.0000
  H   H2039     1.0  0.91378  0.47080  0.43745  1.0000
  C   C2548     1.0  0.98367  0.46734  0.11334  1.0000
  C   C2549     1.0  0.97962  0.48153  0.39342  1.0000
  C   C2550     1.0  0.74062  0.20480  0.27997  1.0000
  S   S338      1.0  0.83832  0.48507  0.23081  1.0000
  H   H2040     1.0  0.74379  0.32421  0.23438  1.0000
  C   C2551     1.0  0.80661  0.41427  0.46460  1.0000
  S   S339      1.0  0.88419  0.36674  0.47978  1.0000
  S   S340      1.0  0.84410  0.49133  0.30860  1.0000
  H   H2041     1.0  0.88257  0.39449  0.60795  1.0000
  H   H2042     1.0  0.83561  0.41795  0.51739  1.0000
  S   S341      1.0  0.87443  0.35396  0.90429  1.0000
  C   C2552     1.0  0.73595  0.26158  0.75074  1.0000
  S   S342      1.0  0.89122  0.39447  0.53224  1.0000
  H   H2043     1.0  0.88996  0.48592  0.87006  1.0000
  H   H2044     1.0  0.79793  0.45254  0.65313  1.0000
  C   C2553     1.0  0.86152  0.42031  0.61742  1.0000
  Fe  Fe169     1.0  0.86919  0.37010  0.51596  1.0000
  S   S343      1.0  0.85035  0.34984  0.54425  1.0000
  H   H2045     1.0  0.83485  0.40261  0.72420  1.0000
  C   C2554     1.0  0.81567  0.31600  0.89450  1.0000
  H   H2046     1.0  0.95331  0.45454  0.88304  1.0000
  S   S344      1.0  0.80191  0.47072  0.71494  1.0000
  C   C2555     1.0  0.94091  0.45826  0.94846  1.0000
  Fe  Fe170     1.0  0.81250  0.46839  0.75697  1.0000
  S   S345      1.0  0.81214  0.44436  0.77685  1.0000
  C   C2556     1.0  0.95562  0.41487  0.49798  1.0000
  C   C2557     1.0  0.93272  0.48508  0.89864  1.0000
  Fe  Fe171     1.0  0.81509  0.33587  0.70288  1.0000
  S   S346      1.0  0.78837  0.33164  0.68845  1.0000
  S   S347      1.0  0.83817  0.34166  0.67496  1.0000
  Fe  Fe172     1.0  0.80731  0.33787  0.76509  1.0000
  S   S348      1.0  0.78006  0.33444  0.75389  1.0000
  S   S349      1.0  0.81450  0.34356  0.81209  1.0000
  Fe  Fe173     1.0  0.77818  0.31310  0.72372  1.0000
  S   S350      1.0  0.75192  0.28906  0.71448  1.0000
  Fe  Fe174     1.0  0.79192  0.35280  0.71983  1.0000
  S   S351      1.0  0.78546  0.37437  0.70451  1.0000
  S   S352      1.0  0.80508  0.31565  0.73617  1.0000
  S   S353      1.0  0.81899  0.35798  0.73298  1.0000
  C   C2558     1.0  0.80517  0.42511  0.75627  1.0000
  C   C2559     1.0  0.79981  0.42451  0.72833  1.0000
  C   C2560     1.0  0.79406  0.40890  0.71255  1.0000
  C   C2561     1.0  0.79364  0.39386  0.72458  1.0000
  C   C2562     1.0  0.79931  0.39451  0.75236  1.0000
  C   C2563     1.0  0.80502  0.41012  0.76819  1.0000
  H   H2047     1.0  0.80012  0.43603  0.71889  1.0000
  H   H2048     1.0  0.79005  0.40847  0.69091  1.0000
  H   H2049     1.0  0.79906  0.38294  0.76171  1.0000
  H   H2050     1.0  0.80927  0.41059  0.78975  1.0000
  H   H2051     1.0  0.88165  0.43651  0.83040  1.0000
  C   C2564     1.0  0.84881  0.46466  0.92062  1.0000
  C   C2565     1.0  0.81722  0.29292  0.66415  1.0000
  C   C2566     1.0  0.93573  0.38438  0.64274  1.0000
  H   H2052     1.0  0.95180  0.39990  0.95764  1.0000
  S   S354      1.0  0.89789  0.39459  0.95389  1.0000
  C   C2567     1.0  0.89084  0.44993  0.51646  1.0000
  C   C2568     1.0  0.84602  0.44045  0.67350  1.0000
  C   C2569     1.0  0.83577  0.43468  0.60641  1.0000
  H   H2053     1.0  0.82283  0.22858  0.68068  1.0000
  C   C2570     1.0  0.85998  0.44272  0.83771  1.0000
  C   C2571     1.0  0.85846  0.35256  0.87813  1.0000
  C   C2572     1.0  0.85866  0.34547  0.85153  1.0000
  C   C2573     1.0  0.84577  0.34328  0.83068  1.0000
  C   C2574     1.0  0.83231  0.34793  0.83628  1.0000
  C   C2575     1.0  0.83233  0.35539  0.86268  1.0000
  C   C2576     1.0  0.84536  0.35782  0.88337  1.0000
  H   H2054     1.0  0.86875  0.34143  0.84711  1.0000
  H   H2055     1.0  0.84603  0.33763  0.81051  1.0000
  H   H2056     1.0  0.82213  0.35923  0.86728  1.0000
  H   H2057     1.0  0.84511  0.36345  0.90356  1.0000
  C   C2577     1.0  0.84709  0.35040  0.58078  1.0000
  C   C2578     1.0  0.86089  0.35702  0.60058  1.0000
  C   C2579     1.0  0.85787  0.35476  0.62930  1.0000
  C   C2580     1.0  0.84101  0.34632  0.63881  1.0000
  C   C2581     1.0  0.82717  0.34063  0.61910  1.0000
  C   C2582     1.0  0.83022  0.34222  0.59033  1.0000
  H   H2058     1.0  0.87393  0.36302  0.59371  1.0000
  H   H2059     1.0  0.86872  0.35921  0.64423  1.0000
  H   H2060     1.0  0.81412  0.33440  0.62593  1.0000
  H   H2061     1.0  0.81943  0.33679  0.57534  1.0000
  H   H2062     1.0  0.75988  0.32809  0.93781  1.0000
  C   C2583     1.0  0.86943  0.42306  0.87933  1.0000
  H   H2063     1.0  0.84810  0.45641  0.71000  1.0000
  H   H2064     1.0  0.85033  0.43398  0.57065  1.0000
  C   C2584     1.0  0.93272  0.41999  0.55877  1.0000
  H   H2065     1.0  0.84767  0.46760  0.79526  1.0000
  C   C2585     1.0  0.74957  0.38806  0.67808  1.0000
  H   H2066     1.0  0.87734  0.46357  0.53487  1.0000
  H   H2067     1.0  0.80770  0.39728  0.65100  1.0000
  H   H2068     1.0  0.95594  0.38565  0.55046  1.0000
  H   H2069     1.0  0.93945  0.46749  0.96270  1.0000
  H   H2070     1.0  0.81467  0.46076  0.61217  1.0000
  H   H2071     1.0  0.76530  0.44526  0.72656  1.0000
  C   C2586     1.0  0.96194  0.40715  0.97299  1.0000
  H   H2072     1.0  0.75593  0.36673  0.66813  1.0000
  C   C2587     1.0  0.78481  0.45101  0.65515  1.0000
  C   C2588     1.0  0.75930  0.29138  0.84891  1.0000
  H   H2073     1.0  0.83572  0.39707  0.67403  1.0000
  H   H2074     1.0  0.97027  0.39806  0.63685  1.0000
  C   C2589     1.0  0.93805  0.42917  0.93842  1.0000
  H   H2075     1.0  0.96876  0.44261  0.96850  1.0000
  C   C2590     1.0  0.75276  0.40312  0.76763  1.0000
  H   H2076     1.0  0.84634  0.45744  0.54714  1.0000
  C   C2591     1.0  0.76109  0.28683  0.96859  1.0000
  H   H2077     1.0  0.76546  0.28858  0.89157  1.0000
  C   C2592     1.0  0.75051  0.41729  0.72523  1.0000
  H   H2078     1.0  0.90947  0.44247  0.91131  1.0000
  C   C2593     1.0  0.82077  0.23345  0.70052  1.0000
  C   C2594     1.0  0.86466  0.40536  0.61733  1.0000
  C   C2595     1.0  0.88230  0.40266  0.88427  1.0000
  H   H2079     1.0  0.75990  0.47289  0.64500  1.0000
  H   H2080     1.0  0.73860  0.44695  0.66590  1.0000
  C   C2596     1.0  0.83406  0.40984  0.85223  1.0000
  C   C2597     1.0  0.81753  0.40484  0.86249  1.0000
  C   C2598     1.0  0.80349  0.39048  0.85045  1.0000
  C   C2599     1.0  0.80583  0.38115  0.82802  1.0000
  C   C2600     1.0  0.82211  0.38643  0.81718  1.0000
  C   C2601     1.0  0.83613  0.40075  0.82907  1.0000
  C   C2602     1.0  0.84080  0.42923  0.91969  1.0000
  C   C2603     1.0  0.83765  0.43714  0.94324  1.0000
  C   C2604     1.0  0.84159  0.45485  0.94366  1.0000
  C   C2605     1.0  0.86832  0.40617  0.87605  1.0000
  H   H2081     1.0  0.81537  0.41211  0.87937  1.0000
  H   H2082     1.0  0.79075  0.38667  0.85823  1.0000
  H   H2083     1.0  0.79505  0.36993  0.81874  1.0000
  H   H2084     1.0  0.82385  0.37935  0.79950  1.0000
  H   H2085     1.0  0.84864  0.40466  0.82025  1.0000
  H   H2086     1.0  0.83855  0.41571  0.92018  1.0000
  H   H2087     1.0  0.83288  0.42970  0.96159  1.0000
  C   C2606     1.0  0.97551  0.44563  0.50299  1.0000
  H   H2088     1.0  0.88141  0.38960  0.88180  1.0000
  H   H2089     1.0  0.85676  0.39561  0.86738  1.0000
  H   H2090     1.0  0.93851  0.36013  0.52040  1.0000
  C   C2607     1.0  0.83102  0.31401  0.89792  1.0000
  S   S355      1.0  0.85683  0.38366  0.48936  1.0000
  C   C2608     1.0  0.80785  0.31923  0.91775  1.0000
  C   C2609     1.0  0.95304  0.45341  0.58044  1.0000
  P   P87       1.0  0.78891  0.32341  0.91348  1.0000
  C   C2610     1.0  0.74840  0.29216  0.97604  1.0000
  C   C2611     1.0  0.79494  0.34651  0.91777  1.0000
  C   C2612     1.0  0.78339  0.35347  0.90905  1.0000
  C   C2613     1.0  0.78768  0.37114  0.91337  1.0000
  C   C2614     1.0  0.96943  0.40882  0.59657  1.0000
  H   H2091     1.0  0.80698  0.39579  0.92926  1.0000
  C   C2615     1.0  0.81107  0.35772  0.93010  1.0000
  C   C2616     1.0  0.97646  0.45377  0.98172  1.0000
  H   H2092     1.0  0.73897  0.35909  0.62327  1.0000
  C   C2617     1.0  0.82238  0.45479  0.60323  1.0000
  H   H2093     1.0  0.89546  0.48503  0.62483  1.0000
  H   H2094     1.0  0.98016  0.43449  0.89540  1.0000
  C   C2618     1.0  0.77851  0.31532  0.87955  1.0000
  C   C2619     1.0  0.76758  0.29762  0.87503  1.0000
  C   C2620     1.0  0.76191  0.30274  0.82711  1.0000
  C   C2621     1.0  0.77301  0.32027  0.83134  1.0000
  C   C2622     1.0  0.78143  0.32652  0.85731  1.0000
  C   C2623     1.0  0.83884  0.31556  0.92444  1.0000
  H   H2095     1.0  0.85238  0.47850  0.92126  1.0000
  Fe  Fe175     1.0  0.79178  0.48832  0.73611  1.0000
  C   C2624     1.0  0.94752  0.46339  0.92222  1.0000
  H   H2096     1.0  0.77861  0.37634  0.90689  1.0000
  P   P88       1.0  0.74169  0.41623  0.69028  1.0000
  H   H2097     1.0  0.76126  0.27521  0.97718  1.0000
  H   H2098     1.0  0.74665  0.26846  0.76538  1.0000
  C   C2625     1.0  0.82988  0.42143  0.49942  1.0000
  C   C2626     1.0  0.86970  0.46205  0.78947  1.0000
  H   H2099     1.0  0.83592  0.22310  0.72417  1.0000
  P   P89       1.0  0.84057  0.41908  0.62576  1.0000
  C   C2627     1.0  0.88560  0.43831  0.97674  1.0000
  C   C2628     1.0  0.74890  0.37413  0.66143  1.0000
  H   H2100     1.0  0.77544  0.32903  0.81429  1.0000
  H   H2101     1.0  0.79040  0.34006  0.85969  1.0000
  H   H2102     1.0  0.83854  0.44998  0.83672  1.0000
  C   C2629     1.0  0.85191  0.45675  0.89704  1.0000
  C   C2630     1.0  0.78014  0.46415  0.64690  1.0000
  H   H2103     1.0  0.85814  0.46473  0.87998  1.0000
  H   H2104     1.0  0.77783  0.29378  0.65936  1.0000
  H   H2105     1.0  0.90802  0.41298  0.90258  1.0000
  H   H2106     1.0  0.93460  0.41604  0.94501  1.0000
  C   C2631     1.0  0.97748  0.40456  0.61929  1.0000
  C   C2632     1.0  0.81516  0.24572  0.75178  1.0000
  C   C2633     1.0  0.80823  0.24940  0.72717  1.0000
  C   C2634     1.0  0.81068  0.24277  0.70159  1.0000
  P   P90       1.0  0.79510  0.26126  0.72860  1.0000
  C   C2635     1.0  0.80210  0.27594  0.75872  1.0000
  C   C2636     1.0  0.79857  0.27498  0.69904  1.0000
  C   C2637     1.0  0.81464  0.28209  0.68674  1.0000
  C   C2638     1.0  0.79014  0.27792  0.77607  1.0000
  C   C2639     1.0  0.79588  0.28934  0.79932  1.0000
  C   C2640     1.0  0.81350  0.29920  0.80499  1.0000
  C   C2641     1.0  0.82547  0.29768  0.78739  1.0000
  C   C2642     1.0  0.81981  0.28614  0.76429  1.0000
  C   C2643     1.0  0.77307  0.24510  0.73018  1.0000
  C   C2644     1.0  0.76200  0.23977  0.70619  1.0000
  H   H2107     1.0  0.82793  0.38394  0.94355  1.0000
  C   C2645     1.0  0.75618  0.43479  0.67220  1.0000
  C   C2646     1.0  0.95850  0.43232  0.50065  1.0000
  C   C2647     1.0  0.76708  0.23703  0.75534  1.0000
  H   H2108     1.0  0.81282  0.25007  0.77184  1.0000
  H   H2109     1.0  0.80485  0.24487  0.68249  1.0000
  H   H2110     1.0  0.82526  0.27949  0.69471  1.0000
  H   H2111     1.0  0.77642  0.27100  0.77139  1.0000
  H   H2112     1.0  0.78668  0.29090  0.81263  1.0000
  H   H2113     1.0  0.81785  0.30836  0.82260  1.0000
  H   H2114     1.0  0.83911  0.30573  0.79135  1.0000
  H   H2115     1.0  0.82922  0.28540  0.75051  1.0000
  H   H2116     1.0  0.76639  0.24509  0.68619  1.0000
  C   C2648     1.0  0.87485  0.43624  0.61078  1.0000
  C   C2649     1.0  0.83027  0.46065  0.57818  1.0000
  C   C2650     1.0  0.83112  0.31873  0.94769  1.0000
  C   C2651     1.0  0.84163  0.42990  0.72035  1.0000
  C   C2652     1.0  0.82519  0.23635  0.75065  1.0000
  H   H2117     1.0  0.92544  0.40730  0.54917  1.0000
  H   H2118     1.0  0.90698  0.34445  0.52585  1.0000
  H   H2119     1.0  0.75754  0.39137  0.69712  1.0000
  C   C2653     1.0  0.93246  0.36418  0.53672  1.0000
  H   H2120     1.0  0.90524  0.42234  0.59333  1.0000
  C   C2654     1.0  0.90140  0.48122  0.51876  1.0000
  C   C2655     1.0  0.91859  0.46800  0.49824  1.0000
  Fe  Fe176     1.0  0.87960  0.40772  0.50405  1.0000
  C   C2656     1.0  0.91467  0.35542  0.53963  1.0000
  C   C2657     1.0  0.77349  0.29640  0.94993  1.0000
  C   C2658     1.0  0.82365  0.39790  0.61646  1.0000
  H   H2121     1.0  0.81867  0.43727  0.63655  1.0000
  C   C2659     1.0  0.88045  0.40617  0.60884  1.0000
  C   C2660     1.0  0.83852  0.41012  0.68153  1.0000
  H   H2122     1.0  0.84205  0.46871  0.50589  1.0000
  C   C2661     1.0  0.84565  0.44352  0.70208  1.0000
  C   C2662     1.0  0.89327  0.42188  0.60077  1.0000
  C   C2663     1.0  0.82480  0.38872  0.59263  1.0000
  C   C2664     1.0  0.81234  0.37185  0.58648  1.0000
  C   C2665     1.0  0.79854  0.36413  0.60382  1.0000
  C   C2666     1.0  0.79692  0.37344  0.62689  1.0000
  C   C2667     1.0  0.80927  0.39036  0.63297  1.0000
  H   H2123     1.0  0.92136  0.43207  0.53103  1.0000
  H   H2124     1.0  0.94561  0.42460  0.89804  1.0000
  C   C2668     1.0  0.94891  0.45108  0.90381  1.0000
  C   C2669     1.0  0.94442  0.43409  0.91208  1.0000
  C   C2670     1.0  0.74557  0.40226  0.74079  1.0000
  H   H2125     1.0  0.75561  0.29793  0.80677  1.0000
  Fe  Fe177     1.0  0.87897  0.36660  0.94827  1.0000
  C   C2671     1.0  0.81373  0.40991  0.48820  1.0000
  C   C2672     1.0  0.77292  0.43644  0.66786  1.0000
  C   C2673     1.0  0.88882  0.46478  0.52464  1.0000
  H   H2126     1.0  0.85119  0.31490  0.92685  1.0000
  H   H2127     1.0  0.85485  0.39300  0.62328  1.0000
  C   C2674     1.0  0.92289  0.49047  0.91589  1.0000
  H   H2128     1.0  0.78961  0.47582  0.63824  1.0000
  H   H2129     1.0  0.77048  0.41975  0.79987  1.0000
  C   C2675     1.0  0.81564  0.32046  0.94441  1.0000
  H   H2130     1.0  0.83552  0.39438  0.57914  1.0000
  H   H2131     1.0  0.81366  0.36461  0.56864  1.0000
  H   H2132     1.0  0.78920  0.35087  0.59953  1.0000
  H   H2133     1.0  0.78631  0.36745  0.64054  1.0000
  C   C2676     1.0  0.90670  0.36113  0.55976  1.0000
  H   H2134     1.0  0.82966  0.29859  0.65484  1.0000
  H   H2135     1.0  0.83734  0.31211  0.87988  1.0000
  C   C2677     1.0  0.76054  0.31673  0.94632  1.0000
  C   C2678     1.0  0.80366  0.38211  0.92591  1.0000
  C   C2679     1.0  0.85528  0.46108  0.80334  1.0000
  C   C2680     1.0  0.84752  0.43888  0.89611  1.0000
  C   C2681     1.0  0.78550  0.27955  0.68922  1.0000
  H   H2136     1.0  0.77335  0.27489  0.69919  1.0000
  H   H2137     1.0  0.77550  0.24044  0.77389  1.0000
  H   H2138     1.0  0.77778  0.44651  0.77378  1.0000
  C   C2682     1.0  0.89731  0.41585  0.89619  1.0000
  P   P91       1.0  0.85239  0.42859  0.86660  1.0000
  H   H2139     1.0  0.96124  0.46641  0.58833  1.0000
  C   C2683     1.0  0.93058  0.43415  0.54817  1.0000
  C   C2684     1.0  0.90177  0.48543  0.87800  1.0000
  C   C2685     1.0  0.80388  0.29688  0.65394  1.0000
  C   C2686     1.0  0.88432  0.43608  0.89231  1.0000
  C   C2687     1.0  0.89820  0.43247  0.90076  1.0000
  C   C2688     1.0  0.78806  0.29031  0.66663  1.0000
  C   C2689     1.0  0.76868  0.43418  0.76463  1.0000
  C   C2690     1.0  0.76175  0.43335  0.73765  1.0000
  C   C2691     1.0  0.91111  0.47937  0.86100  1.0000
  C   C2692     1.0  0.87920  0.45323  0.79943  1.0000
  C   C2693     1.0  0.76445  0.41907  0.77944  1.0000
  S   S356      1.0  0.86874  0.41776  0.96989  1.0000
  H   H2140     1.0  0.90999  0.38008  0.59199  1.0000
  H   H2141     1.0  0.88517  0.44901  0.89610  1.0000
  C   C2694     1.0  0.87437  0.44359  0.82344  1.0000
  H   H2142     1.0  0.73798  0.47910  0.83142  1.0000
  C   C2695     1.0  0.82811  0.23033  0.72502  1.0000
  H   H2143     1.0  0.80593  0.30530  0.63654  1.0000
  C   C2696     1.0  0.85024  0.45121  0.82706  1.0000
  H   H2144     1.0  0.83067  0.23372  0.76968  1.0000
  C   C2697     1.0  0.75003  0.22463  0.75683  1.0000
  H   H2145     1.0  0.90732  0.44014  0.49693  1.0000
  C   C2698     1.0  0.82485  0.44163  0.61710  1.0000
  C   C2699     1.0  0.77343  0.31155  0.93879  1.0000
  H   H2146     1.0  0.90643  0.47499  0.83982  1.0000
  H   H2147     1.0  0.84926  0.45125  0.65982  1.0000
  H   H2148     1.0  0.89658  0.48060  0.96313  1.0000
  C   C2700     1.0  0.89054  0.43694  0.60199  1.0000
  C   C2701     1.0  0.84267  0.43980  0.58025  1.0000
  C   C2702     1.0  0.81541  0.37543  0.93405  1.0000
  C   C2703     1.0  0.93611  0.44118  0.95644  1.0000
  H   H2149     1.0  0.90042  0.44909  0.59547  1.0000
  S   S357      1.0  0.87428  0.42951  0.52166  1.0000
  Fe  Fe178     1.0  0.87756  0.39702  0.97918  1.0000
  H   H2150     1.0  0.81031  0.31560  0.87363  1.0000
  C   C2704     1.0  0.83822  0.41325  0.71010  1.0000
  C   C2705     1.0  0.84182  0.42358  0.66289  1.0000
  H   H2151     1.0  0.83963  0.46112  0.96215  1.0000
  H   H2152     1.0  0.87299  0.44805  0.61159  1.0000
  C   C2706     1.0  0.84022  0.45299  0.56654  1.0000
  H   H2153     1.0  0.77694  0.42667  0.67503  1.0000
  H   H2154     1.0  0.84086  0.43219  0.74240  1.0000
  H   H2155     1.0  0.75091  0.27771  0.84547  1.0000
  C   C2707     1.0  0.97941  0.41443  0.96554  1.0000
  H   H2156     1.0  0.74816  0.46488  0.79542  1.0000
  C   C2708     1.0  0.93444  0.38449  0.57427  1.0000
  H   H2157     1.0  0.89282  0.35452  0.56158  1.0000
  H   H2158     1.0  0.94764  0.43563  0.50025  1.0000
  H   H2159     1.0  0.77105  0.34523  0.89891  1.0000
  C   C2709     1.0  0.94455  0.42230  0.58093  1.0000
  C   C2710     1.0  0.92645  0.47900  0.87135  1.0000
  C   C2711     1.0  0.94233  0.37872  0.55386  1.0000
  C   C2712     1.0  0.92142  0.40545  0.66570  1.0000
  H   H2160     1.0  0.82047  0.35301  0.93667  1.0000
  P   P92       1.0  0.94668  0.40387  0.59553  1.0000
  C   C2713     1.0  0.74492  0.22752  0.70784  1.0000
  H   H2161     1.0  0.98247  0.41271  0.94442  1.0000
  C   C2714     1.0  0.89750  0.46947  0.97198  1.0000
  H   H2162     1.0  0.93066  0.42140  0.63069  1.0000
  H   H2163     1.0  0.91547  0.41336  0.67424  1.0000
  H   H2164     1.0  0.92567  0.36814  0.67764  1.0000
  C   C2715     1.0  0.92712  0.37995  0.66759  1.0000
  H   H2165     1.0  0.97352  0.42105  0.55665  1.0000
  C   C2716     1.0  0.97941  0.41755  0.57438  1.0000
  C   C2717     1.0  0.91651  0.37563  0.57697  1.0000
  C   C2718     1.0  0.91606  0.48280  0.50494  1.0000
  C   C2719     1.0  0.91993  0.39046  0.67904  1.0000
  C   C2720     1.0  0.88444  0.45290  0.96580  1.0000
  C   C2721     1.0  0.95490  0.43915  0.59156  1.0000
  Fe  Fe179     1.0  0.90562  0.39277  0.49443  1.0000
  P   P93       1.0  0.95283  0.48522  0.91168  1.0000
  C   C2722     1.0  0.93752  0.39957  0.62940  1.0000
  H   H2166     1.0  0.91293  0.38681  0.69798  1.0000
  H   H2167     1.0  0.96862  0.44008  0.85031  1.0000
  H   H2168     1.0  0.93107  0.43722  0.97679  1.0000
  C   C2723     1.0  0.93016  0.41001  0.64099  1.0000
  H   H2169     1.0  0.87351  0.45143  0.95243  1.0000
  H   H2170     1.0  0.94059  0.37571  0.63352  1.0000
  H   H2171     1.0  0.96448  0.44124  0.60822  1.0000
  H   H2172     1.0  0.78297  0.29180  0.94403  1.0000
  C   C2724     1.0  0.90582  0.45155  0.50361  1.0000
  H   H2173     1.0  0.89012  0.45363  0.78826  1.0000
  H   H2174     1.0  0.93931  0.46186  0.55000  1.0000
  C   C2725     1.0  0.75138  0.44779  0.66308  1.0000
  H   H2175     1.0  0.93343  0.47408  0.85804  1.0000
  S   S358      1.0  0.80096  0.48426  0.77882  1.0000
  C   C2726     1.0  0.94075  0.45088  0.55886  1.0000
  C   C2727     1.0  0.74811  0.30708  0.96485  1.0000
  C   C2728     1.0  0.97015  0.41107  0.49753  1.0000
  H   H2176     1.0  0.83742  0.32034  0.96819  1.0000
  H   H2177     1.0  0.97741  0.45900  0.50495  1.0000
  H   H2178     1.0  0.85164  0.44587  0.49574  1.0000
  H   H2179     1.0  0.82868  0.47115  0.56788  1.0000
  H   H2180     1.0  0.87326  0.46937  0.77070  1.0000
  H   H2181     1.0  0.81007  0.32336  0.96260  1.0000
  H   H2182     1.0  0.91043  0.48492  0.58157  1.0000
  C   C2729     1.0  0.84329  0.48000  0.49475  1.0000
  S   S359      1.0  0.85817  0.36962  0.97157  1.0000
  H   H2183     1.0  0.96822  0.39769  0.49534  1.0000
  C   C2730     1.0  0.83894  0.43730  0.48707  1.0000
  C   C2731     1.0  0.76340  0.46250  0.65074  1.0000
  H   H2184     1.0  0.92992  0.46918  0.48754  1.0000
  H   H2185     1.0  0.74952  0.39140  0.77911  1.0000
  S   S360      1.0  0.93437  0.39733  0.49466  1.0000
  C   C2732     1.0  0.73892  0.21998  0.73314  1.0000
  H   H2186     1.0  0.80684  0.39754  0.49769  1.0000
  C   C2733     1.0  0.74457  0.48432  0.73304  1.0000
  H   H2187     1.0  0.97411  0.48576  0.96122  1.0000
  H   H2188     1.0  0.74524  0.21881  0.77642  1.0000
  C   C2734     1.0  0.98241  0.44467  0.85417  1.0000
  C   C2735     1.0  0.74037  0.39765  0.66975  1.0000
  C   C2736     1.0  0.73938  0.36987  0.63609  1.0000
  S   S361      1.0  0.76334  0.48191  0.72181  1.0000
  H   H2189     1.0  0.73818  0.31114  0.97048  1.0000
  C   C2737     1.0  0.90759  0.49078  0.90549  1.0000
  S   S362      1.0  0.83815  0.49050  0.75136  1.0000
  C   C2738     1.0  0.98269  0.48707  0.88765  1.0000
  H   H2190     1.0  0.73645  0.38983  0.73200  1.0000
  H   H2191     1.0  0.86554  0.48903  0.63277  1.0000
  C   C2739     1.0  0.73536  0.26871  0.72488  1.0000
  H   H2192     1.0  0.73618  0.22403  0.68961  1.0000
  H   H2193     1.0  0.98356  0.47897  0.90423  1.0000
  C   C2740     1.0  0.81493  0.55537  0.25480  1.0000
  H   H2194     1.0  0.96524  0.55906  0.40075  1.0000
  H   H2195     1.0  0.87094  0.52002  0.28080  1.0000
  H   H2196     1.0  0.84503  0.49490  0.08790  1.0000
  C   C2741     1.0  0.98059  0.49841  0.39512  1.0000
  Fe  Fe180     1.0  0.89590  0.53506  0.46013  1.0000
  S   S363      1.0  0.87921  0.53564  0.42166  1.0000
  Fe  Fe181     1.0  0.89350  0.52640  0.02183  1.0000
  S   S364      1.0  0.87359  0.51653  0.05615  1.0000
  S   S365      1.0  0.92432  0.54125  0.46179  1.0000
  S   S366      1.0  0.92179  0.53252  0.02742  1.0000
  C   C2742     1.0  0.82145  0.57679  0.00157  1.0000
  H   H2197     1.0  0.83635  0.49696  0.13612  1.0000
  H   H2198     1.0  0.88390  0.55460  0.05919  1.0000
  C   C2743     1.0  0.80007  0.54741  0.23741  1.0000
  H   H2199     1.0  0.83920  0.59174  0.24682  1.0000
  S   S367      1.0  0.82298  0.51256  0.24761  1.0000
  S   S368      1.0  0.85171  0.52416  0.18046  1.0000
  C   C2744     1.0  0.80109  0.54109  0.21087  1.0000
  C   C2745     1.0  0.87944  0.62433  0.25604  1.0000
  C   C2746     1.0  0.85389  0.50401  0.33978  1.0000
  C   C2747     1.0  0.89039  0.56540  0.04598  1.0000
  C   C2748     1.0  0.87323  0.50920  0.38140  1.0000
  C   C2749     1.0  0.86970  0.52307  0.39030  1.0000
  C   C2750     1.0  0.85824  0.52733  0.37367  1.0000
  C   C2751     1.0  0.85036  0.51785  0.34869  1.0000
  H   H2200     1.0  0.82781  0.52682  0.03559  1.0000
  H   H2201     1.0  0.85540  0.53804  0.38020  1.0000
  H   H2202     1.0  0.84144  0.52113  0.33643  1.0000
  C   C2752     1.0  0.86852  0.51843  0.09153  1.0000
  C   C2753     1.0  0.85322  0.50568  0.10156  1.0000
  C   C2754     1.0  0.84827  0.50678  0.12904  1.0000
  C   C2755     1.0  0.85840  0.52091  0.14680  1.0000
  C   C2756     1.0  0.87380  0.53357  0.13689  1.0000
  C   C2757     1.0  0.87893  0.53228  0.10960  1.0000
  C   C2758     1.0  0.86148  0.58857  0.26364  1.0000
  H   H2203     1.0  0.74160  0.60558  0.32837  1.0000
  C   C2759     1.0  0.98386  0.59990  0.44084  1.0000
  H   H2204     1.0  0.89078  0.54214  0.10244  1.0000
  H   H2205     1.0  0.88290  0.58735  0.99237  1.0000
  C   C2760     1.0  0.85551  0.59129  0.02348  1.0000
  H   H2206     1.0  0.85337  0.52330  0.01846  1.0000
  H   H2207     1.0  0.85347  0.58346  0.36886  1.0000
  H   H2208     1.0  0.81381  0.56005  0.27534  1.0000
  H   H2209     1.0  0.74991  0.51564  0.22130  1.0000
  P   P94       1.0  0.84991  0.56567  0.26921  1.0000
  C   C2761     1.0  0.95955  0.54571  0.40686  1.0000
  S   S369      1.0  0.92773  0.49236  0.99807  1.0000
  H   H2210     1.0  0.82324  0.60280  0.00378  1.0000
  C   C2762     1.0  0.88986  0.58371  0.00831  1.0000
  C   C2763     1.0  0.97721  0.49499  0.06348  1.0000
  C   C2764     1.0  0.85572  0.55785  0.08132  1.0000
  C   C2765     1.0  0.84691  0.60186  0.01853  1.0000
  C   C2766     1.0  0.84720  0.57343  0.01694  1.0000
  H   H2211     1.0  0.96637  0.55654  0.01076  1.0000
  C   C2767     1.0  0.85187  0.52755  0.99796  1.0000
  C   C2768     1.0  0.88243  0.53611  0.24639  1.0000
  C   C2769     1.0  0.86540  0.49978  0.35634  1.0000
  C   C2770     1.0  0.85285  0.59805  0.25250  1.0000
  H   H2212     1.0  0.81780  0.53771  0.18117  1.0000
  H   H2213     1.0  0.96665  0.51720  0.44838  1.0000
  H   H2214     1.0  0.85512  0.62310  0.23999  1.0000
  C   C2771     1.0  0.84373  0.56259  0.30505  1.0000
  C   C2772     1.0  0.83092  0.55673  0.24593  1.0000
  C   C2773     1.0  0.88365  0.55045  0.23135  1.0000
  P   P95       1.0  0.85770  0.55936  0.02366  1.0000
  H   H2215     1.0  0.85447  0.53624  0.29439  1.0000
  H   H2216     1.0  0.80822  0.57111  0.99332  1.0000
  C   C2774     1.0  0.81703  0.54296  0.20150  1.0000
  C   C2775     1.0  0.96035  0.52211  0.43332  1.0000
  C   C2776     1.0  0.91720  0.58674  0.02931  1.0000
  C   C2777     1.0  0.97380  0.50469  0.37339  1.0000
  H   H2217     1.0  0.91479  0.60166  0.99515  1.0000
  C   C2778     1.0  0.97595  0.56889  0.00441  1.0000
  H   H2218     1.0  0.84393  0.55160  0.21128  1.0000
  H   H2219     1.0  0.78761  0.54556  0.24478  1.0000
  C   C2779     1.0  0.96609  0.49419  0.34967  1.0000
  H   H2220     1.0  0.96713  0.57333  0.44736  1.0000
  C   C2780     1.0  0.83190  0.55083  0.21885  1.0000
  H   H2221     1.0  0.88638  0.63813  0.25308  1.0000
  C   C2781     1.0  0.87210  0.53130  0.26936  1.0000
  Fe  Fe182     1.0  0.92574  0.55006  0.99125  1.0000
  C   C2782     1.0  0.82574  0.54431  0.34032  1.0000
  H   H2222     1.0  0.82431  0.53628  0.29745  1.0000
  C   C2783     1.0  0.83063  0.54679  0.31273  1.0000
  C   C2784     1.0  0.97065  0.58095  0.99291  1.0000
  H   H2223     1.0  0.85423  0.55683  0.12598  1.0000
  H   H2224     1.0  0.86853  0.59706  0.03259  1.0000
  C   C2785     1.0  0.97036  0.51851  0.04791  1.0000
  H   H2225     1.0  0.78945  0.53429  0.19790  1.0000
  H   H2226     1.0  0.90172  0.62157  0.27316  1.0000
  S   S370      1.0  0.77352  0.50019  0.23333  1.0000
  C   C2786     1.0  0.83395  0.55752  0.36053  1.0000
  H   H2227     1.0  0.96149  0.53746  0.48440  1.0000
  C   C2787     1.0  0.96846  0.50142  0.04492  1.0000
  C   C2788     1.0  0.87434  0.55983  0.23902  1.0000
  C   C2789     1.0  0.94368  0.53440  0.39427  1.0000
  C   C2790     1.0  0.93619  0.51695  0.40112  1.0000
  C   C2791     1.0  0.86367  0.55491  0.26182  1.0000
  H   H2228     1.0  0.97439  0.51766  0.37509  1.0000
  C   C2792     1.0  0.94462  0.51078  0.42046  1.0000
  C   C2793     1.0  0.83004  0.56622  0.00635  1.0000
  C   C2794     1.0  0.85190  0.57582  0.32551  1.0000
  H   H2229     1.0  0.86693  0.57020  0.08226  1.0000
  H   H2230     1.0  0.87669  0.49235  0.43889  1.0000
  C   C2795     1.0  0.74259  0.50356  0.23119  1.0000
  C   C2796     1.0  0.88809  0.61500  0.26731  1.0000
  C   C2797     1.0  0.88095  0.57066  0.02679  1.0000
  C   C2798     1.0  0.83382  0.53349  0.05510  1.0000
  H   H2231     1.0  0.81546  0.51371  0.07957  1.0000
  S   S371      1.0  0.88826  0.50471  0.99026  1.0000
  H   H2232     1.0  0.92379  0.50826  0.39160  1.0000
  H   H2233     1.0  0.95988  0.49311  0.02834  1.0000
  H   H2234     1.0  0.84796  0.49632  0.42974  1.0000
  H   H2235     1.0  0.85340  0.61566  0.02339  1.0000
  H   H2236     1.0  0.88176  0.54457  0.15033  1.0000
  H   H2237     1.0  0.97382  0.60428  0.44395  1.0000
  C   C2799     1.0  0.98010  0.58230  0.44265  1.0000
  H   H2238     1.0  0.96315  0.52315  0.03387  1.0000
  H   H2239     1.0  0.93706  0.53921  0.37945  1.0000
  H   H2240     1.0  0.82854  0.52873  0.12478  1.0000
  H   H2241     1.0  0.96070  0.49900  0.33291  1.0000
  C   C2800     1.0  0.84642  0.49542  0.45200  1.0000
  H   H2242     1.0  0.86210  0.58810  0.32041  1.0000
  Fe  Fe183     1.0  0.83177  0.50441  0.20817  1.0000
  C   C2801     1.0  0.96773  0.53975  0.42724  1.0000
  H   H2243     1.0  0.93120  0.59265  0.02985  1.0000
  H   H2244     1.0  0.91562  0.56916  0.06188  1.0000
  H   H2245     1.0  0.81578  0.53198  0.34609  1.0000
  C   C2802     1.0  0.90843  0.57353  0.04740  1.0000
  H   H2246     1.0  0.83034  0.55549  0.38200  1.0000
  C   C2803     1.0  0.87916  0.59719  0.27112  1.0000
  H   H2247     1.0  0.87496  0.57049  0.22645  1.0000
  H   H2248     1.0  0.88216  0.50586  0.39358  1.0000
  H   H2249     1.0  0.89124  0.55382  0.21301  1.0000
  C   C2804     1.0  0.83388  0.53463  0.10546  1.0000
  C   C2805     1.0  0.84869  0.54923  0.05561  1.0000
  C   C2806     1.0  0.84842  0.55049  0.10612  1.0000
  H   H2250     1.0  0.82326  0.55238  0.00190  1.0000
  H   H2251     1.0  0.90676  0.49630  0.43620  1.0000
  C   C2807     1.0  0.86273  0.54062  0.27705  1.0000
  H   H2252     1.0  0.88600  0.59015  0.28014  1.0000
  C   C2808     1.0  0.84701  0.57327  0.35312  1.0000
  C   C2809     1.0  0.86183  0.61586  0.24866  1.0000
  C   C2810     1.0  0.82658  0.52613  0.07997  1.0000
  H   H2253     1.0  0.88917  0.52849  0.23987  1.0000
  C   C2811     1.0  0.82991  0.59462  0.00752  1.0000
  C   C2812     1.0  0.90792  0.59180  0.00973  1.0000
  H   H2254     1.0  0.84930  0.52178  0.45648  1.0000
  C   C2813     1.0  0.85283  0.54423  0.99434  1.0000
  H   H2255     1.0  0.93883  0.49730  0.42599  1.0000
  Fe  Fe184     1.0  0.91658  0.51197  0.99404  1.0000
  C   C2814     1.0  0.84727  0.50998  0.46711  1.0000
  C   C2815     1.0  0.75093  0.49302  0.23924  1.0000
  H   H2256     1.0  0.98297  0.54280  0.07107  1.0000
  S   S372      1.0  0.89751  0.54550  0.98719  1.0000
  C   C2816     1.0  0.98145  0.52951  0.06892  1.0000
  H   H2257     1.0  0.73840  0.62902  0.30219  1.0000
  S   S373      1.0  0.94841  0.57677  0.98869  1.0000
  C   C2817     1.0  0.98337  0.59702  0.98508  1.0000
  Fe  Fe185     1.0  0.82783  0.49164  0.26937  1.0000
  Fe  Fe186     1.0  0.79618  0.49183  0.23541  1.0000
  H   H2258     1.0  0.84786  0.54251  0.92343  1.0000
  C   C2818     1.0  0.98058  0.57373  0.91560  1.0000
  H   H2259     1.0  0.93417  0.59880  0.55772  1.0000
  C   C2819     1.0  0.93234  0.58952  0.57387  1.0000
  H   H2260     1.0  0.95365  0.60709  0.60000  1.0000
  Fe  Fe187     1.0  0.89426  0.52396  0.95616  1.0000
  S   S374      1.0  0.87874  0.51275  0.91458  1.0000
  Fe  Fe188     1.0  0.89375  0.53323  0.52506  1.0000
  S   S375      1.0  0.87434  0.53166  0.55857  1.0000
  S   S376      1.0  0.92255  0.52975  0.95835  1.0000
  S   S377      1.0  0.92202  0.53918  0.53117  1.0000
  H   H2261     1.0  0.97946  0.60651  0.97634  1.0000
  H   H2262     1.0  0.97910  0.57728  0.50811  1.0000
  Fe  Fe189     1.0  0.82627  0.50671  0.77087  1.0000
  S   S378      1.0  0.84136  0.52685  0.80568  1.0000
  H   H2263     1.0  0.91045  0.56930  0.55236  1.0000
  S   S379      1.0  0.81662  0.51223  0.72893  1.0000
  H   H2264     1.0  0.89965  0.49264  0.52471  1.0000
  C   C2820     1.0  0.95512  0.54517  0.88653  1.0000
  C   C2821     1.0  0.94805  0.56805  0.68409  1.0000
  C   C2822     1.0  0.85177  0.52288  0.83591  1.0000
  C   C2823     1.0  0.86014  0.53628  0.85622  1.0000
  C   C2824     1.0  0.86858  0.53358  0.88031  1.0000
  C   C2825     1.0  0.86873  0.51739  0.88444  1.0000
  C   C2826     1.0  0.86041  0.50407  0.86408  1.0000
  C   C2827     1.0  0.85199  0.50674  0.84007  1.0000
  H   H2265     1.0  0.87494  0.54401  0.89563  1.0000
  C   C2828     1.0  0.92584  0.51253  0.58356  1.0000
  C   C2829     1.0  0.97646  0.56907  0.69347  1.0000
  C   C2830     1.0  0.86584  0.52084  0.59004  1.0000
  C   C2831     1.0  0.85473  0.52583  0.60513  1.0000
  C   C2832     1.0  0.84766  0.51778  0.63010  1.0000
  C   C2833     1.0  0.85160  0.50454  0.64053  1.0000
  C   C2834     1.0  0.84876  0.53830  0.94433  1.0000
  C   C2835     1.0  0.86960  0.50744  0.60023  1.0000
  H   H2266     1.0  0.96397  0.49953  0.49106  1.0000
  H   H2267     1.0  0.84880  0.50349  0.97800  1.0000
  C   C2836     1.0  0.94511  0.55606  0.66186  1.0000
  H   H2268     1.0  0.87790  0.50325  0.58879  1.0000
  H   H2269     1.0  0.90688  0.54765  0.58786  1.0000
  Fe  Fe190     1.0  0.91738  0.52105  0.49429  1.0000
  H   H2270     1.0  0.86009  0.54884  0.85327  1.0000
  C   C2837     1.0  0.89423  0.55040  0.65183  1.0000
  C   C2838     1.0  0.89263  0.53673  0.70465  1.0000
  H   H2271     1.0  0.94513  0.53409  0.87545  1.0000
  C   C2839     1.0  0.88026  0.54784  0.66829  1.0000
  C   C2840     1.0  0.91359  0.49698  0.59323  1.0000
  C   C2841     1.0  0.96205  0.51713  0.93948  1.0000
  C   C2842     1.0  0.90769  0.54641  0.66187  1.0000
  C   C2843     1.0  0.97361  0.55709  0.67147  1.0000
  H   H2272     1.0  0.97059  0.54249  0.95934  1.0000
  H   H2273     1.0  0.95002  0.58592  0.63622  1.0000
  C   C2844     1.0  0.84637  0.50964  0.49603  1.0000
  H   H2274     1.0  0.95621  0.54160  0.63845  1.0000
  C   C2845     1.0  0.90671  0.53942  0.68837  1.0000
  H   H2275     1.0  0.84558  0.51288  0.93043  1.0000
  H   H2276     1.0  0.86831  0.53851  0.70700  1.0000
  C   C2846     1.0  0.95043  0.55534  0.90452  1.0000
  H   H2277     1.0  0.83924  0.52191  0.64135  1.0000
  H   H2278     1.0  0.95442  0.51984  0.92353  1.0000
  H   H2279     1.0  0.85159  0.53609  0.59749  1.0000
  H   H2280     1.0  0.95948  0.57746  0.93296  1.0000
  C   C2847     1.0  0.91908  0.57284  0.57070  1.0000
  C   C2848     1.0  0.97500  0.49709  0.48573  1.0000
  H   H2281     1.0  0.95831  0.50740  0.86357  1.0000
  S   S380      1.0  0.88872  0.51335  0.49025  1.0000
  C   C2849     1.0  0.96315  0.56959  0.91899  1.0000
  H   H2282     1.0  0.97599  0.54127  0.86904  1.0000
  C   C2850     1.0  0.86252  0.49937  0.62521  1.0000
  C   C2851     1.0  0.96850  0.50303  0.86483  1.0000
  C   C2852     1.0  0.95801  0.55062  0.65567  1.0000
  H   H2283     1.0  0.86985  0.55080  0.66031  1.0000
  H   H2284     1.0  0.93693  0.55220  0.90739  1.0000
  H   H2285     1.0  0.91667  0.53579  0.69627  1.0000
  H   H2286     1.0  0.93842  0.57273  0.68885  1.0000
  C   C2853     1.0  0.96366  0.57452  0.69981  1.0000
  C   C2854     1.0  0.97507  0.54047  0.52373  1.0000
  S   S381      1.0  0.89957  0.55478  0.49471  1.0000
  H   H2287     1.0  0.93212  0.51247  0.56437  1.0000
  C   C2855     1.0  0.98246  0.51101  0.98060  1.0000
  C   C2856     1.0  0.97194  0.59869  0.50653  1.0000
  C   C2857     1.0  0.92813  0.56504  0.61477  1.0000
  H   H2288     1.0  0.90020  0.49519  0.91885  1.0000
  C   C2858     1.0  0.84918  0.51625  0.97503  1.0000
  C   C2859     1.0  0.94337  0.59413  0.59765  1.0000
  C   C2860     1.0  0.94125  0.58199  0.61812  1.0000
  C   C2861     1.0  0.96276  0.50094  0.93993  1.0000
  H   H2289     1.0  0.89176  0.53115  0.72493  1.0000
  C   C2862     1.0  0.85163  0.54968  0.96725  1.0000
  H   H2290     1.0  0.85309  0.56275  0.96374  1.0000
  H   H2291     1.0  0.84775  0.52117  0.50784  1.0000
  C   C2863     1.0  0.97839  0.61679  0.50632  1.0000
  Fe  Fe191     1.0  0.82703  0.49414  0.70992  1.0000
  C   C2864     1.0  0.91706  0.56061  0.59091  1.0000
  C   C2865     1.0  0.87940  0.54092  0.69460  1.0000
  C   C2866     1.0  0.84748  0.52158  0.94824  1.0000
  H   H2292     1.0  0.93893  0.54018  0.59006  1.0000
  H   H2293     1.0  0.96593  0.58397  0.71664  1.0000
  C   C2867     1.0  0.92959  0.52820  0.59810  1.0000
  C   C2868     1.0  0.97258  0.54926  0.88307  1.0000
  H   H2294     1.0  0.89423  0.55525  0.63121  1.0000
  C   C2869     1.0  0.84442  0.49468  0.50986  1.0000
  C   C2870     1.0  0.97302  0.49796  0.96071  1.0000
  C   C2871     1.0  0.90881  0.51270  0.63207  1.0000
  H   H2295     1.0  0.96331  0.53379  0.53464  1.0000
  C   C2872     1.0  0.92102  0.52843  0.62238  1.0000
  C   C2873     1.0  0.97131  0.53006  0.95962  1.0000
  P   P96       1.0  0.92544  0.54885  0.64035  1.0000
  S   S382      1.0  0.93050  0.50305  0.49403  1.0000
  H   H2296     1.0  0.90174  0.51245  0.65039  1.0000
  S   S383      1.0  0.94896  0.58676  0.50431  1.0000
  S   S384      1.0  0.84325  0.49389  0.67221  1.0000
  C   C2874     1.0  0.97409  0.54242  0.49502  1.0000
  Fe  Fe192     1.0  0.92754  0.55918  0.49859  1.0000
  H   H2297     1.0  0.84434  0.49475  0.53238  1.0000
  H   H2298     1.0  0.98139  0.51789  0.82997  1.0000
  C   C2875     1.0  0.90517  0.49705  0.61757  1.0000
  H   H2299     1.0  0.86043  0.49154  0.86682  1.0000
  H   H2300     1.0  0.96950  0.62282  0.50562  1.0000
  H   H2301     1.0  0.75553  0.49697  0.77262  1.0000
  H   H2302     1.0  0.84565  0.49629  0.82476  1.0000
  C   C2876     1.0  0.98166  0.50915  0.84592  1.0000
  C   C2877     1.0  0.98162  0.52703  0.98003  1.0000
  H   H2303     1.0  0.98360  0.55301  0.66635  1.0000
  C   C2878     1.0  0.96873  0.49164  0.88546  1.0000
  H   H2304     1.0  0.92698  0.49445  0.93741  1.0000
  C   C2879     1.0  0.98383  0.59120  0.50769  1.0000
  C   C2880     1.0  0.74413  0.49200  0.75881  1.0000
