data_image0
_chemical_formula_structural       FeS2HFeS2CH2C2FeCH4CHC2HC3HC2H2C7HCHSFeC2H2CHSC3HC2H2FeCHCH2CH2C2H2CHCSHC2H3SHC9H3CFeC2SC2HCH5CH5C4H2CH2C2PHC3HC4SHC3HSH2SC4H2CFeC2HCHC3HC2HPC4HCH2CFeCH2C4HCH3CPH2SH4C4HS2CFeS2FeS2FeSFeS3FeS2FeS2FeSFeS3FeSFeS2FeSFeS3FeSFeS2FeSFeHS2HCSH5C2SC4HCHCHCHCHC3HCHCH3C9H4C6H4C6H4C6H4C6H4C6H4CH2CHC4PC9HPC7H2CH8CH6C3HC2PC2HC3HC2HC4H6CHCHCHC2HC7PC16H18C3HC3PC18H28SH2C3H2C2H2CHCHCHC4HC2H3C2HCHSC4HC2H3C5HC4HCHC3H2CHCH2CH2C2H2PCHCH3CH2C4HC2H2C3H2C2HC4H2CHCPCHC3H3CHCHCH2CH2C2HC2HC3PC2H2CH2CH3C3HCHCHCH2CH3C4HC2HC6HC2HC2H2CHC2H2CH3C2HC3H4CH2C3HCHPCHCHC3HCHCHC3H2CHCFeS2FeCSFeS2FeS2CHFeHFeSPSCSHC4SCHCHC4H2CH2C2SH2C4HC6H5CHCHCSC2H2CSH2CHCHC2H3CH5SH4C2HCH3CHC4H3C2SH3CHC2HCHCHC3HCH2FeH2C3FeCHC2HCHCHCHC7PC3HCHC12H4CHCHCHCH2C3HC2HPH2C2FeS2H2CHSCH2CFeCSC3S2FeCSC2SCSCS2HC2H2C2H2C6H4C6H4SCHCHCH4C9H3CH3CHP2H3CH2C2HC5HCH2CSH2CHCH2FeH2CH2C2HCHC2H3PH4SH3FeCHC4H2CH2C2HC3HCH3C6HC2HC6HSH3C2HCH2PCHCFeC7H2CH2CHCH3CHPHC5SCHCHC3HCHC5PC2FeC3H3SC2H2CHC2SHCHC2HCHC2H4CH3C4HC2HCHCFeHC3H3FeS2FeS2FeSFeS3FeS2CHCFeSFeHS2HSHC2HSFeHSCH2SC6H7C7H9CH2CH2C2HC3H2CHC6H5CH4CH3C5H4CFeC2PC6HC7H2CHCH2C2H5SC7PC3HC14H6C2H8CH3C6PC9HC8H2CH4CH3C3H8C3SH2C6H3C2HCH2CHSCHCHC7PC18H13CFeC3HCPCH2C3HCHC3HSC2HC3HCH4SCH3CH3FeHSCH2CHC3HC3H4CHCFeCHCHC2HCHC2HCHPC2HSH2CSHSCHC2HCH3CFeS2FeS2FeSFeS3FeS2H3CHFeSHSFeS2FeSFeSFeS3FeS2FeS2Fe2S3C2SHC6H2CHC6H4C6H7C2H7CHC6H4C6H4C6H4C3H4C2H2C2H2CHPC3HCHC7HCH5CH5C4HC6H6C7PC18H9CH3CH3C2PCH2C3H4CHC4HCHPC2H2CHC2HCHC3HC5H3C3PCHC4H3C4HCH2C2HCH3CH3C6FeC2H2SCHCHCHCH2CH2C2H2C4HCHC3H2CH3C2H4C7HCHC2SHC3HCPCHCHC2HCH3CHCHCH2CH2C2H3PC10H2CHCH2C3H2CHC2HCH2CH2CHPH2CHCHPCHCHCSCHC2SHC7HCHCH3C4HCH3CHCHCH4CHC3SCHFeS2FeSHFeSFeS3FeSFeSHFeSCHSHFeS2FeS2FeSFeS3FeS2FeS2FeSFeS3C2HCHC3HC6H4C7H4C6H4C6H4C6H9C2HCH2C6H4C6PC10HC7H6CH4C3H7CHC3H2CHC2HC3HC2HSCH2C3PC2HC13HCHPH6C2PHC3H2C2H2CH4CH4CH2C4H2C6H3C2H2C10H2CHCHC3HC3HCHCH2PC3PC2HC3H2CH2SCH2C4H2C3HCHC3H6C3H4C5H5C3H3C2H8CHC3H2SHC4HC2H3CHC3H3CH2CH2CHC2H2C3H2C3HC2H2C3H2CH2C4HC3HC3HC2PC3HCH3C4HCHCPCHC3H7C4H2FeCH2CH2CH4C2HCHCHCH2CH3CPCHC4H2SH2C3HFeS2FeH2FeSHCS2FeS2FeSHFeCFeSHS3C4S2C6H4C6H3C5HCHCHC3HC2H2CH4C6H5CHCHCSC3HCH6C11H2CHCHC3H3C3HC2H8CH4FeHCHC7PC18H20C6PC4HC9FeHC2H5PH12CH2C2HCHCH3CH3C10PCHC2HSCH2SC3H2CHC4HC6HC6HC2HC2HCH2SHC2PCH6C2HC2HSHSH3C2HCHC4HCH2SH2C2H2C6PC19HC2PCHCH2CH2SFeCHFeHCHCH3CHFeS2FeS2HFeS3FeS2FeS2CFeS3FeS2FeSCFeSCSCFeSFeS2CFeCS2C5H3CHC6H4C6H4C6H4C4H4CH2CH2C2SHCHCHC2HCHC3HCSHCH3C2H3C4HCHFeH3C3H2C4HCHC3HC2H2C6H4PHCHCHC6H2FeHCHPC5HCFeH2CH4C10H4CH5PC2PC3H2C3PHC2HCHCH2C2H2CH4C2H2CSH3C2HCSC5H2CSCHCH2C2HCHC3HCHCH3CH2CH6CH2C2H2C3HC2HC2HCH2CH4C2H2SH2C2HCHC2H2C6HCH2C3HC2H3CFeHCH3C6HC4HC4HC2HC3H2CH2PHCH2FeCH2CHC3H4FeS2FeS2Fe2PS2FeS2FeS2FeHSC6H4CH4C2HSH2C5HCH2C2H2CH2C2HC5HCH7CHCH2CH2C2HCHC4SCSC2SCH3CFeC2HCH3SC3HC3H4CSCHCH3C2HC4HCH3CH3C8HC3HC2HCHC2HCH3PHCHFeC3HC2HCHCHC3HC3H3FeS2FeS2FeSFeS3FeSC5FeSHSCHFeS2FeS2FeSFeS3FeS2FeS2FeSFeS3C6H4C6H3PC6H2CH3C7H4C6H4C6H5CSC3HPC15H3CH3PH4PC12H7C5HCH4C6PC18H25C5HCH2CHC2H6C2HPH7C3HC2HC6HC3HCH3C3HC2HCHCH2CHCHCHC2PHC4HCHSH2CHC3H2CHCHCH4C2HC2HC8HC2HC2HCH2CH2CH2C3H2C3HC3HCHC3HC4HC2HC4HC3HC2H2C4H4C3H5SHCHCHCH4CH3C3HC2HC2HPHCH3C2H2C2H3CHC2H2C3HC5H2C2SCPHC3H3FeS2FeSFeSFeS3FeS2FeS2FeSFeS2C6H5C2H6C4H2C2H3C5HCHC6PCH2C3HCHC4HC7HCH2SCHCH4FeCH4CH4C2HCHC2SC4SCHC2H2CHCPHC4PCHC2H5C2HCHCH2CH2C2HCHCHC2H4FeH3C2HCH4C2HC3
_chemical_formula_sum              "Fe144 S288 H1728 C2160 P72"
_cell_length_a       85.9943
_cell_length_b       88.5554
_cell_length_c       33.5984
_cell_angle_alpha    89.5566
_cell_angle_beta     84.5783
_cell_angle_gamma    110.038

_space_group_name_H-M_alt    "P 1"
_space_group_IT_number       1

loop_
  _space_group_symop_operation_xyz
  'x, y, z'

loop_
  _atom_site_type_symbol
  _atom_site_label
  _atom_site_symmetry_multiplicity
  _atom_site_fract_x
  _atom_site_fract_y
  _atom_site_fract_z
  _atom_site_occupancy
  Fe  Fe1       1.0  0.05584  0.45277  0.71818  1.0000
  S   S1        1.0  0.08227  0.45782  0.69135  1.0000
  S   S2        1.0  0.03798  0.42708  0.71960  1.0000
  H   H1        1.0  0.22436  0.48074  0.00603  1.0000
  Fe  Fe2       1.0  0.04453  0.45246  0.30873  1.0000
  S   S3        1.0  0.06818  0.45631  0.33759  1.0000
  S   S4        1.0  0.03176  0.42791  0.28541  1.0000
  C   C1        1.0  0.04327  0.44749  0.18564  1.0000
  H   H2        1.0  0.02741  0.49361  0.97502  1.0000
  H   H3        1.0  0.00419  0.46823  0.99524  1.0000
  C   C2        1.0  0.01073  0.41871  0.27602  1.0000
  C   C3        1.0  0.00602  0.40297  0.26301  1.0000
  Fe  Fe3       1.0  0.07757  0.48048  0.30396  1.0000
  C   C4        1.0  0.12353  0.47838  0.99220  1.0000
  H   H4        1.0  0.01429  0.43095  0.55804  1.0000
  H   H5        1.0  0.08849  0.46683  0.41393  1.0000
  H   H6        1.0  0.01516  0.39708  0.25867  1.0000
  H   H7        1.0  0.00492  0.39278  0.65315  1.0000
  C   C5        1.0  0.10703  0.45630  0.39519  1.0000
  H   H8        1.0  0.08549  0.43673  0.60885  1.0000
  C   C6        1.0  0.01631  0.41850  0.71636  1.0000
  C   C7        1.0  0.03163  0.49228  0.07462  1.0000
  H   H9        1.0  0.03335  0.43460  0.40965  1.0000
  C   C8        1.0  0.04902  0.44081  0.15241  1.0000
  C   C9        1.0  0.01179  0.47497  0.01749  1.0000
  C   C10       1.0  0.02817  0.45881  0.14357  1.0000
  H   H10       1.0  0.01341  0.43731  0.67976  1.0000
  C   C11       1.0  0.11094  0.48050  0.16022  1.0000
  C   C12       1.0  0.00248  0.40680  0.46985  1.0000
  H   H11       1.0  0.01518  0.39751  0.75082  1.0000
  H   H12       1.0  0.08426  0.45604  0.48352  1.0000
  C   C13       1.0  0.08537  0.49002  0.52213  1.0000
  C   C14       1.0  0.02386  0.42323  0.41950  1.0000
  C   C15       1.0  0.99873  0.42622  0.28124  1.0000
  C   C16       1.0  0.12581  0.49252  0.14441  1.0000
  C   C17       1.0  0.11367  0.44075  0.44652  1.0000
  C   C18       1.0  0.11409  0.44986  0.55133  1.0000
  C   C19       1.0  0.01253  0.48960  0.78468  1.0000
  H   H13       1.0  0.09314  0.38189  0.47511  1.0000
  C   C20       1.0  0.00201  0.39647  0.55331  1.0000
  H   H14       1.0  0.00058  0.48531  0.37916  1.0000
  S   S5        1.0  0.05478  0.47564  0.27155  1.0000
  Fe  Fe4       1.0  0.05701  0.46807  0.38617  1.0000
  C   C21       1.0  0.10173  0.44353  0.47414  1.0000
  C   C22       1.0  0.00722  0.42558  0.69448  1.0000
  H   H15       1.0  0.10150  0.37256  0.53682  1.0000
  H   H16       1.0  0.00629  0.47420  0.25741  1.0000
  C   C23       1.0  0.06290  0.47152  0.56599  1.0000
  H   H17       1.0  0.03753  0.42174  0.52792  1.0000
  S   S6        1.0  0.05321  0.47433  0.68831  1.0000
  C   C24       1.0  0.09641  0.38989  0.49960  1.0000
  C   C25       1.0  0.01486  0.42152  0.45719  1.0000
  C   C26       1.0  0.04431  0.44299  0.11473  1.0000
  H   H18       1.0  0.09925  0.46483  0.56636  1.0000
  C   C27       1.0  0.11105  0.46315  0.56826  1.0000
  C   C28       1.0  0.06404  0.42802  0.52663  1.0000
  H   H19       1.0  0.07704  0.47090  0.12678  1.0000
  H   H20       1.0  0.05745  0.46658  0.59569  1.0000
  Fe  Fe5       1.0  0.04512  0.48601  0.32505  1.0000
  C   C29       1.0  0.10003  0.41588  0.52810  1.0000
  H   H21       1.0  0.99620  0.43355  0.37328  1.0000
  C   C30       1.0  0.02081  0.41025  0.39446  1.0000
  H   H22       1.0  0.02803  0.46095  0.20790  1.0000
  H   H23       1.0  0.09166  0.40915  0.46982  1.0000
  C   C31       1.0  0.10428  0.41035  0.56336  1.0000
  H   H24       1.0  0.13271  0.43870  0.53813  1.0000
  H   H25       1.0  0.10691  0.41797  0.58875  1.0000
  C   C32       1.0  0.13305  0.48246  0.83715  1.0000
  C   C33       1.0  0.10107  0.38462  0.53440  1.0000
  H   H26       1.0  0.01602  0.38784  0.50734  1.0000
  H   H27       1.0  0.10514  0.47042  0.14226  1.0000
  C   C34       1.0  0.06179  0.47111  0.49358  1.0000
  H   H28       1.0  0.04551  0.48920  0.17254  1.0000
  C   C35       1.0  0.00361  0.47886  0.40294  1.0000
  S   S7        1.0  0.08967  0.49130  0.60214  1.0000
  H   H29       1.0  0.99858  0.43969  0.18510  1.0000
  C   C36       1.0  0.03393  0.45195  0.11027  1.0000
  C   C37       1.0  0.00879  0.39544  0.40720  1.0000
  H   H30       1.0  0.01779  0.43164  0.47637  1.0000
  H   H31       1.0  0.15142  0.49272  0.87849  1.0000
  H   H32       1.0  0.00413  0.46702  0.32876  1.0000
  S   S8        1.0  0.11073  0.47004  0.78175  1.0000
  H   H33       1.0  0.01141  0.45523  0.58845  1.0000
  C   C38       1.0  0.05116  0.46674  0.99005  1.0000
  C   C39       1.0  0.03720  0.45666  0.97319  1.0000
  C   C40       1.0  0.00828  0.40315  0.73429  1.0000
  C   C41       1.0  0.01667  0.46135  0.75742  1.0000
  C   C42       1.0  0.02176  0.47856  0.45352  1.0000
  C   C43       1.0  0.11919  0.48348  0.81957  1.0000
  C   C44       1.0  0.09920  0.47470  0.93990  1.0000
  C   C45       1.0  0.11172  0.46815  0.93121  1.0000
  C   C46       1.0  0.12391  0.47002  0.95727  1.0000
  H   H34       1.0  0.02157  0.45736  0.81741  1.0000
  H   H35       1.0  0.10885  0.46105  0.36456  1.0000
  H   H36       1.0  0.02558  0.38062  0.62761  1.0000
  C   C47       1.0  0.01159  0.46289  0.46554  1.0000
  Fe  Fe6       1.0  0.08003  0.48034  0.66504  1.0000
  C   C48       1.0  0.01347  0.38913  0.53900  1.0000
  C   C49       1.0  0.10366  0.48122  0.19931  1.0000
  S   S9        1.0  0.05211  0.46085  0.45271  1.0000
  C   C50       1.0  0.12982  0.44846  0.55248  1.0000
  C   C51       1.0  0.01840  0.47800  0.08642  1.0000
  H   H37       1.0  0.04690  0.44571  0.21482  1.0000
  C   C52       1.0  0.03270  0.45626  0.18147  1.0000
  H   H38       1.0  0.05223  0.46496  0.02137  1.0000
  H   H39       1.0  0.02771  0.44722  0.99152  1.0000
  H   H40       1.0  0.04283  0.45546  0.53657  1.0000
  H   H41       1.0  0.03318  0.42402  0.60182  1.0000
  H   H42       1.0  0.03035  0.45336  0.08089  1.0000
  C   C53       1.0  0.99412  0.46930  0.27418  1.0000
  H   H43       1.0  0.12100  0.43374  0.45541  1.0000
  H   H44       1.0  0.13380  0.46521  0.95010  1.0000
  H   H45       1.0  0.05703  0.43384  0.15607  1.0000
  H   H46       1.0  0.99865  0.45797  0.06559  1.0000
  H   H47       1.0  0.04868  0.43767  0.08906  1.0000
  C   C54       1.0  0.04801  0.42501  0.54552  1.0000
  C   C55       1.0  0.04795  0.47061  0.90880  1.0000
  C   C56       1.0  0.09573  0.40542  0.49656  1.0000
  C   C57       1.0  0.05914  0.43062  0.60940  1.0000
  H   H48       1.0  0.05721  0.43150  0.64155  1.0000
  H   H49       1.0  0.01784  0.48245  0.84175  1.0000
  C   C58       1.0  0.09554  0.45954  0.42292  1.0000
  H   H50       1.0  0.00226  0.43837  0.29126  1.0000
  H   H51       1.0  0.02777  0.41169  0.36515  1.0000
  C   C59       1.0  0.09303  0.45330  0.46228  1.0000
  C   C60       1.0  0.07520  0.43368  0.59062  1.0000
  P   P1        1.0  0.09844  0.43563  0.52513  1.0000
  H   H52       1.0  0.06563  0.42671  0.49464  1.0000
  C   C61       1.0  0.07782  0.43269  0.54895  1.0000
  C   C62       1.0  0.04556  0.42635  0.58691  1.0000
  C   C63       1.0  0.00861  0.46926  0.05745  1.0000
  H   H53       1.0  0.10823  0.39063  0.59362  1.0000
  C   C64       1.0  0.13858  0.47249  0.59076  1.0000
  C   C65       1.0  0.01111  0.48598  0.74426  1.0000
  C   C66       1.0  0.10492  0.39482  0.56633  1.0000
  C   C67       1.0  0.06194  0.48063  0.92549  1.0000
  S   S10       1.0  0.03287  0.46248  0.35899  1.0000
  H   H54       1.0  0.11220  0.46194  0.90367  1.0000
  C   C68       1.0  0.01898  0.38493  0.60681  1.0000
  C   C69       1.0  0.01302  0.47164  0.73094  1.0000
  C   C70       1.0  0.99962  0.39371  0.44465  1.0000
  H   H55       1.0  0.12525  0.44467  0.38566  1.0000
  S   S11       1.0  0.06358  0.46487  0.77539  1.0000
  H   H56       1.0  0.09236  0.47175  0.21118  1.0000
  H   H57       1.0  0.13823  0.47336  0.82782  1.0000
  S   S12       1.0  0.13469  0.49060  0.09547  1.0000
  C   C71       1.0  0.00736  0.39187  0.62127  1.0000
  C   C72       1.0  0.11620  0.44701  0.40708  1.0000
  C   C73       1.0  0.12317  0.47429  0.58835  1.0000
  C   C74       1.0  0.00143  0.44736  0.57288  1.0000
  H   H58       1.0  0.09023  0.47340  0.91857  1.0000
  H   H59       1.0  0.13301  0.47988  0.01240  1.0000
  C   C75       1.0  0.99760  0.45502  0.44576  1.0000
  Fe  Fe7       1.0  0.08984  0.47177  0.74671  1.0000
  C   C76       1.0  0.05463  0.46524  0.53243  1.0000
  C   C77       1.0  0.07822  0.47948  0.06594  1.0000
  H   H60       1.0  0.01487  0.45678  0.48961  1.0000
  C   C78       1.0  0.01830  0.46518  0.79737  1.0000
  H   H61       1.0  0.02491  0.45065  0.91939  1.0000
  C   C79       1.0  0.07705  0.48379  0.48850  1.0000
  C   C80       1.0  0.03559  0.45860  0.93261  1.0000
  C   C81       1.0  0.11103  0.48495  0.00106  1.0000
  H   H62       1.0  0.03286  0.48434  0.46817  1.0000
  C   C82       1.0  0.02199  0.38350  0.56568  1.0000
  C   C83       1.0  0.01612  0.47924  0.81107  1.0000
  H   H63       1.0  0.03095  0.37803  0.55450  1.0000
  P   P2        1.0  0.01482  0.47048  0.13786  1.0000
  C   C84       1.0  0.99887  0.39761  0.59478  1.0000
  C   C85       1.0  0.01993  0.48763  0.16949  1.0000
  C   C86       1.0  0.06366  0.47879  0.96630  1.0000
  C   C87       1.0  0.14196  0.45966  0.57252  1.0000
  H   H64       1.0  0.01190  0.46847  0.70003  1.0000
  C   C88       1.0  0.09861  0.48300  0.97518  1.0000
  H   H65       1.0  0.07913  0.46853  0.05348  1.0000
  H   H66       1.0  0.04692  0.47198  0.87710  1.0000
  C   C89       1.0  0.07707  0.48078  0.10749  1.0000
  Fe  Fe8       1.0  0.06347  0.48698  0.74283  1.0000
  C   C90       1.0  0.01781  0.48652  0.42204  1.0000
  H   H67       1.0  0.99578  0.49047  0.17135  1.0000
  H   H68       1.0  0.01862  0.45055  0.74687  1.0000
  C   C91       1.0  0.07905  0.49252  0.04068  1.0000
  C   C92       1.0  0.00300  0.43354  0.55570  1.0000
  C   C93       1.0  0.23650  0.48463  0.01708  1.0000
  C   C94       1.0  0.02489  0.48928  0.00606  1.0000
  H   H69       1.0  0.00646  0.38537  0.38772  1.0000
  C   C95       1.0  0.07840  0.48381  0.56093  1.0000
  H   H70       1.0  0.15398  0.45838  0.57404  1.0000
  H   H71       1.0  0.08282  0.48823  0.45869  1.0000
  H   H72       1.0  0.00846  0.49147  0.56355  1.0000
  C   C96       1.0  0.14050  0.49337  0.86607  1.0000
  P   P3        1.0  0.08226  0.49129  0.98689  1.0000
  H   H73       1.0  0.14787  0.48108  0.60670  1.0000
  H   H74       1.0  0.12055  0.48429  0.60224  1.0000
  S   S13       1.0  0.06842  0.49251  0.35571  1.0000
  H   H75       1.0  0.11126  0.49164  0.02798  1.0000
  H   H76       1.0  0.07162  0.48957  0.90620  1.0000
  H   H77       1.0  0.12820  0.49121  0.40255  1.0000
  H   H78       1.0  0.99464  0.49408  0.62968  1.0000
  C   C97       1.0  0.01542  0.49366  0.58939  1.0000
  C   C98       1.0  0.03605  0.49435  0.18129  1.0000
  C   C99       1.0  0.23951  0.49483  0.04913  1.0000
  C   C100      1.0  0.11145  0.49381  0.22354  1.0000
  H   H79       1.0  0.03819  0.49357  0.55627  1.0000
  S   S14       1.0  0.10370  0.49449  0.27434  1.0000
  S   S15       1.0  0.09020  0.49473  0.71764  1.0000
  C   C101      1.0  0.03215  0.49488  0.58521  1.0000
  Fe  Fe9       1.0  0.08973  0.60723  0.37838  1.0000
  S   S16       1.0  0.08716  0.62915  0.34923  1.0000
  S   S17       1.0  0.09126  0.59991  0.44268  1.0000
  Fe  Fe10      1.0  0.08775  0.59021  0.29909  1.0000
  S   S18       1.0  0.08471  0.61042  0.26419  1.0000
  S   S19       1.0  0.09067  0.56891  0.26815  1.0000
  Fe  Fe11      1.0  0.10497  0.62620  0.29797  1.0000
  S   S20       1.0  0.12834  0.64513  0.26677  1.0000
  Fe  Fe12      1.0  0.06717  0.61130  0.31728  1.0000
  S   S21       1.0  0.04208  0.61354  0.30988  1.0000
  S   S22       1.0  0.10904  0.60573  0.33006  1.0000
  S   S23       1.0  0.06868  0.58971  0.34959  1.0000
  Fe  Fe13      1.0  0.08666  0.59183  0.69693  1.0000
  S   S24       1.0  0.07417  0.59505  0.75622  1.0000
  S   S25       1.0  0.09401  0.57080  0.67752  1.0000
  Fe  Fe14      1.0  0.08792  0.62345  0.66161  1.0000
  S   S26       1.0  0.07582  0.62978  0.71876  1.0000
  S   S27       1.0  0.09420  0.63843  0.60309  1.0000
  Fe  Fe15      1.0  0.09278  0.62040  0.75125  1.0000
  S   S28       1.0  0.10277  0.62774  0.81223  1.0000
  Fe  Fe16      1.0  0.05820  0.60413  0.72023  1.0000
  S   S29       1.0  0.03054  0.59882  0.73821  1.0000
  S   S30       1.0  0.10635  0.61629  0.69373  1.0000
  S   S31       1.0  0.06913  0.59863  0.66130  1.0000
  Fe  Fe17      1.0  0.20282  0.69364  0.00236  1.0000
  S   S32       1.0  0.19465  0.67191  0.04596  1.0000
  Fe  Fe18      1.0  0.17681  0.67511  0.94486  1.0000
  S   S33       1.0  0.16754  0.65276  0.98423  1.0000
  S   S34       1.0  0.16749  0.67581  0.88325  1.0000
  Fe  Fe19      1.0  0.16827  0.66888  0.03594  1.0000
  S   S35       1.0  0.14415  0.65896  0.07804  1.0000
  Fe  Fe20      1.0  0.19431  0.65730  0.99149  1.0000
  S   S36       1.0  0.20506  0.63731  0.98616  1.0000
  S   S37       1.0  0.17599  0.69146  0.99586  1.0000
  S   S38       1.0  0.20402  0.67883  0.94850  1.0000
  Fe  Fe21      1.0  0.18898  0.52774  0.01121  1.0000
  S   S39       1.0  0.17550  0.53181  0.06946  1.0000
  Fe  Fe22      1.0  0.15771  0.52117  0.96478  1.0000
  S   S40       1.0  0.14265  0.52468  0.01956  1.0000
  S   S41       1.0  0.14473  0.52120  0.90836  1.0000
  Fe  Fe23      1.0  0.16478  0.54583  0.03061  1.0000
  S   S42       1.0  0.15753  0.56741  0.04630  1.0000
  Fe  Fe24      1.0  0.15396  0.51028  0.05434  1.0000
  H   H80       1.0  0.22410  0.61014  0.07379  1.0000
  S   S43       1.0  0.17938  0.54342  0.97405  1.0000
  S   S44       1.0  0.16790  0.50505  0.99829  1.0000
  H   H81       1.0  0.00737  0.55106  0.65925  1.0000
  C   C102      1.0  0.08870  0.51123  0.96373  1.0000
  S   S45       1.0  0.05495  0.50541  0.77414  1.0000
  H   H82       1.0  0.03506  0.66870  0.52325  1.0000
  H   H83       1.0  0.09159  0.52521  0.58948  1.0000
  H   H84       1.0  0.02293  0.59270  0.22167  1.0000
  H   H85       1.0  0.10265  0.55407  0.91321  1.0000
  H   H86       1.0  0.00862  0.52854  0.48913  1.0000
  C   C103      1.0  0.18201  0.71017  0.09472  1.0000
  C   C104      1.0  0.01457  0.51990  0.72674  1.0000
  S   S46       1.0  0.03239  0.50407  0.32010  1.0000
  C   C105      1.0  0.04925  0.61957  0.60133  1.0000
  C   C106      1.0  0.03153  0.54563  0.46254  1.0000
  C   C107      1.0  0.99607  0.56095  0.56317  1.0000
  C   C108      1.0  0.21095  0.58688  0.10411  1.0000
  H   H87       1.0  0.03053  0.57319  0.68470  1.0000
  C   C109      1.0  0.20211  0.72103  0.91463  1.0000
  H   H88       1.0  0.14872  0.60392  0.36339  1.0000
  C   C110      1.0  0.20567  0.62535  0.17303  1.0000
  H   H89       1.0  0.23666  0.61755  0.16124  1.0000
  C   C111      1.0  0.11762  0.53888  0.73586  1.0000
  H   H90       1.0  0.04424  0.69743  0.10332  1.0000
  C   C112      1.0  0.01851  0.62233  0.51525  1.0000
  H   H91       1.0  0.20005  0.62070  0.72135  1.0000
  C   C113      1.0  0.12501  0.50163  0.41112  1.0000
  C   C114      1.0  0.03042  0.65577  0.52066  1.0000
  C   C115      1.0  0.22846  0.59920  0.91044  1.0000
  H   H92       1.0  0.22852  0.53480  0.07387  1.0000
  C   C116      1.0  0.11191  0.54782  0.58542  1.0000
  H   H93       1.0  0.23870  0.58580  0.94761  1.0000
  C   C117      1.0  0.01470  0.56679  0.29458  1.0000
  H   H94       1.0  0.03766  0.52764  0.68728  1.0000
  H   H95       1.0  0.18828  0.70924  0.86668  1.0000
  H   H96       1.0  0.20886  0.62202  0.20139  1.0000
  C   C118      1.0  0.18815  0.73420  0.96140  1.0000
  C   C119      1.0  0.16147  0.72068  0.05031  1.0000
  C   C120      1.0  0.23584  0.63221  0.86137  1.0000
  C   C121      1.0  0.19136  0.61772  0.00012  1.0000
  C   C122      1.0  0.17527  0.61507  0.01821  1.0000
  C   C123      1.0  0.16498  0.59953  0.03178  1.0000
  C   C124      1.0  0.17062  0.58651  0.02711  1.0000
  C   C125      1.0  0.18654  0.58902  0.00808  1.0000
  C   C126      1.0  0.19691  0.60463  0.99473  1.0000
  H   H97       1.0  0.17092  0.62506  0.02291  1.0000
  H   H98       1.0  0.15266  0.59760  0.04634  1.0000
  H   H99       1.0  0.19100  0.57903  0.00444  1.0000
  H   H100      1.0  0.20935  0.60662  0.98083  1.0000
  C   C127      1.0  0.08270  0.55285  0.70476  1.0000
  C   C128      1.0  0.07609  0.55288  0.74443  1.0000
  C   C129      1.0  0.06718  0.53826  0.76558  1.0000
  C   C130      1.0  0.06515  0.52368  0.74726  1.0000
  C   C131      1.0  0.07169  0.52371  0.70755  1.0000
  C   C132      1.0  0.08043  0.53826  0.68636  1.0000
  H   H101      1.0  0.07801  0.56411  0.75894  1.0000
  H   H102      1.0  0.06204  0.53820  0.79619  1.0000
  H   H103      1.0  0.06997  0.51251  0.69297  1.0000
  H   H104      1.0  0.08536  0.53818  0.65564  1.0000
  C   C133      1.0  0.12106  0.64116  0.83084  1.0000
  C   C134      1.0  0.12322  0.63965  0.87157  1.0000
  C   C135      1.0  0.13737  0.65000  0.88800  1.0000
  C   C136      1.0  0.14956  0.66211  0.86393  1.0000
  C   C137      1.0  0.14738  0.66366  0.82325  1.0000
  C   C138      1.0  0.13325  0.65328  0.80678  1.0000
  H   H105      1.0  0.11379  0.63052  0.89066  1.0000
  H   H106      1.0  0.13870  0.64879  0.91944  1.0000
  H   H107      1.0  0.15663  0.67305  0.80437  1.0000
  H   H108      1.0  0.13170  0.65476  0.77558  1.0000
  C   C139      1.0  0.13326  0.64718  0.21389  1.0000
  C   C140      1.0  0.14930  0.65691  0.19759  1.0000
  C   C141      1.0  0.15321  0.65989  0.15584  1.0000
  C   C142      1.0  0.14092  0.65352  0.13003  1.0000
  C   C143      1.0  0.12504  0.64340  0.14628  1.0000
  C   C144      1.0  0.12129  0.64006  0.18785  1.0000
  H   H109      1.0  0.15868  0.66242  0.21744  1.0000
  H   H110      1.0  0.16551  0.66761  0.14382  1.0000
  H   H111      1.0  0.11548  0.63831  0.12668  1.0000
  H   H112      1.0  0.10894  0.63248  0.19985  1.0000
  C   C145      1.0  0.09258  0.61138  0.48610  1.0000
  C   C146      1.0  0.09501  0.60471  0.52202  1.0000
  C   C147      1.0  0.09517  0.61274  0.55798  1.0000
  C   C148      1.0  0.09347  0.62788  0.55824  1.0000
  C   C149      1.0  0.09131  0.63475  0.52216  1.0000
  C   C150      1.0  0.09071  0.62647  0.48624  1.0000
  H   H113      1.0  0.09699  0.59332  0.52208  1.0000
  H   H114      1.0  0.09700  0.60737  0.58540  1.0000
  H   H115      1.0  0.09006  0.64650  0.52208  1.0000
  H   H116      1.0  0.08888  0.63178  0.45876  1.0000
  C   C151      1.0  0.07394  0.55107  0.28024  1.0000
  C   C152      1.0  0.07665  0.53645  0.27691  1.0000
  C   C153      1.0  0.06377  0.52205  0.28871  1.0000
  C   C154      1.0  0.04806  0.52217  0.30336  1.0000
  C   C155      1.0  0.04511  0.53677  0.30531  1.0000
  C   C156      1.0  0.05810  0.55125  0.29375  1.0000
  H   H117      1.0  0.08887  0.53627  0.26634  1.0000
  H   H118      1.0  0.06610  0.51085  0.28637  1.0000
  H   H119      1.0  0.03291  0.53688  0.31626  1.0000
  H   H120      1.0  0.05592  0.56254  0.29549  1.0000
  C   C157      1.0  0.23651  0.53421  0.01145  1.0000
  H   H121      1.0  0.00385  0.54422  0.79431  1.0000
  H   H122      1.0  0.03793  0.54566  0.48873  1.0000
  C   C158      1.0  0.11728  0.50845  0.38503  1.0000
  H   H123      1.0  0.99566  0.61629  0.59423  1.0000
  C   C159      1.0  0.12863  0.50828  0.44821  1.0000
  C   C160      1.0  0.12450  0.52174  0.45932  1.0000
  C   C161      1.0  0.11647  0.52850  0.43353  1.0000
  C   C162      1.0  0.11304  0.52184  0.39611  1.0000
  P   P4        1.0  0.10986  0.54512  0.44843  1.0000
  C   C163      1.0  0.10990  0.54675  0.50228  1.0000
  C   C164      1.0  0.12304  0.56382  0.42279  1.0000
  C   C165      1.0  0.13499  0.56403  0.39105  1.0000
  C   C166      1.0  0.14431  0.57847  0.36988  1.0000
  C   C167      1.0  0.14176  0.59278  0.38022  1.0000
  C   C168      1.0  0.12999  0.59268  0.41194  1.0000
  C   C169      1.0  0.12068  0.57829  0.43316  1.0000
  C   C170      1.0  0.12201  0.55958  0.51853  1.0000
  C   C171      1.0  0.12281  0.56022  0.55990  1.0000
  H   H124      1.0  0.04044  0.50123  0.68184  1.0000
  P   P5        1.0  0.00681  0.49950  0.70976  1.0000
  C   C172      1.0  0.09884  0.53445  0.52839  1.0000
  C   C173      1.0  0.08905  0.53989  0.43347  1.0000
  C   C174      1.0  0.08489  0.55039  0.40837  1.0000
  C   C175      1.0  0.06969  0.54527  0.39206  1.0000
  C   C176      1.0  0.05832  0.52979  0.40121  1.0000
  C   C177      1.0  0.06230  0.51930  0.42618  1.0000
  C   C178      1.0  0.07763  0.52423  0.44185  1.0000
  H   H125      1.0  0.00507  0.61020  0.12254  1.0000
  H   H126      1.0  0.21154  0.55127  0.06704  1.0000
  C   C179      1.0  0.00727  0.63074  0.51681  1.0000
  H   H127      1.0  0.12735  0.52664  0.48825  1.0000
  H   H128      1.0  0.10690  0.52686  0.37558  1.0000
  H   H129      1.0  0.13699  0.55308  0.38212  1.0000
  H   H130      1.0  0.12775  0.60370  0.41961  1.0000
  H   H131      1.0  0.11128  0.57841  0.45696  1.0000
  H   H132      1.0  0.13109  0.56905  0.49953  1.0000
  H   H133      1.0  0.13198  0.57029  0.57226  1.0000
  H   H134      1.0  0.07913  0.51706  0.03926  1.0000
  C   C180      1.0  0.01267  0.54382  0.56681  1.0000
  H   H135      1.0  0.08957  0.52425  0.51724  1.0000
  H   H136      1.0  0.09344  0.56235  0.39975  1.0000
  H   H137      1.0  0.06689  0.55330  0.37172  1.0000
  H   H138      1.0  0.04660  0.52587  0.38819  1.0000
  H   H139      1.0  0.05389  0.50706  0.43187  1.0000
  H   H140      1.0  0.08086  0.51550  0.45868  1.0000
  C   C181      1.0  0.16089  0.57474  0.22338  1.0000
  C   C182      1.0  0.15019  0.56451  0.19849  1.0000
  C   C183      1.0  0.15578  0.56343  0.15856  1.0000
  H   H141      1.0  0.00644  0.61400  0.44605  1.0000
  C   C184      1.0  0.18308  0.58238  0.16864  1.0000
  C   C185      1.0  0.17727  0.58371  0.20851  1.0000
  P   P6        1.0  0.20385  0.59477  0.14895  1.0000
  C   C186      1.0  0.17874  0.72894  0.04578  1.0000
  C   C187      1.0  0.05105  0.67705  0.08520  1.0000
  H   H142      1.0  0.00867  0.58263  0.61570  1.0000
  C   C188      1.0  0.04154  0.64734  0.51805  1.0000
  C   C189      1.0  0.08181  0.53328  0.93570  1.0000
  C   C190      1.0  0.99776  0.58210  0.72868  1.0000
  H   H143      1.0  0.10933  0.66364  0.23475  1.0000
  C   C191      1.0  0.21858  0.59465  0.18358  1.0000
  C   C192      1.0  0.20300  0.61466  0.14160  1.0000
  H   H144      1.0  0.12120  0.55796  0.69212  1.0000
  C   C193      1.0  0.15454  0.70745  0.07738  1.0000
  C   C194      1.0  0.19933  0.64477  0.13236  1.0000
  C   C195      1.0  0.19639  0.63410  0.10127  1.0000
  C   C196      1.0  0.19801  0.61901  0.10599  1.0000
  H   H145      1.0  0.15637  0.57585  0.25404  1.0000
  H   H146      1.0  0.13750  0.55760  0.21003  1.0000
  H   H147      1.0  0.07262  0.53827  0.92749  1.0000
  H   H148      1.0  0.05257  0.51295  0.21385  1.0000
  H   H149      1.0  0.18534  0.59179  0.22794  1.0000
  H   H150      1.0  0.05477  0.65371  0.51851  1.0000
  C   C197      1.0  0.21137  0.60255  0.72525  1.0000
  H   H151      1.0  0.02449  0.54195  0.56487  1.0000
  C   C198      1.0  0.03559  0.63066  0.51502  1.0000
  H   H152      1.0  0.00708  0.60723  0.30614  1.0000
  C   C199      1.0  0.18528  0.61237  0.89816  1.0000
  H   H153      1.0  0.20993  0.59919  0.69450  1.0000
  C   C200      1.0  0.99573  0.58167  0.29920  1.0000
  C   C201      1.0  0.04017  0.50793  0.20447  1.0000
  H   H154      1.0  0.19794  0.65640  0.12861  1.0000
  C   C202      1.0  0.12858  0.61560  0.03979  1.0000
  C   C203      1.0  0.11733  0.54056  0.09936  1.0000
  C   C204      1.0  0.11268  0.53100  0.13470  1.0000
  C   C205      1.0  0.10805  0.53723  0.17011  1.0000
  C   C206      1.0  0.10780  0.55295  0.16993  1.0000
  C   C207      1.0  0.11183  0.56243  0.13414  1.0000
  C   C208      1.0  0.11718  0.55629  0.09913  1.0000
  P   P7        1.0  0.11108  0.58259  0.13452  1.0000
  C   C209      1.0  0.12706  0.59396  0.16459  1.0000
  C   C210      1.0  0.11483  0.59226  0.08510  1.0000
  C   C211      1.0  0.10630  0.58410  0.05362  1.0000
  C   C212      1.0  0.10931  0.59146  0.01526  1.0000
  C   C213      1.0  0.12558  0.60829  0.07811  1.0000
  C   C214      1.0  0.12300  0.59945  0.20189  1.0000
  C   C215      1.0  0.13556  0.60914  0.22349  1.0000
  C   C216      1.0  0.15222  0.61344  0.20808  1.0000
  C   C217      1.0  0.15635  0.60762  0.17156  1.0000
  C   C218      1.0  0.14386  0.59771  0.15013  1.0000
  C   C219      1.0  0.09094  0.58281  0.15480  1.0000
  C   C220      1.0  0.07775  0.56858  0.16753  1.0000
  C   C221      1.0  0.06269  0.56929  0.18564  1.0000
  C   C222      1.0  0.06057  0.58413  0.19039  1.0000
  C   C223      1.0  0.07342  0.59827  0.17642  1.0000
  C   C224      1.0  0.08851  0.59763  0.15862  1.0000
  H   H155      1.0  0.12145  0.53592  0.07224  1.0000
  H   H156      1.0  0.11291  0.51884  0.13464  1.0000
  H   H157      1.0  0.10484  0.52994  0.19779  1.0000
  H   H158      1.0  0.10442  0.55773  0.19773  1.0000
  H   H159      1.0  0.12166  0.56364  0.07178  1.0000
  H   H160      1.0  0.09745  0.57198  0.05872  1.0000
  H   H161      1.0  0.10292  0.58501  0.99094  1.0000
  H   H162      1.0  0.13172  0.61531  0.10203  1.0000
  H   H163      1.0  0.11020  0.59644  0.21436  1.0000
  H   H164      1.0  0.13233  0.61365  0.25181  1.0000
  H   H165      1.0  0.16187  0.62136  0.22435  1.0000
  H   H166      1.0  0.16920  0.61090  0.15962  1.0000
  H   H167      1.0  0.14728  0.59329  0.12182  1.0000
  H   H168      1.0  0.07904  0.55693  0.16456  1.0000
  H   H169      1.0  0.09748  0.49937  0.51802  1.0000
  H   H170      1.0  0.04911  0.58467  0.20566  1.0000
  H   H171      1.0  0.07203  0.60983  0.18100  1.0000
  H   H172      1.0  0.09852  0.60874  0.14911  1.0000
  C   C225      1.0  0.09874  0.54220  0.92755  1.0000
  C   C226      1.0  0.11695  0.53485  0.77638  1.0000
  C   C227      1.0  0.18831  0.71634  0.89283  1.0000
  H   H173      1.0  0.13244  0.51567  0.22611  1.0000
  C   C228      1.0  0.12392  0.56686  0.75142  1.0000
  C   C229      1.0  0.12348  0.56297  0.79224  1.0000
  C   C230      1.0  0.11976  0.54679  0.80456  1.0000
  P   P8        1.0  0.12569  0.57819  0.82905  1.0000
  C   C231      1.0  0.13622  0.57444  0.87021  1.0000
  C   C232      1.0  0.13773  0.59784  0.80648  1.0000
  C   C233      1.0  0.13029  0.60578  0.78212  1.0000
  C   C234      1.0  0.13925  0.62125  0.76598  1.0000
  C   C235      1.0  0.15556  0.62907  0.77462  1.0000
  C   C236      1.0  0.16307  0.62127  0.79875  1.0000
  C   C237      1.0  0.15428  0.60566  0.81440  1.0000
  C   C238      1.0  0.13357  0.58013  0.90831  1.0000
  C   C239      1.0  0.14197  0.57742  0.93986  1.0000
  C   C240      1.0  0.15326  0.56927  0.93343  1.0000
  C   C241      1.0  0.15617  0.56383  0.89554  1.0000
  C   C242      1.0  0.14781  0.56650  0.86395  1.0000
  C   C243      1.0  0.10525  0.57840  0.84694  1.0000
  C   C244      1.0  0.10348  0.59245  0.86257  1.0000
  C   C245      1.0  0.08767  0.59307  0.87419  1.0000
  C   C246      1.0  0.07351  0.57965  0.87061  1.0000
  C   C247      1.0  0.07514  0.56552  0.85574  1.0000
  C   C248      1.0  0.09093  0.56489  0.84377  1.0000
  H   H174      1.0  0.17603  0.57182  0.11230  1.0000
  H   H175      1.0  0.01263  0.60545  0.65969  1.0000
  H   H176      1.0  0.05059  0.67923  0.05361  1.0000
  H   H177      1.0  0.12602  0.57902  0.74085  1.0000
  H   H178      1.0  0.11878  0.54333  0.83593  1.0000
  H   H179      1.0  0.11742  0.60020  0.77617  1.0000
  H   H180      1.0  0.13326  0.62744  0.74809  1.0000
  H   H181      1.0  0.16220  0.64132  0.76334  1.0000
  H   H182      1.0  0.17556  0.62749  0.80606  1.0000
  H   H183      1.0  0.16037  0.59996  0.83323  1.0000
  H   H184      1.0  0.12507  0.58667  0.91373  1.0000
  H   H185      1.0  0.13985  0.58166  0.96940  1.0000
  H   H186      1.0  0.15961  0.56699  0.95792  1.0000
  H   H187      1.0  0.16460  0.55714  0.89092  1.0000
  H   H188      1.0  0.15038  0.56225  0.83478  1.0000
  H   H189      1.0  0.11425  0.60321  0.86426  1.0000
  H   H190      1.0  0.08641  0.60425  0.88418  1.0000
  H   H191      1.0  0.06126  0.58037  0.87832  1.0000
  H   H192      1.0  0.06413  0.55524  0.85227  1.0000
  H   H193      1.0  0.09181  0.55396  0.83117  1.0000
  H   H194      1.0  0.03841  0.62900  0.65110  1.0000
  H   H195      1.0  0.06071  0.62978  0.59838  1.0000
  H   H196      1.0  0.19510  0.61068  0.08210  1.0000
  H   H197      1.0  0.03142  0.52542  0.23423  1.0000
  H   H198      1.0  0.06120  0.64951  0.30175  1.0000
  H   H199      1.0  0.08198  0.60984  0.06378  1.0000
  H   H200      1.0  0.19277  0.63751  0.07351  1.0000
  H   H201      1.0  0.06212  0.61453  0.11586  1.0000
  S   S47       1.0  0.21671  0.53107  0.99313  1.0000
  H   H202      1.0  0.04050  0.58060  0.29947  1.0000
  H   H203      1.0  0.15332  0.57855  0.34505  1.0000
  C   C249      1.0  0.03661  0.61923  0.63079  1.0000
  C   C250      1.0  0.12058  0.60716  0.00827  1.0000
  C   C251      1.0  0.05987  0.56943  0.52759  1.0000
  H   H204      1.0  0.21277  0.71750  0.90558  1.0000
  H   H205      1.0  0.13707  0.62791  0.03472  1.0000
  C   C252      1.0  0.16480  0.70223  0.09966  1.0000
  C   C253      1.0  0.01336  0.64754  0.51989  1.0000
  H   H206      1.0  0.01411  0.60935  0.51358  1.0000
  H   H207      1.0  0.04790  0.55484  0.71232  1.0000
  C   C254      1.0  0.02483  0.60169  0.19796  1.0000
  H   H208      1.0  0.11534  0.51576  0.86859  1.0000
  C   C255      1.0  0.04613  0.59498  0.47804  1.0000
  H   H209      1.0  0.03138  0.56318  0.76636  1.0000
  C   C256      1.0  0.02676  0.55105  0.75572  1.0000
  H   H210      1.0  0.05233  0.56408  0.42998  1.0000
  C   C257      1.0  0.07666  0.49503  0.12422  1.0000
  C   C258      1.0  0.03339  0.49920  0.65608  1.0000
  C   C259      1.0  0.04740  0.60653  0.57681  1.0000
  C   C260      1.0  0.01504  0.54533  0.39469  1.0000
  H   H211      1.0  0.05788  0.60675  0.55611  1.0000
  C   C261      1.0  0.02198  0.60594  0.63532  1.0000
  C   C262      1.0  0.01497  0.53562  0.46232  1.0000
  H   H212      1.0  0.09090  0.66534  0.10727  1.0000
  H   H213      1.0  0.05932  0.57253  0.49676  1.0000
  H   H214      1.0  0.04892  0.61603  0.21320  1.0000
  C   C263      1.0  0.03967  0.55585  0.42937  1.0000
  C   C264      1.0  0.09731  0.63482  0.05573  1.0000
  H   H215      1.0  0.11052  0.66032  0.05500  1.0000
  C   C265      1.0  0.04198  0.62680  0.16246  1.0000
  H   H216      1.0  0.22330  0.58552  0.73793  1.0000
  S   S48       1.0  0.22429  0.71595  0.02152  1.0000
  C   C266      1.0  0.03004  0.53088  0.71065  1.0000
  C   C267      1.0  0.09976  0.65041  0.06802  1.0000
  C   C268      1.0  0.03604  0.54637  0.72504  1.0000
  C   C269      1.0  0.03957  0.61500  0.19293  1.0000
  H   H217      1.0  0.12298  0.61291  0.97860  1.0000
  C   C270      1.0  0.07260  0.62466  0.10297  1.0000
  C   C271      1.0  0.01239  0.60000  0.17278  1.0000
  H   H218      1.0  0.15942  0.69175  0.11988  1.0000
  H   H219      1.0  0.04775  0.64251  0.23975  1.0000
  H   H220      1.0  0.00727  0.57951  0.41962  1.0000
  C   C272      1.0  0.20781  0.57027  0.10216  1.0000
  C   C273      1.0  0.01474  0.61155  0.14212  1.0000
  C   C274      1.0  0.22710  0.59098  0.03900  1.0000
  C   C275      1.0  0.07506  0.64030  0.11578  1.0000
  C   C276      1.0  0.19958  0.62277  0.87554  1.0000
  H   H221      1.0  0.03103  0.63358  0.11275  1.0000
  C   C277      1.0  0.23753  0.64190  0.89468  1.0000
  C   C278      1.0  0.03246  0.59328  0.58009  1.0000
  C   C279      1.0  0.02949  0.62485  0.13682  1.0000
  C   C280      1.0  0.08869  0.65317  0.09784  1.0000
  H   H222      1.0  0.01142  0.50065  0.79575  1.0000
  C   C281      1.0  0.13424  0.50553  0.87742  1.0000
  H   H223      1.0  0.05284  0.55834  0.19705  1.0000
  C   C282      1.0  0.01776  0.57223  0.69282  1.0000
  C   C283      1.0  0.02806  0.58093  0.29984  1.0000
  C   C284      1.0  0.00919  0.59589  0.30367  1.0000
  H   H224      1.0  0.04429  0.62424  0.51258  1.0000
  H   H225      1.0  0.21249  0.73288  0.96627  1.0000
  C   C285      1.0  0.04799  0.68443  0.15391  1.0000
  H   H226      1.0  0.16240  0.63706  0.90752  1.0000
  C   C286      1.0  0.08376  0.62194  0.07320  1.0000
  H   H227      1.0  0.99499  0.57263  0.55820  1.0000
  H   H228      1.0  0.99503  0.59067  0.74843  1.0000
  C   C287      1.0  0.09587  0.65903  0.23557  1.0000
  H   H229      1.0  0.14485  0.51464  0.15664  1.0000
  H   H230      1.0  0.20061  0.56206  0.12660  1.0000
  C   C288      1.0  0.05213  0.67136  0.16672  1.0000
  C   C289      1.0  0.03147  0.55553  0.39529  1.0000
  H   H231      1.0  0.05238  0.66937  0.19841  1.0000
  H   H232      1.0  0.10606  0.63279  0.03289  1.0000
  P   P9        1.0  0.06108  0.64402  0.15512  1.0000
  C   C290      1.0  0.06122  0.64706  0.23798  1.0000
  H   H233      1.0  0.16120  0.60978  0.92838  1.0000
  C   C291      1.0  0.22092  0.59724  0.07256  1.0000
  H   H234      1.0  0.11263  0.54831  0.61747  1.0000
  H   H235      1.0  0.13453  0.50292  0.46853  1.0000
  H   H236      1.0  0.21742  0.55940  0.93697  1.0000
  C   C292      1.0  0.17276  0.63308  0.89885  1.0000
  H   H237      1.0  0.03771  0.56338  0.36946  1.0000
  H   H238      1.0  0.18776  0.65575  0.86948  1.0000
  C   C293      1.0  0.05585  0.66104  0.13879  1.0000
  C   C294      1.0  0.07284  0.56430  0.53689  1.0000
  C   C295      1.0  0.12116  0.55487  0.72341  1.0000
  C   C296      1.0  0.01179  0.55926  0.56102  1.0000
  H   H239      1.0  0.08209  0.56363  0.51338  1.0000
  C   C297      1.0  0.01438  0.58329  0.71854  1.0000
  C   C298      1.0  0.06880  0.65120  0.27330  1.0000
  H   H240      1.0  0.01695  0.55558  0.29043  1.0000
  H   H241      1.0  0.08480  0.55771  0.58440  1.0000
  C   C299      1.0  0.20043  0.63851  0.86568  1.0000
  C   C300      1.0  0.18706  0.64360  0.87720  1.0000
  C   C301      1.0  0.01984  0.59300  0.61014  1.0000
  H   H242      1.0  0.06363  0.51107  0.95986  1.0000
  H   H243      1.0  0.00515  0.51435  0.36489  1.0000
  C   C302      1.0  0.17199  0.61760  0.90997  1.0000
  C   C303      1.0  0.07094  0.64869  0.20105  1.0000
  H   H244      1.0  0.21141  0.64689  0.84889  1.0000
  C   C304      1.0  0.04807  0.57066  0.55808  1.0000
  C   C305      1.0  0.00667  0.53524  0.42816  1.0000
  C   C306      1.0  0.07436  0.56085  0.57670  1.0000
  C   C307      1.0  0.03152  0.58345  0.49663  1.0000
  H   H245      1.0  0.22976  0.49888  0.06275  1.0000
  H   H246      1.0  0.05812  0.60967  0.42494  1.0000
  C   C308      1.0  0.21405  0.56409  0.06862  1.0000
  H   H247      1.0  0.00090  0.58975  0.17719  1.0000
  C   C309      1.0  0.21470  0.61099  0.80527  1.0000
  P   P10       1.0  0.21646  0.61605  0.85714  1.0000
  C   C310      1.0  0.08612  0.65720  0.27208  1.0000
  H   H248      1.0  0.19444  0.58246  0.85993  1.0000
  C   C311      1.0  0.04668  0.60092  0.43910  1.0000
  C   C312      1.0  0.08837  0.65472  0.20024  1.0000
  C   C313      1.0  0.22735  0.58099  0.23542  1.0000
  H   H249      1.0  0.11508  0.51558  0.96316  1.0000
  H   H250      1.0  0.05727  0.59929  0.49315  1.0000
  H   H251      1.0  0.18439  0.60038  0.90749  1.0000
  C   C314      1.0  0.04953  0.56680  0.59781  1.0000
  H   H252      1.0  0.03312  0.60005  0.38809  1.0000
  C   C315      1.0  0.03264  0.59547  0.41828  1.0000
  H   H253      1.0  0.09636  0.65614  0.17268  1.0000
  C   C316      1.0  0.23381  0.60743  0.18236  1.0000
  H   H254      1.0  0.19541  0.55783  0.89293  1.0000
  H   H255      1.0  0.00877  0.54562  0.36833  1.0000
  C   C317      1.0  0.22063  0.59909  0.78951  1.0000
  H   H256      1.0  0.99893  0.50287  0.29950  1.0000
  H   H257      1.0  0.23789  0.61056  0.91561  1.0000
  C   C318      1.0  0.05519  0.66396  0.09789  1.0000
  C   C319      1.0  0.20457  0.56941  0.89795  1.0000
  H   H258      1.0  0.05413  0.49862  0.61546  1.0000
  C   C320      1.0  0.20405  0.58339  0.87942  1.0000
  C   C321      1.0  0.00463  0.55977  0.67842  1.0000
  H   H259      1.0  0.15342  0.72417  0.03214  1.0000
  C   C322      1.0  0.21606  0.59840  0.88528  1.0000
  C   C323      1.0  0.06261  0.56193  0.60705  1.0000
  C   C324      1.0  0.04115  0.49771  0.61854  1.0000
  P   P11       1.0  0.03060  0.57649  0.54807  1.0000
  C   C325      1.0  0.02537  0.59554  0.30440  1.0000
  C   C326      1.0  0.99815  0.53046  0.57547  1.0000
  H   H260      1.0  0.00611  0.56876  0.48752  1.0000
  H   H261      1.0  0.06387  0.55936  0.63792  1.0000
  C   C327      1.0  0.04747  0.68730  0.11318  1.0000
  H   H262      1.0  0.14746  0.55574  0.13890  1.0000
  H   H263      1.0  0.00506  0.65437  0.52196  1.0000
  C   C328      1.0  0.17427  0.72024  0.90566  1.0000
  H   H264      1.0  0.02572  0.49860  0.41208  1.0000
  H   H265      1.0  0.05778  0.65609  0.07571  1.0000
  H   H266      1.0  0.22731  0.63975  0.91792  1.0000
  C   C329      1.0  0.21553  0.58129  0.20981  1.0000
  C   C330      1.0  0.10563  0.52036  0.95587  1.0000
  C   C331      1.0  0.01806  0.58394  0.43618  1.0000
  H   H267      1.0  0.14127  0.70086  0.08025  1.0000
  C   C332      1.0  0.01661  0.49796  0.66063  1.0000
  H   H268      1.0  0.11401  0.52240  0.78588  1.0000
  C   C333      1.0  0.99848  0.56708  0.29437  1.0000
  H   H269      1.0  0.07694  0.51905  0.11248  1.0000
  C   C334      1.0  0.01749  0.57789  0.47506  1.0000
  H   H270      1.0  0.04059  0.56768  0.62175  1.0000
  H   H271      1.0  0.99892  0.51870  0.58074  1.0000
  C   C335      1.0  0.03482  0.49790  0.03462  1.0000
  H   H272      1.0  0.04516  0.69235  0.17564  1.0000
  H   H273      1.0  0.09203  0.66031  0.29943  1.0000
  H   H274      1.0  0.12376  0.54243  0.93091  1.0000
  C   C336      1.0  0.11061  0.53574  0.93767  1.0000
  C   C337      1.0  0.12628  0.50590  0.20766  1.0000
  C   C338      1.0  0.11259  0.49526  0.83202  1.0000
  C   C339      1.0  0.20390  0.64037  0.16830  1.0000
  H   H275      1.0  0.20597  0.64860  0.19254  1.0000
  C   C340      1.0  0.17209  0.57249  0.14356  1.0000
  C   C341      1.0  0.21888  0.59484  0.74973  1.0000
  H   H276      1.0  0.11509  0.52956  0.71419  1.0000
  C   C342      1.0  0.09997  0.53491  0.56965  1.0000
  C   C343      1.0  0.07827  0.50671  0.05781  1.0000
  C   C344      1.0  0.12022  0.50636  0.86032  1.0000
  C   C345      1.0  0.24235  0.59390  0.23463  1.0000
  C   C346      1.0  0.01125  0.54036  0.77143  1.0000
  C   C347      1.0  0.13337  0.50534  0.16825  1.0000
  H   H277      1.0  0.11448  0.50333  0.35617  1.0000
  C   C348      1.0  0.17413  0.72909  0.93995  1.0000
  C   C349      1.0  0.24191  0.73391  0.00625  1.0000
  H   H278      1.0  0.20335  0.62847  0.79092  1.0000
  C   C350      1.0  0.22364  0.57440  0.03703  1.0000
  C   C351      1.0  0.22894  0.58518  0.92887  1.0000
  H   H279      1.0  0.20237  0.72898  0.06323  1.0000
  H   H280      1.0  0.03958  0.49906  0.09619  1.0000
  C   C352      1.0  0.00520  0.52484  0.75718  1.0000
  H   H281      1.0  0.20417  0.57100  0.21008  1.0000
  C   C353      1.0  0.07704  0.50792  0.09943  1.0000
  C   C354      1.0  0.21701  0.57029  0.92268  1.0000
  H   H282      1.0  0.19006  0.70579  0.11087  1.0000
  H   H283      1.0  0.04501  0.50897  0.02582  1.0000
  C   C355      1.0  0.20754  0.61893  0.78014  1.0000
  H   H284      1.0  0.16335  0.71599  0.88950  1.0000
  H   H285      1.0  0.10178  0.49601  0.81920  1.0000
  H   H286      1.0  0.22496  0.57063  0.25550  1.0000
  C   C356      1.0  0.20578  0.61464  0.74040  1.0000
  C   C357      1.0  0.99390  0.61117  0.43824  1.0000
  H   H287      1.0  0.00308  0.51401  0.21321  1.0000
  C   C358      1.0  0.07678  0.51786  0.95390  1.0000
  C   C359      1.0  0.00815  0.49499  0.18066  1.0000
  C   C360      1.0  0.02827  0.51497  0.21600  1.0000
  H   H288      1.0  0.24029  0.73229  0.94283  1.0000
  H   H289      1.0  0.16299  0.73161  0.95010  1.0000
  H   H290      1.0  0.22658  0.59303  0.80789  1.0000
  H   H291      1.0  0.22847  0.56942  0.01134  1.0000
  C   C361      1.0  0.18897  0.72341  0.06771  1.0000
  H   H292      1.0  0.23463  0.59903  0.01463  1.0000
  H   H293      1.0  0.99911  0.50139  0.46012  1.0000
  C   C362      1.0  0.00764  0.49519  0.62696  1.0000
  C   C363      1.0  0.23891  0.53570  0.05211  1.0000
  C   C364      1.0  0.20197  0.72981  0.94894  1.0000
  H   H294      1.0  0.07644  0.49618  0.15639  1.0000
  C   C365      1.0  0.01227  0.50850  0.20415  1.0000
  H   H295      1.0  0.00053  0.60501  0.37885  1.0000
  P   P12       1.0  0.18771  0.74464  0.00716  1.0000
  C   C366      1.0  0.17530  0.75734  0.00506  1.0000
  H   H296      1.0  0.14970  0.78591  0.00096  1.0000
  C   C367      1.0  0.22011  0.76546  0.98396  1.0000
  H   H297      1.0  0.18278  0.76419  0.94228  1.0000
  C   C368      1.0  0.15696  0.77007  0.03824  1.0000
  C   C369      1.0  0.16611  0.77575  0.96760  1.0000
  C   C370      1.0  0.20813  0.75812  0.01618  1.0000
  H   H298      1.0  0.20270  0.75705  0.08064  1.0000
  C   C371      1.0  0.17541  0.76556  0.96909  1.0000
  H   H299      1.0  0.21743  0.76300  0.95339  1.0000
  C   C372      1.0  0.23588  0.77594  0.99099  1.0000
  H   H300      1.0  0.16620  0.78202  0.93971  1.0000
  C   C373      1.0  0.21189  0.76212  0.05538  1.0000
  C   C374      1.0  0.16624  0.75987  0.03981  1.0000
  C   C375      1.0  0.15684  0.77796  0.00212  1.0000
  H   H301      1.0  0.14997  0.77195  0.06512  1.0000
  H   H302      1.0  0.16647  0.75408  0.06817  1.0000
  C   C376      1.0  0.23971  0.77940  0.03011  1.0000
  H   H303      1.0  0.23073  0.77527  0.09259  1.0000
  C   C377      1.0  0.22769  0.77258  0.06229  1.0000
  Fe  Fe25      1.0  0.45750  0.08511  0.37464  1.0000
  S   S49       1.0  0.46428  0.06428  0.39298  1.0000
  S   S50       1.0  0.44727  0.09750  0.42419  1.0000
  Fe  Fe26      1.0  0.46810  0.08261  0.28503  1.0000
  C   C378      1.0  0.49000  0.00345  0.60956  1.0000
  S   S51       1.0  0.47293  0.08960  0.21754  1.0000
  Fe  Fe27      1.0  0.45208  0.05204  0.34016  1.0000
  S   S52       1.0  0.43650  0.02608  0.35732  1.0000
  S   S53       1.0  0.44342  0.07236  0.32385  1.0000
  Fe  Fe28      1.0  0.44743  0.05617  0.72315  1.0000
  S   S54       1.0  0.44711  0.08146  0.72683  1.0000
  S   S55       1.0  0.42773  0.03417  0.75493  1.0000
  C   C379      1.0  0.47611  0.13988  0.84653  1.0000
  H   H304      1.0  0.45005  0.08322  0.05141  1.0000
  Fe  Fe29      1.0  0.47352  0.08877  0.74329  1.0000
  H   H305      1.0  0.48026  0.05328  0.55443  1.0000
  Fe  Fe30      1.0  0.45835  0.08428  0.66198  1.0000
  S   S56       1.0  0.44928  0.09662  0.61400  1.0000
  P   P13       1.0  0.47700  0.09092  0.98630  1.0000
  S   S57       1.0  0.45651  0.05848  0.65790  1.0000
  C   C380      1.0  0.48924  0.13829  0.14532  1.0000
  S   S58       1.0  0.47555  0.06106  0.29868  1.0000
  H   H306      1.0  0.43750  0.05012  0.87584  1.0000
  C   C381      1.0  0.47589  0.12701  0.82159  1.0000
  C   C382      1.0  0.47067  0.04196  0.56464  1.0000
  C   C383      1.0  0.47096  0.06909  0.11466  1.0000
  C   C384      1.0  0.46277  0.01421  0.58932  1.0000
  S   S59       1.0  0.49152  0.18015  0.01760  1.0000
  C   C385      1.0  0.41758  0.01662  0.72963  1.0000
  H   H307      1.0  0.47928  0.01545  0.74146  1.0000
  C   C386      1.0  0.48598  0.14353  0.87872  1.0000
  H   H308      1.0  0.40882  0.00327  0.63679  1.0000
  C   C387      1.0  0.40892  0.00289  0.66887  1.0000
  C   C388      1.0  0.41848  0.01658  0.68786  1.0000
  C   C389      1.0  0.40797  0.00249  0.75205  1.0000
  C   C390      1.0  0.48550  0.11751  0.82869  1.0000
  H   H309      1.0  0.36701  0.00314  0.49625  1.0000
  H   H310      1.0  0.42605  0.02730  0.67034  1.0000
  C   C391      1.0  0.47542  0.01774  0.77178  1.0000
  H   H311      1.0  0.44339  0.02618  0.43984  1.0000
  H   H312      1.0  0.47220  0.03710  0.41217  1.0000
  C   C392      1.0  0.43090  0.01044  0.32348  1.0000
  C   C393      1.0  0.47923  0.02530  0.45996  1.0000
  S   S60       1.0  0.48589  0.10103  0.79850  1.0000
  H   H313      1.0  0.45057  0.05117  0.56262  1.0000
  H   H314      1.0  0.47277  0.00544  0.21598  1.0000
  C   C394      1.0  0.43489  0.01310  0.28209  1.0000
  C   C395      1.0  0.40722  0.00672  0.49768  1.0000
  C   C396      1.0  0.45811  0.02808  0.81665  1.0000
  C   C397      1.0  0.48483  0.01012  0.27029  1.0000
  H   H315      1.0  0.44183  0.02511  0.26978  1.0000
  C   C398      1.0  0.44975  0.09600  0.56094  1.0000
  C   C399      1.0  0.44269  0.10584  0.54208  1.0000
  C   C400      1.0  0.44241  0.10616  0.50050  1.0000
  C   C401      1.0  0.44910  0.09661  0.47649  1.0000
  C   C402      1.0  0.45633  0.08667  0.49497  1.0000
  C   C403      1.0  0.45669  0.08640  0.53722  1.0000
  H   H316      1.0  0.43742  0.11339  0.55982  1.0000
  H   H317      1.0  0.43702  0.11400  0.48672  1.0000
  H   H318      1.0  0.46176  0.07938  0.47678  1.0000
  H   H319      1.0  0.46261  0.07911  0.55129  1.0000
  H   H320      1.0  0.44633  0.06223  0.99712  1.0000
  C   C404      1.0  0.47199  0.01362  0.39637  1.0000
  H   H321      1.0  0.40915  0.03575  0.39039  1.0000
  C   C405      1.0  0.38919  0.03277  0.43716  1.0000
  H   H322      1.0  0.46308  0.07278  0.85119  1.0000
  C   C406      1.0  0.44171  0.02649  0.58432  1.0000
  S   S61       1.0  0.47295  0.06313  0.74340  1.0000
  C   C407      1.0  0.47442  0.02642  0.42185  1.0000
  C   C408      1.0  0.47289  0.11705  0.02606  1.0000
  H   H323      1.0  0.48088  0.14748  0.19933  1.0000
  H   H324      1.0  0.39757  0.00138  0.42061  1.0000
  C   C409      1.0  0.46848  0.13081  0.02960  1.0000
  S   S62       1.0  0.48469  0.09352  0.67853  1.0000
  H   H325      1.0  0.39246  0.08805  0.58627  1.0000
  H   H326      1.0  0.42930  0.04487  0.94892  1.0000
  C   C410      1.0  0.45358  0.99882  0.67892  1.0000
  H   H327      1.0  0.45951  0.01174  0.67483  1.0000
  C   C411      1.0  0.48286  0.01414  0.80425  1.0000
  H   H328      1.0  0.48038  0.03504  0.48007  1.0000
  C   C412      1.0  0.43339  0.02421  0.46337  1.0000
  C   C413      1.0  0.44521  0.05755  0.89704  1.0000
  H   H329      1.0  0.48707  0.10484  0.58811  1.0000
  H   H330      1.0  0.48020  0.09021  0.89874  1.0000
  H   H331      1.0  0.40724  0.00240  0.78437  1.0000
  C   C414      1.0  0.47785  0.01763  0.84308  1.0000
  H   H332      1.0  0.36272  0.05900  0.46597  1.0000
  H   H333      1.0  0.48587  0.01053  0.50177  1.0000
  H   H334      1.0  0.46195  0.10727  0.93204  1.0000
  H   H335      1.0  0.46982  0.06485  0.14557  1.0000
  H   H336      1.0  0.46727  0.01447  0.36794  1.0000
  S   S63       1.0  0.48567  0.15981  0.90957  1.0000
  H   H337      1.0  0.45757  0.02757  0.75278  1.0000
  H   H338      1.0  0.45864  0.14683  0.00045  1.0000
  H   H339      1.0  0.44727  0.07247  0.12077  1.0000
  H   H340      1.0  0.37151  0.03302  0.48646  1.0000
  C   C415      1.0  0.46473  0.07746  0.95172  1.0000
  C   C416      1.0  0.47041  0.10821  0.99119  1.0000
  H   H341      1.0  0.45419  0.13142  0.93890  1.0000
  C   C417      1.0  0.49285  0.11909  0.53304  1.0000
  H   H342      1.0  0.39644  0.01788  0.54466  1.0000
  H   H343      1.0  0.33019  0.05047  0.59947  1.0000
  H   H344      1.0  0.38023  0.02239  0.63340  1.0000
  C   C418      1.0  0.48495  0.00443  0.30918  1.0000
  H   H345      1.0  0.33223  0.05206  0.47114  1.0000
  C   C419      1.0  0.45905  0.12716  0.96360  1.0000
  C   C420      1.0  0.46549  0.02460  0.84919  1.0000
  C   C421      1.0  0.40479  0.04088  0.41650  1.0000
  C   C422      1.0  0.44059  0.05464  0.93819  1.0000
  H   H346      1.0  0.37199  0.03276  0.57322  1.0000
  H   H347      1.0  0.43265  0.00223  0.22454  1.0000
  H   H348      1.0  0.47233  0.12159  0.23904  1.0000
  C   C423      1.0  0.47947  0.10866  0.19095  1.0000
  C   C424      1.0  0.48232  0.01156  0.47206  1.0000
  S   S64       1.0  0.48126  0.09712  0.33459  1.0000
  H   H349      1.0  0.31586  0.04765  0.53776  1.0000
  H   H350      1.0  0.40518  0.03914  0.66429  1.0000
  H   H351      1.0  0.47845  0.11348  0.05035  1.0000
  C   C425      1.0  0.46354  0.11344  0.95984  1.0000
  H   H352      1.0  0.48173  0.12229  0.53727  1.0000
  C   C426      1.0  0.45824  0.07343  0.10067  1.0000
  C   C427      1.0  0.46162  0.13590  0.99829  1.0000
  H   H353      1.0  0.46828  0.12446  0.79693  1.0000
  C   C428      1.0  0.45029  0.06456  0.96548  1.0000
  H   H354      1.0  0.41864  0.04444  0.53396  1.0000
  C   C429      1.0  0.47440  0.08147  0.03571  1.0000
  H   H355      1.0  0.42884  0.02578  0.58916  1.0000
  C   C430      1.0  0.45398  0.04082  0.56938  1.0000
  C   C431      1.0  0.47772  0.12237  0.20834  1.0000
  C   C432      1.0  0.46932  0.08019  0.91029  1.0000
  H   H356      1.0  0.44859  0.03355  0.82107  1.0000
  C   C433      1.0  0.47308  0.00100  0.24590  1.0000
  H   H357      1.0  0.48805  0.02990  0.57145  1.0000
  H   H358      1.0  0.44200  0.04877  0.48124  1.0000
  Fe  Fe31      1.0  0.48201  0.06738  0.67843  1.0000
  H   H359      1.0  0.46858  0.14710  0.84075  1.0000
  H   H360      1.0  0.41744  0.07357  0.47328  1.0000
  C   C434      1.0  0.45960  0.07029  0.88313  1.0000
  C   C435      1.0  0.43250  0.03696  0.48648  1.0000
  C   C436      1.0  0.40657  0.01948  0.52156  1.0000
  Fe  Fe32      1.0  0.48696  0.07509  0.35016  1.0000
  C   C437      1.0  0.46311  0.02466  0.77806  1.0000
  H   H361      1.0  0.36065  0.05742  0.59488  1.0000
  C   C438      1.0  0.42966  0.00014  0.25654  1.0000
  C   C439      1.0  0.47506  0.02867  0.57446  1.0000
  H   H362      1.0  0.47068  0.13772  0.05636  1.0000
  C   C440      1.0  0.41918  0.03455  0.51586  1.0000
  H   H363      1.0  0.34399  0.00581  0.54246  1.0000
  C   C441      1.0  0.48644  0.10999  0.15080  1.0000
  H   H364      1.0  0.42300  0.06548  0.63244  1.0000
  C   C442      1.0  0.48541  0.07089  0.08937  1.0000
  H   H365      1.0  0.41531  0.07583  0.57193  1.0000
  C   C443      1.0  0.48045  0.99893  0.44612  1.0000
  C   C444      1.0  0.40114  0.11078  0.55371  1.0000
  C   C445      1.0  0.40492  0.11874  0.51608  1.0000
  C   C446      1.0  0.40293  0.10988  0.48152  1.0000
  C   C447      1.0  0.39743  0.09307  0.48453  1.0000
  C   C448      1.0  0.39421  0.08499  0.52221  1.0000
  C   C449      1.0  0.39558  0.09397  0.55681  1.0000
  P   P14       1.0  0.38615  0.06327  0.52628  1.0000
  C   C450      1.0  0.36384  0.05792  0.53005  1.0000
  C   C451      1.0  0.39348  0.05447  0.48342  1.0000
  C   C452      1.0  0.38358  0.03948  0.47069  1.0000
  H   H366      1.0  0.42701  0.06186  0.41381  1.0000
  C   C453      1.0  0.42103  0.00906  0.46946  1.0000
  H   H367      1.0  0.46166  0.02739  0.87905  1.0000
  C   C454      1.0  0.40933  0.06228  0.46325  1.0000
  C   C455      1.0  0.35456  0.05588  0.56765  1.0000
  C   C456      1.0  0.33730  0.05205  0.57037  1.0000
  C   C457      1.0  0.32923  0.05051  0.53561  1.0000
  C   C458      1.0  0.33844  0.05296  0.49809  1.0000
  C   C459      1.0  0.35571  0.05678  0.49527  1.0000
  C   C460      1.0  0.39257  0.05543  0.56919  1.0000
  C   C461      1.0  0.40732  0.06429  0.58533  1.0000
  C   C462      1.0  0.41186  0.05836  0.61941  1.0000
  C   C463      1.0  0.40192  0.04343  0.63710  1.0000
  C   C464      1.0  0.38771  0.03413  0.61998  1.0000
  C   C465      1.0  0.38306  0.04008  0.58604  1.0000
  H   H368      1.0  0.40265  0.11765  0.58052  1.0000
  H   H369      1.0  0.40943  0.13177  0.51367  1.0000
  H   H370      1.0  0.40590  0.11604  0.45231  1.0000
  H   H371      1.0  0.39584  0.08647  0.45734  1.0000
  C   C466      1.0  0.41485  0.05560  0.42961  1.0000
  H   H372      1.0  0.43640  0.00221  0.60588  1.0000
  C   C467      1.0  0.44605  0.01320  0.59403  1.0000
  H   H373      1.0  0.38144  0.02134  0.42693  1.0000
  C   C468      1.0  0.45990  0.07954  0.06138  1.0000
  H   H374      1.0  0.48826  0.09966  0.13717  1.0000
  C   C469      1.0  0.47533  0.99987  0.40803  1.0000
  H   H375      1.0  0.48345  0.01510  0.86862  1.0000
  H   H376      1.0  0.44086  0.00061  0.73617  1.0000
  C   C470      1.0  0.48716  0.07708  0.05007  1.0000
  C   C471      1.0  0.48258  0.13705  0.18567  1.0000
  C   C472      1.0  0.36430  0.99732  0.52581  1.0000
  H   H377      1.0  0.48809  0.01970  0.65629  1.0000
  C   C473      1.0  0.49136  0.12469  0.12821  1.0000
  C   C474      1.0  0.35130  0.99887  0.55189  1.0000
  H   H378      1.0  0.42200  0.99934  0.45120  1.0000
  P   P15       1.0  0.46811  0.99686  0.60211  1.0000
  H   H379      1.0  0.48834  0.05786  0.20506  1.0000
  H   H380      1.0  0.49362  0.02173  0.25940  1.0000
  C   C475      1.0  0.27229  0.44619  0.98702  1.0000
  C   C476      1.0  0.47384  0.44655  0.07567  1.0000
  Fe  Fe33      1.0  0.46557  0.41642  0.31242  1.0000
  S   S65       1.0  0.47355  0.39472  0.31228  1.0000
  S   S66       1.0  0.43912  0.41530  0.30911  1.0000
  H   H381      1.0  0.48748  0.31712  0.91476  1.0000
  H   H382      1.0  0.48881  0.37407  0.22907  1.0000
  C   C477      1.0  0.48298  0.30847  0.93987  1.0000
  H   H383      1.0  0.43272  0.49293  0.18310  1.0000
  S   S67       1.0  0.47709  0.42623  0.36780  1.0000
  C   C478      1.0  0.34116  0.48240  0.36751  1.0000
  H   H384      1.0  0.45016  0.40432  0.56248  1.0000
  H   H385      1.0  0.27709  0.46983  0.07278  1.0000
  C   C479      1.0  0.47425  0.45642  0.74185  1.0000
  Fe  Fe34      1.0  0.46514  0.40370  0.70164  1.0000
  C   C480      1.0  0.29253  0.49457  0.94784  1.0000
  S   S68       1.0  0.43773  0.39832  0.69838  1.0000
  C   C481      1.0  0.42105  0.45354  0.11368  1.0000
  C   C482      1.0  0.43749  0.38826  0.46680  1.0000
  C   C483      1.0  0.46041  0.33918  0.83040  1.0000
  S   S69       1.0  0.47604  0.38650  0.67100  1.0000
  S   S70       1.0  0.47664  0.40320  0.75886  1.0000
  Fe  Fe35      1.0  0.40171  0.46998  0.69629  1.0000
  C   C484      1.0  0.41329  0.44985  0.57790  1.0000
  S   S71       1.0  0.39495  0.44359  0.68536  1.0000
  C   C485      1.0  0.43715  0.45309  0.11446  1.0000
  C   C486      1.0  0.46543  0.48132  0.57182  1.0000
  S   S72       1.0  0.38039  0.47928  0.69829  1.0000
  C   C487      1.0  0.38524  0.48374  0.55957  1.0000
  S   S73       1.0  0.38357  0.47667  0.32259  1.0000
  C   C488      1.0  0.45944  0.32350  0.84018  1.0000
  S   S74       1.0  0.48534  0.42584  0.67562  1.0000
  S   S75       1.0  0.37950  0.47348  0.44288  1.0000
  H   H386      1.0  0.46072  0.34291  0.79941  1.0000
  C   C489      1.0  0.41221  0.29145  0.98320  1.0000
  C   C490      1.0  0.48603  0.28669  0.97886  1.0000
  H   H387      1.0  0.48305  0.47938  0.36936  1.0000
  H   H388      1.0  0.41555  0.45250  0.08567  1.0000
  C   C491      1.0  0.38166  0.47556  0.52388  1.0000
  C   C492      1.0  0.41197  0.45525  0.14909  1.0000
  H   H389      1.0  0.37630  0.46258  0.52495  1.0000
  H   H390      1.0  0.38270  0.47705  0.58796  1.0000
  C   C493      1.0  0.40807  0.43216  0.68806  1.0000
  C   C494      1.0  0.40073  0.41549  0.68643  1.0000
  C   C495      1.0  0.41015  0.40552  0.68944  1.0000
  C   C496      1.0  0.42715  0.41205  0.69355  1.0000
  C   C497      1.0  0.43478  0.42883  0.69444  1.0000
  C   C498      1.0  0.42519  0.43892  0.69178  1.0000
  H   H391      1.0  0.38757  0.41019  0.68329  1.0000
  H   H392      1.0  0.40417  0.39262  0.68862  1.0000
  H   H393      1.0  0.44795  0.43396  0.69743  1.0000
  H   H394      1.0  0.43093  0.45183  0.69254  1.0000
  C   C499      1.0  0.43700  0.43425  0.30371  1.0000
  C   C500      1.0  0.45100  0.44809  0.29520  1.0000
  C   C501      1.0  0.44906  0.46294  0.28813  1.0000
  C   C502      1.0  0.43317  0.46416  0.29066  1.0000
  C   C503      1.0  0.41917  0.45043  0.30061  1.0000
  C   C504      1.0  0.42110  0.43546  0.30645  1.0000
  H   H395      1.0  0.46332  0.44733  0.29326  1.0000
  H   H396      1.0  0.45990  0.47351  0.28042  1.0000
  H   H397      1.0  0.40685  0.45121  0.30203  1.0000
  H   H398      1.0  0.41026  0.42473  0.31239  1.0000
  S   S76       1.0  0.37773  0.49131  0.81386  1.0000
  C   C505      1.0  0.42884  0.44892  0.56531  1.0000
  H   H399      1.0  0.46980  0.27924  0.03351  1.0000
  C   C506      1.0  0.29619  0.47883  0.02295  1.0000
  H   H400      1.0  0.49299  0.37229  0.06476  1.0000
  C   C507      1.0  0.26510  0.48520  0.01229  1.0000
  H   H401      1.0  0.46757  0.41695  0.49987  1.0000
  H   H402      1.0  0.43374  0.48720  0.42890  1.0000
  H   H403      1.0  0.48389  0.49243  0.50368  1.0000
  H   H404      1.0  0.47372  0.37804  0.50385  1.0000
  C   C508      1.0  0.41189  0.31716  0.00644  1.0000
  C   C509      1.0  0.40353  0.30086  0.00084  1.0000
  C   C510      1.0  0.40085  0.44591  0.55207  1.0000
  C   C511      1.0  0.30244  0.49089  0.91637  1.0000
  C   C512      1.0  0.26731  0.45924  0.92830  1.0000
  C   C513      1.0  0.39151  0.45105  0.81833  1.0000
  C   C514      1.0  0.42929  0.29829  0.97146  1.0000
  C   C515      1.0  0.49089  0.29730  0.94536  1.0000
  C   C516      1.0  0.43624  0.39575  0.80727  1.0000
  H   H405      1.0  0.43000  0.46105  0.39105  1.0000
  H   H406      1.0  0.38075  0.44876  0.38924  1.0000
  H   H407      1.0  0.29993  0.47059  0.59079  1.0000
  C   C517      1.0  0.41983  0.44086  0.49978  1.0000
  H   H408      1.0  0.43579  0.29087  0.95739  1.0000
  H   H409      1.0  0.45512  0.32719  0.04820  1.0000
  H   H410      1.0  0.36964  0.42286  0.35636  1.0000
  C   C518      1.0  0.39951  0.44230  0.41605  1.0000
  H   H411      1.0  0.46467  0.39338  0.21000  1.0000
  P   P16       1.0  0.49190  0.47013  0.55873  1.0000
  P   P17       1.0  0.42408  0.43399  0.45066  1.0000
  H   H412      1.0  0.44391  0.45179  0.08671  1.0000
  H   H413      1.0  0.43596  0.37738  0.84983  1.0000
  H   H414      1.0  0.43413  0.39369  0.90873  1.0000
  C   C519      1.0  0.47768  0.44032  0.52459  1.0000
  H   H415      1.0  0.44016  0.45676  0.21434  1.0000
  H   H416      1.0  0.25449  0.41863  0.91966  1.0000
  C   C520      1.0  0.32442  0.48373  0.03919  1.0000
  C   C521      1.0  0.43168  0.45819  0.93917  1.0000
  H   H417      1.0  0.48519  0.45340  0.73259  1.0000
  C   C522      1.0  0.47155  0.46909  0.72215  1.0000
  C   C523      1.0  0.27328  0.46033  0.96608  1.0000
  C   C524      1.0  0.47322  0.28720  0.00701  1.0000
  C   C525      1.0  0.46513  0.29821  0.00145  1.0000
  C   C526      1.0  0.46969  0.30868  0.96737  1.0000
  H   H418      1.0  0.48018  0.44028  0.01599  1.0000
  C   C527      1.0  0.48317  0.35304  0.97839  1.0000
  H   H419      1.0  0.41747  0.47915  0.49519  1.0000
  H   H420      1.0  0.32721  0.47998  0.10110  1.0000
  C   C528      1.0  0.48071  0.48180  0.58427  1.0000
  S   S77       1.0  0.43122  0.48238  0.27525  1.0000
  H   H421      1.0  0.46351  0.48634  0.17000  1.0000
  H   H422      1.0  0.45549  0.29868  0.02408  1.0000
  C   C529      1.0  0.48890  0.39571  0.54109  1.0000
  H   H423      1.0  0.43523  0.33673  0.99876  1.0000
  C   C530      1.0  0.47655  0.45874  0.10345  1.0000
  H   H424      1.0  0.27669  0.44667  0.01627  1.0000
  H   H425      1.0  0.30376  0.47916  0.91554  1.0000
  Fe  Fe36      1.0  0.48670  0.40576  0.36573  1.0000
  H   H426      1.0  0.48918  0.43761  0.14164  1.0000
  H   H427      1.0  0.24660  0.47200  0.97378  1.0000
  C   C531      1.0  0.45761  0.42611  0.59474  1.0000
  H   H428      1.0  0.38138  0.41702  0.76570  1.0000
  H   H429      1.0  0.40869  0.41770  0.78296  1.0000
  C   C532      1.0  0.30141  0.47401  0.09101  1.0000
  C   C533      1.0  0.47789  0.44955  0.55853  1.0000
  H   H430      1.0  0.48869  0.41100  0.16553  1.0000
  C   C534      1.0  0.38694  0.41304  0.37909  1.0000
  H   H431      1.0  0.43812  0.45120  0.58629  1.0000
  C   C535      1.0  0.44178  0.46069  0.39859  1.0000
  C   C536      1.0  0.47817  0.41484  0.17362  1.0000
  H   H432      1.0  0.44068  0.41729  0.39665  1.0000
  H   H433      1.0  0.39384  0.43760  0.49475  1.0000
  H   H434      1.0  0.41677  0.40980  0.51771  1.0000
  P   P18       1.0  0.28188  0.47971  0.98754  1.0000
  H   H435      1.0  0.49029  0.48377  0.11306  1.0000
  H   H436      1.0  0.41493  0.44134  0.90354  1.0000
  H   H437      1.0  0.45874  0.31502  0.81676  1.0000
  H   H438      1.0  0.31834  0.48745  0.98057  1.0000
  S   S78       1.0  0.41887  0.48963  0.65429  1.0000
  H   H439      1.0  0.38683  0.46065  0.82665  1.0000
  H   H440      1.0  0.44426  0.44376  0.51726  1.0000
  H   H441      1.0  0.35143  0.47565  0.59011  1.0000
  Fe  Fe37      1.0  0.41102  0.48999  0.30743  1.0000
  C   C537      1.0  0.42380  0.40644  0.49308  1.0000
  H   H442      1.0  0.42473  0.38582  0.52608  1.0000
  C   C538      1.0  0.45993  0.47093  0.90864  1.0000
  C   C539      1.0  0.46128  0.35016  0.86047  1.0000
  C   C540      1.0  0.38621  0.43954  0.39283  1.0000
  C   C541      1.0  0.49108  0.49313  0.23958  1.0000
  H   H443      1.0  0.45835  0.30651  0.88712  1.0000
  H   H444      1.0  0.46782  0.44907  0.62042  1.0000
  C   C542      1.0  0.43946  0.45192  0.87148  1.0000
  H   H445      1.0  0.46548  0.43807  0.78873  1.0000
  H   H446      1.0  0.46533  0.46416  0.84919  1.0000
  C   C543      1.0  0.47289  0.45974  0.41314  1.0000
  C   C544      1.0  0.42751  0.44966  0.90458  1.0000
  H   H447      1.0  0.48414  0.38833  0.56836  1.0000
  C   C545      1.0  0.44269  0.44902  0.42599  1.0000
  C   C546      1.0  0.46293  0.44767  0.77354  1.0000
  C   C547      1.0  0.45579  0.46243  0.87399  1.0000
  H   H448      1.0  0.38863  0.44617  0.56255  1.0000
  C   C548      1.0  0.48624  0.36339  0.04482  1.0000
  H   H449      1.0  0.37035  0.43840  0.78721  1.0000
  H   H450      1.0  0.34730  0.46513  0.40254  1.0000
  H   H451      1.0  0.34220  0.47669  0.33942  1.0000
  C   C549      1.0  0.46481  0.43497  0.17095  1.0000
  C   C550      1.0  0.34400  0.47590  0.40299  1.0000
  C   C551      1.0  0.26555  0.43122  0.97027  1.0000
  C   C552      1.0  0.46460  0.40486  0.19867  1.0000
  C   C553      1.0  0.45117  0.40989  0.21004  1.0000
  C   C554      1.0  0.45127  0.42491  0.19649  1.0000
  H   H452      1.0  0.43331  0.42099  0.89949  1.0000
  C   C555      1.0  0.44183  0.39707  0.43032  1.0000
  C   C556      1.0  0.44612  0.46434  0.76569  1.0000
  H   H453      1.0  0.45011  0.42042  0.62212  1.0000
  C   C557      1.0  0.43497  0.45593  0.18611  1.0000
  C   C558      1.0  0.33331  0.49375  0.52792  1.0000
  C   C559      1.0  0.48794  0.47416  0.09226  1.0000
  C   C560      1.0  0.43727  0.41061  0.42521  1.0000
  C   C561      1.0  0.31334  0.48346  0.01109  1.0000
  C   C562      1.0  0.41350  0.43949  0.81621  1.0000
  H   H454      1.0  0.47250  0.47918  0.91007  1.0000
  S   S79       1.0  0.48751  0.43110  0.27072  1.0000
  H   H455      1.0  0.44131  0.37791  0.47074  1.0000
  H   H456      1.0  0.41074  0.45327  0.60803  1.0000
  H   H457      1.0  0.40570  0.27884  0.97853  1.0000
  C   C563      1.0  0.49125  0.36502  0.00379  1.0000
  C   C564      1.0  0.46746  0.42414  0.52584  1.0000
  H   H458      1.0  0.40402  0.45368  0.43045  1.0000
  C   C565      1.0  0.43418  0.41416  0.87341  1.0000
  H   H459      1.0  0.44080  0.40228  0.23026  1.0000
  H   H460      1.0  0.44087  0.42861  0.20672  1.0000
  P   P19       1.0  0.46526  0.45444  0.15278  1.0000
  C   C566      1.0  0.45752  0.47311  0.73418  1.0000
  H   H461      1.0  0.44459  0.48953  0.58178  1.0000
  C   C567      1.0  0.45759  0.41700  0.56102  1.0000
  Fe  Fe38      1.0  0.38790  0.48747  0.38322  1.0000
  C   C568      1.0  0.31849  0.47919  0.07920  1.0000
  C   C569      1.0  0.34319  0.48358  0.43897  1.0000
  C   C570      1.0  0.38838  0.42643  0.78413  1.0000
  C   C571      1.0  0.43220  0.44464  0.52628  1.0000
  C   C572      1.0  0.38217  0.43850  0.79616  1.0000
  C   C573      1.0  0.40718  0.45166  0.82797  1.0000
  C   C574      1.0  0.40678  0.43047  0.42073  1.0000
  H   H462      1.0  0.43657  0.41604  0.77165  1.0000
  H   H463      1.0  0.46155  0.35409  0.92325  1.0000
  C   C575      1.0  0.40397  0.44121  0.51336  1.0000
  H   H464      1.0  0.41449  0.46192  0.84349  1.0000
  H   H465      1.0  0.44887  0.39346  0.40605  1.0000
  C   C576      1.0  0.42897  0.32404  0.99471  1.0000
  H   H466      1.0  0.45956  0.43981  0.45378  1.0000
  C   C577      1.0  0.47307  0.34983  0.06052  1.0000
  H   H467      1.0  0.48785  0.35411  0.94706  1.0000
  H   H468      1.0  0.40512  0.32448  0.01981  1.0000
  H   H469      1.0  0.39029  0.29554  0.00994  1.0000
  C   C578      1.0  0.46969  0.33953  0.99382  1.0000
  H   H470      1.0  0.42231  0.45655  0.96432  1.0000
  P   P20       1.0  0.45979  0.32346  0.96198  1.0000
  H   H471      1.0  0.43698  0.38862  0.78151  1.0000
  C   C579      1.0  0.46487  0.33789  0.03521  1.0000
  C   C580      1.0  0.42828  0.39280  0.49797  1.0000
  C   C581      1.0  0.46768  0.44233  0.59358  1.0000
  C   C582      1.0  0.37992  0.42493  0.37439  1.0000
  C   C583      1.0  0.43463  0.39863  0.87886  1.0000
  S   S80       1.0  0.41133  0.48215  0.75146  1.0000
  C   C584      1.0  0.43485  0.42065  0.83469  1.0000
  H   H472      1.0  0.46048  0.47419  0.54688  1.0000
  C   C585      1.0  0.40037  0.41581  0.40189  1.0000
  H   H473      1.0  0.43538  0.46769  0.77456  1.0000
  C   C586      1.0  0.45631  0.47195  0.37936  1.0000
  C   C587      1.0  0.43784  0.31457  0.97779  1.0000
  C   C588      1.0  0.48666  0.49089  0.61729  1.0000
  H   H474      1.0  0.38219  0.40174  0.36447  1.0000
  C   C589      1.0  0.46121  0.34549  0.90038  1.0000
  H   H475      1.0  0.40571  0.40646  0.40433  1.0000
  C   C590      1.0  0.45943  0.31880  0.88003  1.0000
  C   C591      1.0  0.46070  0.32988  0.91036  1.0000
  C   C592      1.0  0.44860  0.45143  0.78535  1.0000
  C   C593      1.0  0.42854  0.41562  0.45680  1.0000
  C   C594      1.0  0.43595  0.41131  0.80173  1.0000
  P   P21       1.0  0.43410  0.44065  0.82715  1.0000
  C   C595      1.0  0.47184  0.47126  0.38597  1.0000
  C   C596      1.0  0.43564  0.38942  0.84578  1.0000
  Fe  Fe39      1.0  0.48920  0.38769  0.72676  1.0000
  C   C597      1.0  0.45843  0.44882  0.43346  1.0000
  C   C598      1.0  0.47543  0.46959  0.18673  1.0000
  C   C599      1.0  0.40398  0.42691  0.79397  1.0000
  H   H476      1.0  0.32218  0.46355  0.61984  1.0000
  H   H477      1.0  0.41200  0.45777  0.21297  1.0000
  H   H478      1.0  0.46507  0.43457  0.08372  1.0000
  S   S81       1.0  0.48272  0.39065  0.42301  1.0000
  C   C600      1.0  0.32523  0.47190  0.59415  1.0000
  C   C601      1.0  0.38468  0.48410  0.48689  1.0000
  H   H479      1.0  0.48491  0.45891  0.41746  1.0000
  H   H480      1.0  0.46228  0.36237  0.85257  1.0000
  C   C602      1.0  0.48304  0.38989  0.50448  1.0000
  H   H481      1.0  0.45544  0.48080  0.35803  1.0000
  C   C603      1.0  0.44425  0.45432  0.15083  1.0000
  C   C604      1.0  0.24920  0.47975  0.99880  1.0000
  S   S82       1.0  0.49204  0.36598  0.75831  1.0000
  H   H482      1.0  0.46977  0.34825  0.09263  1.0000
  C   C605      1.0  0.49361  0.46515  0.02627  1.0000
  H   H483      1.0  0.36247  0.49158  0.89311  1.0000
  C   C606      1.0  0.48677  0.46711  0.21116  1.0000
  C   C607      1.0  0.29027  0.47372  0.06299  1.0000
  H   H484      1.0  0.48947  0.45605  0.21053  1.0000
  C   C608      1.0  0.25972  0.43024  0.93259  1.0000
  H   H485      1.0  0.39950  0.45559  0.14861  1.0000
  C   C609      1.0  0.41895  0.45643  0.18531  1.0000
  C   C610      1.0  0.47835  0.42988  0.16007  1.0000
  H   H486      1.0  0.34590  0.47853  0.46581  1.0000
  H   H487      1.0  0.48040  0.47582  0.69777  1.0000
  H   H488      1.0  0.25602  0.44350  0.88248  1.0000
  H   H489      1.0  0.29684  0.47055  0.12210  1.0000
  C   C611      1.0  0.31272  0.47590  0.57779  1.0000
  H   H490      1.0  0.48557  0.44533  0.49732  1.0000
  H   H491      1.0  0.45541  0.48300  0.71910  1.0000
  H   H492      1.0  0.48581  0.35018  0.18783  1.0000
  C   C612      1.0  0.34171  0.47869  0.57737  1.0000
  C   C613      1.0  0.47227  0.48415  0.18839  1.0000
  C   C614      1.0  0.45644  0.49008  0.59130  1.0000
  C   C615      1.0  0.48236  0.44975  0.03726  1.0000
  H   H493      1.0  0.45107  0.47554  0.96785  1.0000
  C   C616      1.0  0.42738  0.49074  0.49062  1.0000
  C   C617      1.0  0.48944  0.39911  0.46861  1.0000
  H   H494      1.0  0.26484  0.42035  0.98656  1.0000
  C   C618      1.0  0.44788  0.46887  0.94116  1.0000
  H   H495      1.0  0.26776  0.46997  0.91179  1.0000
  C   C619      1.0  0.31672  0.48678  0.54480  1.0000
  Fe  Fe40      1.0  0.39123  0.49303  0.75131  1.0000
  H   H496      1.0  0.35855  0.49454  0.53149  1.0000
  C   C620      1.0  0.26059  0.44425  0.91164  1.0000
  C   C621      1.0  0.49342  0.48849  0.48883  1.0000
  C   C622      1.0  0.34572  0.48948  0.54427  1.0000
  H   H497      1.0  0.49253  0.27836  0.98351  1.0000
  H   H498      1.0  0.33771  0.48800  0.03028  1.0000
  H   H499      1.0  0.30682  0.48968  0.53278  1.0000
  Fe  Fe41      1.0  0.34323  0.53101  0.05337  1.0000
  S   S83       1.0  0.36158  0.54810  0.00753  1.0000
  S   S84       1.0  0.35510  0.51505  0.08407  1.0000
  Fe  Fe42      1.0  0.31518  0.54359  0.03336  1.0000
  S   S85       1.0  0.33224  0.56196  0.98702  1.0000
  S   S86       1.0  0.28803  0.54085  0.05620  1.0000
  Fe  Fe43      1.0  0.34142  0.54190  0.96690  1.0000
  S   S87       1.0  0.34827  0.54096  0.90000  1.0000
  Fe  Fe44      1.0  0.35158  0.56684  0.03053  1.0000
  S   S88       1.0  0.37214  0.58918  0.04742  1.0000
  S   S89       1.0  0.32335  0.52319  0.01057  1.0000
  S   S90       1.0  0.33412  0.55013  0.07907  1.0000
  Fe  Fe45      1.0  0.44550  0.66608  0.96957  1.0000
  S   S91       1.0  0.45383  0.68412  0.01713  1.0000
  S   S92       1.0  0.41867  0.65420  0.95611  1.0000
  C   C623      1.0  0.38426  0.52488  0.98416  1.0000
  H   H500      1.0  0.48004  0.52280  0.52985  1.0000
  C   C624      1.0  0.46360  0.71374  0.17444  1.0000
  Fe  Fe46      1.0  0.46990  0.66980  0.03186  1.0000
  S   S93       1.0  0.46940  0.66294  0.09741  1.0000
  Fe  Fe47      1.0  0.47500  0.69787  0.97157  1.0000
  H   H501      1.0  0.36826  0.58365  0.95202  1.0000
  S   S94       1.0  0.45999  0.65100  0.98780  1.0000
  S   S95       1.0  0.46541  0.68084  0.92208  1.0000
  H   H502      1.0  0.44071  0.62080  0.94907  1.0000
  S   S96       1.0  0.40731  0.51475  0.71334  1.0000
  H   H503      1.0  0.41622  0.53626  0.04221  1.0000
  C   C625      1.0  0.33759  0.49664  0.36793  1.0000
  C   C626      1.0  0.44229  0.60920  0.94609  1.0000
  H   H504      1.0  0.38262  0.54438  0.56062  1.0000
  S   S97       1.0  0.46903  0.58779  0.65659  1.0000
  Fe  Fe48      1.0  0.40944  0.51996  0.34709  1.0000
  H   H505      1.0  0.31663  0.52683  0.86388  1.0000
  S   S98       1.0  0.42409  0.54492  0.36226  1.0000
  C   C627      1.0  0.42143  0.55503  0.87051  1.0000
  H   H506      1.0  0.38213  0.61622  0.13484  1.0000
  H   H507      1.0  0.41785  0.59792  0.92957  1.0000
  S   S99       1.0  0.40758  0.51237  0.28388  1.0000
  C   C628      1.0  0.44361  0.54975  0.33493  1.0000
  C   C629      1.0  0.44803  0.53787  0.31445  1.0000
  C   C630      1.0  0.46335  0.54192  0.29098  1.0000
  C   C631      1.0  0.47428  0.55783  0.28822  1.0000
  C   C632      1.0  0.47014  0.56956  0.30993  1.0000
  C   C633      1.0  0.45472  0.56557  0.33280  1.0000
  H   H508      1.0  0.43964  0.52557  0.31641  1.0000
  H   H509      1.0  0.46663  0.53276  0.27471  1.0000
  H   H510      1.0  0.47872  0.58175  0.30903  1.0000
  H   H511      1.0  0.45131  0.57479  0.34830  1.0000
  H   H512      1.0  0.49061  0.52972  0.59554  1.0000
  H   H513      1.0  0.43214  0.64846  0.09816  1.0000
  H   H514      1.0  0.40018  0.52202  0.52035  1.0000
  C   C634      1.0  0.44656  0.57953  0.93580  1.0000
  C   C635      1.0  0.45866  0.53611  0.69933  1.0000
  C   C636      1.0  0.47309  0.54822  0.70900  1.0000
  C   C637      1.0  0.47658  0.56419  0.69528  1.0000
  C   C638      1.0  0.46555  0.56796  0.67235  1.0000
  C   C639      1.0  0.45138  0.55581  0.66210  1.0000
  C   C640      1.0  0.44808  0.53988  0.67504  1.0000
  H   H515      1.0  0.47578  0.59406  0.41345  1.0000
  H   H516      1.0  0.38819  0.51566  0.04027  1.0000
  H   H517      1.0  0.44297  0.55869  0.64384  1.0000
  H   H518      1.0  0.43733  0.53052  0.66601  1.0000
  H   H519      1.0  0.24847  0.62775  0.80617  1.0000
  H   H520      1.0  0.37140  0.63030  0.08709  1.0000
  H   H521      1.0  0.25352  0.66197  0.92402  1.0000
  H   H522      1.0  0.36048  0.58411  0.88311  1.0000
  H   H523      1.0  0.39070  0.65362  0.04526  1.0000
  C   C641      1.0  0.39483  0.50906  0.52147  1.0000
  H   H524      1.0  0.38001  0.50007  0.19741  1.0000
  H   H525      1.0  0.27474  0.65000  0.81289  1.0000
  C   C642      1.0  0.36060  0.50914  0.21819  1.0000
  H   H526      1.0  0.47031  0.64563  0.62677  1.0000
  H   H527      1.0  0.25734  0.61698  0.20692  1.0000
  C   C643      1.0  0.26857  0.53894  0.03743  1.0000
  C   C644      1.0  0.25479  0.53814  0.06485  1.0000
  H   H528      1.0  0.39114  0.57242  0.24571  1.0000
  C   C645      1.0  0.44995  0.58015  0.42973  1.0000
  C   C646      1.0  0.30824  0.50972  0.46881  1.0000
  C   C647      1.0  0.26621  0.53756  0.99675  1.0000
  H   H529      1.0  0.45541  0.73167  0.98511  1.0000
  H   H530      1.0  0.42086  0.66275  0.05158  1.0000
  C   C648      1.0  0.43124  0.58105  0.92935  1.0000
  H   H531      1.0  0.27657  0.53823  0.97512  1.0000
  C   C649      1.0  0.38535  0.60548  0.01565  1.0000
  C   C650      1.0  0.40224  0.61186  0.02179  1.0000
  C   C651      1.0  0.41274  0.62635  0.00218  1.0000
  C   C652      1.0  0.40639  0.63481  0.97669  1.0000
  C   C653      1.0  0.38963  0.62811  0.96920  1.0000
  C   C654      1.0  0.37912  0.61351  0.98865  1.0000
  H   H532      1.0  0.40702  0.60590  0.04313  1.0000
  H   H533      1.0  0.42552  0.63143  0.00845  1.0000
  H   H534      1.0  0.38457  0.63459  0.94963  1.0000
  H   H535      1.0  0.36603  0.60895  0.98439  1.0000
  H   H536      1.0  0.47944  0.67674  0.23019  1.0000
  C   C655      1.0  0.26432  0.64773  0.83569  1.0000
  H   H537      1.0  0.37185  0.51610  0.98384  1.0000
  H   H538      1.0  0.43611  0.53581  0.77673  1.0000
  H   H539      1.0  0.49222  0.55560  0.80104  1.0000
  H   H540      1.0  0.45340  0.56290  0.79587  1.0000
  C   C656      1.0  0.41570  0.54826  0.98654  1.0000
  H   H541      1.0  0.34082  0.51885  0.22870  1.0000
  H   H542      1.0  0.44850  0.56818  0.93119  1.0000
  H   H543      1.0  0.39158  0.57493  0.96552  1.0000
  C   C657      1.0  0.37085  0.51978  0.81742  1.0000
  C   C658      1.0  0.36420  0.53055  0.83713  1.0000
  C   C659      1.0  0.35698  0.52736  0.87703  1.0000
  C   C660      1.0  0.35652  0.51333  0.89721  1.0000
  C   C661      1.0  0.25034  0.53523  0.98396  1.0000
  H   H544      1.0  0.37627  0.52229  0.78666  1.0000
  H   H545      1.0  0.36454  0.54135  0.82129  1.0000
  H   H546      1.0  0.33708  0.53886  0.51518  1.0000
  H   H547      1.0  0.42837  0.73772  0.91075  1.0000
  C   C662      1.0  0.24939  0.63514  0.83195  1.0000
  Fe  Fe49      1.0  0.38051  0.50003  0.30337  1.0000
  C   C663      1.0  0.30970  0.51776  0.88691  1.0000
  C   C664      1.0  0.39155  0.50090  0.48574  1.0000
  P   P22       1.0  0.46894  0.54046  0.47115  1.0000
  C   C665      1.0  0.45248  0.52110  0.47829  1.0000
  C   C666      1.0  0.47714  0.54578  0.51882  1.0000
  C   C667      1.0  0.48147  0.53458  0.54108  1.0000
  C   C668      1.0  0.47820  0.56061  0.53539  1.0000
  C   C669      1.0  0.44910  0.51038  0.44701  1.0000
  C   C670      1.0  0.46538  0.74314  0.98033  1.0000
  H   H548      1.0  0.47121  0.59136  0.95327  1.0000
  C   C671      1.0  0.29612  0.51695  0.46844  1.0000
  C   C672      1.0  0.44289  0.51659  0.51553  1.0000
  C   C673      1.0  0.46129  0.55579  0.45456  1.0000
  C   C674      1.0  0.44417  0.55317  0.45741  1.0000
  C   C675      1.0  0.43857  0.56535  0.44498  1.0000
  C   C676      1.0  0.47265  0.57064  0.43882  1.0000
  C   C677      1.0  0.24559  0.60709  0.20803  1.0000
  H   H549      1.0  0.46748  0.61783  0.96152  1.0000
  H   H550      1.0  0.28448  0.51347  0.97332  1.0000
  C   C678      1.0  0.45944  0.59261  0.94833  1.0000
  H   H551      1.0  0.47205  0.54394  0.38363  1.0000
  C   C679      1.0  0.47635  0.72420  0.19430  1.0000
  H   H552      1.0  0.47443  0.56935  0.52002  1.0000
  H   H553      1.0  0.45586  0.51370  0.41762  1.0000
  C   C680      1.0  0.48338  0.65129  0.15525  1.0000
  C   C681      1.0  0.48704  0.66196  0.26906  1.0000
  H   H554      1.0  0.45280  0.71686  0.16928  1.0000
  H   H555      1.0  0.44478  0.52480  0.53983  1.0000
  H   H556      1.0  0.43510  0.54173  0.46860  1.0000
  H   H557      1.0  0.42536  0.56311  0.44584  1.0000
  H   H558      1.0  0.48988  0.74339  0.09846  1.0000
  S   S100      1.0  0.48702  0.72566  0.96552  1.0000
  C   C682      1.0  0.37015  0.50562  0.83743  1.0000
  C   C683      1.0  0.39610  0.57314  0.75218  1.0000
  C   C684      1.0  0.40093  0.56032  0.73917  1.0000
  C   C685      1.0  0.41775  0.56205  0.73474  1.0000
  C   C686      1.0  0.42973  0.57644  0.74417  1.0000
  C   C687      1.0  0.42499  0.58922  0.75891  1.0000
  C   C688      1.0  0.40806  0.58757  0.76173  1.0000
  P   P23       1.0  0.44048  0.60814  0.77021  1.0000
  C   C689      1.0  0.43083  0.61889  0.80422  1.0000
  C   C690      1.0  0.45722  0.60469  0.79317  1.0000
  C   C691      1.0  0.46005  0.60868  0.83292  1.0000
  H   H559      1.0  0.24874  0.53412  0.95244  1.0000
  C   C692      1.0  0.41157  0.53981  0.85875  1.0000
  C   C693      1.0  0.26809  0.49573  0.04400  1.0000
  C   C694      1.0  0.48390  0.56427  0.57295  1.0000
  C   C695      1.0  0.43382  0.63539  0.79780  1.0000
  C   C696      1.0  0.42642  0.64351  0.82478  1.0000
  C   C697      1.0  0.41587  0.63522  0.85806  1.0000
  C   C698      1.0  0.41282  0.61883  0.86469  1.0000
  C   C699      1.0  0.42041  0.61073  0.83814  1.0000
  C   C700      1.0  0.44972  0.61999  0.72462  1.0000
  C   C701      1.0  0.44243  0.61607  0.68869  1.0000
  C   C702      1.0  0.44983  0.62532  0.65353  1.0000
  C   C703      1.0  0.46444  0.63859  0.65410  1.0000
  C   C704      1.0  0.47177  0.64253  0.68973  1.0000
  C   C705      1.0  0.46457  0.63319  0.72480  1.0000
  H   H560      1.0  0.38306  0.57191  0.75454  1.0000
  H   H561      1.0  0.39169  0.54912  0.73180  1.0000
  H   H562      1.0  0.42157  0.55228  0.72349  1.0000
  H   H563      1.0  0.44261  0.57744  0.73921  1.0000
  H   H564      1.0  0.40403  0.59744  0.77099  1.0000
  H   H565      1.0  0.45254  0.61423  0.85081  1.0000
  C   C706      1.0  0.36948  0.50747  0.14778  1.0000
  C   C707      1.0  0.40645  0.54865  0.95442  1.0000
  H   H566      1.0  0.39898  0.56602  0.84008  1.0000
  H   H567      1.0  0.42768  0.55729  0.98890  1.0000
  H   H568      1.0  0.44191  0.64211  0.77229  1.0000
  H   H569      1.0  0.42894  0.65628  0.82010  1.0000
  H   H570      1.0  0.41016  0.64155  0.87893  1.0000
  H   H571      1.0  0.40463  0.61250  0.89064  1.0000
  H   H572      1.0  0.41831  0.59814  0.84408  1.0000
  H   H573      1.0  0.43121  0.60576  0.68746  1.0000
  C   C708      1.0  0.44180  0.55643  0.81375  1.0000
  H   H574      1.0  0.48476  0.61893  0.45167  1.0000
  H   H575      1.0  0.31899  0.49976  0.86236  1.0000
  H   H576      1.0  0.47063  0.63629  0.75198  1.0000
  C   C709      1.0  0.48040  0.58208  0.09911  1.0000
  C   C710      1.0  0.49046  0.72030  0.20024  1.0000
  C   C711      1.0  0.48482  0.53947  0.43283  1.0000
  C   C712      1.0  0.46838  0.57416  0.17953  1.0000
  C   C713      1.0  0.45729  0.56954  0.15003  1.0000
  C   C714      1.0  0.46365  0.57283  0.10957  1.0000
  P   P24       1.0  0.43557  0.55781  0.16387  1.0000
  C   C715      1.0  0.43483  0.53725  0.16854  1.0000
  C   C716      1.0  0.42818  0.56313  0.21200  1.0000
  C   C717      1.0  0.43562  0.57847  0.22664  1.0000
  C   C718      1.0  0.43084  0.58188  0.26553  1.0000
  C   C719      1.0  0.37898  0.54054  0.53128  1.0000
  C   C720      1.0  0.41034  0.55507  0.27459  1.0000
  C   C721      1.0  0.41515  0.55161  0.23582  1.0000
  C   C722      1.0  0.44074  0.53237  0.20209  1.0000
  C   C723      1.0  0.44016  0.51651  0.20692  1.0000
  H   H577      1.0  0.47885  0.74256  0.87128  1.0000
  C   C724      1.0  0.42805  0.51018  0.14435  1.0000
  C   C725      1.0  0.42883  0.52614  0.13913  1.0000
  C   C726      1.0  0.42185  0.56060  0.12906  1.0000
  C   C727      1.0  0.40594  0.54904  0.12764  1.0000
  C   C728      1.0  0.39554  0.55099  0.09993  1.0000
  C   C729      1.0  0.40077  0.56458  0.07393  1.0000
  C   C730      1.0  0.41629  0.57642  0.07624  1.0000
  C   C731      1.0  0.42662  0.57461  0.10427  1.0000
  H   H578      1.0  0.48328  0.65264  0.69001  1.0000
  H   H579      1.0  0.48443  0.57561  0.58579  1.0000
  C   C732      1.0  0.43051  0.50142  0.52168  1.0000
  H   H580      1.0  0.46420  0.57073  0.21083  1.0000
  H   H581      1.0  0.45568  0.56838  0.08608  1.0000
  H   H582      1.0  0.44546  0.58764  0.20863  1.0000
  H   H583      1.0  0.43714  0.59347  0.27743  1.0000
  C   C733      1.0  0.46698  0.58274  0.42636  1.0000
  H   H584      1.0  0.41502  0.57249  0.32030  1.0000
  H   H585      1.0  0.40895  0.53978  0.22496  1.0000
  H   H586      1.0  0.44552  0.54076  0.22500  1.0000
  C   C734      1.0  0.48379  0.65465  0.11411  1.0000
  C   C735      1.0  0.41688  0.53294  0.82513  1.0000
  C   C736      1.0  0.26583  0.65743  0.86878  1.0000
  H   H587      1.0  0.42460  0.52969  0.11248  1.0000
  H   H588      1.0  0.40148  0.53854  0.14799  1.0000
  H   H589      1.0  0.38328  0.54208  0.09885  1.0000
  H   H590      1.0  0.39257  0.56613  0.05283  1.0000
  H   H591      1.0  0.42015  0.58713  0.05677  1.0000
  H   H592      1.0  0.43824  0.58423  0.10669  1.0000
  H   H593      1.0  0.25637  0.53915  0.09640  1.0000
  H   H594      1.0  0.43297  0.74295  0.08254  1.0000
  C   C737      1.0  0.42928  0.59607  0.93457  1.0000
  C   C738      1.0  0.37097  0.58055  0.88863  1.0000
  C   C739      1.0  0.39266  0.57015  0.86472  1.0000
  S   S101      1.0  0.39429  0.51143  0.60298  1.0000
  H   H595      1.0  0.48138  0.54529  0.72750  1.0000
  H   H596      1.0  0.41080  0.59972  0.22596  1.0000
  C   C740      1.0  0.38561  0.54142  0.45946  1.0000
  C   C741      1.0  0.40923  0.53628  0.01709  1.0000
  C   C742      1.0  0.47324  0.60610  0.84973  1.0000
  C   C743      1.0  0.37009  0.52968  0.45592  1.0000
  C   C744      1.0  0.36352  0.52872  0.52784  1.0000
  C   C745      1.0  0.39349  0.52464  0.01599  1.0000
  H   H597      1.0  0.44156  0.72041  0.05946  1.0000
  H   H598      1.0  0.47593  0.61006  0.87945  1.0000
  H   H599      1.0  0.28042  0.50085  0.05371  1.0000
  C   C746      1.0  0.39001  0.54692  0.49712  1.0000
  C   C747      1.0  0.35764  0.51387  0.13587  1.0000
  H   H600      1.0  0.44403  0.57537  0.85439  1.0000
  C   C748      1.0  0.39064  0.53687  0.95368  1.0000
  H   H601      1.0  0.35086  0.51069  0.92778  1.0000
  H   H602      1.0  0.42292  0.50149  0.12231  1.0000
  C   C749      1.0  0.29879  0.53199  0.48478  1.0000
  H   H603      1.0  0.44557  0.58945  0.41944  1.0000
  S   S102      1.0  0.41540  0.49894  0.36890  1.0000
  C   C750      1.0  0.32575  0.53260  0.50198  1.0000
  H   H604      1.0  0.40210  0.55582  0.50006  1.0000
  C   C751      1.0  0.43646  0.56341  0.84716  1.0000
  H   H605      1.0  0.28940  0.53759  0.48445  1.0000
  C   C752      1.0  0.30008  0.52159  0.91839  1.0000
  C   C753      1.0  0.46121  0.61318  0.14113  1.0000
  C   C754      1.0  0.46563  0.61474  0.09982  1.0000
  C   C755      1.0  0.45499  0.61769  0.07425  1.0000
  C   C756      1.0  0.43998  0.61920  0.08999  1.0000
  C   C757      1.0  0.43569  0.61817  0.13152  1.0000
  C   C758      1.0  0.44631  0.61492  0.15696  1.0000
  P   P25       1.0  0.41640  0.62013  0.15259  1.0000
  C   C759      1.0  0.40244  0.59998  0.16720  1.0000
  C   C760      1.0  0.42047  0.63304  0.19442  1.0000
  C   C761      1.0  0.40817  0.63108  0.22656  1.0000
  C   C762      1.0  0.41120  0.64157  0.25813  1.0000
  C   C763      1.0  0.42636  0.65429  0.25731  1.0000
  C   C764      1.0  0.43844  0.65660  0.22478  1.0000
  C   C765      1.0  0.43551  0.64604  0.19339  1.0000
  C   C766      1.0  0.39198  0.59074  0.14017  1.0000
  C   C767      1.0  0.38079  0.57535  0.15167  1.0000
  C   C768      1.0  0.38052  0.56873  0.18967  1.0000
  C   C769      1.0  0.39136  0.57760  0.21630  1.0000
  C   C770      1.0  0.40239  0.59312  0.20506  1.0000
  C   C771      1.0  0.40810  0.63068  0.11866  1.0000
  C   C772      1.0  0.41885  0.64433  0.09614  1.0000
  C   C773      1.0  0.41252  0.65265  0.07014  1.0000
  C   C774      1.0  0.39546  0.64755  0.06669  1.0000
  C   C775      1.0  0.38462  0.63437  0.09008  1.0000
  C   C776      1.0  0.39086  0.62616  0.11654  1.0000
  H   H606      1.0  0.46964  0.61117  0.16090  1.0000
  H   H607      1.0  0.47751  0.61411  0.08778  1.0000
  H   H608      1.0  0.45856  0.61924  0.04229  1.0000
  H   H609      1.0  0.43196  0.62150  0.06973  1.0000
  H   H610      1.0  0.44321  0.61405  0.18908  1.0000
  H   H611      1.0  0.39617  0.62159  0.22700  1.0000
  H   H612      1.0  0.40170  0.63995  0.28298  1.0000
  H   H613      1.0  0.42863  0.66250  0.28161  1.0000
  H   H614      1.0  0.45000  0.66669  0.22350  1.0000
  H   H615      1.0  0.44485  0.64821  0.16793  1.0000
  H   H616      1.0  0.39239  0.59541  0.11016  1.0000
  H   H617      1.0  0.37244  0.56852  0.13077  1.0000
  H   H618      1.0  0.37198  0.55669  0.19831  1.0000
  C   C777      1.0  0.35894  0.52318  0.49009  1.0000
  Fe  Fe50      1.0  0.42659  0.50282  0.70989  1.0000
  C   C778      1.0  0.48996  0.67465  0.24100  1.0000
  C   C779      1.0  0.38841  0.57507  0.93509  1.0000
  C   C780      1.0  0.33683  0.50439  0.40378  1.0000
  H   H619      1.0  0.24751  0.73937  0.06682  1.0000
  C   C781      1.0  0.24690  0.73927  0.96611  1.0000
  P   P26       1.0  0.41446  0.56389  0.91410  1.0000
  C   C782      1.0  0.41833  0.57012  0.28964  1.0000
  H   H620      1.0  0.47438  0.65385  0.17618  1.0000
  H   H621      1.0  0.46728  0.59694  0.73873  1.0000
  C   C783      1.0  0.29155  0.51008  0.94883  1.0000
  C   C784      1.0  0.25244  0.65449  0.89828  1.0000
  C   C785      1.0  0.45010  0.73025  0.07409  1.0000
  H   H622      1.0  0.36694  0.52563  0.42651  1.0000
  C   C786      1.0  0.39731  0.57015  0.90368  1.0000
  H   H623      1.0  0.40074  0.54590  0.29348  1.0000
  C   C787      1.0  0.37960  0.57546  0.85728  1.0000
  C   C788      1.0  0.39141  0.50058  0.55859  1.0000
  C   C789      1.0  0.43362  0.50534  0.17839  1.0000
  H   H624      1.0  0.47010  0.72076  0.06611  1.0000
  S   S103      1.0  0.38225  0.50938  0.36580  1.0000
  C   C790      1.0  0.48101  0.59571  0.78774  1.0000
  C   C791      1.0  0.44041  0.74474  0.89558  1.0000
  H   H625      1.0  0.45124  0.72649  0.90510  1.0000
  C   C792      1.0  0.49188  0.70588  0.18619  1.0000
  C   C793      1.0  0.45733  0.60748  0.95322  1.0000
  C   C794      1.0  0.37532  0.58026  0.92752  1.0000
  H   H626      1.0  0.48591  0.57291  0.43616  1.0000
  C   C795      1.0  0.43204  0.54118  0.80281  1.0000
  H   H627      1.0  0.35523  0.52381  0.55473  1.0000
  H   H628      1.0  0.45522  0.69126  0.14464  1.0000
  H   H629      1.0  0.40914  0.52121  0.81626  1.0000
  H   H630      1.0  0.42305  0.49808  0.55035  1.0000
  S   S104      1.0  0.49331  0.65137  0.90764  1.0000
  C   C796      1.0  0.46493  0.69935  0.16060  1.0000
  H   H631      1.0  0.39431  0.54603  0.43297  1.0000
  H   H632      1.0  0.45560  0.50613  0.63858  1.0000
  H   H633      1.0  0.44439  0.62204  0.62568  1.0000
  C   C797      1.0  0.48510  0.58334  0.16896  1.0000
  H   H634      1.0  0.31565  0.55144  0.51432  1.0000
  H   H635      1.0  0.44438  0.51280  0.23348  1.0000
  H   H636      1.0  0.39414  0.50762  0.45740  1.0000
  Fe  Fe51      1.0  0.48052  0.66656  0.94320  1.0000
  H   H637      1.0  0.33851  0.52329  0.15668  1.0000
  S   S105      1.0  0.45339  0.51639  0.71883  1.0000
  C   C798      1.0  0.46827  0.59883  0.77033  1.0000
  H   H638      1.0  0.38297  0.53719  0.93016  1.0000
  H   H639      1.0  0.48759  0.57364  0.70278  1.0000
  C   C799      1.0  0.48858  0.55323  0.59437  1.0000
  H   H640      1.0  0.39966  0.53321  0.87499  1.0000
  C   C800      1.0  0.34769  0.51840  0.16533  1.0000
  C   C801      1.0  0.36306  0.50251  0.87745  1.0000
  C   C802      1.0  0.44529  0.74312  0.08720  1.0000
  H   H641      1.0  0.37572  0.57510  0.82753  1.0000
  C   C803      1.0  0.37111  0.50530  0.18869  1.0000
  C   C804      1.0  0.48353  0.59934  0.82743  1.0000
  C   C805      1.0  0.34904  0.51586  0.20620  1.0000
  H   H642      1.0  0.47540  0.73543  0.20469  1.0000
  H   H643      1.0  0.37723  0.50392  0.12526  1.0000
  H   H644      1.0  0.29956  0.53364  0.91970  1.0000
  H   H645      1.0  0.48193  0.50641  0.66271  1.0000
  C   C806      1.0  0.31359  0.53979  0.50158  1.0000
  H   H646      1.0  0.27737  0.66722  0.87163  1.0000
  C   C807      1.0  0.46618  0.73040  0.07796  1.0000
  Fe  Fe52      1.0  0.39841  0.49996  0.65990  1.0000
  C   C808      1.0  0.49106  0.58760  0.12889  1.0000
  H   H647      1.0  0.48513  0.58506  0.06795  1.0000
  C   C809      1.0  0.47734  0.74321  0.09601  1.0000
  H   H648      1.0  0.47443  0.65440  0.27940  1.0000
  C   C810      1.0  0.48285  0.54151  0.39225  1.0000
  C   C811      1.0  0.48172  0.74353  0.97067  1.0000
  H   H649      1.0  0.48000  0.68440  0.15537  1.0000
  C   C812      1.0  0.25109  0.74325  0.03567  1.0000
  H   H650      1.0  0.33588  0.50188  0.34012  1.0000
  C   C813      1.0  0.47898  0.69546  0.16657  1.0000
  C   C814      1.0  0.45325  0.73837  0.89222  1.0000
  H   H651      1.0  0.49288  0.55613  0.62359  1.0000
  C   C815      1.0  0.32319  0.51752  0.48545  1.0000
  H   H652      1.0  0.33452  0.51566  0.40323  1.0000
  P   P27       1.0  0.33880  0.50809  0.48578  1.0000
  C   C816      1.0  0.48732  0.53838  0.57849  1.0000
  C   C817      1.0  0.47754  0.49956  0.63687  1.0000
  H   H653      1.0  0.48920  0.59094  0.76989  1.0000
  S   S106      1.0  0.36050  0.50473  0.27006  1.0000
  H   H654      1.0  0.47710  0.50680  0.21699  1.0000
  H   H655      1.0  0.28465  0.51088  0.45543  1.0000
  C   C818      1.0  0.46256  0.49930  0.62358  1.0000
  S   S107      1.0  0.49173  0.68443  0.98937  1.0000
  H   H656      1.0  0.25773  0.50842  0.08711  1.0000
  S   S108      1.0  0.49294  0.56307  0.25702  1.0000
  C   C819      1.0  0.25525  0.50022  0.06282  1.0000
  H   H657      1.0  0.25156  0.59359  0.25423  1.0000
  C   C820      1.0  0.48006  0.49586  0.21478  1.0000
  C   C821      1.0  0.33935  0.49776  0.43975  1.0000
  H   H658      1.0  0.30593  0.49801  0.45621  1.0000
  C   C822      1.0  0.31101  0.50247  0.88607  1.0000
  H   H659      1.0  0.49334  0.54229  0.33108  1.0000
  H   H660      1.0  0.49372  0.67480  0.84449  1.0000
  H   H661      1.0  0.49349  0.58709  0.19196  1.0000
  C   C823      1.0  0.43659  0.49527  0.45328  1.0000
  Fe  Fe53      1.0  0.32449  0.83052  0.04621  1.0000
  S   S109      1.0  0.34950  0.83788  0.01125  1.0000
  S   S110      1.0  0.32063  0.84301  0.10404  1.0000
  Fe  Fe54      1.0  0.30887  0.80253  0.99057  1.0000
  S   S111      1.0  0.33357  0.80848  0.95195  1.0000
  S   S112      1.0  0.28614  0.78186  0.97008  1.0000
  Fe  Fe55      1.0  0.34529  0.81158  0.00967  1.0000
  S   S113      1.0  0.36636  0.80329  0.02441  1.0000
  Fe  Fe56      1.0  0.33607  0.83462  0.95572  1.0000
  S   S114      1.0  0.35162  0.85335  0.90646  1.0000
  S   S115      1.0  0.32078  0.80397  0.04821  1.0000
  S   S116      1.0  0.31080  0.82886  0.99091  1.0000
  Fe  Fe57      1.0  0.47866  0.81850  0.97583  1.0000
  S   S117      1.0  0.46321  0.82889  0.01779  1.0000
  S   S118      1.0  0.46919  0.79061  0.97860  1.0000
  H   H662      1.0  0.37863  0.94110  0.99706  1.0000
  H   H663      1.0  0.47817  0.78306  0.05601  1.0000
  H   H664      1.0  0.42147  0.97151  0.60466  1.0000
  C   C824      1.0  0.38266  0.98015  0.45769  1.0000
  H   H665      1.0  0.40918  0.86132  0.54057  1.0000
  Fe  Fe58      1.0  0.46108  0.84313  0.96479  1.0000
  S   S119      1.0  0.43802  0.84746  0.94819  1.0000
  H   H666      1.0  0.32225  0.87680  0.07937  1.0000
  S   S120      1.0  0.47494  0.83177  0.92194  1.0000
  Fe  Fe59      1.0  0.36331  0.91236  0.71937  1.0000
  S   S121      1.0  0.38116  0.90215  0.68669  1.0000
  S   S122      1.0  0.34188  0.89588  0.76226  1.0000
  Fe  Fe60      1.0  0.38214  0.94646  0.68323  1.0000
  S   S123      1.0  0.40146  0.93847  0.64996  1.0000
  Fe  Fe61      1.0  0.38055  0.91723  0.63252  1.0000
  S   S124      1.0  0.38484  0.90857  0.56948  1.0000
  Fe  Fe62      1.0  0.40042  0.92423  0.70588  1.0000
  S   S125      1.0  0.42258  0.92244  0.73325  1.0000
  S   S126      1.0  0.36084  0.92574  0.66349  1.0000
  S   S127      1.0  0.38282  0.93394  0.74134  1.0000
  Fe  Fe63      1.0  0.38009  0.91987  0.33551  1.0000
  S   S128      1.0  0.37517  0.92788  0.27470  1.0000
  S   S129      1.0  0.36512  0.92047  0.39544  1.0000
  Fe  Fe64      1.0  0.41228  0.91624  0.30236  1.0000
  S   S130      1.0  0.41030  0.92378  0.24017  1.0000
  S   S131      1.0  0.43399  0.91094  0.32308  1.0000
  Fe  Fe65      1.0  0.40233  0.94315  0.26831  1.0000
  Fe  Fe66      1.0  0.38335  0.90779  0.24949  1.0000
  S   S132      1.0  0.37822  0.89462  0.19048  1.0000
  S   S133      1.0  0.40645  0.93673  0.32977  1.0000
  S   S134      1.0  0.38615  0.89863  0.31081  1.0000
  C   C825      1.0  0.37705  0.81280  0.15819  1.0000
  C   C826      1.0  0.40828  0.95011  0.52329  1.0000
  S   S135      1.0  0.48342  0.93753  0.60206  1.0000
  H   H667      1.0  0.41469  0.89100  0.66284  1.0000
  C   C827      1.0  0.45317  0.92579  0.30642  1.0000
  C   C828      1.0  0.45410  0.93794  0.27844  1.0000
  C   C829      1.0  0.46964  0.94917  0.26374  1.0000
  C   C830      1.0  0.46884  0.74744  0.87307  1.0000
  C   C831      1.0  0.48318  0.93697  0.30741  1.0000
  C   C832      1.0  0.46772  0.92546  0.32126  1.0000
  H   H668      1.0  0.44290  0.93852  0.26756  1.0000
  H   H669      1.0  0.47038  0.95816  0.24102  1.0000
  C   C833      1.0  0.39824  0.85947  0.56153  1.0000
  H   H670      1.0  0.46707  0.91630  0.34350  1.0000
  C   C834      1.0  0.37927  0.91237  0.52157  1.0000
  C   C835      1.0  0.36763  0.91989  0.51657  1.0000
  C   C836      1.0  0.36334  0.92214  0.47793  1.0000
  C   C837      1.0  0.37100  0.91744  0.44363  1.0000
  C   C838      1.0  0.38286  0.91019  0.44865  1.0000
  C   C839      1.0  0.38681  0.90754  0.48734  1.0000
  H   H671      1.0  0.36173  0.92370  0.54252  1.0000
  H   H672      1.0  0.35393  0.92746  0.47463  1.0000
  H   H673      1.0  0.38880  0.90639  0.42272  1.0000
  H   H674      1.0  0.39583  0.90172  0.49073  1.0000
  C   C840      1.0  0.43890  0.92401  0.69631  1.0000
  C   C841      1.0  0.45440  0.92470  0.70728  1.0000
  C   C842      1.0  0.46795  0.92775  0.67795  1.0000
  C   C843      1.0  0.46610  0.93057  0.63790  1.0000
  C   C844      1.0  0.45036  0.92889  0.62678  1.0000
  C   C845      1.0  0.43674  0.92538  0.65591  1.0000
  H   H675      1.0  0.45601  0.92321  0.73843  1.0000
  H   H676      1.0  0.47988  0.92829  0.68653  1.0000
  H   H677      1.0  0.44870  0.93052  0.59575  1.0000
  H   H678      1.0  0.42464  0.92390  0.64698  1.0000
  H   H679      1.0  0.44210  0.97432  0.48060  1.0000
  H   H680      1.0  0.31767  0.86398  0.95691  1.0000
  H   H681      1.0  0.43484  0.85058  0.72249  1.0000
  C   C846      1.0  0.36214  0.80080  0.15100  1.0000
  C   C847      1.0  0.39038  0.93624  0.08864  1.0000
  H   H682      1.0  0.40337  0.86250  0.86558  1.0000
  H   H683      1.0  0.43566  0.85353  0.64912  1.0000
  H   H684      1.0  0.42579  0.87383  0.61910  1.0000
  H   H685      1.0  0.40072  0.84625  0.06779  1.0000
  H   H686      1.0  0.37689  0.85935  0.19190  1.0000
  H   H687      1.0  0.39191  0.75816  0.09237  1.0000
  H   H688      1.0  0.41385  0.88837  0.73566  1.0000
  C   C848      1.0  0.39602  0.84996  0.20539  1.0000
  H   H689      1.0  0.43327  0.85714  0.17830  1.0000
  C   C849      1.0  0.41832  0.83523  0.97066  1.0000
  C   C850      1.0  0.40412  0.83666  0.95623  1.0000
  C   C851      1.0  0.38815  0.82707  0.97299  1.0000
  C   C852      1.0  0.38629  0.81578  0.00397  1.0000
  C   C853      1.0  0.40051  0.81424  0.01830  1.0000
  C   C854      1.0  0.41651  0.82403  0.00189  1.0000
  H   H690      1.0  0.40550  0.84505  0.93156  1.0000
  H   H691      1.0  0.37722  0.82814  0.96152  1.0000
  H   H692      1.0  0.39909  0.80551  0.04223  1.0000
  H   H693      1.0  0.42740  0.82287  0.01324  1.0000
  C   C855      1.0  0.34826  0.86548  0.86800  1.0000
  C   C856      1.0  0.36224  0.87694  0.84659  1.0000
  C   C857      1.0  0.36052  0.88619  0.81400  1.0000
  C   C858      1.0  0.34469  0.88439  0.80302  1.0000
  C   C859      1.0  0.33068  0.87323  0.82513  1.0000
  C   C860      1.0  0.33243  0.86376  0.85734  1.0000
  H   H694      1.0  0.37448  0.87841  0.85496  1.0000
  H   H695      1.0  0.37141  0.89468  0.79727  1.0000
  H   H696      1.0  0.31838  0.87177  0.81704  1.0000
  H   H697      1.0  0.32156  0.85504  0.87354  1.0000
  C   C861      1.0  0.33664  0.85746  0.12788  1.0000
  C   C862      1.0  0.35264  0.86488  0.10842  1.0000
  C   C863      1.0  0.36500  0.87621  0.12812  1.0000
  C   C864      1.0  0.36164  0.88054  0.16737  1.0000
  C   C865      1.0  0.34558  0.87329  0.18678  1.0000
  C   C866      1.0  0.33317  0.86186  0.16706  1.0000
  H   H698      1.0  0.35551  0.86182  0.07819  1.0000
  H   H699      1.0  0.37732  0.88156  0.11288  1.0000
  H   H700      1.0  0.34272  0.87641  0.21698  1.0000
  H   H701      1.0  0.32082  0.85631  0.18239  1.0000
  C   C867      1.0  0.44833  0.76170  0.19898  1.0000
  C   C868      1.0  0.47457  0.77275  0.97597  1.0000
  C   C869      1.0  0.43287  0.76914  0.25491  1.0000
  H   H702      1.0  0.39828  0.77651  0.03227  1.0000
  H   H703      1.0  0.38058  0.90773  0.89422  1.0000
  H   H704      1.0  0.35595  0.93751  0.84737  1.0000
  H   H705      1.0  0.42173  0.94662  0.57123  1.0000
  C   C870      1.0  0.47251  0.75597  0.10977  1.0000
  C   C871      1.0  0.36707  0.91741  0.93888  1.0000
  H   H706      1.0  0.43056  0.84926  0.85527  1.0000
  H   H707      1.0  0.45874  0.87744  0.75000  1.0000
  C   C872      1.0  0.31005  0.80471  0.62113  1.0000
  C   C873      1.0  0.36067  0.84944  0.77891  1.0000
  H   H708      1.0  0.38639  0.86175  0.75810  1.0000
  H   H709      1.0  0.38140  0.86366  0.68776  1.0000
  C   C874      1.0  0.43368  0.78016  0.18825  1.0000
  H   H710      1.0  0.48139  0.85332  0.82512  1.0000
  P   P28       1.0  0.46370  0.91437  0.13436  1.0000
  C   C875      1.0  0.45945  0.90102  0.09311  1.0000
  C   C876      1.0  0.46594  0.90692  0.05384  1.0000
  C   C877      1.0  0.46308  0.89656  0.02198  1.0000
  H   H711      1.0  0.42723  0.80452  0.94268  1.0000
  C   C878      1.0  0.41598  0.96845  0.57680  1.0000
  H   H712      1.0  0.44790  0.79222  0.91779  1.0000
  C   C879      1.0  0.45245  0.92831  0.13304  1.0000
  C   C880      1.0  0.45036  0.93657  0.16752  1.0000
  C   C881      1.0  0.44106  0.94679  0.16802  1.0000
  C   C882      1.0  0.43348  0.94866  0.13431  1.0000
  C   C883      1.0  0.43531  0.94040  0.09989  1.0000
  C   C884      1.0  0.44478  0.93027  0.09917  1.0000
  C   C885      1.0  0.35690  0.98215  0.60198  1.0000
  H   H713      1.0  0.34438  0.94068  0.91607  1.0000
  C   C886      1.0  0.36812  0.83272  0.12683  1.0000
  H   H714      1.0  0.43518  0.76815  0.71648  1.0000
  H   H715      1.0  0.47335  0.91950  0.04802  1.0000
  H   H716      1.0  0.46820  0.90107  0.99176  1.0000
  H   H717      1.0  0.45060  0.95027  0.48241  1.0000
  H   H718      1.0  0.40857  0.98918  0.57477  1.0000
  C   C887      1.0  0.46344  0.95721  0.53506  1.0000
  H   H719      1.0  0.45553  0.93475  0.19453  1.0000
  H   H720      1.0  0.43931  0.95292  0.19505  1.0000
  H   H721      1.0  0.42597  0.95633  0.13534  1.0000
  H   H722      1.0  0.42918  0.94167  0.07400  1.0000
  H   H723      1.0  0.44567  0.92377  0.07253  1.0000
  C   C888      1.0  0.45705  0.90305  0.18159  1.0000
  C   C889      1.0  0.39054  0.85946  0.28348  1.0000
  C   C890      1.0  0.46185  0.75762  0.98288  1.0000
  C   C891      1.0  0.44959  0.97288  0.50336  1.0000
  H   H724      1.0  0.33414  0.83837  0.79142  1.0000
  C   C892      1.0  0.41160  0.88981  0.10413  1.0000
  C   C893      1.0  0.41159  0.88696  0.06324  1.0000
  C   C894      1.0  0.40769  0.87124  0.05041  1.0000
  C   C895      1.0  0.40368  0.85837  0.07833  1.0000
  C   C896      1.0  0.40350  0.86112  0.11945  1.0000
  C   C897      1.0  0.40764  0.87695  0.13215  1.0000
  H   H725      1.0  0.41434  0.90192  0.11440  1.0000
  H   H726      1.0  0.41453  0.89689  0.04152  1.0000
  H   H727      1.0  0.40783  0.86891  0.01884  1.0000
  H   H728      1.0  0.48318  0.87081  0.76544  1.0000
  H   H729      1.0  0.40759  0.87944  0.16361  1.0000
  H   H730      1.0  0.46701  0.94660  0.53637  1.0000
  C   C898      1.0  0.48423  0.94852  0.27770  1.0000
  C   C899      1.0  0.41036  0.90486  0.83050  1.0000
  C   C900      1.0  0.42533  0.91618  0.83956  1.0000
  C   C901      1.0  0.44002  0.91266  0.83417  1.0000
  C   C902      1.0  0.43977  0.89784  0.81949  1.0000
  C   C903      1.0  0.42473  0.88636  0.81048  1.0000
  C   C904      1.0  0.41006  0.89004  0.81593  1.0000
  P   P29       1.0  0.42440  0.86766  0.78867  1.0000
  C   C905      1.0  0.44252  0.86326  0.80043  1.0000
  C   C906      1.0  0.40613  0.85127  0.80947  1.0000
  C   C907      1.0  0.39963  0.83737  0.78783  1.0000
  C   C908      1.0  0.38556  0.82468  0.80409  1.0000
  C   C909      1.0  0.37794  0.82572  0.84207  1.0000
  C   C910      1.0  0.38442  0.83942  0.86388  1.0000
  C   C911      1.0  0.39850  0.85210  0.84786  1.0000
  C   C912      1.0  0.45761  0.86953  0.77573  1.0000
  C   C913      1.0  0.47151  0.86579  0.78436  1.0000
  C   C914      1.0  0.47053  0.85600  0.81800  1.0000
  C   C915      1.0  0.45572  0.85012  0.84328  1.0000
  C   C916      1.0  0.44179  0.85378  0.83473  1.0000
  C   C917      1.0  0.42441  0.86933  0.73489  1.0000
  C   C918      1.0  0.41858  0.88058  0.71748  1.0000
  C   C919      1.0  0.41896  0.88208  0.67593  1.0000
  C   C920      1.0  0.42516  0.87238  0.65132  1.0000
  C   C921      1.0  0.43076  0.86098  0.66829  1.0000
  C   C922      1.0  0.43034  0.85940  0.70989  1.0000
  H   H731      1.0  0.39909  0.90780  0.83310  1.0000
  H   H732      1.0  0.42559  0.92785  0.84957  1.0000
  H   H733      1.0  0.45169  0.92157  0.84027  1.0000
  H   H734      1.0  0.45136  0.89554  0.81454  1.0000
  H   H735      1.0  0.39845  0.88167  0.80772  1.0000
  H   H736      1.0  0.40529  0.83632  0.75836  1.0000
  H   H737      1.0  0.38046  0.81405  0.78717  1.0000
  H   H738      1.0  0.36692  0.81599  0.85466  1.0000
  H   H739      1.0  0.37836  0.84024  0.89317  1.0000
  C   C923      1.0  0.44033  0.89841  0.19768  1.0000
  H   H740      1.0  0.42567  0.97137  0.74557  1.0000
  H   H741      1.0  0.40820  0.93913  0.50923  1.0000
  H   H742      1.0  0.37245  0.86807  0.26000  1.0000
  C   C924      1.0  0.42268  0.96451  0.41461  1.0000
  H   H743      1.0  0.47245  0.88901  0.25808  1.0000
  H   H744      1.0  0.41275  0.96914  0.42267  1.0000
  H   H745      1.0  0.45207  0.96925  0.30998  1.0000
  C   C925      1.0  0.39922  0.98879  0.69128  1.0000
  C   C926      1.0  0.33581  0.87502  0.66923  1.0000
  P   P30       1.0  0.39102  0.98721  0.50427  1.0000
  C   C927      1.0  0.32466  0.87133  0.97927  1.0000
  H   H746      1.0  0.48169  0.82106  0.80283  1.0000
  H   H747      1.0  0.41600  0.87493  0.93002  1.0000
  C   C928      1.0  0.46853  0.89932  0.20326  1.0000
  C   C929      1.0  0.31813  0.86924  0.01942  1.0000
  C   C930      1.0  0.43428  0.97613  0.71906  1.0000
  H   H748      1.0  0.40553  0.91836  0.95261  1.0000
  H   H749      1.0  0.40558  0.81953  0.10499  1.0000
  H   H750      1.0  0.39421  0.95587  0.48040  1.0000
  H   H751      1.0  0.44534  0.87967  0.12987  1.0000
  C   C931      1.0  0.40462  0.84672  0.23603  1.0000
  H   H752      1.0  0.49103  0.89987  0.82279  1.0000
  C   C932      1.0  0.44754  0.87423  0.06812  1.0000
  C   C933      1.0  0.34042  0.88265  0.96796  1.0000
  C   C934      1.0  0.26957  0.76314  0.98528  1.0000
  C   C935      1.0  0.38122  0.93499  0.02221  1.0000
  H   H753      1.0  0.38607  0.80961  0.17350  1.0000
  C   C936      1.0  0.46178  0.77877  0.70322  1.0000
  H   H754      1.0  0.35423  0.94729  0.42155  1.0000
  P   P31       1.0  0.39940  0.84437  0.15459  1.0000
  C   C937      1.0  0.38407  0.85724  0.21475  1.0000
  C   C938      1.0  0.38145  0.86210  0.25350  1.0000
  H   H755      1.0  0.38863  0.86343  0.31341  1.0000
  H   H756      1.0  0.30609  0.86019  0.02850  1.0000
  C   C939      1.0  0.42059  0.98449  0.27230  1.0000
  H   H757      1.0  0.36338  0.82966  0.60176  1.0000
  C   C940      1.0  0.38837  0.91992  0.08813  1.0000
  C   C941      1.0  0.46298  0.98229  0.56346  1.0000
  H   H758      1.0  0.45014  0.79253  0.04876  1.0000
  C   C942      1.0  0.38466  0.89623  0.96541  1.0000
  H   H759      1.0  0.34534  0.88396  0.93674  1.0000
  C   C943      1.0  0.38027  0.82881  0.14533  1.0000
  C   C944      1.0  0.40040  0.95977  0.50692  1.0000
  C   C945      1.0  0.42828  0.77896  0.22910  1.0000
  H   H760      1.0  0.45504  0.84287  0.86993  1.0000
  C   C946      1.0  0.37948  0.87941  0.96550  1.0000
  C   C947      1.0  0.26484  0.75760  0.02537  1.0000
  C   C948      1.0  0.45152  0.96913  0.39031  1.0000
  C   C949      1.0  0.35317  0.82077  0.12020  1.0000
  C   C950      1.0  0.49037  0.80075  0.87939  1.0000
  H   H761      1.0  0.27157  0.76455  0.04856  1.0000
  H   H762      1.0  0.40891  0.84945  0.29828  1.0000
  H   H763      1.0  0.43094  0.81330  0.08564  1.0000
  C   C951      1.0  0.41726  0.83817  0.14502  1.0000
  C   C952      1.0  0.41260  0.89768  0.94006  1.0000
  C   C953      1.0  0.41685  0.82595  0.11832  1.0000
  P   P32       1.0  0.37024  0.90634  0.98093  1.0000
  C   C954      1.0  0.40133  0.90534  0.95284  1.0000
  H   H764      1.0  0.36514  0.95783  0.48505  1.0000
  C   C955      1.0  0.40202  0.85164  0.27484  1.0000
  C   C956      1.0  0.34986  0.89191  0.99677  1.0000
  C   C957      1.0  0.43125  0.82246  0.10696  1.0000
  C   C958      1.0  0.45382  0.88023  0.02915  1.0000
  H   H765      1.0  0.41459  0.75663  0.13054  1.0000
  H   H766      1.0  0.34312  0.81897  0.67530  1.0000
  H   H767      1.0  0.46161  0.77614  0.67177  1.0000
  C   C959      1.0  0.43241  0.84710  0.15937  1.0000
  C   C960      1.0  0.26044  0.75376  0.95587  1.0000
  C   C961      1.0  0.46221  0.78567  0.78462  1.0000
  C   C962      1.0  0.32728  0.87861  0.04817  1.0000
  H   H768      1.0  0.42542  0.90471  0.93007  1.0000
  C   C963      1.0  0.41673  0.98193  0.31369  1.0000
  H   H769      1.0  0.41325  0.84036  0.23033  1.0000
  H   H770      1.0  0.42871  0.76825  0.28660  1.0000
  C   C964      1.0  0.36366  0.95914  0.42178  1.0000
  C   C965      1.0  0.45432  0.95932  0.50456  1.0000
  H   H771      1.0  0.45945  0.95947  0.73338  1.0000
  C   C966      1.0  0.44674  0.79746  0.85534  1.0000
  H   H772      1.0  0.42058  0.78571  0.24079  1.0000
  H   H773      1.0  0.38856  0.95649  0.05602  1.0000
  H   H774      1.0  0.33435  0.87037  0.69972  1.0000
  C   C967      1.0  0.40728  0.88090  0.93978  1.0000
  H   H775      1.0  0.36676  0.87203  0.97526  1.0000
  H   H776      1.0  0.39433  0.94293  0.11500  1.0000
  H   H777      1.0  0.37010  0.84499  0.11758  1.0000
  C   C968      1.0  0.39070  0.87181  0.95241  1.0000
  C   C969      1.0  0.35269  0.93387  0.91164  1.0000
  C   C970      1.0  0.32988  0.88751  0.66155  1.0000
  C   C971      1.0  0.38276  0.91111  0.05477  1.0000
  C   C972      1.0  0.34308  0.88992  0.03702  1.0000
  C   C973      1.0  0.37331  0.91546  0.89978  1.0000
  Fe  Fe67      1.0  0.48677  0.84961  0.02544  1.0000
  C   C974      1.0  0.46341  0.89131  0.24079  1.0000
  C   C975      1.0  0.33958  0.88813  0.59141  1.0000
  H   H778      1.0  0.34979  0.89688  0.06014  1.0000
  H   H779      1.0  0.42983  0.95302  0.69408  1.0000
  S   S136      1.0  0.41431  0.96836  0.23981  1.0000
  C   C976      1.0  0.35919  0.93209  0.87294  1.0000
  H   H780      1.0  0.37649  0.97303  0.58571  1.0000
  C   C977      1.0  0.31071  0.81913  0.60259  1.0000
  H   H781      1.0  0.40436  0.88470  0.57292  1.0000
  C   C978      1.0  0.37869  0.91846  0.02204  1.0000
  H   H782      1.0  0.35977  0.78840  0.16015  1.0000
  C   C979      1.0  0.38827  0.98950  0.42172  1.0000
  H   H783      1.0  0.37396  0.92104  0.83684  1.0000
  H   H784      1.0  0.44835  0.96343  0.63286  1.0000
  C   C980      1.0  0.36994  0.96512  0.45757  1.0000
  H   H785      1.0  0.35074  0.92732  0.97408  1.0000
  H   H786      1.0  0.38865  0.83381  0.55554  1.0000
  C   C981      1.0  0.45885  0.76945  0.86063  1.0000
  C   C982      1.0  0.44623  0.83131  0.12158  1.0000
  H   H787      1.0  0.38094  0.89838  0.05504  1.0000
  H   H788      1.0  0.44062  0.86150  0.07356  1.0000
  C   C983      1.0  0.45394  0.98436  0.53243  1.0000
  C   C984      1.0  0.47171  0.96868  0.73008  1.0000
  C   C985      1.0  0.35646  0.92642  0.94446  1.0000
  C   C986      1.0  0.44292  0.99262  0.71376  1.0000
  H   H789      1.0  0.38635  0.85881  0.95220  1.0000
  C   C987      1.0  0.47691  0.78636  0.71879  1.0000
  H   H790      1.0  0.33874  0.79552  0.12584  1.0000
  C   C988      1.0  0.36945  0.92286  0.86703  1.0000
  C   C989      1.0  0.35024  0.80479  0.13183  1.0000
  C   C990      1.0  0.46757  0.96851  0.56466  1.0000
  H   H791      1.0  0.45861  0.85076  0.15801  1.0000
  H   H792      1.0  0.43298  0.76480  0.88213  1.0000
  C   C991      1.0  0.44681  0.84358  0.14785  1.0000
  H   H793      1.0  0.45755  0.82908  0.11142  1.0000
  H   H794      1.0  0.34385  0.82394  0.10592  1.0000
  H   H795      1.0  0.44913  0.75707  0.98987  1.0000
  C   C992      1.0  0.41595  0.95436  0.55831  1.0000
  C   C993      1.0  0.43650  0.96580  0.68977  1.0000
  H   H796      1.0  0.47420  0.96638  0.58878  1.0000
  H   H797      1.0  0.32413  0.89231  0.68607  1.0000
  H   H798      1.0  0.40958  0.97003  0.32622  1.0000
  H   H799      1.0  0.42756  0.79344  0.01044  1.0000
  C   C994      1.0  0.35468  0.85165  0.69877  1.0000
  C   C995      1.0  0.43523  0.89033  0.23509  1.0000
  C   C996      1.0  0.32299  0.83360  0.61040  1.0000
  C   C997      1.0  0.39559  0.87262  0.57980  1.0000
  C   C998      1.0  0.38701  0.94382  0.05551  1.0000
  C   C999      1.0  0.47995  0.79290  0.07603  1.0000
  C   C1000     1.0  0.40468  0.76563  0.08304  1.0000
  H   H800      1.0  0.48642  0.82923  0.14422  1.0000
  C   C1001     1.0  0.33408  0.81918  0.65511  1.0000
  H   H801      1.0  0.48529  0.87376  0.16407  1.0000
  C   C1002     1.0  0.32176  0.80473  0.64730  1.0000
  C   C1003     1.0  0.43873  0.97508  0.40248  1.0000
  S   S137      1.0  0.38599  0.97253  0.66669  1.0000
  H   H802      1.0  0.32738  0.90389  0.61693  1.0000
  C   C1004     1.0  0.43979  0.80503  0.82865  1.0000
  C   C1005     1.0  0.37229  0.84169  0.59616  1.0000
  C   C1006     1.0  0.36980  0.96820  0.38593  1.0000
  H   H803      1.0  0.32125  0.79355  0.66165  1.0000
  C   C1007     1.0  0.44689  0.77432  0.72838  1.0000
  P   P33       1.0  0.35075  0.85235  0.64700  1.0000
  C   C1008     1.0  0.47717  0.78965  0.75942  1.0000
  H   H804      1.0  0.45613  0.75499  0.18795  1.0000
  C   C1009     1.0  0.38664  0.84399  0.56991  1.0000
  H   H805      1.0  0.45223  0.97918  0.24171  1.0000
  C   C1010     1.0  0.42330  0.81145  0.88407  1.0000
  C   C1011     1.0  0.43755  0.78489  0.05864  1.0000
  H   H806      1.0  0.26388  0.75776  0.92476  1.0000
  C   C1012     1.0  0.46142  0.98062  0.29941  1.0000
  H   H807      1.0  0.44363  0.80594  0.79687  1.0000
  H   H808      1.0  0.37948  0.88065  0.61997  1.0000
  H   H809      1.0  0.34133  0.89338  0.56136  1.0000
  C   C1013     1.0  0.48250  0.96952  0.69573  1.0000
  H   H810      1.0  0.45165  0.87214  0.00459  1.0000
  C   C1014     1.0  0.41934  0.94793  0.41525  1.0000
  H   H811      1.0  0.35164  0.87132  0.57423  1.0000
  C   C1015     1.0  0.38138  0.87031  0.60633  1.0000
  H   H812      1.0  0.48396  0.94360  0.17228  1.0000
  H   H813      1.0  0.39066  0.91397  0.11417  1.0000
  C   C1016     1.0  0.46867  0.79154  0.11007  1.0000
  H   H814      1.0  0.36520  0.96332  0.35809  1.0000
  H   H815      1.0  0.25211  0.78718  0.03536  1.0000
  C   C1017     1.0  0.47667  0.97973  0.75992  1.0000
  C   C1018     1.0  0.48589  0.92515  0.13183  1.0000
  H   H816      1.0  0.48140  0.76589  0.12325  1.0000
  H   H817      1.0  0.40684  0.93973  0.42420  1.0000
  H   H818      1.0  0.43132  0.90150  0.18204  1.0000
  P   P34       1.0  0.47226  0.98309  0.37577  1.0000
  C   C1019     1.0  0.43178  0.94189  0.40119  1.0000
  C   C1020     1.0  0.44722  0.97186  0.65498  1.0000
  C   C1021     1.0  0.43053  0.80438  0.91083  1.0000
  C   C1022     1.0  0.37096  0.85787  0.70976  1.0000
  C   C1023     1.0  0.37389  0.85677  0.74971  1.0000
  C   C1024     1.0  0.36950  0.85489  0.61431  1.0000
  C   C1025     1.0  0.33465  0.83377  0.63713  1.0000
  C   C1026     1.0  0.49218  0.93890  0.15417  1.0000
  C   C1027     1.0  0.44289  0.76051  0.23986  1.0000
  C   C1028     1.0  0.40855  0.97838  0.55991  1.0000
  H   H819      1.0  0.46792  0.97925  0.78571  1.0000
  H   H820      1.0  0.42887  0.92901  0.39896  1.0000
  C   C1029     1.0  0.40825  0.77594  0.04912  1.0000
  H   H821      1.0  0.30046  0.79353  0.61519  1.0000
  C   C1030     1.0  0.33173  0.89404  0.62267  1.0000
  H   H822      1.0  0.41434  0.81693  0.89531  1.0000
  H   H823      1.0  0.32869  0.84015  0.72095  1.0000
  C   C1031     1.0  0.44222  0.79743  0.89659  1.0000
  C   C1032     1.0  0.34364  0.86895  0.63794  1.0000
  C   C1033     1.0  0.45028  0.88457  0.09998  1.0000
  H   H824      1.0  0.44295  0.88132  0.28661  1.0000
  H   H825      1.0  0.24533  0.78111  0.96618  1.0000
  C   C1034     1.0  0.44678  0.88686  0.25675  1.0000
  H   H826      1.0  0.42247  0.88742  0.24820  1.0000
  C   C1035     1.0  0.34551  0.87564  0.59894  1.0000
  C   C1036     1.0  0.34140  0.84464  0.72850  1.0000
  H   H827      1.0  0.30166  0.81912  0.58219  1.0000
  C   C1037     1.0  0.34442  0.84354  0.76840  1.0000
  H   H828      1.0  0.36294  0.84863  0.80991  1.0000
  H   H829      1.0  0.32325  0.84460  0.59564  1.0000
  C   C1038     1.0  0.40056  0.97407  0.52503  1.0000
  H   H830      1.0  0.47382  0.95571  0.42547  1.0000
  H   H831      1.0  0.39142  0.97782  0.75051  1.0000
  C   C1039     1.0  0.42794  0.81179  0.84299  1.0000
  H   H832      1.0  0.42256  0.81758  0.82240  1.0000
  P   P35       1.0  0.46233  0.78898  0.83752  1.0000
  H   H833      1.0  0.45680  0.94756  0.37426  1.0000
  H   H834      1.0  0.48529  0.78985  0.89806  1.0000
  C   C1040     1.0  0.44711  0.77761  0.76901  1.0000
  H   H835      1.0  0.47861  0.96117  0.67222  1.0000
  C   C1041     1.0  0.39906  0.98853  0.73293  1.0000
  H   H836      1.0  0.48400  0.92919  0.81651  1.0000
  P   P36       1.0  0.45078  0.77330  0.12010  1.0000
  C   C1042     1.0  0.44316  0.76020  0.87969  1.0000
  H   H837      1.0  0.46268  0.80417  0.16112  1.0000
  C   C1043     1.0  0.42470  0.78551  0.03687  1.0000
  H   H838      1.0  0.43014  0.78796  0.16870  1.0000
  C   C1044     1.0  0.44768  0.95246  0.38751  1.0000
  S   S138      1.0  0.48742  0.85864  0.08935  1.0000
  C   C1045     1.0  0.45652  0.75617  0.10485  1.0000
  H   H839      1.0  0.44109  0.98789  0.40221  1.0000
  C   C1046     1.0  0.48582  0.96171  0.40913  1.0000
  C   C1047     1.0  0.43411  0.77458  0.09272  1.0000
  S   S139      1.0  0.48347  0.86453  0.97460  1.0000
  H   H840      1.0  0.48153  0.90293  0.19185  1.0000
  C   C1048     1.0  0.41755  0.76485  0.10465  1.0000
  C   C1049     1.0  0.46148  0.98622  0.26038  1.0000
  C   C1050     1.0  0.44374  0.77152  0.17287  1.0000
  C   C1051     1.0  0.37378  0.98829  0.53779  1.0000
  C   C1052     1.0  0.45581  0.98849  0.64904  1.0000
  C   C1053     1.0  0.47117  0.80468  0.13492  1.0000
  C   C1054     1.0  0.48467  0.81894  0.12559  1.0000
  H   H841      1.0  0.43551  0.77379  0.78837  1.0000
  C   C1055     1.0  0.48862  0.97506  0.38287  1.0000
  H   H842      1.0  0.48593  0.97196  0.82854  1.0000
  C   C1056     1.0  0.48189  0.80359  0.84808  1.0000
  H   H843      1.0  0.48254  0.98823  0.45620  1.0000
  H   H844      1.0  0.48955  0.95963  0.89098  1.0000
  H   H845      1.0  0.33761  0.99251  0.61041  1.0000
  C   C1057     1.0  0.38191  0.98347  0.38600  1.0000
  C   C1058     1.0  0.36979  0.98048  0.57584  1.0000
  C   C1059     1.0  0.47159  0.76283  0.85685  1.0000
  C   C1060     1.0  0.47308  0.98975  0.32431  1.0000
  H   H846      1.0  0.35412  0.97623  0.63153  1.0000
  C   C1061     1.0  0.34767  0.99136  0.59009  1.0000
  H   H847      1.0  0.49108  0.95217  0.76760  1.0000
  H   H848      1.0  0.48370  0.76961  0.84161  1.0000
  H   H849      1.0  0.44648  0.75295  0.25997  1.0000
  C   C1062     1.0  0.49095  0.77316  0.96708  1.0000
  H   H850      1.0  0.41861  0.99277  0.37089  1.0000
  C   C1063     1.0  0.48835  0.81836  0.82610  1.0000
  H   H851      1.0  0.38656  0.99054  0.35813  1.0000
  C   C1064     1.0  0.49338  0.80716  0.06675  1.0000
  H   H852      1.0  0.48848  0.78954  0.69944  1.0000
  H   H853      1.0  0.48906  0.79511  0.77105  1.0000
  H   H854      1.0  0.44992  0.99463  0.53068  1.0000
  H   H855      1.0  0.49267  0.88070  0.87528  1.0000
  C   C1065     1.0  0.49280  0.99127  0.75643  1.0000
  H   H856      1.0  0.49277  0.90755  0.09632  1.0000
  C   C1066     1.0  0.42185  0.99484  0.33903  1.0000
  C   C1067     1.0  0.49366  0.97952  0.84921  1.0000
  C   C1068     1.0  0.53178  0.16820  0.85123  1.0000
  S   S140      1.0  0.51090  0.07655  0.37388  1.0000
  C   C1069     1.0  0.62414  0.01610  0.28066  1.0000
  H   H857      1.0  0.69508  0.22408  0.87006  1.0000
  Fe  Fe68      1.0  0.65980  0.18592  0.93889  1.0000
  S   S141      1.0  0.64333  0.17531  0.99530  1.0000
  S   S142      1.0  0.64935  0.17762  0.87896  1.0000
  Fe  Fe69      1.0  0.68532  0.21260  0.98538  1.0000
  S   S143      1.0  0.67007  0.20323  0.04489  1.0000
  H   H858      1.0  0.49540  0.06785  0.10067  1.0000
  Fe  Fe70      1.0  0.66670  0.17828  0.02376  1.0000
  S   S144      1.0  0.66704  0.15657  0.06096  1.0000
  Fe  Fe71      1.0  0.64760  0.20069  0.01239  1.0000
  S   S145      1.0  0.62622  0.20781  0.04038  1.0000
  S   S146      1.0  0.68342  0.18750  0.96566  1.0000
  S   S147      1.0  0.66264  0.21146  0.95454  1.0000
  Fe  Fe72      1.0  0.51626  0.20058  0.00861  1.0000
  S   S148      1.0  0.52437  0.19066  0.95164  1.0000
  Fe  Fe73      1.0  0.50424  0.16692  0.05344  1.0000
  S   S149      1.0  0.51116  0.15472  0.99966  1.0000
  H   H859      1.0  0.51834  0.15423  0.80529  1.0000
  Fe  Fe74      1.0  0.53449  0.17640  0.99113  1.0000
  S   S150      1.0  0.55775  0.17082  0.97187  1.0000
  C   C1070     1.0  0.52676  0.08447  0.17227  1.0000
  H   H860      1.0  0.61183  0.05946  0.59951  1.0000
  S   S151      1.0  0.52848  0.18772  0.04697  1.0000
  H   H861      1.0  0.56347  0.12855  0.74792  1.0000
  Fe  Fe75      1.0  0.59263  0.09624  0.69416  1.0000
  S   S152      1.0  0.60499  0.08559  0.73667  1.0000
  S   S153      1.0  0.56885  0.09992  0.71529  1.0000
  Fe  Fe76      1.0  0.62058  0.10343  0.62800  1.0000
  S   S154      1.0  0.63580  0.09390  0.66561  1.0000
  S   S155      1.0  0.62928  0.11413  0.56457  1.0000
  Fe  Fe77      1.0  0.61172  0.07351  0.68253  1.0000
  S   S156      1.0  0.61144  0.04779  0.68279  1.0000
  Fe  Fe78      1.0  0.62788  0.10696  0.71717  1.0000
  S   S157      1.0  0.64525  0.11886  0.76468  1.0000
  S   S158      1.0  0.59710  0.08228  0.64169  1.0000
  S   S159      1.0  0.61491  0.11836  0.67770  1.0000
  Fe  Fe79      1.0  0.58707  0.07388  0.26904  1.0000
  S   S160      1.0  0.61087  0.07901  0.22951  1.0000
  S   S161      1.0  0.56237  0.06370  0.24517  1.0000
  Fe  Fe80      1.0  0.60399  0.08482  0.34537  1.0000
  S   S162      1.0  0.62941  0.09112  0.31145  1.0000
  S   S163      1.0  0.59530  0.08115  0.41215  1.0000
  Fe  Fe81      1.0  0.61951  0.10201  0.26244  1.0000
  S   S164      1.0  0.62975  0.12755  0.23364  1.0000
  Fe  Fe82      1.0  0.61831  0.06768  0.28125  1.0000
  S   S165      1.0  0.62963  0.04819  0.27709  1.0000
  S   S166      1.0  0.59478  0.09735  0.29923  1.0000
  S   S167      1.0  0.59381  0.06089  0.31769  1.0000
  C   C1071     1.0  0.61661  0.02773  0.27822  1.0000
  C   C1072     1.0  0.59930  0.02275  0.27638  1.0000
  H   H862      1.0  0.59333  0.03161  0.27440  1.0000
  C   C1073     1.0  0.51310  0.02014  0.64408  1.0000
  H   H863      1.0  0.54646  0.07789  0.14033  1.0000
  C   C1074     1.0  0.59232  0.03215  0.67980  1.0000
  C   C1075     1.0  0.57747  0.03534  0.68122  1.0000
  C   C1076     1.0  0.56238  0.23519  0.97035  1.0000
  H   H864      1.0  0.57765  0.04757  0.68385  1.0000
  C   C1077     1.0  0.62063  0.10444  0.52178  1.0000
  C   C1078     1.0  0.60894  0.08886  0.52461  1.0000
  C   C1079     1.0  0.60194  0.08168  0.49030  1.0000
  C   C1080     1.0  0.60625  0.09005  0.45293  1.0000
  C   C1081     1.0  0.61831  0.10546  0.44975  1.0000
  C   C1082     1.0  0.62550  0.11259  0.48409  1.0000
  H   H865      1.0  0.60525  0.08235  0.55322  1.0000
  H   H866      1.0  0.59315  0.06953  0.49278  1.0000
  H   H867      1.0  0.62177  0.11204  0.42114  1.0000
  H   H868      1.0  0.63460  0.12463  0.48162  1.0000
  C   C1083     1.0  0.56229  0.02263  0.68066  1.0000
  C   C1084     1.0  0.60716  0.19808  0.02069  1.0000
  C   C1085     1.0  0.60673  0.18935  0.98610  1.0000
  C   C1086     1.0  0.59150  0.18133  0.97107  1.0000
  C   C1087     1.0  0.57660  0.18202  0.99035  1.0000
  C   C1088     1.0  0.57700  0.19104  0.02449  1.0000
  C   C1089     1.0  0.59226  0.19903  0.03969  1.0000
  H   H869      1.0  0.61815  0.18882  0.97073  1.0000
  H   H870      1.0  0.59134  0.17466  0.94420  1.0000
  H   H871      1.0  0.56557  0.19172  0.03939  1.0000
  H   H872      1.0  0.59244  0.20582  0.06631  1.0000
  C   C1090     1.0  0.65551  0.14831  0.10786  1.0000
  C   C1091     1.0  0.64831  0.15709  0.13334  1.0000
  C   C1092     1.0  0.64033  0.15047  0.17142  1.0000
  C   C1093     1.0  0.63923  0.13493  0.18442  1.0000
  C   C1094     1.0  0.64598  0.12597  0.15847  1.0000
  C   C1095     1.0  0.65421  0.13270  0.12066  1.0000
  H   H873      1.0  0.64933  0.16916  0.12421  1.0000
  H   H874      1.0  0.63518  0.15754  0.19115  1.0000
  H   H875      1.0  0.64531  0.11405  0.16795  1.0000
  H   H876      1.0  0.65977  0.12581  0.10134  1.0000
  C   C1096     1.0  0.64773  0.16066  0.84902  1.0000
  C   C1097     1.0  0.63783  0.15800  0.81688  1.0000
  C   C1098     1.0  0.63648  0.14503  0.79153  1.0000
  C   C1099     1.0  0.64534  0.13470  0.79748  1.0000
  C   C1100     1.0  0.65517  0.13732  0.82977  1.0000
  C   C1101     1.0  0.65624  0.15009  0.85562  1.0000
  H   H877      1.0  0.63117  0.16607  0.81152  1.0000
  H   H878      1.0  0.62890  0.14326  0.76686  1.0000
  H   H879      1.0  0.66209  0.12944  0.83473  1.0000
  H   H880      1.0  0.66387  0.15191  0.88019  1.0000
  C   C1102     1.0  0.52048  0.06927  0.66859  1.0000
  C   C1103     1.0  0.52070  0.08085  0.69672  1.0000
  C   C1104     1.0  0.53570  0.09028  0.71038  1.0000
  C   C1105     1.0  0.55054  0.08803  0.69638  1.0000
  C   C1106     1.0  0.55039  0.07630  0.66857  1.0000
  C   C1107     1.0  0.53532  0.06689  0.65465  1.0000
  H   H881      1.0  0.50931  0.08255  0.70830  1.0000
  H   H882      1.0  0.53576  0.09925  0.73213  1.0000
  H   H883      1.0  0.56180  0.07445  0.65791  1.0000
  H   H884      1.0  0.53519  0.05786  0.63312  1.0000
  H   H885      1.0  0.61651  0.17184  0.14030  1.0000
  H   H886      1.0  0.67469  0.06220  0.43372  1.0000
  H   H887      1.0  0.62076  0.16251  0.26754  1.0000
  H   H888      1.0  0.52739  0.07267  0.81450  1.0000
  H   H889      1.0  0.52786  0.09379  0.09378  1.0000
  C   C1108     1.0  0.56640  0.21721  0.91971  1.0000
  C   C1109     1.0  0.52802  0.00513  0.25487  1.0000
  H   H890      1.0  0.60190  0.13471  0.28487  1.0000
  C   C1110     1.0  0.69932  0.06317  0.54703  1.0000
  H   H891      1.0  0.62781  0.00359  0.18978  1.0000
  H   H892      1.0  0.61328  0.17969  0.22027  1.0000
  C   C1111     1.0  0.52540  0.07384  0.33728  1.0000
  C   C1112     1.0  0.52153  0.07076  0.29797  1.0000
  C   C1113     1.0  0.53283  0.06741  0.26976  1.0000
  C   C1114     1.0  0.54820  0.06767  0.28051  1.0000
  C   C1115     1.0  0.55227  0.07121  0.31951  1.0000
  C   C1116     1.0  0.54082  0.07417  0.34797  1.0000
  H   H893      1.0  0.50986  0.07091  0.28926  1.0000
  H   H894      1.0  0.52972  0.06470  0.23967  1.0000
  H   H895      1.0  0.56399  0.07110  0.32830  1.0000
  H   H896      1.0  0.54377  0.07638  0.37843  1.0000
  C   C1117     1.0  0.57055  0.13594  0.42857  1.0000
  C   C1118     1.0  0.57513  0.12614  0.40084  1.0000
  C   C1119     1.0  0.56849  0.10944  0.40671  1.0000
  C   C1120     1.0  0.55716  0.10251  0.44004  1.0000
  C   C1121     1.0  0.55220  0.11224  0.46776  1.0000
  C   C1122     1.0  0.55929  0.12904  0.46211  1.0000
  P   P37       1.0  0.53910  0.10371  0.51367  1.0000
  C   C1123     1.0  0.52154  0.11054  0.52199  1.0000
  C   C1124     1.0  0.52933  0.08221  0.51286  1.0000
  C   C1125     1.0  0.52212  0.07521  0.47875  1.0000
  C   C1126     1.0  0.71307  0.07065  0.51925  1.0000
  C   C1127     1.0  0.69677  0.18687  0.85272  1.0000
  C   C1128     1.0  0.52017  0.05575  0.54622  1.0000
  C   C1129     1.0  0.52776  0.07243  0.54716  1.0000
  C   C1130     1.0  0.51001  0.10477  0.55602  1.0000
  C   C1131     1.0  0.71946  0.20222  0.89020  1.0000
  C   C1132     1.0  0.49525  0.12109  0.86114  1.0000
  H   H897      1.0  0.62817  0.03164  0.18489  1.0000
  C   C1133     1.0  0.51812  0.12007  0.49273  1.0000
  C   C1134     1.0  0.55291  0.10827  0.55281  1.0000
  C   C1135     1.0  0.56852  0.10640  0.54581  1.0000
  C   C1136     1.0  0.57928  0.10940  0.57578  1.0000
  C   C1137     1.0  0.57456  0.11423  0.61302  1.0000
  C   C1138     1.0  0.55913  0.11624  0.62023  1.0000
  C   C1139     1.0  0.54837  0.11339  0.59022  1.0000
  H   H898      1.0  0.57597  0.14891  0.42446  1.0000
  H   H899      1.0  0.58406  0.13146  0.37518  1.0000
  H   H900      1.0  0.57239  0.10180  0.38583  1.0000
  H   H901      1.0  0.55265  0.08959  0.44413  1.0000
  H   H902      1.0  0.55626  0.13679  0.48401  1.0000
  H   H903      1.0  0.55298  0.21204  0.17166  1.0000
  C   C1140     1.0  0.57435  0.01197  0.56737  1.0000
  H   H904      1.0  0.60341  0.01370  0.67531  1.0000
  H   H905      1.0  0.51909  0.04829  0.57280  1.0000
  H   H906      1.0  0.53234  0.07763  0.57467  1.0000
  H   H907      1.0  0.51176  0.09661  0.57796  1.0000
  C   C1141     1.0  0.56183  0.00668  0.67791  1.0000
  C   C1142     1.0  0.55675  0.16313  0.86512  1.0000
  C   C1143     1.0  0.56684  0.10023  0.19152  1.0000
  H   H908      1.0  0.52608  0.12384  0.46498  1.0000
  H   H909      1.0  0.57250  0.10269  0.51715  1.0000
  H   H910      1.0  0.59135  0.10802  0.57019  1.0000
  H   H911      1.0  0.58283  0.11633  0.63636  1.0000
  H   H912      1.0  0.55544  0.11981  0.64940  1.0000
  H   H913      1.0  0.53662  0.11520  0.59669  1.0000
  H   H914      1.0  0.60777  0.19861  0.11637  1.0000
  C   C1144     1.0  0.53672  0.11184  0.83814  1.0000
  H   H915      1.0  0.62894  0.02186  0.55614  1.0000
  C   C1145     1.0  0.64352  0.04585  0.53298  1.0000
  C   C1146     1.0  0.57608  0.22775  0.14088  1.0000
  C   C1147     1.0  0.58393  0.10329  0.18993  1.0000
  H   H916      1.0  0.55082  0.02520  0.68338  1.0000
  H   H917      1.0  0.50879  0.03585  0.51016  1.0000
  C   C1148     1.0  0.52450  0.05721  0.15524  1.0000
  H   H918      1.0  0.67364  0.05942  0.56504  1.0000
  C   C1149     1.0  0.57671  0.00349  0.67521  1.0000
  C   C1150     1.0  0.58977  0.00616  0.27597  1.0000
  H   H919      1.0  0.53351  0.00642  0.78749  1.0000
  C   C1151     1.0  0.69971  0.21413  0.86974  1.0000
  C   C1152     1.0  0.58381  0.14098  0.94140  1.0000
  C   C1153     1.0  0.50812  0.05147  0.17343  1.0000
  H   H920      1.0  0.58336  0.00781  0.89932  1.0000
  C   C1154     1.0  0.51488  0.05854  0.47754  1.0000
  C   C1155     1.0  0.53425  0.04886  0.75562  1.0000
  H   H921      1.0  0.50332  0.13674  0.91013  1.0000
  S   S168      1.0  0.50160  0.05790  0.65108  1.0000
  C   C1156     1.0  0.55212  0.09029  0.81044  1.0000
  H   H922      1.0  0.53676  0.21157  0.11401  1.0000
  H   H923      1.0  0.58428  0.00367  0.08181  1.0000
  C   C1157     1.0  0.60509  0.16415  0.74945  1.0000
  C   C1158     1.0  0.62447  0.99970  0.47633  1.0000
  C   C1159     1.0  0.50387  0.12437  0.49840  1.0000
  P   P38       1.0  0.55061  0.02102  0.44367  1.0000
  C   C1160     1.0  0.55268  0.03606  0.48078  1.0000
  C   C1161     1.0  0.57107  0.02170  0.42316  1.0000
  H   H924      1.0  0.53010  0.04892  0.14212  1.0000
  C   C1162     1.0  0.55165  0.03193  0.52164  1.0000
  C   C1163     1.0  0.55514  0.04390  0.54980  1.0000
  C   C1164     1.0  0.55670  0.05228  0.46870  1.0000
  C   C1165     1.0  0.54042  0.02566  0.40288  1.0000
  C   C1166     1.0  0.54712  0.02602  0.36285  1.0000
  C   C1167     1.0  0.53952  0.03026  0.33179  1.0000
  C   C1168     1.0  0.52511  0.03401  0.34019  1.0000
  C   C1169     1.0  0.51848  0.03393  0.37977  1.0000
  C   C1170     1.0  0.52612  0.02982  0.41103  1.0000
  C   C1171     1.0  0.60669  0.20388  0.14491  1.0000
  C   C1172     1.0  0.67187  0.12850  0.54399  1.0000
  C   C1173     1.0  0.72075  0.17777  0.97459  1.0000
  C   C1174     1.0  0.52788  0.11411  0.05890  1.0000
  H   H925      1.0  0.58393  0.04631  0.43889  1.0000
  C   C1175     1.0  0.51800  0.00311  0.59200  1.0000
  H   H926      1.0  0.54859  0.01955  0.53170  1.0000
  P   P39       1.0  0.56644  0.13843  0.83106  1.0000
  H   H927      1.0  0.56170  0.14170  0.91839  1.0000
  H   H928      1.0  0.55846  0.02354  0.35507  1.0000
  H   H929      1.0  0.54525  0.03127  0.30126  1.0000
  H   H930      1.0  0.51946  0.03764  0.31608  1.0000
  H   H931      1.0  0.50778  0.03765  0.38605  1.0000
  H   H932      1.0  0.52108  0.03017  0.44156  1.0000
  C   C1176     1.0  0.61708  0.02175  0.17923  1.0000
  C   C1177     1.0  0.66585  0.09697  0.51938  1.0000
  P   P40       1.0  0.49902  0.00558  0.79508  1.0000
  H   H933      1.0  0.52325  0.02560  0.23115  1.0000
  C   C1178     1.0  0.55787  0.22687  0.07584  1.0000
  C   C1179     1.0  0.53045  0.13056  0.05788  1.0000
  C   C1180     1.0  0.68226  0.07383  0.50954  1.0000
  H   H934      1.0  0.64310  0.06678  0.34652  1.0000
  H   H935      1.0  0.70705  0.15822  0.01705  1.0000
  C   C1181     1.0  0.63896  0.07594  0.40433  1.0000
  C   C1182     1.0  0.55964  0.06004  0.53737  1.0000
  H   H936      1.0  0.59805  0.16494  0.81221  1.0000
  H   H937      1.0  0.61330  0.02574  0.36282  1.0000
  C   C1183     1.0  0.51854  0.02127  0.77860  1.0000
  H   H938      1.0  0.53451  0.06067  0.74627  1.0000
  H   H939      1.0  0.60901  0.03073  0.59953  1.0000
  H   H940      1.0  0.55813  0.08209  0.79861  1.0000
  H   H941      1.0  0.56272  0.06937  0.55904  1.0000
  C   C1184     1.0  0.59637  0.19467  0.17764  1.0000
  H   H942      1.0  0.56728  0.15992  0.10216  1.0000
  H   H943      1.0  0.52294  0.17436  0.85780  1.0000
  H   H944      1.0  0.61701  0.13628  0.88639  1.0000
  H   H945      1.0  0.66581  0.09106  0.58212  1.0000
  C   C1185     1.0  0.58569  0.14374  0.71351  1.0000
  H   H946      1.0  0.71210  0.20552  0.05605  1.0000
  H   H947      1.0  0.56235  0.99777  0.40011  1.0000
  C   C1186     1.0  0.53379  0.07367  0.15447  1.0000
  C   C1187     1.0  0.59464  0.01239  0.51180  1.0000
  C   C1188     1.0  0.58397  0.06477  0.14184  1.0000
  C   C1189     1.0  0.54879  0.03061  0.76863  1.0000
  H   H948      1.0  0.60378  0.01923  0.48809  1.0000
  H   H949      1.0  0.70216  0.17596  0.06949  1.0000
  C   C1190     1.0  0.65709  0.07391  0.45371  1.0000
  C   C1191     1.0  0.59192  0.01621  0.67646  1.0000
  C   C1192     1.0  0.59514  0.20202  0.21410  1.0000
  C   C1193     1.0  0.53449  0.13935  0.09204  1.0000
  C   C1194     1.0  0.60445  0.21827  0.21794  1.0000
  C   C1195     1.0  0.51901  0.03665  0.76639  1.0000
  H   H950      1.0  0.56771  0.14061  0.20627  1.0000
  H   H951      1.0  0.57537  0.12384  0.25470  1.0000
  H   H952      1.0  0.58674  0.07454  0.16218  1.0000
  C   C1196     1.0  0.50120  0.99803  0.58562  1.0000
  C   C1197     1.0  0.57290  0.00869  0.40196  1.0000
  H   H953      1.0  0.55307  0.00238  0.89925  1.0000
  H   H954      1.0  0.57653  0.00234  0.27415  1.0000
  C   C1198     1.0  0.57170  0.12065  0.13907  1.0000
  C   C1199     1.0  0.61330  0.16294  0.08147  1.0000
  C   C1200     1.0  0.60234  0.15757  0.05226  1.0000
  C   C1201     1.0  0.60774  0.16749  0.11831  1.0000
  C   C1202     1.0  0.58948  0.16170  0.21114  1.0000
  C   C1203     1.0  0.57903  0.14574  0.22049  1.0000
  C   C1204     1.0  0.58332  0.13618  0.24775  1.0000
  C   C1205     1.0  0.59825  0.14232  0.26501  1.0000
  C   C1206     1.0  0.60888  0.15806  0.25528  1.0000
  C   C1207     1.0  0.60456  0.16773  0.22842  1.0000
  H   H955      1.0  0.62617  0.16375  0.07545  1.0000
  H   H956      1.0  0.60681  0.15450  0.02330  1.0000
  C   C1208     1.0  0.63386  0.06709  0.55758  1.0000
  H   H957      1.0  0.55724  0.16099  0.23884  1.0000
  C   C1209     1.0  0.58489  0.03591  0.42368  1.0000
  H   H958      1.0  0.51758  0.01834  0.86305  1.0000
  C   C1210     1.0  0.57695  0.03937  0.08974  1.0000
  C   C1211     1.0  0.54914  0.04589  0.75676  1.0000
  C   C1212     1.0  0.57928  0.13886  0.87102  1.0000
  H   H959      1.0  0.63743  0.01978  0.28212  1.0000
  C   C1213     1.0  0.57371  0.14050  0.91084  1.0000
  C   C1214     1.0  0.57578  0.03610  0.13112  1.0000
  C   C1215     1.0  0.58575  0.15647  0.06021  1.0000
  H   H960      1.0  0.57728  0.15258  0.03744  1.0000
  C   C1216     1.0  0.59116  0.16680  0.12621  1.0000
  H   H961      1.0  0.59796  0.22700  0.97863  1.0000
  C   C1217     1.0  0.60009  0.03723  0.40246  1.0000
  H   H962      1.0  0.56035  0.02824  0.76866  1.0000
  H   H963      1.0  0.61044  0.04846  0.40172  1.0000
  P   P41       1.0  0.58468  0.17361  0.17344  1.0000
  C   C1218     1.0  0.58014  0.16096  0.09707  1.0000
  C   C1219     1.0  0.60166  0.02445  0.38046  1.0000
  C   C1220     1.0  0.71156  0.07997  0.48706  1.0000
  P   P42       1.0  0.66280  0.07675  0.50413  1.0000
  C   C1221     1.0  0.59949  0.13965  0.93257  1.0000
  C   C1222     1.0  0.53485  0.08501  0.81921  1.0000
  H   H964      1.0  0.49861  0.07870  0.03148  1.0000
  C   C1223     1.0  0.64562  0.06227  0.53423  1.0000
  C   C1224     1.0  0.53356  0.01829  0.77917  1.0000
  C   C1225     1.0  0.58817  0.01202  0.16497  1.0000
  H   H965      1.0  0.58713  0.19513  0.23961  1.0000
  H   H966      1.0  0.51775  0.02888  0.66644  1.0000
  C   C1226     1.0  0.55002  0.21830  0.11153  1.0000
  H   H967      1.0  0.57963  0.14284  0.97174  1.0000
  H   H968      1.0  0.56093  0.05540  0.74791  1.0000
  S   S169      1.0  0.51911  0.22652  0.02739  1.0000
  C   C1227     1.0  0.61594  0.22010  0.14872  1.0000
  H   H969      1.0  0.62400  0.22698  0.12317  1.0000
  H   H970      1.0  0.60361  0.22384  0.24627  1.0000
  C   C1228     1.0  0.52243  0.09129  0.93610  1.0000
  C   C1229     1.0  0.52715  0.09578  0.83316  1.0000
  C   C1230     1.0  0.61491  0.22729  0.18529  1.0000
  C   C1231     1.0  0.55255  0.16517  0.21380  1.0000
  H   H971      1.0  0.55795  0.05587  0.43727  1.0000
  H   H972      1.0  0.67053  0.11871  0.60359  1.0000
  C   C1232     1.0  0.64354  0.02143  0.43226  1.0000
  C   C1233     1.0  0.56301  0.17201  0.17875  1.0000
  C   C1234     1.0  0.50101  0.06219  0.19076  1.0000
  H   H973      1.0  0.51371  0.09180  0.83943  1.0000
  C   C1235     1.0  0.56168  0.10645  0.81450  1.0000
  H   H974      1.0  0.56213  0.20989  0.89458  1.0000
  C   C1236     1.0  0.55707  0.22601  0.93739  1.0000
  C   C1237     1.0  0.66807  0.10950  0.49112  1.0000
  C   C1238     1.0  0.64698  0.06872  0.37644  1.0000
  H   H975      1.0  0.50986  0.05338  0.45039  1.0000
  H   H976      1.0  0.57498  0.11045  0.80593  1.0000
  H   H977      1.0  0.56757  0.16616  0.88155  1.0000
  H   H978      1.0  0.57869  0.04675  0.18905  1.0000
  H   H979      1.0  0.50416  0.12991  0.25809  1.0000
  H   H980      1.0  0.62884  0.07959  0.39614  1.0000
  C   C1239     1.0  0.51328  0.99843  0.90457  1.0000
  C   C1240     1.0  0.71071  0.18790  0.87239  1.0000
  C   C1241     1.0  0.56023  0.06418  0.49692  1.0000
  H   H981      1.0  0.55464  0.24150  0.98425  1.0000
  H   H982      1.0  0.51623  0.16801  0.18791  1.0000
  H   H983      1.0  0.66426  0.00983  0.50104  1.0000
  H   H984      1.0  0.53053  0.11981  0.84999  1.0000
  C   C1242     1.0  0.53979  0.17684  0.15168  1.0000
  C   C1243     1.0  0.52933  0.16935  0.18577  1.0000
  C   C1244     1.0  0.55665  0.17852  0.14850  1.0000
  C   C1245     1.0  0.55401  0.11743  0.82767  1.0000
  C   C1246     1.0  0.51028  0.07861  0.19012  1.0000
  H   H985      1.0  0.53473  0.18132  0.12776  1.0000
  H   H986      1.0  0.56465  0.18473  0.12215  1.0000
  H   H987      1.0  0.52775  0.15853  0.24413  1.0000
  H   H988      1.0  0.50255  0.11377  0.86744  1.0000
  H   H989      1.0  0.72705  0.21722  0.99063  1.0000
  C   C1247     1.0  0.53579  0.16383  0.21715  1.0000
  C   C1248     1.0  0.62065  0.05567  0.58073  1.0000
  C   C1249     1.0  0.57074  0.99547  0.57362  1.0000
  H   H990      1.0  0.58272  0.05777  0.04269  1.0000
  H   H991      1.0  0.53783  0.13950  0.79164  1.0000
  H   H992      1.0  0.67205  0.13472  0.48186  1.0000
  C   C1250     1.0  0.53220  0.11469  0.29063  1.0000
  C   C1251     1.0  0.51147  0.00549  0.86872  1.0000
  H   H993      1.0  0.66749  0.10726  0.45961  1.0000
  H   H994      1.0  0.54523  0.11141  0.92363  1.0000
  H   H995      1.0  0.61736  0.01106  0.42757  1.0000
  H   H996      1.0  0.60913  0.16031  0.68661  1.0000
  H   H997      1.0  0.54616  0.03202  0.17739  1.0000
  H   H998      1.0  0.60879  0.23292  0.04141  1.0000
  H   H999      1.0  0.65221  0.04190  0.51430  1.0000
  H   H1000     1.0  0.66931  0.02923  0.44343  1.0000
  C   C1252     1.0  0.65994  0.06393  0.38716  1.0000
  H   H1001     1.0  0.54788  0.18045  0.89498  1.0000
  C   C1253     1.0  0.64388  0.07839  0.44291  1.0000
  C   C1254     1.0  0.52023  0.12209  0.29199  1.0000
  C   C1255     1.0  0.67014  0.11618  0.57211  1.0000
  H   H1002     1.0  0.72498  0.06946  0.52306  1.0000
  H   H1003     1.0  0.52638  0.99830  0.57468  1.0000
  S   S170      1.0  0.70760  0.23706  0.97423  1.0000
  H   H1004     1.0  0.67353  0.14054  0.55375  1.0000
  C   C1256     1.0  0.63786  0.99948  0.49696  1.0000
  C   C1257     1.0  0.68398  0.06485  0.54243  1.0000
  C   C1258     1.0  0.52526  0.11887  0.94961  1.0000
  C   C1259     1.0  0.59476  0.13681  0.86269  1.0000
  H   H1005     1.0  0.63740  0.08383  0.46435  1.0000
  C   C1260     1.0  0.57737  0.23603  0.98531  1.0000
  C   C1261     1.0  0.66726  0.10049  0.55985  1.0000
  H   H1006     1.0  0.53645  0.11185  0.31818  1.0000
  H   H1007     1.0  0.50459  0.08671  0.20390  1.0000
  H   H1008     1.0  0.66606  0.05829  0.36538  1.0000
  C   C1262     1.0  0.66490  0.06635  0.42581  1.0000
  H   H1009     1.0  0.53273  0.13157  0.94853  1.0000
  C   C1263     1.0  0.67091  0.12518  0.50351  1.0000
  C   C1264     1.0  0.63035  0.03448  0.55642  1.0000
  C   C1265     1.0  0.58879  0.12339  0.13686  1.0000
  H   H1010     1.0  0.56815  0.01823  0.58714  1.0000
  H   H1011     1.0  0.69533  0.08926  0.45787  1.0000
  H   H1012     1.0  0.54672  0.10385  0.25450  1.0000
  C   C1266     1.0  0.61904  0.03944  0.58065  1.0000
  H   H1013     1.0  0.51467  0.00176  0.45478  1.0000
  H   H1014     1.0  0.72230  0.08604  0.46597  1.0000
  C   C1267     1.0  0.69625  0.08169  0.48242  1.0000
  H   H1015     1.0  0.63484  0.07961  0.55824  1.0000
  H   H1016     1.0  0.59922  0.13494  0.83252  1.0000
  C   C1268     1.0  0.53885  0.00129  0.46640  1.0000
  H   H1017     1.0  0.55469  0.04079  0.58122  1.0000
  C   C1269     1.0  0.54574  0.17155  0.87234  1.0000
  C   C1270     1.0  0.57966  0.14566  0.78498  1.0000
  H   H1018     1.0  0.53607  0.15204  0.09126  1.0000
  H   H1019     1.0  0.52078  0.00581  0.92615  1.0000
  C   C1271     1.0  0.60486  0.13737  0.89329  1.0000
  C   C1272     1.0  0.54434  0.02205  0.19819  1.0000
  C   C1273     1.0  0.71212  0.17115  0.01164  1.0000
  H   H1020     1.0  0.70059  0.05628  0.57255  1.0000
  H   H1021     1.0  0.49389  0.01175  0.32793  1.0000
  C   C1274     1.0  0.51415  0.04877  0.51109  1.0000
  C   C1275     1.0  0.61690  0.00595  0.18202  1.0000
  C   C1276     1.0  0.55356  0.15086  0.83756  1.0000
  H   H1022     1.0  0.52226  0.08265  0.45285  1.0000
  C   C1277     1.0  0.57936  0.04895  0.15701  1.0000
  C   C1278     1.0  0.60077  0.15646  0.71386  1.0000
  H   H1023     1.0  0.51535  0.12518  0.32050  1.0000
  H   H1024     1.0  0.54550  0.22550  0.92614  1.0000
  C   C1279     1.0  0.51397  0.12479  0.25681  1.0000
  C   C1280     1.0  0.52965  0.10648  0.09389  1.0000
  C   C1281     1.0  0.69131  0.19999  0.85130  1.0000
  H   H1025     1.0  0.56420  0.07670  0.48713  1.0000
  H   H1026     1.0  0.68984  0.17575  0.83952  1.0000
  C   C1282     1.0  0.52916  0.15682  0.82175  1.0000
  H   H1027     1.0  0.56736  0.12755  0.11901  1.0000
  H   H1028     1.0  0.52936  0.13653  0.03060  1.0000
  C   C1283     1.0  0.53653  0.13183  0.12695  1.0000
  C   C1284     1.0  0.53226  0.11330  0.21818  1.0000
  C   C1285     1.0  0.65396  0.01015  0.48520  1.0000
  C   C1286     1.0  0.58164  0.05526  0.07464  1.0000
  H   H1029     1.0  0.57436  0.02975  0.06905  1.0000
  C   C1287     1.0  0.58814  0.01011  0.38063  1.0000
  C   C1288     1.0  0.58109  0.21762  0.93496  1.0000
  C   C1289     1.0  0.71491  0.19781  0.03376  1.0000
  H   H1030     1.0  0.71437  0.17740  0.87449  1.0000
  C   C1290     1.0  0.53809  0.11022  0.25403  1.0000
  C   C1291     1.0  0.53408  0.11529  0.12817  1.0000
  C   C1292     1.0  0.51990  0.12040  0.22012  1.0000
  H   H1031     1.0  0.52467  0.10730  0.03245  1.0000
  C   C1293     1.0  0.56066  0.00120  0.11516  1.0000
  C   C1294     1.0  0.56057  0.10916  0.16696  1.0000
  P   P43       1.0  0.53846  0.10576  0.17147  1.0000
  C   C1295     1.0  0.70928  0.18117  0.04127  1.0000
  C   C1296     1.0  0.53112  0.01831  0.22844  1.0000
  C   C1297     1.0  0.59492  0.11485  0.16259  1.0000
  H   H1032     1.0  0.59738  0.13220  0.11542  1.0000
  C   C1298     1.0  0.62747  0.01080  0.44400  1.0000
  H   H1033     1.0  0.58811  0.21045  0.92195  1.0000
  H   H1034     1.0  0.58893  0.08029  0.08909  1.0000
  H   H1035     1.0  0.50773  0.03939  0.76509  1.0000
  C   C1299     1.0  0.61472  0.99972  0.28013  1.0000
  C   C1300     1.0  0.72347  0.20443  0.99673  1.0000
  C   C1301     1.0  0.65681  0.02108  0.45277  1.0000
  C   C1302     1.0  0.58515  0.06796  0.10070  1.0000
  H   H1036     1.0  0.68025  0.19902  0.83694  1.0000
  C   C1303     1.0  0.58599  0.02035  0.53585  1.0000
  H   H1037     1.0  0.58866  0.09668  0.20997  1.0000
  C   C1304     1.0  0.50851  0.11384  0.96487  1.0000
  P   P44       1.0  0.56986  0.01571  0.15142  1.0000
  C   C1305     1.0  0.59448  0.15891  0.78482  1.0000
  H   H1038     1.0  0.51439  0.12212  0.19364  1.0000
  C   C1306     1.0  0.53227  0.10756  0.93561  1.0000
  C   C1307     1.0  0.58661  0.22704  0.96748  1.0000
  C   C1308     1.0  0.57507  0.13846  0.74883  1.0000
  H   H1039     1.0  0.71972  0.22611  0.90428  1.0000
  H   H1040     1.0  0.54021  0.13896  0.15271  1.0000
  H   H1041     1.0  0.55851  0.09089  0.21202  1.0000
  H   H1042     1.0  0.58233  0.13772  0.68605  1.0000
  H   H1043     1.0  0.60818  0.11717  0.16135  1.0000
  H   H1044     1.0  0.53691  0.01786  0.62640  1.0000
  H   H1045     1.0  0.50096  0.03872  0.17432  1.0000
  C   C1309     1.0  0.52394  0.01413  0.62124  1.0000
  C   C1310     1.0  0.54016  0.14838  0.81443  1.0000
  C   C1311     1.0  0.72673  0.19452  0.96714  1.0000
  C   C1312     1.0  0.71371  0.21524  0.88917  1.0000
  H   H1046     1.0  0.64567  0.02978  0.40691  1.0000
  H   H1047     1.0  0.60757  0.14049  0.95595  1.0000
  Fe  Fe83      1.0  0.50059  0.16937  0.96287  1.0000
  C   C1313     1.0  0.57490  0.23606  0.07239  1.0000
  H   H1048     1.0  0.61677  0.17403  0.74978  1.0000
  H   H1049     1.0  0.58866  0.03314  0.53069  1.0000
  C   C1314     1.0  0.60280  0.02481  0.17080  1.0000
  H   H1050     1.0  0.55050  0.22659  0.05130  1.0000
  H   H1051     1.0  0.52782  0.08263  0.92435  1.0000
  C   C1315     1.0  0.55913  0.21866  0.14399  1.0000
  H   H1052     1.0  0.58306  0.22818  0.16624  1.0000
  H   H1053     1.0  0.52579  0.24323  0.94754  1.0000
  H   H1054     1.0  0.60335  0.03716  0.16935  1.0000
  H   H1055     1.0  0.53518  0.99529  0.14193  1.0000
  C   C1316     1.0  0.55478  0.01278  0.19462  1.0000
  C   C1317     1.0  0.55170  0.99972  0.22177  1.0000
  H   H1056     1.0  0.72228  0.16980  0.95149  1.0000
  C   C1318     1.0  0.58393  0.23658  0.10541  1.0000
  H   H1057     1.0  0.58933  0.00033  0.36290  1.0000
  C   C1319     1.0  0.49619  0.01475  0.63847  1.0000
  H   H1058     1.0  0.56047  0.99701  0.48478  1.0000
  C   C1320     1.0  0.49857  0.09753  0.96576  1.0000
  H   H1059     1.0  0.73136  0.23905  0.03428  1.0000
  H   H1060     1.0  0.72500  0.23723  0.11848  1.0000
  C   C1321     1.0  0.50562  0.08628  0.95102  1.0000
  H   H1061     1.0  0.50332  0.12275  0.97550  1.0000
  H   H1062     1.0  0.51593  0.00090  0.71772  1.0000
  H   H1063     1.0  0.62219  0.23984  0.18826  1.0000
  C   C1322     1.0  0.49559  0.13404  0.88577  1.0000
  P   P45       1.0  0.73660  0.20312  0.91840  1.0000
  C   C1323     1.0  0.57511  0.99593  0.89300  1.0000
  H   H1064     1.0  0.63938  0.24286  0.03544  1.0000
  C   C1324     1.0  0.59162  0.99591  0.51901  1.0000
  C   C1325     1.0  0.53846  0.99602  0.25194  1.0000
  C   C1326     1.0  0.57092  0.99750  0.08456  1.0000
  C   C1327     1.0  0.58807  0.99615  0.16830  1.0000
  H   H1065     1.0  0.49810  0.07365  0.95102  1.0000
  H   H1066     1.0  0.49682  0.12553  0.09764  1.0000
  S   S171      1.0  0.49472  0.15711  0.11815  1.0000
  H   H1067     1.0  0.51745  0.00181  0.27740  1.0000
  H   H1068     1.0  0.50115  0.13155  0.47558  1.0000
  C   C1328     1.0  0.49589  0.10924  0.56174  1.0000
  C   C1329     1.0  0.50172  0.99607  0.84057  1.0000
  C   C1330     1.0  0.52139  0.99519  0.46850  1.0000
  H   H1069     1.0  0.59692  0.24400  0.10425  1.0000
  Fe  Fe84      1.0  0.64240  0.46052  0.00622  1.0000
  S   S172      1.0  0.63255  0.47758  0.03954  1.0000
  S   S173      1.0  0.62236  0.44159  0.97657  1.0000
  Fe  Fe85      1.0  0.67893  0.48196  0.01333  1.0000
  H   H1070     1.0  0.65388  0.46119  0.88325  1.0000
  H   H1071     1.0  0.52873  0.40264  0.14409  1.0000
  Fe  Fe86      1.0  0.65179  0.47943  0.08107  1.0000
  S   S174      1.0  0.64180  0.47640  0.14671  1.0000
  H   H1072     1.0  0.71478  0.47990  0.06598  1.0000
  C   C1331     1.0  0.74125  0.31519  0.25535  1.0000
  S   S175      1.0  0.66059  0.46069  0.05039  1.0000
  S   S176      1.0  0.66110  0.48018  0.96660  1.0000
  Fe  Fe87      1.0  0.53166  0.32390  0.99784  1.0000
  S   S177      1.0  0.54927  0.34595  0.96211  1.0000
  S   S178      1.0  0.53078  0.29974  0.97011  1.0000
  Fe  Fe88      1.0  0.52008  0.34531  0.05755  1.0000
  S   S179      1.0  0.53657  0.36825  0.02553  1.0000
  H   H1073     1.0  0.50118  0.29709  0.92444  1.0000
  Fe  Fe89      1.0  0.52843  0.35596  0.96869  1.0000
  C   C1332     1.0  0.62903  0.48980  0.20931  1.0000
  Fe  Fe90      1.0  0.55594  0.35661  0.02118  1.0000
  S   S180      1.0  0.58237  0.36947  0.03583  1.0000
  H   H1074     1.0  0.59910  0.36934  0.67565  1.0000
  S   S181      1.0  0.54001  0.33403  0.05677  1.0000
  S   S182      1.0  0.51219  0.46586  0.33126  1.0000
  S   S183      1.0  0.58333  0.48342  0.39012  1.0000
  C   C1333     1.0  0.55662  0.43696  0.59212  1.0000
  C   C1334     1.0  0.60388  0.48373  0.94858  1.0000
  C   C1335     1.0  0.52216  0.24675  0.01050  1.0000
  C   C1336     1.0  0.58988  0.48134  0.92814  1.0000
  S   S184      1.0  0.51122  0.44589  0.76202  1.0000
  S   S185      1.0  0.51144  0.40830  0.70059  1.0000
  C   C1337     1.0  0.53121  0.45643  0.73846  1.0000
  C   C1338     1.0  0.54067  0.44816  0.71865  1.0000
  C   C1339     1.0  0.55658  0.45657  0.69984  1.0000
  C   C1340     1.0  0.56311  0.47331  0.70077  1.0000
  C   C1341     1.0  0.55385  0.48165  0.72123  1.0000
  C   C1342     1.0  0.53794  0.47318  0.74035  1.0000
  H   H1075     1.0  0.53591  0.43527  0.71850  1.0000
  H   H1076     1.0  0.56384  0.45015  0.68443  1.0000
  H   H1077     1.0  0.60979  0.28040  0.00739  1.0000
  H   H1078     1.0  0.53075  0.47964  0.75594  1.0000
  C   C1343     1.0  0.53156  0.47056  0.34952  1.0000
  C   C1344     1.0  0.53678  0.45851  0.36436  1.0000
  C   C1345     1.0  0.55257  0.46249  0.37775  1.0000
  C   C1346     1.0  0.56308  0.47851  0.37664  1.0000
  C   C1347     1.0  0.65958  0.48348  0.26704  1.0000
  C   C1348     1.0  0.54180  0.48665  0.34993  1.0000
  H   H1079     1.0  0.52864  0.44616  0.36610  1.0000
  H   H1080     1.0  0.55663  0.45315  0.38858  1.0000
  H   H1081     1.0  0.52624  0.38871  0.74843  1.0000
  C   C1349     1.0  0.55877  0.41891  0.64412  1.0000
  C   C1350     1.0  0.52724  0.27939  0.98694  1.0000
  C   C1351     1.0  0.52394  0.27433  0.02743  1.0000
  C   C1352     1.0  0.52156  0.25820  0.03903  1.0000
  C   C1353     1.0  0.50150  0.41067  0.54197  1.0000
  H   H1082     1.0  0.53764  0.42641  0.64048  1.0000
  C   C1354     1.0  0.52787  0.26795  0.95840  1.0000
  H   H1083     1.0  0.52339  0.28286  0.04990  1.0000
  C   C1355     1.0  0.72571  0.26161  0.11042  1.0000
  H   H1084     1.0  0.51180  0.39381  0.87992  1.0000
  C   C1356     1.0  0.62304  0.44107  0.48814  1.0000
  C   C1357     1.0  0.66841  0.49288  0.23314  1.0000
  C   C1358     1.0  0.49678  0.37521  0.20146  1.0000
  H   H1085     1.0  0.51301  0.31587  0.77434  1.0000
  C   C1359     1.0  0.50914  0.35554  0.86060  1.0000
  C   C1360     1.0  0.61414  0.46669  0.51806  1.0000
  H   H1086     1.0  0.60207  0.34256  0.68220  1.0000
  H   H1087     1.0  0.65532  0.27144  0.01592  1.0000
  C   C1361     1.0  0.72529  0.48115  0.04422  1.0000
  H   H1088     1.0  0.64827  0.45779  0.48268  1.0000
  H   H1089     1.0  0.62365  0.47767  0.22223  1.0000
  H   H1090     1.0  0.51698  0.46500  0.50152  1.0000
  H   H1091     1.0  0.53065  0.47387  0.06171  1.0000
  C   C1362     1.0  0.61077  0.42251  0.99928  1.0000
  C   C1363     1.0  0.61856  0.41334  0.01810  1.0000
  C   C1364     1.0  0.60955  0.39723  0.03044  1.0000
  C   C1365     1.0  0.59270  0.39020  0.02413  1.0000
  C   C1366     1.0  0.58475  0.39957  0.00678  1.0000
  C   C1367     1.0  0.59380  0.41561  0.99401  1.0000
  H   H1092     1.0  0.63171  0.41844  0.02149  1.0000
  H   H1093     1.0  0.61577  0.39003  0.04382  1.0000
  H   H1094     1.0  0.57172  0.39433  0.00233  1.0000
  H   H1095     1.0  0.58767  0.42260  0.97945  1.0000
  H   H1096     1.0  0.58262  0.47114  0.59175  1.0000
  C   C1368     1.0  0.52531  0.25179  0.96998  1.0000
  H   H1097     1.0  0.54739  0.41603  0.74826  1.0000
  C   C1369     1.0  0.58113  0.49282  0.56619  1.0000
  H   H1098     1.0  0.58141  0.41350  0.63968  1.0000
  C   C1370     1.0  0.58122  0.42946  0.59103  1.0000
  S   S186      1.0  0.52382  0.37324  0.92398  1.0000
  C   C1371     1.0  0.61547  0.24545  0.03297  1.0000
  C   C1372     1.0  0.50230  0.35429  0.82366  1.0000
  C   C1373     1.0  0.54504  0.41697  0.46344  1.0000
  H   H1099     1.0  0.71369  0.25810  0.09878  1.0000
  C   C1374     1.0  0.63086  0.46883  0.50666  1.0000
  H   H1100     1.0  0.72731  0.26807  0.93575  1.0000
  H   H1101     1.0  0.53013  0.43467  0.16822  1.0000
  H   H1102     1.0  0.53175  0.48959  0.26623  1.0000
  H   H1103     1.0  0.59397  0.37987  0.94495  1.0000
  H   H1104     1.0  0.64037  0.29014  0.00222  1.0000
  H   H1105     1.0  0.64216  0.45392  0.81853  1.0000
  C   C1375     1.0  0.51318  0.37001  0.88032  1.0000
  C   C1376     1.0  0.65233  0.46513  0.82054  1.0000
  C   C1377     1.0  0.65890  0.46923  0.85700  1.0000
  C   C1378     1.0  0.55751  0.49062  0.36362  1.0000
  C   C1379     1.0  0.57096  0.28592  0.98969  1.0000
  C   C1380     1.0  0.56488  0.29091  0.02532  1.0000
  C   C1381     1.0  0.56473  0.28306  0.06166  1.0000
  C   C1382     1.0  0.57064  0.27019  0.06244  1.0000
  C   C1383     1.0  0.57663  0.26498  0.02669  1.0000
  C   C1384     1.0  0.57697  0.27312  0.99034  1.0000
  C   C1385     1.0  0.54195  0.49495  0.24321  1.0000
  H   H1106     1.0  0.57506  0.41952  0.77057  1.0000
  H   H1107     1.0  0.57274  0.47002  0.46806  1.0000
  C   C1386     1.0  0.61853  0.47975  0.72529  1.0000
  H   H1108     1.0  0.59898  0.46249  0.69713  1.0000
  C   C1387     1.0  0.53949  0.45960  0.14802  1.0000
  H   H1109     1.0  0.61263  0.41153  0.91683  1.0000
  C   C1388     1.0  0.57633  0.44076  0.44665  1.0000
  C   C1389     1.0  0.54990  0.42740  0.62705  1.0000
  C   C1390     1.0  0.63286  0.25108  0.02981  1.0000
  H   H1110     1.0  0.50243  0.47633  0.25800  1.0000
  H   H1111     1.0  0.60304  0.47913  0.09125  1.0000
  H   H1112     1.0  0.54635  0.41292  0.40035  1.0000
  C   C1391     1.0  0.61599  0.27205  0.01385  1.0000
  C   C1392     1.0  0.49972  0.47804  0.50823  1.0000
  C   C1393     1.0  0.57763  0.46847  0.52961  1.0000
  H   H1113     1.0  0.58139  0.39614  0.79437  1.0000
  C   C1394     1.0  0.57452  0.42007  0.62637  1.0000
  C   C1395     1.0  0.58042  0.47680  0.56515  1.0000
  H   H1114     1.0  0.57064  0.29181  0.96153  1.0000
  H   H1115     1.0  0.55989  0.30062  0.02460  1.0000
  H   H1116     1.0  0.55972  0.28679  0.08913  1.0000
  H   H1117     1.0  0.57028  0.26421  0.09089  1.0000
  H   H1118     1.0  0.58163  0.26940  0.96243  1.0000
  H   H1119     1.0  0.60508  0.36492  0.89469  1.0000
  H   H1120     1.0  0.50184  0.37528  0.99186  1.0000
  H   H1121     1.0  0.72965  0.28683  0.10567  1.0000
  C   C1396     1.0  0.51796  0.47873  0.44792  1.0000
  H   H1122     1.0  0.53281  0.40783  0.46988  1.0000
  H   H1123     1.0  0.59333  0.43001  0.57762  1.0000
  H   H1124     1.0  0.54667  0.42338  0.52435  1.0000
  H   H1125     1.0  0.60629  0.49184  0.97310  1.0000
  Fe  Fe91      1.0  0.49682  0.41035  0.27489  1.0000
  H   H1126     1.0  0.52735  0.47478  0.43207  1.0000
  C   C1397     1.0  0.50553  0.36286  0.14238  1.0000
  H   H1127     1.0  0.62612  0.47809  0.95203  1.0000
  C   C1398     1.0  0.53030  0.44331  0.14507  1.0000
  C   C1399     1.0  0.55820  0.38144  0.12628  1.0000
  C   C1400     1.0  0.55176  0.37442  0.16437  1.0000
  C   C1401     1.0  0.55429  0.38390  0.19784  1.0000
  C   C1402     1.0  0.56313  0.40044  0.19321  1.0000
  C   C1403     1.0  0.56875  0.40776  0.15479  1.0000
  C   C1404     1.0  0.56661  0.39803  0.12143  1.0000
  P   P46       1.0  0.58073  0.42900  0.14827  1.0000
  C   C1405     1.0  0.57784  0.43601  0.09986  1.0000
  C   C1406     1.0  0.57432  0.44160  0.18371  1.0000
  C   C1407     1.0  0.55877  0.43594  0.20671  1.0000
  C   C1408     1.0  0.55408  0.44586  0.23401  1.0000
  C   C1409     1.0  0.56463  0.46169  0.23766  1.0000
  C   C1410     1.0  0.57985  0.46763  0.21379  1.0000
  C   C1411     1.0  0.58464  0.45768  0.18680  1.0000
  C   C1412     1.0  0.59144  0.44545  0.07357  1.0000
  C   C1413     1.0  0.58891  0.45049  0.03590  1.0000
  C   C1414     1.0  0.57285  0.44627  0.02433  1.0000
  C   C1415     1.0  0.55923  0.43706  0.05057  1.0000
  C   C1416     1.0  0.56170  0.43200  0.08826  1.0000
  C   C1417     1.0  0.60205  0.43035  0.15056  1.0000
  C   C1418     1.0  0.61082  0.43730  0.18288  1.0000
  C   C1419     1.0  0.62736  0.43828  0.18388  1.0000
  C   C1420     1.0  0.63519  0.43219  0.15292  1.0000
  C   C1421     1.0  0.62639  0.42479  0.12136  1.0000
  C   C1422     1.0  0.60985  0.42377  0.12029  1.0000
  H   H1128     1.0  0.55662  0.37400  0.10045  1.0000
  H   H1129     1.0  0.54482  0.36161  0.16782  1.0000
  H   H1130     1.0  0.54938  0.37838  0.22738  1.0000
  H   H1131     1.0  0.56549  0.40745  0.21961  1.0000
  H   H1132     1.0  0.57161  0.40313  0.09158  1.0000
  H   H1133     1.0  0.55004  0.42396  0.20340  1.0000
  H   H1134     1.0  0.54210  0.44128  0.25193  1.0000
  H   H1135     1.0  0.56094  0.46936  0.25881  1.0000
  H   H1136     1.0  0.58805  0.47993  0.21645  1.0000
  H   H1137     1.0  0.59651  0.46250  0.16854  1.0000
  H   H1138     1.0  0.60403  0.44883  0.08174  1.0000
  H   H1139     1.0  0.59949  0.45735  0.01523  1.0000
  H   H1140     1.0  0.57105  0.44994  0.99478  1.0000
  H   H1141     1.0  0.54678  0.43357  0.04145  1.0000
  H   H1142     1.0  0.55108  0.42469  0.10812  1.0000
  H   H1143     1.0  0.60509  0.44218  0.20705  1.0000
  H   H1144     1.0  0.63431  0.44433  0.20787  1.0000
  H   H1145     1.0  0.64815  0.43338  0.15312  1.0000
  H   H1146     1.0  0.63243  0.42001  0.09743  1.0000
  H   H1147     1.0  0.60320  0.41801  0.09556  1.0000
  C   C1423     1.0  0.61684  0.41657  0.81539  1.0000
  C   C1424     1.0  0.61784  0.41041  0.85311  1.0000
  C   C1425     1.0  0.61184  0.41625  0.88749  1.0000
  C   C1426     1.0  0.60482  0.42824  0.88427  1.0000
  C   C1427     1.0  0.60418  0.43484  0.84661  1.0000
  C   C1428     1.0  0.60997  0.42870  0.81209  1.0000
  P   P47       1.0  0.59458  0.44998  0.84249  1.0000
  C   C1429     1.0  0.57244  0.44004  0.84184  1.0000
  C   C1430     1.0  0.59824  0.46317  0.88411  1.0000
  C   C1431     1.0  0.58703  0.47108  0.89607  1.0000
  C   C1432     1.0  0.57218  0.43780  0.57333  1.0000
  H   H1148     1.0  0.60924  0.49148  0.45746  1.0000
  C   C1433     1.0  0.61513  0.47604  0.93661  1.0000
  C   C1434     1.0  0.61251  0.46600  0.90420  1.0000
  C   C1435     1.0  0.56291  0.44774  0.82385  1.0000
  C   C1436     1.0  0.54579  0.43996  0.82328  1.0000
  C   C1437     1.0  0.53808  0.42444  0.84035  1.0000
  C   C1438     1.0  0.54744  0.41679  0.85880  1.0000
  C   C1439     1.0  0.56452  0.42457  0.85981  1.0000
  C   C1440     1.0  0.60360  0.46194  0.79683  1.0000
  C   C1441     1.0  0.59687  0.45722  0.76051  1.0000
  Fe  Fe92      1.0  0.49969  0.43922  0.32635  1.0000
  H   H1149     1.0  0.52546  0.37895  0.10260  1.0000
  C   C1442     1.0  0.63822  0.49259  0.17142  1.0000
  C   C1443     1.0  0.61793  0.47567  0.79688  1.0000
  H   H1150     1.0  0.62142  0.41196  0.78874  1.0000
  H   H1151     1.0  0.62322  0.40107  0.85583  1.0000
  H   H1152     1.0  0.59997  0.43238  0.91131  1.0000
  H   H1153     1.0  0.60927  0.43327  0.78263  1.0000
  H   H1154     1.0  0.57622  0.46957  0.88039  1.0000
  P   P48       1.0  0.57992  0.44899  0.52612  1.0000
  H   H1155     1.0  0.62646  0.43110  0.47687  1.0000
  H   H1156     1.0  0.62167  0.46051  0.89509  1.0000
  H   H1157     1.0  0.56864  0.45978  0.81027  1.0000
  H   H1158     1.0  0.53845  0.44596  0.80962  1.0000
  H   H1159     1.0  0.52484  0.41841  0.83916  1.0000
  H   H1160     1.0  0.54153  0.40476  0.87225  1.0000
  H   H1161     1.0  0.57141  0.41836  0.87445  1.0000
  H   H1162     1.0  0.58575  0.44686  0.75944  1.0000
  H   H1163     1.0  0.72594  0.32438  0.22207  1.0000
  H   H1164     1.0  0.61105  0.47681  0.52947  1.0000
  H   H1165     1.0  0.56958  0.38751  0.93247  1.0000
  H   H1166     1.0  0.51445  0.42536  0.11000  1.0000
  C   C1444     1.0  0.56887  0.43777  0.48637  1.0000
  H   H1167     1.0  0.67713  0.48056  0.33423  1.0000
  H   H1168     1.0  0.58779  0.32433  0.74104  1.0000
  C   C1445     1.0  0.53060  0.46556  0.08542  1.0000
  C   C1446     1.0  0.51208  0.47324  0.48742  1.0000
  H   H1169     1.0  0.57379  0.47290  0.11822  1.0000
  C   C1447     1.0  0.60685  0.25584  0.02476  1.0000
  H   H1170     1.0  0.51736  0.43169  0.50673  1.0000
  C   C1448     1.0  0.65899  0.47543  0.78673  1.0000
  H   H1171     1.0  0.51154  0.34545  0.87342  1.0000
  H   H1172     1.0  0.73722  0.48730  0.94452  1.0000
  H   H1173     1.0  0.57068  0.33275  0.79326  1.0000
  C   C1449     1.0  0.52141  0.43807  0.11219  1.0000
  H   H1174     1.0  0.58203  0.37796  0.72734  1.0000
  H   H1175     1.0  0.57422  0.43404  0.38537  1.0000
  H   H1176     1.0  0.53036  0.27162  0.92699  1.0000
  C   C1450     1.0  0.51920  0.39127  0.15352  1.0000
  C   C1451     1.0  0.50987  0.47105  0.58366  1.0000
  C   C1452     1.0  0.52332  0.48558  0.58291  1.0000
  C   C1453     1.0  0.53770  0.48625  0.60026  1.0000
  C   C1454     1.0  0.53867  0.47245  0.61853  1.0000
  C   C1455     1.0  0.52524  0.45803  0.61996  1.0000
  C   C1456     1.0  0.51097  0.45725  0.60214  1.0000
  C   C1457     1.0  0.74188  0.31543  0.18307  1.0000
  C   C1458     1.0  0.65403  0.49062  0.30003  1.0000
  C   C1459     1.0  0.57500  0.47620  0.49567  1.0000
  P   P49       1.0  0.58433  0.24835  0.02735  1.0000
  C   C1460     1.0  0.67205  0.48999  0.78951  1.0000
  H   H1177     1.0  0.53672  0.34092  0.75632  1.0000
  C   C1461     1.0  0.49438  0.47874  0.23782  1.0000
  C   C1462     1.0  0.55271  0.41979  0.42425  1.0000
  H   H1178     1.0  0.65397  0.47220  0.75837  1.0000
  S   S187      1.0  0.50331  0.34545  0.11432  1.0000
  C   C1463     1.0  0.50942  0.38283  0.86395  1.0000
  H   H1179     1.0  0.50101  0.44577  0.60239  1.0000
  H   H1180     1.0  0.55600  0.37979  0.87087  1.0000
  S   S188      1.0  0.58237  0.48364  0.67403  1.0000
  C   C1464     1.0  0.62365  0.48514  0.40875  1.0000
  C   C1465     1.0  0.53948  0.47095  0.11866  1.0000
  C   C1466     1.0  0.62533  0.48452  0.76121  1.0000
  H   H1181     1.0  0.54988  0.47293  0.63140  1.0000
  H   H1182     1.0  0.52589  0.44735  0.63453  1.0000
  C   C1467     1.0  0.63340  0.27766  0.01090  1.0000
  H   H1183     1.0  0.51581  0.49292  0.39775  1.0000
  C   C1468     1.0  0.74029  0.48043  0.05681  1.0000
  C   C1469     1.0  0.65181  0.44114  0.39598  1.0000
  C   C1470     1.0  0.64362  0.45111  0.38261  1.0000
  C   C1471     1.0  0.65254  0.46512  0.35906  1.0000
  H   H1184     1.0  0.67536  0.43760  0.39724  1.0000
  C   C1472     1.0  0.57594  0.49228  0.49661  1.0000
  C   C1473     1.0  0.62258  0.46645  0.32379  1.0000
  C   C1474     1.0  0.49510  0.36168  0.17802  1.0000
  C   C1475     1.0  0.59688  0.48774  0.08674  1.0000
  C   C1476     1.0  0.50148  0.41443  0.46973  1.0000
  C   C1477     1.0  0.49941  0.36748  0.80625  1.0000
  H   H1185     1.0  0.65678  0.47060  0.26708  1.0000
  C   C1478     1.0  0.73798  0.48535  0.97598  1.0000
  C   C1479     1.0  0.61014  0.47321  0.32116  1.0000
  C   C1480     1.0  0.59507  0.46431  0.30691  1.0000
  C   C1481     1.0  0.59249  0.44877  0.29398  1.0000
  C   C1482     1.0  0.60509  0.44218  0.29486  1.0000
  C   C1483     1.0  0.62014  0.45103  0.30940  1.0000
  H   H1186     1.0  0.51916  0.25455  0.07046  1.0000
  C   C1484     1.0  0.73633  0.24973  0.01480  1.0000
  C   C1485     1.0  0.50762  0.42010  0.50626  1.0000
  H   H1187     1.0  0.55877  0.49463  0.72160  1.0000
  C   C1486     1.0  0.73070  0.49185  0.81127  1.0000
  C   C1487     1.0  0.58029  0.48430  0.10212  1.0000
  H   H1188     1.0  0.64484  0.43012  0.41326  1.0000
  C   C1488     1.0  0.50274  0.38167  0.82698  1.0000
  H   H1189     1.0  0.58138  0.48764  0.93674  1.0000
  H   H1190     1.0  0.63033  0.44787  0.39036  1.0000
  S   S189      1.0  0.51089  0.41733  0.58626  1.0000
  H   H1191     1.0  0.61316  0.47499  0.40158  1.0000
  C   C1489     1.0  0.64183  0.26717  0.01871  1.0000
  C   C1490     1.0  0.62142  0.49434  0.44104  1.0000
  P   P50       1.0  0.64195  0.47806  0.34258  1.0000
  C   C1491     1.0  0.55302  0.42592  0.49441  1.0000
  H   H1192     1.0  0.67720  0.48650  0.88793  1.0000
  H   H1193     1.0  0.58537  0.46951  0.30626  1.0000
  H   H1194     1.0  0.58078  0.44190  0.28296  1.0000
  H   H1195     1.0  0.60321  0.43025  0.28406  1.0000
  H   H1196     1.0  0.62987  0.44585  0.30903  1.0000
  H   H1197     1.0  0.69141  0.46290  0.35799  1.0000
  C   C1492     1.0  0.72728  0.25184  0.98391  1.0000
  C   C1493     1.0  0.56841  0.43161  0.41590  1.0000
  H   H1198     1.0  0.59690  0.42727  0.49599  1.0000
  C   C1494     1.0  0.73410  0.26614  0.95966  1.0000
  C   C1495     1.0  0.72401  0.48365  0.00363  1.0000
  H   H1199     1.0  0.50757  0.30401  0.84368  1.0000
  S   S190      1.0  0.51214  0.40739  0.21808  1.0000
  H   H1200     1.0  0.52596  0.31757  0.89522  1.0000
  S   S191      1.0  0.51032  0.33355  0.00107  1.0000
  H   H1201     1.0  0.59195  0.35737  0.83221  1.0000
  H   H1202     1.0  0.54896  0.34276  0.87824  1.0000
  H   H1203     1.0  0.53217  0.36526  0.77209  1.0000
  C   C1496     1.0  0.73491  0.27789  0.11383  1.0000
  C   C1497     1.0  0.51742  0.37781  0.12997  1.0000
  H   H1204     1.0  0.55333  0.41133  0.67087  1.0000
  C   C1498     1.0  0.51155  0.48902  0.42875  1.0000
  H   H1205     1.0  0.54662  0.46332  0.17323  1.0000
  C   C1499     1.0  0.67804  0.45956  0.36469  1.0000
  C   C1500     1.0  0.60439  0.46603  0.72493  1.0000
  C   C1501     1.0  0.50898  0.39003  0.18947  1.0000
  C   C1502     1.0  0.60630  0.43892  0.49916  1.0000
  H   H1206     1.0  0.62337  0.47966  0.82437  1.0000
  C   C1503     1.0  0.60170  0.45174  0.51406  1.0000
  H   H1207     1.0  0.54935  0.44321  0.57901  1.0000
  H   H1208     1.0  0.50016  0.46762  0.99642  1.0000
  S   S192      1.0  0.51065  0.41957  0.32844  1.0000
  H   H1209     1.0  0.73706  0.31814  0.15630  1.0000
  H   H1210     1.0  0.50650  0.42162  0.44227  1.0000
  C   C1504     1.0  0.63531  0.45605  0.49160  1.0000
  C   C1505     1.0  0.66901  0.44533  0.38692  1.0000
  H   H1211     1.0  0.58827  0.45020  0.43934  1.0000
  H   H1212     1.0  0.51476  0.44508  0.05666  1.0000
  C   C1506     1.0  0.56585  0.40765  0.77047  1.0000
  C   C1507     1.0  0.55030  0.40567  0.75781  1.0000
  C   C1508     1.0  0.53835  0.39030  0.75810  1.0000
  C   C1509     1.0  0.54180  0.37692  0.77159  1.0000
  C   C1510     1.0  0.55732  0.37884  0.78493  1.0000
  C   C1511     1.0  0.56935  0.39434  0.78408  1.0000
  P   P51       1.0  0.56236  0.36191  0.80263  1.0000
  C   C1512     1.0  0.54429  0.34417  0.81628  1.0000
  C   C1513     1.0  0.57518  0.35606  0.76446  1.0000
  C   C1514     1.0  0.57688  0.34089  0.76780  1.0000
  C   C1515     1.0  0.58659  0.33608  0.73829  1.0000
  C   C1516     1.0  0.59463  0.34635  0.70516  1.0000
  C   C1517     1.0  0.59297  0.36145  0.70153  1.0000
  C   C1518     1.0  0.58327  0.36631  0.73102  1.0000
  C   C1519     1.0  0.54118  0.33724  0.85527  1.0000
  C   C1520     1.0  0.52805  0.32281  0.86503  1.0000
  C   C1521     1.0  0.67203  0.48370  0.85974  1.0000
  C   C1522     1.0  0.52088  0.32185  0.79696  1.0000
  C   C1523     1.0  0.53422  0.33617  0.78697  1.0000
  C   C1524     1.0  0.57317  0.36830  0.84643  1.0000
  C   C1525     1.0  0.56702  0.37689  0.87505  1.0000
  C   C1526     1.0  0.57467  0.38126  0.91012  1.0000
  C   C1527     1.0  0.58837  0.37693  0.91715  1.0000
  C   C1528     1.0  0.59462  0.36846  0.88875  1.0000
  C   C1529     1.0  0.58708  0.36417  0.85340  1.0000
  C   C1530     1.0  0.51779  0.31517  0.83600  1.0000
  H   H1213     1.0  0.61201  0.48534  0.33048  1.0000
  C   C1531     1.0  0.52157  0.44919  0.08231  1.0000
  C   C1532     1.0  0.66988  0.46949  0.35101  1.0000
  P   P52       1.0  0.55179  0.49199  0.12222  1.0000
  C   C1533     1.0  0.67847  0.49437  0.82632  1.0000
  H   H1214     1.0  0.52890  0.48162  0.19624  1.0000
  C   C1534     1.0  0.63912  0.48936  0.38561  1.0000
  H   H1215     1.0  0.62402  0.48687  0.69785  1.0000
  H   H1216     1.0  0.70532  0.48639  0.79957  1.0000
  C   C1535     1.0  0.73209  0.24983  0.12147  1.0000
  H   H1217     1.0  0.67213  0.48725  0.20717  1.0000
  H   H1218     1.0  0.64035  0.48048  0.50928  1.0000
  S   S193      1.0  0.70570  0.48557  0.98585  1.0000
  Fe  Fe93      1.0  0.49713  0.40885  0.64808  1.0000
  C   C1536     1.0  0.73546  0.31889  0.22034  1.0000
  H   H1219     1.0  0.50033  0.39182  0.81430  1.0000
  Fe  Fe94      1.0  0.49814  0.42377  0.72940  1.0000
  H   H1220     1.0  0.50504  0.48926  0.04518  1.0000
  C   C1537     1.0  0.54048  0.49036  0.20361  1.0000
  H   H1221     1.0  0.49950  0.34316  0.80818  1.0000
  C   C1538     1.0  0.49930  0.49390  0.44921  1.0000
  H   H1222     1.0  0.49810  0.49115  0.62857  1.0000
  H   H1223     1.0  0.74107  0.47853  0.08828  1.0000
  H   H1224     1.0  0.73626  0.31786  0.28421  1.0000
  C   C1539     1.0  0.49638  0.47733  0.05375  1.0000
  H   H1225     1.0  0.73150  0.48080  0.79920  1.0000
  Fe  Fe95      1.0  0.61963  0.53172  0.30366  1.0000
  S   S194      1.0  0.59278  0.51666  0.30850  1.0000
  S   S195      1.0  0.63540  0.53522  0.24433  1.0000
  Fe  Fe96      1.0  0.61729  0.54207  0.38981  1.0000
  S   S196      1.0  0.59006  0.52825  0.40175  1.0000
  S   S197      1.0  0.63325  0.55814  0.43279  1.0000
  H   H1226     1.0  0.51810  0.62905  0.93168  1.0000
  Fe  Fe97      1.0  0.58810  0.53709  0.34023  1.0000
  S   S198      1.0  0.56482  0.54135  0.32568  1.0000
  S   S199      1.0  0.62420  0.52202  0.36164  1.0000
  S   S200      1.0  0.61485  0.55304  0.33098  1.0000
  Fe  Fe98      1.0  0.61520  0.54221  0.67142  1.0000
  S   S201      1.0  0.58797  0.52932  0.66961  1.0000
  S   S202      1.0  0.63203  0.55890  0.62197  1.0000
  Fe  Fe99      1.0  0.61579  0.52812  0.75556  1.0000
  S   S203      1.0  0.58833  0.51409  0.76036  1.0000
  S   S204      1.0  0.63475  0.52395  0.79374  1.0000
  C   C1540     1.0  0.54389  0.60189  0.44050  1.0000
  Fe  Fe100     1.0  0.58560  0.53637  0.73329  1.0000
  S   S205      1.0  0.56277  0.54288  0.75247  1.0000
  S   S206      1.0  0.62034  0.52062  0.69285  1.0000
  S   S207      1.0  0.61281  0.55112  0.73369  1.0000
  Fe  Fe101     1.0  0.52185  0.62647  0.59275  1.0000
  S   S208      1.0  0.51559  0.60064  0.61205  1.0000
  S   S209      1.0  0.53353  0.63456  0.52896  1.0000
  Fe  Fe102     1.0  0.51675  0.63598  0.68116  1.0000
  S   S210      1.0  0.51119  0.61082  0.70553  1.0000
  C   C1541     1.0  0.53899  0.73462  0.26124  1.0000
  Fe  Fe103     1.0  0.53209  0.60988  0.66061  1.0000
  S   S211      1.0  0.55517  0.60308  0.66354  1.0000
  C   C1542     1.0  0.59683  0.60985  0.80579  1.0000
  S   S212      1.0  0.53899  0.63580  0.64033  1.0000
  C   C1543     1.0  0.71110  0.53693  0.77003  1.0000
  Fe  Fe104     1.0  0.51966  0.62254  0.22156  1.0000
  S   S213      1.0  0.52115  0.63353  0.15923  1.0000
  Fe  Fe105     1.0  0.54127  0.61183  0.27491  1.0000
  S   S214      1.0  0.51965  0.59754  0.31799  1.0000
  S   S215      1.0  0.56699  0.61179  0.28279  1.0000
  C   C1544     1.0  0.62975  0.52651  0.91533  1.0000
  Fe  Fe106     1.0  0.51100  0.61853  0.31260  1.0000
  C   C1545     1.0  0.69659  0.54986  0.73066  1.0000
  S   S216      1.0  0.52911  0.60178  0.22040  1.0000
  S   S217      1.0  0.53386  0.63387  0.27337  1.0000
  C   C1546     1.0  0.50783  0.62696  0.41307  1.0000
  C   C1547     1.0  0.52518  0.63290  0.41188  1.0000
  C   C1548     1.0  0.53277  0.63553  0.44769  1.0000
  C   C1549     1.0  0.52318  0.63149  0.48502  1.0000
  C   C1550     1.0  0.50583  0.62521  0.48626  1.0000
  H   H1227     1.0  0.52209  0.59605  0.52098  1.0000
  H   H1228     1.0  0.53274  0.63592  0.38338  1.0000
  H   H1229     1.0  0.54619  0.64061  0.44639  1.0000
  C   C1551     1.0  0.51670  0.66862  0.27043  1.0000
  H   H1230     1.0  0.56520  0.61564  0.74165  1.0000
  C   C1552     1.0  0.56058  0.55919  0.72592  1.0000
  C   C1553     1.0  0.54464  0.55971  0.72200  1.0000
  C   C1554     1.0  0.54274  0.57288  0.70186  1.0000
  C   C1555     1.0  0.55675  0.58590  0.68724  1.0000
  C   C1556     1.0  0.57265  0.58538  0.69129  1.0000
  C   C1557     1.0  0.57457  0.57198  0.71003  1.0000
  H   H1231     1.0  0.53376  0.54982  0.73414  1.0000
  H   H1232     1.0  0.53051  0.57298  0.69748  1.0000
  H   H1233     1.0  0.58355  0.59541  0.67987  1.0000
  H   H1234     1.0  0.58689  0.57174  0.71313  1.0000
  C   C1558     1.0  0.56621  0.56103  0.31222  1.0000
  C   C1559     1.0  0.58057  0.57429  0.31597  1.0000
  C   C1560     1.0  0.58086  0.58991  0.30658  1.0000
  C   C1561     1.0  0.56679  0.59226  0.29362  1.0000
  C   C1562     1.0  0.55256  0.57895  0.28940  1.0000
  C   C1563     1.0  0.55228  0.56341  0.29870  1.0000
  H   H1235     1.0  0.59134  0.57257  0.32663  1.0000
  H   H1236     1.0  0.59190  0.60018  0.30988  1.0000
  H   H1237     1.0  0.54170  0.58061  0.27908  1.0000
  H   H1238     1.0  0.54112  0.55324  0.29598  1.0000
  C   C1564     1.0  0.63229  0.55633  0.48548  1.0000
  C   C1565     1.0  0.61978  0.54430  0.50955  1.0000
  C   C1566     1.0  0.61955  0.54446  0.55187  1.0000
  C   C1567     1.0  0.63181  0.55663  0.56972  1.0000
  C   C1568     1.0  0.64428  0.56828  0.54528  1.0000
  C   C1569     1.0  0.64451  0.56814  0.50368  1.0000
  H   H1239     1.0  0.61023  0.53517  0.49569  1.0000
  H   H1240     1.0  0.60978  0.53547  0.57061  1.0000
  H   H1241     1.0  0.65374  0.57771  0.55868  1.0000
  H   H1242     1.0  0.65417  0.57746  0.48546  1.0000
  C   C1570     1.0  0.64521  0.50830  0.15502  1.0000
  C   C1571     1.0  0.50758  0.64127  0.79495  1.0000
  C   C1572     1.0  0.60571  0.50243  0.06629  1.0000
  C   C1573     1.0  0.56361  0.63775  0.71950  1.0000
  H   H1243     1.0  0.54871  0.51112  0.42146  1.0000
  H   H1244     1.0  0.51145  0.63193  0.78141  1.0000
  H   H1245     1.0  0.61220  0.54305  0.20064  1.0000
  H   H1246     1.0  0.54123  0.63702  0.97486  1.0000
  C   C1574     1.0  0.50657  0.64442  0.10159  1.0000
  H   H1247     1.0  0.65212  0.51301  0.32180  1.0000
  H   H1248     1.0  0.51564  0.64191  0.08067  1.0000
  C   C1575     1.0  0.57947  0.61561  0.48770  1.0000
  H   H1249     1.0  0.54826  0.51658  0.54810  1.0000
  H   H1250     1.0  0.59331  0.60016  0.50164  1.0000
  C   C1576     1.0  0.63513  0.51852  0.21568  1.0000
  C   C1577     1.0  0.64376  0.52122  0.17723  1.0000
  S   S218      1.0  0.64218  0.51603  0.97863  1.0000
  H   H1251     1.0  0.56781  0.63913  0.55596  1.0000
  C   C1578     1.0  0.68645  0.53191  0.95566  1.0000
  H   H1252     1.0  0.64978  0.53341  0.16502  1.0000
  C   C1579     1.0  0.56687  0.60346  0.81786  1.0000
  H   H1253     1.0  0.54478  0.66086  0.77042  1.0000
  C   C1580     1.0  0.62745  0.52801  0.87462  1.0000
  C   C1581     1.0  0.51201  0.57607  0.77287  1.0000
  H   H1254     1.0  0.54815  0.49738  0.59971  1.0000
  C   C1582     1.0  0.61543  0.56524  0.23008  1.0000
  H   H1255     1.0  0.62119  0.53595  0.86528  1.0000
  C   C1583     1.0  0.60802  0.55325  0.20414  1.0000
  C   C1584     1.0  0.59536  0.55447  0.18258  1.0000
  C   C1585     1.0  0.63474  0.50747  0.45136  1.0000
  H   H1256     1.0  0.51746  0.71315  0.27019  1.0000
  C   C1586     1.0  0.63857  0.51683  0.92764  1.0000
  S   S219      1.0  0.49797  0.62481  0.36847  1.0000
  H   H1257     1.0  0.65151  0.50089  0.90801  1.0000
  C   C1587     1.0  0.62737  0.50273  0.23127  1.0000
  H   H1258     1.0  0.50243  0.67648  0.77131  1.0000
  H   H1259     1.0  0.60508  0.52527  0.04626  1.0000
  H   H1260     1.0  0.64766  0.50358  0.83667  1.0000
  C   C1588     1.0  0.52801  0.52247  0.67336  1.0000
  C   C1589     1.0  0.54962  0.51867  0.44697  1.0000
  H   H1261     1.0  0.53107  0.51042  0.15613  1.0000
  H   H1262     1.0  0.71759  0.51680  0.03565  1.0000
  H   H1263     1.0  0.54534  0.61220  0.45858  1.0000
  C   C1590     1.0  0.68120  0.53764  0.92242  1.0000
  C   C1591     1.0  0.68409  0.53223  0.88438  1.0000
  C   C1592     1.0  0.59804  0.51382  0.06170  1.0000
  C   C1593     1.0  0.54776  0.51202  0.48572  1.0000
  H   H1264     1.0  0.60955  0.55983  0.03952  1.0000
  C   C1594     1.0  0.65707  0.50725  0.29810  1.0000
  H   H1265     1.0  0.54969  0.51559  0.67311  1.0000
  Fe  Fe107     1.0  0.59283  0.50841  0.69647  1.0000
  H   H1266     1.0  0.53288  0.68581  0.03619  1.0000
  H   H1267     1.0  0.67433  0.54583  0.92639  1.0000
  H   H1268     1.0  0.67947  0.53656  0.85949  1.0000
  C   C1595     1.0  0.55541  0.58428  0.40323  1.0000
  C   C1596     1.0  0.57909  0.50062  0.53180  1.0000
  C   C1597     1.0  0.64253  0.50996  0.85846  1.0000
  H   H1269     1.0  0.53366  0.52722  0.24418  1.0000
  H   H1270     1.0  0.56778  0.63282  0.95296  1.0000
  C   C1598     1.0  0.52809  0.59312  0.42970  1.0000
  C   C1599     1.0  0.52801  0.58740  0.52745  1.0000
  C   C1600     1.0  0.58307  0.61484  0.81291  1.0000
  C   C1601     1.0  0.63414  0.51997  0.84584  1.0000
  H   H1271     1.0  0.50845  0.53205  0.66701  1.0000
  C   C1602     1.0  0.66609  0.51665  0.26437  1.0000
  H   H1272     1.0  0.49832  0.62223  0.51484  1.0000
  C   C1603     1.0  0.68116  0.52946  0.78176  1.0000
  C   C1604     1.0  0.56992  0.51325  0.22400  1.0000
  C   C1605     1.0  0.72858  0.52022  0.84327  1.0000
  H   H1273     1.0  0.58597  0.54904  0.99851  1.0000
  C   C1606     1.0  0.54340  0.52207  0.65702  1.0000
  C   C1607     1.0  0.57847  0.58210  0.80843  1.0000
  H   H1274     1.0  0.66069  0.52147  0.43772  1.0000
  H   H1275     1.0  0.72792  0.53122  0.85600  1.0000
  C   C1608     1.0  0.56090  0.62556  0.74875  1.0000
  C   C1609     1.0  0.54686  0.63900  0.79412  1.0000
  C   C1610     1.0  0.53148  0.61993  0.88605  1.0000
  C   C1611     1.0  0.52446  0.52118  0.10630  1.0000
  C   C1612     1.0  0.52588  0.57969  0.40647  1.0000
  C   C1613     1.0  0.58121  0.62337  0.56863  1.0000
  H   H1276     1.0  0.50398  0.59503  0.12109  1.0000
  H   H1277     1.0  0.56583  0.58110  0.39053  1.0000
  H   H1278     1.0  0.63015  0.61081  0.35659  1.0000
  H   H1279     1.0  0.51802  0.53633  0.34908  1.0000
  P   P53       1.0  0.54917  0.61016  0.82389  1.0000
  H   H1280     1.0  0.66993  0.54198  0.74488  1.0000
  C   C1614     1.0  0.54265  0.63147  0.94674  1.0000
  H   H1281     1.0  0.53290  0.59701  0.75241  1.0000
  C   C1615     1.0  0.61960  0.60413  0.37753  1.0000
  H   H1282     1.0  0.51133  0.56832  0.49685  1.0000
  C   C1616     1.0  0.52152  0.58322  0.84963  1.0000
  C   C1617     1.0  0.55762  0.62915  0.93429  1.0000
  C   C1618     1.0  0.54661  0.61790  0.87282  1.0000
  C   C1619     1.0  0.61810  0.58879  0.39187  1.0000
  C   C1620     1.0  0.50765  0.56970  0.84402  1.0000
  C   C1621     1.0  0.56779  0.55182  0.04401  1.0000
  H   H1283     1.0  0.52703  0.66624  0.28190  1.0000
  H   H1284     1.0  0.55763  0.54759  0.02556  1.0000
  Fe  Fe108     1.0  0.59663  0.50898  0.36919  1.0000
  H   H1285     1.0  0.54535  0.49926  0.49027  1.0000
  C   C1622     1.0  0.50630  0.68435  0.22714  1.0000
  H   H1286     1.0  0.52247  0.51630  0.70197  1.0000
  P   P54       1.0  0.69528  0.51316  0.83068  1.0000
  C   C1623     1.0  0.52034  0.69971  0.06947  1.0000
  C   C1624     1.0  0.52877  0.68876  0.06565  1.0000
  C   C1625     1.0  0.53164  0.68142  0.09982  1.0000
  C   C1626     1.0  0.52585  0.68481  0.13781  1.0000
  C   C1627     1.0  0.60756  0.61088  0.39031  1.0000
  H   H1287     1.0  0.58019  0.51319  0.53228  1.0000
  C   C1628     1.0  0.49818  0.65269  0.85482  1.0000
  Fe  Fe109     1.0  0.49555  0.60423  0.65404  1.0000
  H   H1288     1.0  0.49815  0.64907  0.30544  1.0000
  H   H1289     1.0  0.56521  0.50308  0.36412  1.0000
  C   C1629     1.0  0.73879  0.52617  0.06920  1.0000
  H   H1290     1.0  0.63290  0.51486  0.47570  1.0000
  H   H1291     1.0  0.53793  0.67271  0.09691  1.0000
  H   H1292     1.0  0.52785  0.67859  0.16354  1.0000
  H   H1293     1.0  0.56644  0.63267  0.48523  1.0000
  C   C1630     1.0  0.57236  0.61477  0.17540  1.0000
  C   C1631     1.0  0.57030  0.59845  0.17947  1.0000
  C   C1632     1.0  0.55424  0.55877  0.17808  1.0000
  C   C1633     1.0  0.55149  0.54547  0.20434  1.0000
  C   C1634     1.0  0.53553  0.53711  0.22292  1.0000
  C   C1635     1.0  0.52222  0.54208  0.21586  1.0000
  C   C1636     1.0  0.52481  0.55520  0.18954  1.0000
  C   C1637     1.0  0.54071  0.56346  0.17049  1.0000
  C   C1638     1.0  0.59739  0.57966  0.21327  1.0000
  C   C1639     1.0  0.52958  0.62687  0.92258  1.0000
  H   H1294     1.0  0.56693  0.62038  0.19876  1.0000
  H   H1295     1.0  0.56332  0.59165  0.20625  1.0000
  H   H1296     1.0  0.55253  0.55593  0.09408  1.0000
  H   H1297     1.0  0.56170  0.54183  0.21167  1.0000
  C   C1640     1.0  0.56859  0.50861  0.18450  1.0000
  H   H1298     1.0  0.50998  0.53612  0.23163  1.0000
  H   H1299     1.0  0.51456  0.55931  0.18502  1.0000
  H   H1300     1.0  0.54249  0.57377  0.15076  1.0000
  H   H1301     1.0  0.59338  0.58991  0.21770  1.0000
  H   H1302     1.0  0.51802  0.70534  0.04294  1.0000
  P   P55       1.0  0.57498  0.57008  0.15534  1.0000
  C   C1641     1.0  0.57935  0.56706  0.60023  1.0000
  C   C1642     1.0  0.57496  0.56161  0.56233  1.0000
  P   P56       1.0  0.55341  0.55103  0.55527  1.0000
  C   C1643     1.0  0.54310  0.53936  0.60070  1.0000
  C   C1644     1.0  0.54348  0.56529  0.54464  1.0000
  C   C1645     1.0  0.52953  0.56071  0.52288  1.0000
  H   H1303     1.0  0.58147  0.62603  0.60008  1.0000
  H   H1304     1.0  0.50406  0.63103  0.85494  1.0000
  C   C1646     1.0  0.54172  0.59194  0.54953  1.0000
  C   C1647     1.0  0.54932  0.58090  0.55861  1.0000
  C   C1648     1.0  0.55095  0.53050  0.62088  1.0000
  P   P57       1.0  0.57839  0.61096  0.43530  1.0000
  H   H1305     1.0  0.50846  0.57318  0.74307  1.0000
  C   C1649     1.0  0.52013  0.53132  0.65362  1.0000
  C   C1650     1.0  0.52765  0.53976  0.61747  1.0000
  H   H1306     1.0  0.57000  0.56460  0.62570  1.0000
  C   C1651     1.0  0.59593  0.57565  0.60567  1.0000
  H   H1307     1.0  0.52451  0.54858  0.51280  1.0000
  C   C1652     1.0  0.59390  0.60230  0.41763  1.0000
  H   H1308     1.0  0.58189  0.57999  0.45213  1.0000
  H   H1309     1.0  0.56310  0.53041  0.60919  1.0000
  C   C1653     1.0  0.58197  0.62960  0.40744  1.0000
  C   C1654     1.0  0.58754  0.60856  0.51274  1.0000
  H   H1310     1.0  0.49670  0.50194  0.26097  1.0000
  H   H1311     1.0  0.52158  0.54695  0.60346  1.0000
  C   C1655     1.0  0.52673  0.72116  0.24827  1.0000
  H   H1312     1.0  0.57614  0.51990  0.07555  1.0000
  H   H1313     1.0  0.54616  0.60395  0.56063  1.0000
  H   H1314     1.0  0.67807  0.51667  0.20509  1.0000
  H   H1315     1.0  0.55472  0.54037  0.41091  1.0000
  C   C1656     1.0  0.55964  0.62243  0.89741  1.0000
  C   C1657     1.0  0.60816  0.57931  0.57316  1.0000
  H   H1316     1.0  0.59939  0.57934  0.63521  1.0000
  H   H1317     1.0  0.50075  0.56183  0.86931  1.0000
  C   C1658     1.0  0.69221  0.52095  0.87933  1.0000
  S   S220      1.0  0.51496  0.65658  0.71953  1.0000
  H   H1318     1.0  0.55957  0.58460  0.57694  1.0000
  H   H1319     1.0  0.49584  0.65372  0.05559  1.0000
  H   H1320     1.0  0.55770  0.51023  0.28386  1.0000
  C   C1659     1.0  0.58157  0.62392  0.14163  1.0000
  C   C1660     1.0  0.57735  0.59110  0.14949  1.0000
  H   H1321     1.0  0.58315  0.63658  0.13876  1.0000
  C   C1661     1.0  0.54952  0.65112  0.76467  1.0000
  S   S221      1.0  0.50031  0.62938  0.63109  1.0000
  C   C1662     1.0  0.69751  0.51531  0.91299  1.0000
  C   C1663     1.0  0.51965  0.68129  0.24235  1.0000
  C   C1664     1.0  0.55224  0.53832  0.51297  1.0000
  C   C1665     1.0  0.55247  0.62603  0.78636  1.0000
  C   C1666     1.0  0.58156  0.51060  0.07783  1.0000
  H   H1322     1.0  0.60513  0.58960  0.79713  1.0000
  H   H1323     1.0  0.62105  0.58575  0.57761  1.0000
  C   C1667     1.0  0.59024  0.56790  0.18621  1.0000
  S   S222      1.0  0.49618  0.60911  0.26044  1.0000
  C   C1668     1.0  0.58737  0.56521  0.52986  1.0000
  H   H1324     1.0  0.55651  0.55765  0.46868  1.0000
  C   C1669     1.0  0.53052  0.59348  0.81688  1.0000
  H   H1325     1.0  0.54027  0.63988  0.82245  1.0000
  H   H1326     1.0  0.55239  0.57794  0.81778  1.0000
  C   C1670     1.0  0.60386  0.57420  0.53522  1.0000
  C   C1671     1.0  0.59452  0.59349  0.80346  1.0000
  H   H1327     1.0  0.60927  0.61869  0.80133  1.0000
  C   C1672     1.0  0.58888  0.61679  0.11195  1.0000
  H   H1328     1.0  0.72312  0.55532  0.72361  1.0000
  C   C1673     1.0  0.55413  0.54493  0.47387  1.0000
  C   C1674     1.0  0.54929  0.52184  0.51855  1.0000
  C   C1675     1.0  0.58687  0.60046  0.11591  1.0000
  H   H1329     1.0  0.56861  0.64446  0.32866  1.0000
  C   C1676     1.0  0.56498  0.55664  0.08281  1.0000
  H   H1330     1.0  0.61544  0.58740  0.25598  1.0000
  C   C1677     1.0  0.60996  0.57831  0.23510  1.0000
  H   H1331     1.0  0.73131  0.52471  0.09771  1.0000
  H   H1332     1.0  0.58449  0.56097  0.50050  1.0000
  H   H1333     1.0  0.51963  0.53049  0.05117  1.0000
  C   C1678     1.0  0.55773  0.59767  0.42714  1.0000
  H   H1334     1.0  0.58946  0.66982  0.34824  1.0000
  H   H1335     1.0  0.61861  0.50509  0.05446  1.0000
  C   C1679     1.0  0.50244  0.66632  0.78937  1.0000
  H   H1336     1.0  0.60334  0.56817  0.42952  1.0000
  H   H1337     1.0  0.66799  0.52940  0.26259  1.0000
  H   H1338     1.0  0.62500  0.53315  0.93723  1.0000
  H   H1339     1.0  0.61345  0.57684  0.51018  1.0000
  H   H1340     1.0  0.58503  0.62759  0.81370  1.0000
  H   H1341     1.0  0.52134  0.61661  0.86738  1.0000
  C   C1680     1.0  0.73105  0.52185  0.03422  1.0000
  H   H1342     1.0  0.50071  0.53438  0.47344  1.0000
  H   H1343     1.0  0.62539  0.56434  0.24637  1.0000
  C   C1681     1.0  0.57290  0.62995  0.37505  1.0000
  C   C1682     1.0  0.55297  0.53516  0.44104  1.0000
  H   H1344     1.0  0.58979  0.54506  0.16261  1.0000
  H   H1345     1.0  0.68371  0.53575  0.98525  1.0000
  C   C1683     1.0  0.52580  0.58967  0.77836  1.0000
  C   C1684     1.0  0.57825  0.56271  0.10627  1.0000
  C   C1685     1.0  0.50754  0.65429  0.77119  1.0000
  H   H1346     1.0  0.53794  0.56510  0.37463  1.0000
  C   C1686     1.0  0.53504  0.51586  0.04056  1.0000
  C   C1687     1.0  0.68148  0.54057  0.75167  1.0000
  H   H1347     1.0  0.57911  0.51408  0.16244  1.0000
  C   C1688     1.0  0.53952  0.57521  0.39359  1.0000
  C   C1689     1.0  0.52192  0.57178  0.51409  1.0000
  H   H1348     1.0  0.62075  0.50057  0.26090  1.0000
  C   C1690     1.0  0.69470  0.52085  0.95088  1.0000
  H   H1349     1.0  0.59621  0.62396  0.08601  1.0000
  H   H1350     1.0  0.52153  0.53241  0.42030  1.0000
  C   C1691     1.0  0.57351  0.63073  0.54383  1.0000
  H   H1351     1.0  0.56983  0.63709  0.69030  1.0000
  H   H1352     1.0  0.60118  0.64389  0.44267  1.0000
  H   H1353     1.0  0.69859  0.51621  0.97666  1.0000
  H   H1354     1.0  0.60898  0.62275  0.37864  1.0000
  C   C1692     1.0  0.54304  0.50654  0.05802  1.0000
  C   C1693     1.0  0.58741  0.65863  0.36473  1.0000
  H   H1355     1.0  0.53238  0.68864  0.23235  1.0000
  H   H1356     1.0  0.53611  0.51746  0.00826  1.0000
  S   S223      1.0  0.67103  0.50073  0.04686  1.0000
  H   H1357     1.0  0.65229  0.51055  0.12589  1.0000
  H   H1358     1.0  0.51371  0.57305  0.39747  1.0000
  C   C1694     1.0  0.60445  0.58009  0.41862  1.0000
  C   C1695     1.0  0.59658  0.65838  0.39679  1.0000
  H   H1359     1.0  0.57141  0.62097  0.88815  1.0000
  C   C1696     1.0  0.51473  0.70331  0.10741  1.0000
  H   H1360     1.0  0.59432  0.60673  0.57236  1.0000
  C   C1697     1.0  0.58834  0.61240  0.55302  1.0000
  C   C1698     1.0  0.59394  0.64391  0.41799  1.0000
  H   H1361     1.0  0.56375  0.61909  0.36586  1.0000
  H   H1362     1.0  0.51762  0.59692  0.43903  1.0000
  C   C1699     1.0  0.50627  0.64119  0.14273  1.0000
  C   C1700     1.0  0.59438  0.56399  0.09012  1.0000
  C   C1701     1.0  0.59707  0.55883  0.05168  1.0000
  C   C1702     1.0  0.57259  0.62684  0.50365  1.0000
  C   C1703     1.0  0.59240  0.58680  0.43142  1.0000
  C   C1704     1.0  0.57562  0.64440  0.35381  1.0000
  H   H1363     1.0  0.59282  0.59529  0.09277  1.0000
  C   C1705     1.0  0.53235  0.51178  0.12384  1.0000
  H   H1364     1.0  0.55950  0.65970  0.70434  1.0000
  H   H1365     1.0  0.60572  0.66941  0.40526  1.0000
  C   C1706     1.0  0.74066  0.52362  0.99743  1.0000
  C   C1707     1.0  0.55784  0.65048  0.72737  1.0000
  C   C1708     1.0  0.56468  0.58703  0.81541  1.0000
  H   H1366     1.0  0.51738  0.52695  0.12512  1.0000
  C   C1709     1.0  0.52576  0.52319  0.06469  1.0000
  C   C1710     1.0  0.58379  0.55276  0.02860  1.0000
  H   H1367     1.0  0.60498  0.56922  0.10690  1.0000
  H   H1368     1.0  0.57668  0.56943  0.80571  1.0000
  H   H1369     1.0  0.62754  0.58363  0.38239  1.0000
  C   C1711     1.0  0.69593  0.52746  0.79115  1.0000
  Fe  Fe110     1.0  0.50684  0.58929  0.26325  1.0000
  H   H1370     1.0  0.52536  0.58552  0.87942  1.0000
  C   C1712     1.0  0.51074  0.53499  0.41256  1.0000
  H   H1371     1.0  0.73458  0.51996  0.97050  1.0000
  H   H1372     1.0  0.66932  0.52250  0.79775  1.0000
  H   H1373     1.0  0.49424  0.64214  0.20126  1.0000
  C   C1713     1.0  0.67172  0.50947  0.23189  1.0000
  C   C1714     1.0  0.71140  0.54805  0.73985  1.0000
  C   C1715     1.0  0.55072  0.74228  0.19264  1.0000
  C   C1716     1.0  0.65039  0.51122  0.42979  1.0000
  C   C1717     1.0  0.49754  0.66542  0.83090  1.0000
  C   C1718     1.0  0.65264  0.50212  0.39728  1.0000
  H   H1374     1.0  0.69680  0.55849  0.70736  1.0000
  C   C1719     1.0  0.49819  0.62327  0.45040  1.0000
  C   C1720     1.0  0.50873  0.53712  0.37238  1.0000
  C   C1721     1.0  0.64468  0.50834  0.89904  1.0000
  C   C1722     1.0  0.51738  0.69583  0.14197  1.0000
  H   H1375     1.0  0.72272  0.53579  0.77660  1.0000
  C   C1723     1.0  0.49541  0.65116  0.08730  1.0000
  C   C1724     1.0  0.54171  0.50436  0.09983  1.0000
  C   C1725     1.0  0.52644  0.71812  0.20732  1.0000
  C   C1726     1.0  0.55661  0.50648  0.25330  1.0000
  H   H1376     1.0  0.70351  0.50636  0.91036  1.0000
  C   C1727     1.0  0.71464  0.50923  0.82790  1.0000
  C   C1728     1.0  0.50287  0.56614  0.80561  1.0000
  H   H1377     1.0  0.58126  0.52220  0.23201  1.0000
  C   C1729     1.0  0.49885  0.53613  0.44270  1.0000
  C   C1730     1.0  0.50332  0.64073  0.83660  1.0000
  C   C1731     1.0  0.53849  0.72883  0.17954  1.0000
  H   H1378     1.0  0.53920  0.73687  0.29290  1.0000
  H   H1379     1.0  0.53851  0.72687  0.14778  1.0000
  C   C1732     1.0  0.50041  0.65893  0.28373  1.0000
  H   H1380     1.0  0.55025  0.50101  0.03891  1.0000
  H   H1381     1.0  0.66482  0.50527  0.38071  1.0000
  P   P58       1.0  0.51034  0.70086  0.19093  1.0000
  H   H1382     1.0  0.67707  0.49775  0.76292  1.0000
  C   C1733     1.0  0.55383  0.49715  0.17391  1.0000
  H   H1383     1.0  0.57464  0.49832  0.46959  1.0000
  H   H1384     1.0  0.58367  0.49926  0.59355  1.0000
  Fe  Fe111     1.0  0.65207  0.49726  0.00237  1.0000
  C   C1734     1.0  0.74340  0.51695  0.84293  1.0000
  H   H1385     1.0  0.53761  0.49608  0.33971  1.0000
  H   H1386     1.0  0.50829  0.71189  0.10956  1.0000
  C   C1735     1.0  0.49483  0.54045  0.36226  1.0000
  H   H1387     1.0  0.52260  0.49632  0.56890  1.0000
  C   C1736     1.0  0.71585  0.49507  0.81160  1.0000
  C   C1737     1.0  0.49456  0.64456  0.16955  1.0000
  C   C1738     1.0  0.57248  0.49570  0.09775  1.0000
  H   H1388     1.0  0.63623  0.49526  0.76148  1.0000
  H   H1389     1.0  0.50025  0.72867  0.21521  1.0000
  H   H1390     1.0  0.49401  0.50151  0.43396  1.0000
  H   H1391     1.0  0.49386  0.59754  0.84030  1.0000
  Fe  Fe112     1.0  0.53899  0.92703  0.23377  1.0000
  S   S224      1.0  0.54507  0.95352  0.22013  1.0000
  S   S225      1.0  0.54148  0.91274  0.17820  1.0000
  Fe  Fe113     1.0  0.53371  0.93159  0.32555  1.0000
  S   S226      1.0  0.53946  0.95810  0.31668  1.0000
  S   S227      1.0  0.52357  0.92211  0.38960  1.0000
  Fe  Fe114     1.0  0.52355  0.95122  0.26608  1.0000
  Fe  Fe115     1.0  0.56034  0.95769  0.27225  1.0000
  P   P59       1.0  0.60362  0.98571  0.49019  1.0000
  S   S228      1.0  0.51648  0.92460  0.27656  1.0000
  S   S229      1.0  0.55574  0.93132  0.28383  1.0000
  Fe  Fe116     1.0  0.52414  0.92944  0.69325  1.0000
  S   S230      1.0  0.51238  0.94846  0.68979  1.0000
  S   S231      1.0  0.51208  0.91501  0.75219  1.0000
  Fe  Fe117     1.0  0.54155  0.93975  0.60793  1.0000
  S   S232      1.0  0.53060  0.95899  0.60056  1.0000
  S   S233      1.0  0.55780  0.93774  0.55232  1.0000
  Fe  Fe118     1.0  0.53696  0.96534  0.66266  1.0000
  H   H1392     1.0  0.50715  0.75922  0.95684  1.0000
  S   S234      1.0  0.54960  0.94718  0.66968  1.0000
  C   C1739     1.0  0.53373  0.92768  0.43365  1.0000
  C   C1740     1.0  0.52434  0.92900  0.46921  1.0000
  C   C1741     1.0  0.53164  0.93229  0.50547  1.0000
  C   C1742     1.0  0.54839  0.93403  0.50678  1.0000
  C   C1743     1.0  0.55778  0.93269  0.47125  1.0000
  C   C1744     1.0  0.55052  0.92957  0.43484  1.0000
  H   H1393     1.0  0.51126  0.92718  0.46887  1.0000
  H   H1394     1.0  0.52416  0.93306  0.53260  1.0000
  H   H1395     1.0  0.57066  0.93383  0.47192  1.0000
  H   H1396     1.0  0.55781  0.92826  0.40789  1.0000
  C   C1745     1.0  0.53091  0.93341  0.90678  1.0000
  H   H1397     1.0  0.51943  0.97273  0.76065  1.0000
  H   H1398     1.0  0.56157  0.98896  0.59783  1.0000
  H   H1399     1.0  0.50177  0.80816  0.03988  1.0000
  H   H1400     1.0  0.57210  0.98250  0.03500  1.0000
  C   C1746     1.0  0.55242  0.93674  0.78887  1.0000
  C   C1747     1.0  0.49839  0.98115  0.69165  1.0000
  H   H1401     1.0  0.50492  0.92659  0.85859  1.0000
  S   S235      1.0  0.51746  0.92059  0.63202  1.0000
  H   H1402     1.0  0.49635  0.94524  0.43386  1.0000
  H   H1403     1.0  0.59917  0.92904  0.51293  1.0000
  C   C1748     1.0  0.52607  0.89800  0.15365  1.0000
  C   C1749     1.0  0.50959  0.89105  0.17063  1.0000
  C   C1750     1.0  0.59515  0.97070  0.37653  1.0000
  C   C1751     1.0  0.53059  0.89315  0.11577  1.0000
  C   C1752     1.0  0.53807  0.97737  0.50384  1.0000
  H   H1404     1.0  0.54332  0.89841  0.10239  1.0000
  C   C1753     1.0  0.51380  0.90092  0.78804  1.0000
  H   H1405     1.0  0.50588  0.83143  0.08378  1.0000
  H   H1406     1.0  0.53645  0.89877  0.76017  1.0000
  C   C1754     1.0  0.55099  0.74517  0.23346  1.0000
  C   C1755     1.0  0.49445  0.75868  0.96428  1.0000
  H   H1407     1.0  0.53434  0.97543  0.88386  1.0000
  H   H1408     1.0  0.50756  0.99378  0.34589  1.0000
  C   C1756     1.0  0.57047  0.92085  0.78309  1.0000
  H   H1409     1.0  0.56157  0.92953  0.73300  1.0000
  H   H1410     1.0  0.52355  0.83568  0.87167  1.0000
  C   C1757     1.0  0.50343  0.82980  0.83433  1.0000
  C   C1758     1.0  0.51612  0.96303  0.78325  1.0000
  H   H1411     1.0  0.56002  0.75049  0.17110  1.0000
  C   C1759     1.0  0.50143  0.89559  0.82065  1.0000
  C   C1760     1.0  0.55805  0.99286  0.89298  1.0000
  C   C1761     1.0  0.54690  0.97716  0.06168  1.0000
  C   C1762     1.0  0.59368  0.97850  0.44564  1.0000
  C   C1763     1.0  0.56841  0.96690  0.41318  1.0000
  H   H1412     1.0  0.57683  0.91339  0.83861  1.0000
  C   C1764     1.0  0.49563  0.97246  0.88490  1.0000
  H   H1413     1.0  0.57691  0.98602  0.16474  1.0000
  H   H1414     1.0  0.55921  0.99209  0.21924  1.0000
  H   H1415     1.0  0.54534  0.94274  0.77420  1.0000
  H   H1416     1.0  0.51404  0.95658  0.17356  1.0000
  H   H1417     1.0  0.49427  0.93686  0.31985  1.0000
  H   H1418     1.0  0.50093  0.78462  0.96193  1.0000
  H   H1419     1.0  0.53594  0.98574  0.27229  1.0000
  C   C1765     1.0  0.54708  0.99237  0.48493  1.0000
  H   H1420     1.0  0.51453  0.89381  0.93782  1.0000
  C   C1766     1.0  0.59759  0.99462  0.27703  1.0000
  H   H1421     1.0  0.52287  0.92126  0.09677  1.0000
  H   H1422     1.0  0.57603  0.97455  0.55456  1.0000
  C   C1767     1.0  0.50246  0.87430  0.11246  1.0000
  H   H1423     1.0  0.60285  0.93183  0.58508  1.0000
  H   H1424     1.0  0.53366  0.94549  0.13585  1.0000
  C   C1768     1.0  0.56166  0.92923  0.76521  1.0000
  C   C1769     1.0  0.52815  0.96153  0.80662  1.0000
  H   H1425     1.0  0.51379  0.95965  0.52003  1.0000
  C   C1770     1.0  0.52074  0.97133  0.50541  1.0000
  H   H1426     1.0  0.50596  0.89459  0.19979  1.0000
  C   C1771     1.0  0.50485  0.98318  0.36503  1.0000
  C   C1772     1.0  0.57106  0.96844  0.87545  1.0000
  C   C1773     1.0  0.57783  0.96565  0.37801  1.0000
  C   C1774     1.0  0.55208  0.93606  0.83075  1.0000
  S   S236      1.0  0.50263  0.83830  0.98717  1.0000
  C   C1775     1.0  0.49570  0.82021  0.09141  1.0000
  S   S237      1.0  0.50370  0.96176  0.25668  1.0000
  C   C1776     1.0  0.49870  0.95594  0.41496  1.0000
  C   C1777     1.0  0.52553  0.91659  0.90508  1.0000
  S   S238      1.0  0.58729  0.97376  0.27241  1.0000
  C   C1778     1.0  0.60198  0.95391  0.50251  1.0000
  H   H1427     1.0  0.56877  0.97278  0.47480  1.0000
  H   H1428     1.0  0.63601  0.99102  0.52184  1.0000
  H   H1429     1.0  0.52695  0.91101  0.87707  1.0000
  C   C1779     1.0  0.52422  0.94855  0.83464  1.0000
  Fe  Fe119     1.0  0.50722  0.94051  0.62835  1.0000
  C   C1780     1.0  0.52800  0.88427  0.81545  1.0000
  C   C1781     1.0  0.60661  0.97038  0.56050  1.0000
  H   H1430     1.0  0.54164  0.96766  0.04162  1.0000
  C   C1782     1.0  0.50014  0.95147  0.78719  1.0000
  H   H1431     1.0  0.51178  0.81003  0.91215  1.0000
  H   H1432     1.0  0.60203  0.98088  0.18059  1.0000
  H   H1433     1.0  0.54069  0.97016  0.80165  1.0000
  S   S239      1.0  0.54227  0.99124  0.67965  1.0000
  C   C1783     1.0  0.60158  0.94066  0.52604  1.0000
  C   C1784     1.0  0.60308  0.97703  0.41024  1.0000
  C   C1785     1.0  0.51565  0.87900  0.84810  1.0000
  H   H1434     1.0  0.57732  0.91475  0.76469  1.0000
  C   C1786     1.0  0.60361  0.94223  0.56675  1.0000
  C   C1787     1.0  0.54749  0.97759  0.88416  1.0000
  C   C1788     1.0  0.51240  0.98031  0.48809  1.0000
  H   H1435     1.0  0.52331  0.97432  0.09492  1.0000
  H   H1436     1.0  0.57641  0.95924  0.86847  1.0000
  H   H1437     1.0  0.60235  0.96958  0.34912  1.0000
  H   H1438     1.0  0.54446  0.97034  0.51744  1.0000
  C   C1789     1.0  0.51471  0.96397  0.39659  1.0000
  S   S240      1.0  0.51783  0.86595  0.88601  1.0000
  C   C1790     1.0  0.50227  0.88463  0.85038  1.0000
  H   H1439     1.0  0.59485  0.98612  0.88417  1.0000
  C   C1791     1.0  0.60238  0.99316  0.17672  1.0000
  H   H1440     1.0  0.52261  0.87779  0.06626  1.0000
  H   H1441     1.0  0.61648  0.98051  0.40871  1.0000
  H   H1442     1.0  0.52462  0.95940  0.40133  1.0000
  C   C1792     1.0  0.51429  0.92644  0.11178  1.0000
  C   C1793     1.0  0.51841  0.90680  0.93953  1.0000
  H   H1443     1.0  0.53030  0.98408  0.35811  1.0000
  C   C1794     1.0  0.56111  0.92771  0.84846  1.0000
  C   C1795     1.0  0.60428  0.96882  0.51969  1.0000
  C   C1796     1.0  0.51201  0.82668  0.86490  1.0000
  C   C1797     1.0  0.50356  0.99199  0.72182  1.0000
  H   H1444     1.0  0.49718  0.98986  0.56204  1.0000
  C   C1798     1.0  0.49790  0.87922  0.15025  1.0000
  H   H1445     1.0  0.49897  0.97550  0.48938  1.0000
  H   H1446     1.0  0.56102  0.92696  0.88068  1.0000
  H   H1447     1.0  0.53842  0.88001  0.81338  1.0000
  C   C1799     1.0  0.54340  0.99286  0.11840  1.0000
  H   H1448     1.0  0.60758  0.95826  0.61560  1.0000
  H   H1449     1.0  0.50676  0.97644  0.94045  1.0000
  H   H1450     1.0  0.57170  0.96048  0.35206  1.0000
  C   C1800     1.0  0.51648  0.91371  0.97606  1.0000
  C   C1801     1.0  0.57628  0.97295  0.44712  1.0000
  C   C1802     1.0  0.60624  0.95711  0.58392  1.0000
  C   C1803     1.0  0.52039  0.94012  0.13388  1.0000
  C   C1804     1.0  0.52168  0.93046  0.97808  1.0000
  C   C1805     1.0  0.52699  0.89501  0.78534  1.0000
  C   C1806     1.0  0.50809  0.93707  0.83862  1.0000
  C   C1807     1.0  0.49713  0.91878  0.11134  1.0000
  H   H1451     1.0  0.60005  0.95229  0.47125  1.0000
  C   C1808     1.0  0.50934  0.94633  0.15509  1.0000
  C   C1809     1.0  0.51886  0.88149  0.09511  1.0000
  C   C1810     1.0  0.50536  0.98192  0.91268  1.0000
  H   H1452     1.0  0.60836  0.98176  0.57443  1.0000
  C   C1811     1.0  0.50541  0.81222  0.88762  1.0000
  C   C1812     1.0  0.52886  0.94031  0.94356  1.0000
  H   H1453     1.0  0.55494  0.96251  0.41460  1.0000
  C   C1813     1.0  0.55393  0.96529  0.87499  1.0000
  H   H1454     1.0  0.51107  0.90604  0.00279  1.0000
  C   C1814     1.0  0.51784  0.97775  0.37215  1.0000
  C   C1815     1.0  0.53659  0.98090  0.09172  1.0000
  H   H1455     1.0  0.53288  0.95322  0.94577  1.0000
  C   C1816     1.0  0.57018  0.92008  0.82471  1.0000
  H   H1456     1.0  0.62088  0.99093  0.28097  1.0000
  H   H1457     1.0  0.52026  0.93576  0.00654  1.0000
  H   H1458     1.0  0.56050  0.75560  0.24355  1.0000
  P   P60       1.0  0.54029  0.94581  0.86179  1.0000
  H   H1459     1.0  0.50680  0.98166  0.66514  1.0000
  C   C1817     1.0  0.57916  0.98741  0.54929  1.0000
  H   H1460     1.0  0.57648  0.99123  0.67319  1.0000
  Fe  Fe120     1.0  0.49764  0.85221  0.93549  1.0000
  C   C1818     1.0  0.56405  0.98552  0.05798  1.0000
  C   C1819     1.0  0.49611  0.93856  0.81497  1.0000
  C   C1820     1.0  0.58159  0.98371  0.88440  1.0000
  H   H1461     1.0  0.50837  0.84129  0.81773  1.0000
  C   C1821     1.0  0.76841  0.17507  0.85996  1.0000
  C   C1822     1.0  0.75048  0.19076  0.85388  1.0000
  H   H1462     1.0  0.77599  0.16857  0.84620  1.0000
  C   C1823     1.0  0.75715  0.18473  0.91929  1.0000
  H   H1463     1.0  0.77342  0.17088  0.91991  1.0000
  C   C1824     1.0  0.75405  0.23470  0.88948  1.0000
  H   H1464     1.0  0.76157  0.18155  0.80392  1.0000
  C   C1825     1.0  0.76693  0.17634  0.90149  1.0000
  C   C1826     1.0  0.76026  0.18235  0.83616  1.0000
  C   C1827     1.0  0.74852  0.19165  0.89566  1.0000
  H   H1465     1.0  0.75851  0.21901  0.97892  1.0000
  C   C1828     1.0  0.75110  0.22335  0.92126  1.0000
  C   C1829     1.0  0.76019  0.22766  0.95454  1.0000
  C   C1830     1.0  0.77137  0.24332  0.95688  1.0000
  H   H1466     1.0  0.75635  0.18584  0.95144  1.0000
  H   H1467     1.0  0.74763  0.23151  0.86290  1.0000
  H   H1468     1.0  0.74448  0.19658  0.83497  1.0000
  Fe  Fe121     1.0  0.80586  0.35247  0.98902  1.0000
  S   S241      1.0  0.80304  0.33468  0.03997  1.0000
  S   S242      1.0  0.79280  0.37086  0.99346  1.0000
  Fe  Fe122     1.0  0.82694  0.33859  0.93360  1.0000
  S   S243      1.0  0.82532  0.31971  0.98070  1.0000
  S   S244      1.0  0.84273  0.33848  0.87483  1.0000
  Fe  Fe123     1.0  0.79788  0.31587  0.99263  1.0000
  S   S245      1.0  0.77898  0.28969  0.00475  1.0000
  Fe  Fe124     1.0  0.83050  0.33982  0.02389  1.0000
  S   S246      1.0  0.85248  0.34334  0.06106  1.0000
  S   S247      1.0  0.79920  0.33355  0.94270  1.0000
  S   S248      1.0  0.83355  0.35874  0.97587  1.0000
  Fe  Fe125     1.0  0.80023  0.48431  0.02563  1.0000
  S   S249      1.0  0.81001  0.47303  0.97366  1.0000
  C   C1831     1.0  0.75979  0.30442  0.21591  1.0000
  C   C1832     1.0  0.76480  0.33297  0.09759  1.0000
  C   C1833     1.0  0.87673  0.42812  0.22175  1.0000
  C   C1834     1.0  0.97054  0.43175  0.38826  1.0000
  C   C1835     1.0  0.75083  0.28255  0.12706  1.0000
  Fe  Fe126     1.0  0.82544  0.46617  0.01583  1.0000
  S   S250      1.0  0.83395  0.44456  0.01529  1.0000
  H   H1469     1.0  0.78212  0.26695  0.92838  1.0000
  S   S251      1.0  0.81421  0.47544  0.06886  1.0000
  C   C1836     1.0  0.89691  0.44435  0.54286  1.0000
  H   H1470     1.0  0.89300  0.43318  0.37082  1.0000
  Fe  Fe127     1.0  0.89656  0.38753  0.25384  1.0000
  S   S252      1.0  0.89559  0.40897  0.28840  1.0000
  S   S253      1.0  0.87163  0.37483  0.22856  1.0000
  Fe  Fe128     1.0  0.93373  0.39637  0.26419  1.0000
  S   S254      1.0  0.93524  0.41845  0.29712  1.0000
  S   S255      1.0  0.95705  0.39021  0.25057  1.0000
  Fe  Fe129     1.0  0.91125  0.40304  0.33162  1.0000
  S   S256      1.0  0.90864  0.41028  0.39622  1.0000
  Fe  Fe130     1.0  0.91947  0.42233  0.25174  1.0000
  S   S257      1.0  0.92333  0.44623  0.22199  1.0000
  S   S258      1.0  0.91037  0.38024  0.30091  1.0000
  S   S259      1.0  0.91990  0.40154  0.21502  1.0000
  Fe  Fe131     1.0  0.94197  0.39692  0.67845  1.0000
  S   S260      1.0  0.94296  0.40653  0.61613  1.0000
  S   S261      1.0  0.96201  0.38897  0.70045  1.0000
  Fe  Fe132     1.0  0.90764  0.39861  0.70538  1.0000
  S   S262      1.0  0.90599  0.40891  0.64496  1.0000
  S   S263      1.0  0.88754  0.39752  0.75639  1.0000
  Fe  Fe133     1.0  0.91621  0.39065  0.61838  1.0000
  S   S264      1.0  0.90570  0.37619  0.56540  1.0000
  Fe  Fe134     1.0  0.93283  0.42413  0.64662  1.0000
  S   S265      1.0  0.94533  0.45002  0.62509  1.0000
  S   S266      1.0  0.91587  0.37903  0.67875  1.0000
  S   S267      1.0  0.93382  0.41570  0.70914  1.0000
  C   C1837     1.0  0.90980  0.40008  0.44085  1.0000
  C   C1838     1.0  0.90253  0.38338  0.44683  1.0000
  C   C1839     1.0  0.90161  0.37614  0.48496  1.0000
  C   C1840     1.0  0.90836  0.38546  0.51701  1.0000
  C   C1841     1.0  0.91660  0.40200  0.51016  1.0000
  C   C1842     1.0  0.91689  0.40928  0.47260  1.0000
  H   H1471     1.0  0.89685  0.37616  0.42275  1.0000
  H   H1472     1.0  0.89531  0.36331  0.48988  1.0000
  H   H1473     1.0  0.92208  0.40929  0.53434  1.0000
  H   H1474     1.0  0.92227  0.42215  0.46825  1.0000
  C   C1843     1.0  0.91544  0.47985  0.31721  1.0000
  C   C1844     1.0  0.91671  0.46514  0.32853  1.0000
  C   C1845     1.0  0.91872  0.45459  0.29927  1.0000
  C   C1846     1.0  0.91993  0.45898  0.25868  1.0000
  C   C1847     1.0  0.91852  0.47364  0.24744  1.0000
  C   C1848     1.0  0.91587  0.48388  0.27675  1.0000
  H   H1475     1.0  0.91645  0.46202  0.35982  1.0000
  H   H1476     1.0  0.91970  0.44324  0.30823  1.0000
  H   H1477     1.0  0.91943  0.47714  0.21620  1.0000
  P   P61       1.0  0.85856  0.46507  0.21887  1.0000
  C   C1849     1.0  0.91123  0.47962  0.63656  1.0000
  C   C1850     1.0  0.90469  0.46302  0.64459  1.0000
  C   C1851     1.0  0.91522  0.45396  0.64208  1.0000
  C   C1852     1.0  0.93216  0.46134  0.62974  1.0000
  C   C1853     1.0  0.93867  0.47795  0.62101  1.0000
  C   C1854     1.0  0.89007  0.41568  0.55523  1.0000
  H   H1478     1.0  0.89154  0.45724  0.65365  1.0000
  H   H1479     1.0  0.91016  0.44126  0.64963  1.0000
  C   C1855     1.0  0.85502  0.44112  0.84791  1.0000
  H   H1480     1.0  0.81292  0.33163  0.74302  1.0000
  H   H1481     1.0  0.86959  0.45614  0.29454  1.0000
  H   H1482     1.0  0.97995  0.46784  0.72119  1.0000
  C   C1856     1.0  0.87349  0.42530  0.51438  1.0000
  C   C1857     1.0  0.80421  0.39132  0.99991  1.0000
  C   C1858     1.0  0.82132  0.39652  0.00271  1.0000
  C   C1859     1.0  0.83018  0.41286  0.00731  1.0000
  C   C1860     1.0  0.82204  0.42418  0.00954  1.0000
  C   C1861     1.0  0.80492  0.41904  0.00649  1.0000
  C   C1862     1.0  0.79604  0.40263  0.00166  1.0000
  H   H1483     1.0  0.82774  0.38795  0.00169  1.0000
  H   H1484     1.0  0.84338  0.41667  0.00957  1.0000
  H   H1485     1.0  0.79853  0.42767  0.00797  1.0000
  H   H1486     1.0  0.78279  0.39869  0.99939  1.0000
  C   C1863     1.0  0.85799  0.35336  0.10619  1.0000
  C   C1864     1.0  0.84763  0.36002  0.12882  1.0000
  C   C1865     1.0  0.85219  0.36693  0.16567  1.0000
  C   C1866     1.0  0.86736  0.36768  0.17984  1.0000
  C   C1867     1.0  0.87795  0.36151  0.15647  1.0000
  C   C1868     1.0  0.87315  0.35419  0.12027  1.0000
  H   H1487     1.0  0.83591  0.35943  0.11851  1.0000
  H   H1488     1.0  0.84383  0.37153  0.18361  1.0000
  H   H1489     1.0  0.88951  0.36176  0.16717  1.0000
  H   H1490     1.0  0.88117  0.34891  0.10330  1.0000
  C   C1869     1.0  0.85501  0.35503  0.84203  1.0000
  C   C1870     1.0  0.85362  0.37026  0.84505  1.0000
  C   C1871     1.0  0.86331  0.38291  0.81781  1.0000
  C   C1872     1.0  0.87511  0.38079  0.78849  1.0000
  C   C1873     1.0  0.87655  0.36557  0.78551  1.0000
  C   C1874     1.0  0.86642  0.35273  0.81187  1.0000
  H   H1491     1.0  0.84506  0.37229  0.86822  1.0000
  H   H1492     1.0  0.86172  0.39448  0.81964  1.0000
  H   H1493     1.0  0.88541  0.36367  0.76282  1.0000
  H   H1494     1.0  0.86757  0.34099  0.80914  1.0000
  H   H1495     1.0  0.97275  0.42344  0.27881  1.0000
  C   C1875     1.0  0.75880  0.27565  0.99625  1.0000
  S   S268      1.0  0.89797  0.49076  0.64135  1.0000
  C   C1876     1.0  0.95394  0.42130  0.39161  1.0000
  C   C1877     1.0  0.75691  0.27062  0.13942  1.0000
  C   C1878     1.0  0.86324  0.49071  0.26854  1.0000
  H   H1496     1.0  0.85812  0.46410  0.13218  1.0000
  P   P62       1.0  0.88500  0.42732  0.05513  1.0000
  C   C1879     1.0  0.86386  0.42162  0.07889  1.0000
  C   C1880     1.0  0.89801  0.44430  0.08012  1.0000
  C   C1881     1.0  0.89536  0.44495  0.12176  1.0000
  C   C1882     1.0  0.90566  0.45774  0.14162  1.0000
  C   C1883     1.0  0.91867  0.46997  0.12030  1.0000
  C   C1884     1.0  0.92130  0.46954  0.07874  1.0000
  C   C1885     1.0  0.91104  0.45674  0.05865  1.0000
  C   C1886     1.0  0.85681  0.43352  0.08755  1.0000
  C   C1887     1.0  0.93793  0.36839  0.51268  1.0000
  C   C1888     1.0  0.88643  0.43351  0.00303  1.0000
  C   C1889     1.0  0.89950  0.43250  0.97600  1.0000
  C   C1890     1.0  0.90149  0.43846  0.93643  1.0000
  C   C1891     1.0  0.89039  0.44541  0.92349  1.0000
  C   C1892     1.0  0.87735  0.44642  0.95019  1.0000
  C   C1893     1.0  0.87551  0.44068  0.98981  1.0000
  H   H1497     1.0  0.90855  0.42041  0.10527  1.0000
  H   H1498     1.0  0.88547  0.43547  0.13893  1.0000
  H   H1499     1.0  0.90363  0.45811  0.17371  1.0000
  C   C1894     1.0  0.74763  0.25433  0.13623  1.0000
  H   H1500     1.0  0.76908  0.33819  0.12532  1.0000
  H   H1501     1.0  0.91339  0.45668  0.02651  1.0000
  H   H1502     1.0  0.86397  0.44608  0.08053  1.0000
  P   P63       1.0  0.87499  0.47105  0.81223  1.0000
  H   H1503     1.0  0.91159  0.43763  0.91573  1.0000
  H   H1504     1.0  0.89182  0.44991  0.89278  1.0000
  H   H1505     1.0  0.86865  0.45176  0.94056  1.0000
  H   H1506     1.0  0.86565  0.44210  0.00998  1.0000
  P   P64       1.0  0.80009  0.35225  0.79477  1.0000
  C   C1895     1.0  0.81889  0.35625  0.76103  1.0000
  C   C1896     1.0  0.82183  0.34377  0.73957  1.0000
  C   C1897     1.0  0.83645  0.34683  0.71386  1.0000
  C   C1898     1.0  0.84811  0.36240  0.70888  1.0000
  C   C1899     1.0  0.84508  0.37494  0.72934  1.0000
  C   C1900     1.0  0.83060  0.37190  0.75549  1.0000
  C   C1901     1.0  0.80383  0.36776  0.83098  1.0000
  C   C1902     1.0  0.80032  0.38188  0.82396  1.0000
  C   C1903     1.0  0.76916  0.35501  0.78636  1.0000
  C   C1904     1.0  0.80849  0.39110  0.88907  1.0000
  C   C1905     1.0  0.87417  0.47682  0.33001  1.0000
  C   C1906     1.0  0.86101  0.44940  0.42797  1.0000
  H   H1507     1.0  0.83461  0.43848  0.10798  1.0000
  H   H1508     1.0  0.83886  0.33711  0.69807  1.0000
  H   H1509     1.0  0.85960  0.36476  0.68957  1.0000
  H   H1510     1.0  0.85427  0.38697  0.72579  1.0000
  H   H1511     1.0  0.82879  0.38178  0.77163  1.0000
  H   H1512     1.0  0.88580  0.48628  0.73124  1.0000
  H   H1513     1.0  0.83254  0.31803  0.12172  1.0000
  C   C1907     1.0  0.79451  0.33296  0.82143  1.0000
  C   C1908     1.0  0.95262  0.46939  0.40435  1.0000
  C   C1909     1.0  0.83341  0.46621  0.55917  1.0000
  C   C1910     1.0  0.75192  0.26143  0.02067  1.0000
  C   C1911     1.0  0.75955  0.33668  0.02925  1.0000
  H   H1514     1.0  0.76880  0.27385  0.15146  1.0000
  C   C1912     1.0  0.75535  0.32018  0.02417  1.0000
  H   H1515     1.0  0.87902  0.47174  0.35331  1.0000
  H   H1516     1.0  0.75965  0.34462  0.00443  1.0000
  H   H1517     1.0  0.82294  0.46859  0.57484  1.0000
  H   H1518     1.0  0.89277  0.47803  0.55945  1.0000
  C   C1913     1.0  0.93476  0.38427  0.79659  1.0000
  C   C1914     1.0  0.92732  0.36958  0.77936  1.0000
  C   C1915     1.0  0.91389  0.35766  0.80049  1.0000
  C   C1916     1.0  0.90795  0.36035  0.83901  1.0000
  C   C1917     1.0  0.91548  0.37503  0.85683  1.0000
  C   C1918     1.0  0.92884  0.38703  0.83505  1.0000
  P   P65       1.0  0.90765  0.37895  0.90617  1.0000
  C   C1919     1.0  0.89384  0.39023  0.90165  1.0000
  C   C1920     1.0  0.89648  0.36048  0.93524  1.0000
  C   C1921     1.0  0.88068  0.35085  0.92583  1.0000
  C   C1922     1.0  0.87138  0.33710  0.94940  1.0000
  C   C1923     1.0  0.87760  0.33299  0.98317  1.0000
  C   C1924     1.0  0.89335  0.34246  0.99285  1.0000
  C   C1925     1.0  0.90283  0.35610  0.96886  1.0000
  C   C1926     1.0  0.88022  0.38804  0.93054  1.0000
  C   C1927     1.0  0.86986  0.39712  0.92779  1.0000
  C   C1928     1.0  0.87304  0.40848  0.89630  1.0000
  C   C1929     1.0  0.88660  0.41083  0.86756  1.0000
  C   C1930     1.0  0.89692  0.40170  0.87008  1.0000
  C   C1931     1.0  0.92475  0.39051  0.93299  1.0000
  C   C1932     1.0  0.92231  0.40087  0.96236  1.0000
  C   C1933     1.0  0.93511  0.40891  0.98551  1.0000
  C   C1934     1.0  0.95046  0.40668  0.97935  1.0000
  C   C1935     1.0  0.95299  0.39635  0.95017  1.0000
  C   C1936     1.0  0.94016  0.38819  0.92724  1.0000
  H   H1519     1.0  0.86744  0.44957  0.74537  1.0000
  H   H1520     1.0  0.98058  0.46950  0.22352  1.0000
  H   H1521     1.0  0.90796  0.34637  0.78679  1.0000
  H   H1522     1.0  0.89744  0.35096  0.85436  1.0000
  H   H1523     1.0  0.93466  0.39859  0.84763  1.0000
  H   H1524     1.0  0.87543  0.35414  0.90055  1.0000
  H   H1525     1.0  0.85921  0.32977  0.94170  1.0000
  H   H1526     1.0  0.87007  0.32263  0.00222  1.0000
  H   H1527     1.0  0.89805  0.33931  0.01932  1.0000
  H   H1528     1.0  0.91491  0.36326  0.97729  1.0000
  H   H1529     1.0  0.87745  0.37925  0.95513  1.0000
  H   H1530     1.0  0.85925  0.39523  0.94986  1.0000
  H   H1531     1.0  0.86495  0.41540  0.89412  1.0000
  H   H1532     1.0  0.88880  0.41931  0.84240  1.0000
  H   H1533     1.0  0.90703  0.40343  0.84681  1.0000
  H   H1534     1.0  0.91039  0.40241  0.96800  1.0000
  H   H1535     1.0  0.93301  0.41665  0.00869  1.0000
  H   H1536     1.0  0.96033  0.41278  0.99754  1.0000
  H   H1537     1.0  0.96483  0.39446  0.94568  1.0000
  H   H1538     1.0  0.94216  0.37986  0.90558  1.0000
  H   H1539     1.0  0.76706  0.25923  0.86795  1.0000
  H   H1540     1.0  0.87672  0.39681  0.01571  1.0000
  H   H1541     1.0  0.93468  0.48129  0.41510  1.0000
  H   H1542     1.0  0.93731  0.39709  0.38574  1.0000
  H   H1543     1.0  0.76904  0.29860  0.21466  1.0000
  C   C1937     1.0  0.93300  0.46451  0.46363  1.0000
  C   C1938     1.0  0.93952  0.45345  0.47862  1.0000
  C   C1939     1.0  0.95977  0.43919  0.17232  1.0000
  C   C1940     1.0  0.87680  0.41257  0.53206  1.0000
  C   C1941     1.0  0.83477  0.43773  0.90553  1.0000
  H   H1544     1.0  0.98627  0.38251  0.24540  1.0000
  C   C1942     1.0  0.78641  0.30424  0.86797  1.0000
  H   H1545     1.0  0.98930  0.40485  0.35928  1.0000
  H   H1546     1.0  0.94510  0.39352  0.77983  1.0000
  C   C1943     1.0  0.77800  0.32473  0.83747  1.0000
  H   H1547     1.0  0.90047  0.47981  0.43046  1.0000
  C   C1944     1.0  0.75587  0.35479  0.76510  1.0000
  C   C1945     1.0  0.96282  0.45643  0.31771  1.0000
  H   H1548     1.0  0.79757  0.44592  0.25259  1.0000
  H   H1549     1.0  0.91707  0.39677  0.11190  1.0000
  H   H1550     1.0  0.83898  0.40681  0.19236  1.0000
  H   H1551     1.0  0.78900  0.32680  0.17280  1.0000
  H   H1552     1.0  0.93636  0.47993  0.70950  1.0000
  H   H1553     1.0  0.78481  0.29037  0.08585  1.0000
  C   C1946     1.0  0.94574  0.37962  0.48120  1.0000
  C   C1947     1.0  0.95231  0.45002  0.45600  1.0000
  H   H1554     1.0  0.88505  0.37295  0.02389  1.0000
  P   P66       1.0  0.97523  0.45318  0.38959  1.0000
  H   H1555     1.0  0.81261  0.30782  0.85861  1.0000
  H   H1556     1.0  0.93450  0.44735  0.50756  1.0000
  H   H1557     1.0  0.79409  0.34724  0.71002  1.0000
  H   H1558     1.0  0.92528  0.36024  0.51152  1.0000
  H   H1559     1.0  0.82519  0.43001  0.92728  1.0000
  H   H1560     1.0  0.92303  0.46701  0.48104  1.0000
  H   H1561     1.0  0.75458  0.28878  0.94676  1.0000
  C   C1948     1.0  0.86389  0.47516  0.26475  1.0000
  C   C1949     1.0  0.95866  0.45768  0.41824  1.0000
  C   C1950     1.0  0.90375  0.41044  0.08615  1.0000
  H   H1562     1.0  0.86086  0.43565  0.82518  1.0000
  C   C1951     1.0  0.80938  0.30308  0.10148  1.0000
  C   C1952     1.0  0.94611  0.36813  0.54652  1.0000
  H   H1563     1.0  0.94381  0.42583  0.39787  1.0000
  C   C1953     1.0  0.78449  0.30756  0.13107  1.0000
  C   C1954     1.0  0.80803  0.45404  0.23365  1.0000
  C   C1955     1.0  0.80539  0.46430  0.20529  1.0000
  C   C1956     1.0  0.81891  0.47499  0.18140  1.0000
  C   C1957     1.0  0.83504  0.47527  0.18535  1.0000
  C   C1958     1.0  0.88597  0.39714  0.03576  1.0000
  H   H1564     1.0  0.79291  0.46410  0.20196  1.0000
  C   C1959     1.0  0.89111  0.48676  0.87700  1.0000
  C   C1960     1.0  0.98334  0.42561  0.37780  1.0000
  C   C1961     1.0  0.76037  0.31632  0.09289  1.0000
  H   H1565     1.0  0.83585  0.43340  0.19645  1.0000
  C   C1962     1.0  0.96228  0.37886  0.54862  1.0000
  H   H1566     1.0  0.93973  0.35982  0.57152  1.0000
  H   H1567     1.0  0.83904  0.41815  0.87441  1.0000
  H   H1568     1.0  0.75874  0.25942  0.04441  1.0000
  C   C1963     1.0  0.98202  0.41774  0.27413  1.0000
  C   C1964     1.0  0.84340  0.47685  0.52847  1.0000
  C   C1965     1.0  0.97036  0.38997  0.51674  1.0000
  H   H1569     1.0  0.81754  0.37577  0.92306  1.0000
  C   C1966     1.0  0.85075  0.44967  0.55028  1.0000
  C   C1967     1.0  0.81914  0.31500  0.12460  1.0000
  H   H1570     1.0  0.87775  0.47982  0.07606  1.0000
  C   C1968     1.0  0.75580  0.31005  0.05581  1.0000
  H   H1571     1.0  0.76846  0.35711  0.81811  1.0000
  C   C1969     1.0  0.85706  0.47393  0.50864  1.0000
  H   H1572     1.0  0.85453  0.47742  0.88049  1.0000
  H   H1573     1.0  0.96490  0.41868  0.52062  1.0000
  C   C1970     1.0  0.86473  0.47899  0.77694  1.0000
  H   H1574     1.0  0.92659  0.47983  0.13609  1.0000
  C   C1971     1.0  0.89549  0.47662  0.49492  1.0000
  H   H1575     1.0  0.79944  0.40414  0.84809  1.0000
  C   C1972     1.0  0.83707  0.45263  0.57004  1.0000
  H   H1576     1.0  0.86485  0.48243  0.48530  1.0000
  C   C1973     1.0  0.87577  0.45062  0.44457  1.0000
  C   C1974     1.0  0.86973  0.47308  0.13838  1.0000
  P   P67       1.0  0.76238  0.30358  0.13284  1.0000
  H   H1577     1.0  0.96078  0.47322  0.54910  1.0000
  C   C1975     1.0  0.98960  0.39468  0.25553  1.0000
  C   C1976     1.0  0.86530  0.49206  0.71259  1.0000
  C   C1977     1.0  0.84811  0.47810  0.78586  1.0000
  C   C1978     1.0  0.75294  0.48452  0.98856  1.0000
  H   H1578     1.0  0.78339  0.29344  0.88689  1.0000
  C   C1979     1.0  0.90304  0.44104  0.74615  1.0000
  H   H1579     1.0  0.93192  0.36749  0.74948  1.0000
  S   S269      1.0  0.77284  0.48106  0.04745  1.0000
  H   H1580     1.0  0.90497  0.45647  0.54736  1.0000
  H   H1581     1.0  0.79578  0.38393  0.79619  1.0000
  C   C1980     1.0  0.86373  0.41501  0.21021  1.0000
  H   H1582     1.0  0.91089  0.43384  0.57712  1.0000
  C   C1981     1.0  0.83926  0.45441  0.90724  1.0000
  C   C1982     1.0  0.87326  0.47630  0.17803  1.0000
  C   C1983     1.0  0.97974  0.46671  0.25513  1.0000
  H   H1583     1.0  0.75306  0.29742  0.05074  1.0000
  H   H1584     1.0  0.81746  0.40979  0.12229  1.0000
  C   C1984     1.0  0.98911  0.44364  0.17416  1.0000
  H   H1585     1.0  0.83324  0.45955  0.93044  1.0000
  C   C1985     1.0  0.89243  0.41063  0.05875  1.0000
  H   H1586     1.0  0.81974  0.33287  0.81794  1.0000
  C   C1986     1.0  0.96376  0.45330  0.14870  1.0000
  H   H1587     1.0  0.76815  0.35598  0.06915  1.0000
  H   H1588     1.0  0.98328  0.47346  0.11908  1.0000
  H   H1589     1.0  0.89264  0.40570  0.56846  1.0000
  H   H1590     1.0  0.94301  0.48888  0.53295  1.0000
  C   C1987     1.0  0.81168  0.32337  0.15059  1.0000
  C   C1988     1.0  0.92824  0.48714  0.62501  1.0000
  H   H1591     1.0  0.96238  0.44298  0.55070  1.0000
  C   C1989     1.0  0.96537  0.48292  0.52636  1.0000
  C   C1990     1.0  0.76429  0.34308  0.06592  1.0000
  H   H1592     1.0  0.81522  0.29696  0.08037  1.0000
  C   C1991     1.0  0.85149  0.46449  0.87915  1.0000
  C   C1992     1.0  0.84894  0.41698  0.20182  1.0000
  C   C1993     1.0  0.84018  0.42926  0.10345  1.0000
  C   C1994     1.0  0.88735  0.44488  0.42342  1.0000
  C   C1995     1.0  0.84714  0.43206  0.20486  1.0000
  C   C1996     1.0  0.79213  0.29938  0.10465  1.0000
  C   C1997     1.0  0.82418  0.45431  0.23767  1.0000
  C   C1998     1.0  0.86910  0.46812  0.29614  1.0000
  H   H1593     1.0  0.86930  0.40023  0.52721  1.0000
  C   C1999     1.0  0.83776  0.46461  0.21271  1.0000
  C   C2000     1.0  0.78319  0.35246  0.76682  1.0000
  H   H1594     1.0  0.80978  0.39978  0.91222  1.0000
  C   C2001     1.0  0.78357  0.34944  0.72582  1.0000
  C   C2002     1.0  0.85417  0.40540  0.08839  1.0000
  H   H1595     1.0  0.90844  0.42756  0.98586  1.0000
  C   C2003     1.0  0.97719  0.45930  0.33739  1.0000
  H   H1596     1.0  0.81937  0.33283  0.16783  1.0000
  H   H1597     1.0  0.83005  0.38862  0.11038  1.0000
  C   C2004     1.0  0.83049  0.41309  0.11130  1.0000
  H   H1598     1.0  0.86523  0.40339  0.20732  1.0000
  H   H1599     1.0  0.85918  0.39585  0.08339  1.0000
  C   C2005     1.0  0.97536  0.42666  0.53435  1.0000
  H   H1600     1.0  0.90565  0.37314  0.07082  1.0000
  H   H1601     1.0  0.85174  0.45351  0.44369  1.0000
  C   C2006     1.0  0.83755  0.40118  0.10426  1.0000
  C   C2007     1.0  0.79445  0.31980  0.15354  1.0000
  C   C2008     1.0  0.88413  0.43786  0.38657  1.0000
  H   H1602     1.0  0.74511  0.35678  0.78039  1.0000
  H   H1603     1.0  0.82610  0.44645  0.26010  1.0000
  C   C2009     1.0  0.90867  0.39704  0.08998  1.0000
  C   C2010     1.0  0.81275  0.37748  0.89535  1.0000
  C   C2011     1.0  0.88765  0.44060  0.73509  1.0000
  H   H1604     1.0  0.96822  0.37852  0.57542  1.0000
  C   C2012     1.0  0.84261  0.43109  0.87583  1.0000
  C   C2013     1.0  0.86002  0.44521  0.21755  1.0000
  C   C2014     1.0  0.90222  0.38370  0.06688  1.0000
  H   H1605     1.0  0.95777  0.47596  0.37615  1.0000
  C   C2015     1.0  0.75426  0.48211  0.02920  1.0000
  H   H1606     1.0  0.88523  0.45319  0.23397  1.0000
  C   C2016     1.0  0.98105  0.48628  0.50526  1.0000
  C   C2017     1.0  0.89073  0.38367  0.04013  1.0000
  C   C2018     1.0  0.87489  0.44313  0.22552  1.0000
  H   H1607     1.0  0.88839  0.42674  0.22696  1.0000
  C   C2019     1.0  0.97449  0.47692  0.71597  1.0000
  C   C2020     1.0  0.84024  0.48416  0.75839  1.0000
  C   C2021     1.0  0.98044  0.46252  0.13731  1.0000
  C   C2022     1.0  0.80283  0.31230  0.85202  1.0000
  H   H1608     1.0  0.82947  0.44450  0.59422  1.0000
  C   C2023     1.0  0.95719  0.47218  0.71620  1.0000
  C   C2024     1.0  0.80252  0.39344  0.85311  1.0000
  H   H1609     1.0  0.95704  0.44119  0.46766  1.0000
  C   C2025     1.0  0.90026  0.43153  0.56018  1.0000
  C   C2026     1.0  0.97387  0.44053  0.55134  1.0000
  C   C2027     1.0  0.90344  0.48507  0.45893  1.0000
  C   C2028     1.0  0.94976  0.48361  0.70944  1.0000
  H   H1610     1.0  0.93127  0.47916  0.06214  1.0000
  C   C2029     1.0  0.96295  0.39900  0.37320  1.0000
  C   C2030     1.0  0.77026  0.34924  0.70463  1.0000
  C   C2031     1.0  0.88345  0.44131  0.51980  1.0000
  H   H1611     1.0  0.95057  0.45105  0.33382  1.0000
  C   C2032     1.0  0.97744  0.40185  0.26122  1.0000
  C   C2033     1.0  0.96413  0.46021  0.27682  1.0000
  H   H1612     1.0  0.86326  0.42262  0.49601  1.0000
  H   H1613     1.0  0.96761  0.39924  0.45891  1.0000
  C   C2034     1.0  0.81046  0.36586  0.86646  1.0000
  C   C2035     1.0  0.75643  0.35193  0.72424  1.0000
  C   C2036     1.0  0.96187  0.39041  0.48322  1.0000
  C   C2037     1.0  0.98241  0.40149  0.70799  1.0000
  H   H1614     1.0  0.84115  0.47306  0.81414  1.0000
  H   H1615     1.0  0.95185  0.48379  0.61251  1.0000
  H   H1616     1.0  0.81389  0.35541  0.87191  1.0000
  H   H1617     1.0  0.96920  0.42329  0.20302  1.0000
  C   C2038     1.0  0.80686  0.32658  0.82889  1.0000
  C   C2039     1.0  0.85786  0.44239  0.39100  1.0000
  C   C2040     1.0  0.85955  0.45793  0.84931  1.0000
  H   H1618     1.0  0.88215  0.43285  0.71157  1.0000
  H   H1619     1.0  0.89869  0.44534  0.43585  1.0000
  H   H1620     1.0  0.93908  0.38016  0.45568  1.0000
  H   H1621     1.0  0.94955  0.45959  0.72085  1.0000
  H   H1622     1.0  0.77065  0.34695  0.67298  1.0000
  S   S270      1.0  0.84757  0.48899  0.00465  1.0000
  H   H1623     1.0  0.86697  0.43102  0.34191  1.0000
  C   C2041     1.0  0.97950  0.40930  0.37013  1.0000
  H   H1624     1.0  0.84529  0.48393  0.16714  1.0000
  C   C2042     1.0  0.95019  0.40497  0.38441  1.0000
  H   H1625     1.0  0.98568  0.38274  0.74371  1.0000
  C   C2043     1.0  0.90183  0.46021  0.79636  1.0000
  H   H1626     1.0  0.88291  0.47683  0.89608  1.0000
  H   H1627     1.0  0.90937  0.43366  0.73114  1.0000
  H   H1628     1.0  0.74610  0.35172  0.70780  1.0000
  H   H1629     1.0  0.76129  0.30427  0.87339  1.0000
  C   C2044     1.0  0.93962  0.47258  0.42666  1.0000
  H   H1630     1.0  0.90749  0.46762  0.82017  1.0000
  H   H1631     1.0  0.85354  0.43927  0.55980  1.0000
  H   H1632     1.0  0.81699  0.48318  0.15977  1.0000
  C   C2045     1.0  0.84889  0.49129  0.72196  1.0000
  C   C2046     1.0  0.86081  0.46029  0.51931  1.0000
  C   C2047     1.0  0.97241  0.43430  0.18475  1.0000
  H   H1633     1.0  0.98982  0.40287  0.60679  1.0000
  C   C2048     1.0  0.74962  0.27798  0.96588  1.0000
  C   C2049     1.0  0.91016  0.45088  0.77666  1.0000
  H   H1634     1.0  0.76823  0.32944  0.83306  1.0000
  C   C2050     1.0  0.88087  0.48190  0.10652  1.0000
  C   C2051     1.0  0.86940  0.43658  0.37038  1.0000
  H   H1635     1.0  0.84643  0.44139  0.37837  1.0000
  P   P68       1.0  0.87908  0.45732  0.49482  1.0000
  H   H1636     1.0  0.95300  0.45790  0.26182  1.0000
  C   C2052     1.0  0.88982  0.48742  0.83562  1.0000
  H   H1637     1.0  0.94687  0.43210  0.18138  1.0000
  H   H1638     1.0  0.75221  0.31525  0.99539  1.0000
  H   H1639     1.0  0.98329  0.42229  0.67271  1.0000
  C   C2053     1.0  0.77398  0.31041  0.86052  1.0000
  C   C2054     1.0  0.88641  0.45995  0.78512  1.0000
  H   H1640     1.0  0.95998  0.38653  0.36552  1.0000
  H   H1641     1.0  0.92212  0.45120  0.78506  1.0000
  C   C2055     1.0  0.87316  0.48579  0.73965  1.0000
  C   C2056     1.0  0.87938  0.45007  0.75429  1.0000
  H   H1642     1.0  0.82756  0.48373  0.76598  1.0000
  H   H1643     1.0  0.95384  0.45712  0.13981  1.0000
  H   H1644     1.0  0.76340  0.48563  0.96677  1.0000
  C   C2057     1.0  0.89921  0.48406  0.53131  1.0000
  H   H1645     1.0  0.84072  0.48751  0.52039  1.0000
  C   C2058     1.0  0.76518  0.25039  0.89203  1.0000
  C   C2059     1.0  0.75431  0.30844  0.18060  1.0000
  H   H1646     1.0  0.98995  0.44280  0.45515  1.0000
  H   H1647     1.0  0.75776  0.30490  0.28027  1.0000
  C   C2060     1.0  0.75337  0.30791  0.25313  1.0000
  C   C2061     1.0  0.98449  0.49317  0.70877  1.0000
  C   C2062     1.0  0.77375  0.25472  0.92586  1.0000
  H   H1648     1.0  0.89166  0.49067  0.21547  1.0000
  C   C2063     1.0  0.99019  0.41707  0.69041  1.0000
  C   C2064     1.0  0.88844  0.48799  0.18531  1.0000
  C   C2065     1.0  0.95535  0.49175  0.51723  1.0000
  C   C2066     1.0  0.98679  0.45076  0.57102  1.0000
  C   C2067     1.0  0.87387  0.49243  0.33310  1.0000
  H   H1649     1.0  0.98859  0.47908  0.51131  1.0000
  H   H1650     1.0  0.98522  0.46109  0.58568  1.0000
  C   C2068     1.0  0.98989  0.42294  0.53678  1.0000
  C   C2069     1.0  0.89577  0.49377  0.11404  1.0000
  S   S271      1.0  0.91415  0.49348  0.35359  1.0000
  C   C2070     1.0  0.99328  0.45782  0.15010  1.0000
  P   P69       1.0  0.99115  0.40409  0.51909  1.0000
  H   H1651     1.0  0.99042  0.38210  0.45406  1.0000
  C   C2071     1.0  0.99285  0.46543  0.31505  1.0000
  C   C2072     1.0  0.99366  0.46292  0.41391  1.0000
  C   C2073     1.0  0.99151  0.39477  0.73030  1.0000
  H   H1652     1.0  0.91407  0.49486  0.26800  1.0000
  H   H1653     1.0  0.77797  0.24678  0.98316  1.0000
  H   H1654     1.0  0.75252  0.24519  0.14507  1.0000
  Fe  Fe135     1.0  0.94478  0.54059  0.67361  1.0000
  S   S272      1.0  0.93322  0.55946  0.68643  1.0000
  S   S273      1.0  0.97194  0.54264  0.67012  1.0000
  Fe  Fe136     1.0  0.91156  0.51604  0.65723  1.0000
  S   S274      1.0  0.89745  0.53293  0.66915  1.0000
  Fe  Fe137     1.0  0.91952  0.55064  0.63215  1.0000
  S   S275      1.0  0.91762  0.56793  0.58392  1.0000
  Fe  Fe138     1.0  0.91231  0.53974  0.72208  1.0000
  S   S276      1.0  0.90410  0.54349  0.78693  1.0000
  S   S277      1.0  0.93250  0.53317  0.61711  1.0000
  S   S278      1.0  0.92492  0.52143  0.71227  1.0000
  Fe  Fe139     1.0  0.92182  0.54099  0.25809  1.0000
  S   S279      1.0  0.93733  0.52539  0.26561  1.0000
  S   S280      1.0  0.91380  0.54116  0.19449  1.0000
  Fe  Fe140     1.0  0.92618  0.55246  0.34457  1.0000
  S   S281      1.0  0.94121  0.53722  0.35698  1.0000
  S   S282      1.0  0.92267  0.56930  0.39267  1.0000
  Fe  Fe141     1.0  0.95474  0.54576  0.29620  1.0000
  S   S283      1.0  0.98227  0.54904  0.28642  1.0000
  Fe  Fe142     1.0  0.92264  0.51841  0.32557  1.0000
  S   S284      1.0  0.94069  0.56229  0.28447  1.0000
  S   S285      1.0  0.90610  0.53280  0.31732  1.0000
  C   C2074     1.0  0.91954  0.56706  0.53082  1.0000
  C   C2075     1.0  0.91953  0.58054  0.50887  1.0000
  C   C2076     1.0  0.92052  0.58079  0.46700  1.0000
  C   C2077     1.0  0.92162  0.56759  0.44582  1.0000
  C   C2078     1.0  0.92189  0.55400  0.46744  1.0000
  C   C2079     1.0  0.92088  0.55375  0.50999  1.0000
  H   H1655     1.0  0.91849  0.59086  0.52444  1.0000
  H   H1656     1.0  0.92022  0.59130  0.45089  1.0000
  H   H1657     1.0  0.92273  0.54371  0.45144  1.0000
  H   H1658     1.0  0.92082  0.54324  0.52666  1.0000
  H   H1659     1.0  0.92099  0.50719  0.43143  1.0000
  C   C2080     1.0  0.98014  0.59289  0.61813  1.0000
  C   C2081     1.0  0.98118  0.61275  0.46556  1.0000
  H   H1660     1.0  0.92188  0.52263  0.81107  1.0000
  H   H1661     1.0  0.83112  0.55331  0.91228  1.0000
  H   H1662     1.0  0.99320  0.51669  0.77001  1.0000
  H   H1663     1.0  0.95946  0.58757  0.51912  1.0000
  H   H1664     1.0  0.97187  0.56907  0.72170  1.0000
  H   H1665     1.0  0.96380  0.66314  0.48350  1.0000
  C   C2082     1.0  0.96754  0.57859  0.61148  1.0000
  C   C2083     1.0  0.91511  0.50063  0.45940  1.0000
  C   C2084     1.0  0.96576  0.58909  0.54597  1.0000
  C   C2085     1.0  0.95966  0.49969  0.70099  1.0000
  H   H1666     1.0  0.91101  0.50615  0.15934  1.0000
  H   H1667     1.0  0.78471  0.49918  0.13030  1.0000
  C   C2086     1.0  0.80149  0.58657  0.07294  1.0000
  C   C2087     1.0  0.96381  0.65427  0.50589  1.0000
  H   H1668     1.0  0.98331  0.58204  0.29846  1.0000
  H   H1669     1.0  0.84539  0.50807  0.81350  1.0000
  H   H1670     1.0  0.79675  0.50483  0.92567  1.0000
  C   C2088     1.0  0.89469  0.53198  0.17289  1.0000
  C   C2089     1.0  0.87934  0.52555  0.19608  1.0000
  C   C2090     1.0  0.89962  0.49670  0.15339  1.0000
  C   C2091     1.0  0.86485  0.51797  0.13555  1.0000
  C   C2092     1.0  0.89497  0.53140  0.13089  1.0000
  H   H1671     1.0  0.87885  0.52612  0.22828  1.0000
  C   C2093     1.0  0.96186  0.60394  0.41495  1.0000
  H   H1672     1.0  0.90672  0.53644  0.11254  1.0000
  C   C2094     1.0  0.88590  0.53146  0.81745  1.0000
  C   C2095     1.0  0.88582  0.53151  0.85942  1.0000
  C   C2096     1.0  0.79271  0.52105  0.96971  1.0000
  C   C2097     1.0  0.97335  0.63285  0.52667  1.0000
  C   C2098     1.0  0.85679  0.51423  0.82640  1.0000
  C   C2099     1.0  0.87133  0.52256  0.80107  1.0000
  P   P70       1.0  0.98528  0.61985  0.51522  1.0000
  C   C2100     1.0  0.98594  0.60520  0.58834  1.0000
  H   H1673     1.0  0.87111  0.52257  0.76894  1.0000
  H   H1674     1.0  0.92756  0.52007  0.49598  1.0000
  C   C2101     1.0  0.96506  0.60887  0.45372  1.0000
  C   C2102     1.0  0.96092  0.50461  0.33175  1.0000
  C   C2103     1.0  0.96433  0.51111  0.36909  1.0000
  H   H1675     1.0  0.77350  0.51171  0.08014  1.0000
  C   C2104     1.0  0.98461  0.56990  0.71351  1.0000
  H   H1676     1.0  0.79836  0.56291  0.09566  1.0000
  C   C2105     1.0  0.97578  0.53944  0.43577  1.0000
  C   C2106     1.0  0.79595  0.53259  0.06811  1.0000
  C   C2107     1.0  0.96099  0.50385  0.48686  1.0000
  C   C2108     1.0  0.97336  0.50167  0.30663  1.0000
  H   H1677     1.0  0.93336  0.50000  0.61910  1.0000
  C   C2109     1.0  0.91880  0.50790  0.49574  1.0000
  C   C2110     1.0  0.97337  0.64446  0.49790  1.0000
  C   C2111     1.0  0.97006  0.54269  0.47410  1.0000
  C   C2112     1.0  0.96344  0.55499  0.47917  1.0000
  C   C2113     1.0  0.96311  0.56457  0.44628  1.0000
  C   C2114     1.0  0.96952  0.56191  0.40832  1.0000
  C   C2115     1.0  0.97584  0.54940  0.40304  1.0000
  H   H1678     1.0  0.97062  0.53571  0.50005  1.0000
  C   C2116     1.0  0.90311  0.49910  0.89447  1.0000
  H   H1679     1.0  0.96333  0.56900  0.63437  1.0000
  H   H1680     1.0  0.82072  0.55049  0.06026  1.0000
  S   S286      1.0  0.82092  0.50837  0.01503  1.0000
  C   C2117     1.0  0.96355  0.63116  0.56346  1.0000
  H   H1681     1.0  0.82075  0.52570  0.88793  1.0000
  C   C2118     1.0  0.98039  0.51509  0.38110  1.0000
  H   H1682     1.0  0.98072  0.64584  0.46918  1.0000
  H   H1683     1.0  0.95450  0.51322  0.38825  1.0000
  H   H1684     1.0  0.95491  0.60966  0.47438  1.0000
  H   H1685     1.0  0.95274  0.50997  0.47877  1.0000
  Fe  Fe143     1.0  0.83548  0.49886  0.05559  1.0000
  C   C2119     1.0  0.97709  0.50788  0.46703  1.0000
  H   H1686     1.0  0.95394  0.50849  0.69469  1.0000
  H   H1687     1.0  0.95831  0.55697  0.50845  1.0000
  H   H1688     1.0  0.95759  0.57382  0.45007  1.0000
  H   H1689     1.0  0.96906  0.56913  0.38259  1.0000
  C   C2120     1.0  0.79784  0.56999  0.06974  1.0000
  H   H1690     1.0  0.88071  0.52390  0.08010  1.0000
  H   H1691     1.0  0.81729  0.56038  0.97332  1.0000
  H   H1692     1.0  0.78823  0.56667  0.97328  1.0000
  H   H1693     1.0  0.97140  0.52209  0.58627  1.0000
  C   C2121     1.0  0.95410  0.65253  0.54257  1.0000
  C   C2122     1.0  0.81218  0.54841  0.96238  1.0000
  H   H1694     1.0  0.80504  0.59214  0.10087  1.0000
  C   C2123     1.0  0.85675  0.51405  0.86825  1.0000
  H   H1695     1.0  0.97208  0.59870  0.35791  1.0000
  C   C2124     1.0  0.79343  0.56273  0.03350  1.0000
  C   C2125     1.0  0.91090  0.49958  0.53169  1.0000
  S   S287      1.0  0.84555  0.50968  0.11421  1.0000
  C   C2126     1.0  0.75617  0.53212  0.06745  1.0000
  C   C2127     1.0  0.74444  0.50275  0.82706  1.0000
  C   C2128     1.0  0.79573  0.58872  0.00440  1.0000
  C   C2129     1.0  0.98264  0.53233  0.57816  1.0000
  S   S288      1.0  0.83782  0.50340  0.89806  1.0000
  C   C2130     1.0  0.79810  0.53683  0.98292  1.0000
  H   H1696     1.0  0.83173  0.53770  0.11121  1.0000
  C   C2131     1.0  0.79232  0.51076  0.11634  1.0000
  C   C2132     1.0  0.76592  0.53345  0.03075  1.0000
  H   H1697     1.0  0.96956  0.54894  0.57505  1.0000
  H   H1698     1.0  0.85923  0.49632  0.24470  1.0000
  C   C2133     1.0  0.87143  0.52262  0.88471  1.0000
  H   H1699     1.0  0.85272  0.51429  0.19576  1.0000
  C   C2134     1.0  0.98162  0.54754  0.57190  1.0000
  P   P71       1.0  0.78833  0.54133  0.02899  1.0000
  H   H1700     1.0  0.90060  0.50131  0.78021  1.0000
  C   C2135     1.0  0.82014  0.54445  0.92788  1.0000
  C   C2136     1.0  0.80070  0.51711  0.93524  1.0000
  C   C2137     1.0  0.81253  0.53965  0.07655  1.0000
  C   C2138     1.0  0.88021  0.52425  0.11234  1.0000
  P   P72       1.0  0.98480  0.52393  0.42880  1.0000
  C   C2139     1.0  0.96024  0.57676  0.57566  1.0000
  H   H1701     1.0  0.90420  0.50094  0.08949  1.0000
  C   C2140     1.0  0.81881  0.53247  0.10532  1.0000
  C   C2141     1.0  0.86454  0.51882  0.17749  1.0000
  H   H1702     1.0  0.94866  0.50200  0.32204  1.0000
  H   H1703     1.0  0.84297  0.49636  0.70106  1.0000
  H   H1704     1.0  0.98053  0.54739  0.37323  1.0000
  H   H1705     1.0  0.87158  0.52275  0.91686  1.0000
  H   H1706     1.0  0.98440  0.51697  0.69329  1.0000
  C   C2142     1.0  0.97464  0.60263  0.38787  1.0000
  C   C2143     1.0  0.98801  0.55858  0.68863  1.0000
  H   H1707     1.0  0.94938  0.60089  0.40599  1.0000
  C   C2144     1.0  0.75804  0.52943  0.99560  1.0000
  H   H1708     1.0  0.96304  0.62218  0.58606  1.0000
  C   C2145     1.0  0.81433  0.52885  0.91416  1.0000
  H   H1709     1.0  0.79482  0.59596  0.97917  1.0000
  H   H1710     1.0  0.76521  0.53063  0.96679  1.0000
  C   C2146     1.0  0.78597  0.51796  0.08781  1.0000
  H   H1711     1.0  0.86821  0.51152  0.30463  1.0000
  H   H1712     1.0  0.89697  0.53848  0.87242  1.0000
  C   C2147     1.0  0.80051  0.59594  0.04025  1.0000
  C   C2148     1.0  0.95397  0.64098  0.57130  1.0000
  H   H1713     1.0  0.94996  0.56590  0.57145  1.0000
  C   C2149     1.0  0.91341  0.51249  0.82947  1.0000
  H   H1714     1.0  0.76200  0.53547  0.09479  1.0000
  C   C2150     1.0  0.80869  0.51806  0.12531  1.0000
  H   H1715     1.0  0.92339  0.52171  0.88416  1.0000
  C   C2151     1.0  0.79208  0.57215  0.00110  1.0000
  C   C2152     1.0  0.97883  0.60334  0.55188  1.0000
  H   H1716     1.0  0.78264  0.51170  0.98681  1.0000
  H   H1717     1.0  0.94658  0.66004  0.54866  1.0000
  H   H1718     1.0  0.80337  0.60878  0.04278  1.0000
  H   H1719     1.0  0.94630  0.63948  0.59959  1.0000
  Fe  Fe144     1.0  0.83162  0.49654  0.96501  1.0000
  H   H1720     1.0  0.75587  0.50015  0.82722  1.0000
  H   H1721     1.0  0.98520  0.59438  0.64673  1.0000
  H   H1722     1.0  0.81376  0.51229  0.14673  1.0000
  C   C2153     1.0  0.97696  0.50445  0.70025  1.0000
  C   C2154     1.0  0.86825  0.49933  0.30251  1.0000
  H   H1723     1.0  0.87837  0.49930  0.35880  1.0000
  C   C2155     1.0  0.91426  0.51198  0.87069  1.0000
  H   H1724     1.0  0.75403  0.52535  0.85534  1.0000
  H   H1725     1.0  0.91347  0.50530  0.55995  1.0000
  H   H1726     1.0  0.97067  0.49678  0.27761  1.0000
  H   H1727     1.0  0.90367  0.49878  0.92653  1.0000
  C   C2156     1.0  0.99061  0.60613  0.39965  1.0000
  C   C2157     1.0  0.90117  0.50038  0.81204  1.0000
  H   H1728     1.0  0.87197  0.49763  0.68430  1.0000
  C   C2158     1.0  0.98924  0.50514  0.31892  1.0000
  C   C2159     1.0  0.98692  0.49878  0.47595  1.0000
  C   C2160     1.0  0.99274  0.51174  0.35610  1.0000
