data_image0
_chemical_formula_structural       HSHFeCSFeSH2CSFeHSHSHPCFeS2HFeS2FeS2FeSFeS3FeS2FeS2FeSFeS3CH2C6H4CHCH2C6H4C6H4C2H2CHCHC7H4C6H4CHCH2CH3CH2C6PHC6FeC3H3CHC2H7CH3C5SH2C2HCH2CH4SC2HCHCPH2C6HCH3C4HC3H11C2HC3PC18HCH19FeC8PC9PC4H4CH5CH2C2HC2H2C2HC6H2C2SHC3H2CH2CH2CHC2SPHCHCH2C2H3C4H2C2H2C4HCSH6CH2CSC3HCHC7HC8HC2HC3H4CHC2H5CH2C4HC5HC2HC2FeHCPH2C3H2C2H4C2H2CPCHC2FeC5SC2HSH4C2H2CHC2HC2HCH2CH2FeC2HCH3C3SC2SHFeCSFeSHCHSFeHSH3CHFeS2HFeS2FeS2FeSFeS3FeS2FeS2FeSFeS3C9H4C2H2C7H4C6H5PH3SHCHC6H4C6H4C2H2C3PC2H2C7PHC2H2CHC2H2C3H3CHC3PC8H4C6H9C3H6CH2C4H3CHC4H2C4H2CH2C3HCH5CHC4H3C4H2FeHC8PC17H18C3SCPC3HC14H3C3H12CH2CSC3H2C4H2C2SHCHCSCH2C2HC3H2C5HC2HC3HC3SCHCFeHC2PC3H4C2PHCH3C2H2SH2FeSHCH2C3HCHFeSCH2SFeSCHSCHSHFeS2FeSFeS2CFeS2FeS2FeSFeS3FeS2FeS2FeSFeS3CHC4HC6H4C4H2C6H4C6H4C7HC8H4C6H4C2H2CHSHC3H4CHCH5C3H4SHCHCPC6FeHC10H2CH5CH9C4HC2HC3HC3H2CHCH3CSC8PC3HCHC2HC4HCH2CH5CHCHCHC2H2CHC5H2CHFeC2H2CH2C2H5C2HCH3CHCH2C7H3PCHC2HSCHCHC2H4C7PC18H20C2H2C7PC18H19CH2PH2CFeHC3H8CHC2H2C6PC4H2C12H7CH12C5HC4H4CHC2SCH3C4PC2SH2CH2CH3SHC2SFeSHC2HC3FeHS2HCS2CFeS2FeS2FeSFeS3FeS2FeS2FeSFeS3C2HC2HC7H5C2H3C6H4C6H4CHCH7C6H4C6H4PHCHC2HC4H3C2HC3H2C2HCHCHC5HPC8HC3SCFeH2CSH7FeC2HCH3C3H2C5PC3HC6H5CH8C4FeC3HC2H3CH2C2PHCSHCH2CH2CHC4FeCHC5H2C2H4CHCH2C4H2C2HC4HCHCPCHCH3C7PH4C2HCHC2PH3CHCH4CH2C2H3CHC5FeC2HC9H2C2SHCHSC3HC4PHC2H2C2HC2HC7H2SHC3H3CH3FeCH6CH3CHSH2C4H2C5HCH3CH2C3H4C2HC4HCPHCSCH4C2H2C3H3CH5C2HC5H2CH2C3HCHC3HCHCH2CSC5HCSCSHFeSCHCFe2S2FeCSFeSH2CSFeS2FeS2FeSFeS3FeS2FeS2FeSFeS4CH3C6H4C3H2C6H4C6H4CPC3HC2HC7H4C6H6CSHC3H2C6PC10HC7H12CH9C2SHPC3H2C3SHCH3SCSHCHCHC2H4C3HC8PC9H2C7H12C2H6CHC2H2CH4C3H3CHC2HCHC4HCHC2HCHC2HCFeC2PH3FeHCHCHC2PCHC5HCHC3H2C3H2CHC6PC20H18CSC7PC5SC12H16CHCHC2H2FeH2C2HCHC3HCH2C3H2FeC2SC2HCHCHC3HC3HC2HCFeCHCHCHCHC7H2CH2CH2CHCHCHCHC2HCHCHC2HCH4CHC2HCHCH3FeCSCSCFeSH3CHSCFeCSFeSCHC2FeS2FeS2FeSFeS3FeS2FeS2FeSFeS3C3H2C6H4CHC2HC6H4C6H4C4H3C9H4C6H5C2HC4HPHC2HC6PC18H16CH3C4H2CH2PC4H2C4H4CHCH2CPC18H15CFeCHC3HPC7SHC2HCH2FeCH2CH7CHPCH4C3H2CH2C2HC2HC6H2SH2CHC2HCHC2H2C2HCH2CHC3HCSCHC2H2SH3CHSC2H4SC3H4SHC2HC3HCHC2H4C2H3CHC2HCH2CHCPCHCPH2C2H2C2H5CHC3HCH2SC7HCH2CHCH2SHFeHSCSCFeSH2CSFeHSCS2FeSC3HFeS2FeS2FeSFeS3FeS2FeS2FeSFeS3HSCHC7H4CH2SC6H4C6H4SCHC4H4C6H4C6H4C2H6C8PC18H20C2HC6HC7H2CHC2SFeC4H3C2H7CH4C3H2CHCHCHCHCHC3H2CH3C2H2CH2CHPC4H2PC14HCH2CHC2H15CHC2HSHC2HC3PC5HC2HC9SC2H4C2HC4H6CHCH2FeH3C12PC5HC3PC2H2CH3C2HCH3PCH4CHCH2Fe2H2C2H2CFeC2H3CH2C3HC2SHCH2CHC2HC4FeHSCSHCSHCHSFeCSHSCFeSHFeHSFeS2FeS2FeSFeS3FeS2FeS2FeSFeS3C3H2C6H5CH2C6H4C6H4C5H2CH3C6H4C6H6CH7CHCH4C2HC2HCHC2H2CSCSCHCH3C3SCH2C3HC2H4C5PC18H14CH3C2H2C2HCHC4HC3H2CFe2HC5HC4HC3H3CH4CHCH2CHC2PC4HC13HC3H2PC3H3CH6C6PC2HCSC5SFeC6H5C2HPH3CHCH5CHC2SCHCHC6PC18H20PC3HCHC2H2C2HCHC3SC3H3SCHCH2CH2C3HCHCHCH4C4H3SC2HCH2CH2C2H2CHC2
_chemical_formula_sum              "H1536 S256 Fe128 C1920 P64"
_cell_length_a       61.3618
_cell_length_b       61.2442
_cell_length_c       46.7222
_cell_angle_alpha    90.3086
_cell_angle_beta     91.0439
_cell_angle_gamma    88.1067

_space_group_name_H-M_alt    "P 1"
_space_group_IT_number       1

loop_
  _space_group_symop_operation_xyz
  'x, y, z'

loop_
  _atom_site_type_symbol
  _atom_site_label
  _atom_site_symmetry_multiplicity
  _atom_site_fract_x
  _atom_site_fract_y
  _atom_site_fract_z
  _atom_site_occupancy
  H   H1        1.0  0.47450  0.18916  0.26620  1.0000
  S   S1        1.0  0.39120  0.07383  0.02824  1.0000
  H   H2        1.0  0.17225  0.31234  0.31521  1.0000
  Fe  Fe1       1.0  0.35919  0.12040  0.46081  1.0000
  C   C1        1.0  0.17704  0.45828  0.39849  1.0000
  S   S2        1.0  0.33929  0.13530  0.42338  1.0000
  Fe  Fe2       1.0  0.38193  0.10847  0.01548  1.0000
  S   S3        1.0  0.37589  0.13861  0.04444  1.0000
  H   H3        1.0  0.14135  0.42842  0.43597  1.0000
  H   H4        1.0  0.04701  0.40778  0.38599  1.0000
  C   C2        1.0  0.47955  0.00907  0.04690  1.0000
  S   S4        1.0  0.38997  0.10122  0.45266  1.0000
  Fe  Fe3       1.0  0.10206  0.37885  0.01368  1.0000
  H   H5        1.0  0.40478  0.27555  0.10514  1.0000
  S   S5        1.0  0.13037  0.36410  0.04133  1.0000
  H   H6        1.0  0.47331  0.09195  0.07181  1.0000
  S   S6        1.0  0.06863  0.41323  0.46628  1.0000
  H   H7        1.0  0.42244  0.14557  0.04677  1.0000
  P   P1        1.0  0.18127  0.46593  0.01251  1.0000
  C   C3        1.0  0.25302  0.27971  0.15882  1.0000
  Fe  Fe4       1.0  0.10089  0.39765  0.45391  1.0000
  S   S7        1.0  0.10723  0.40357  0.40602  1.0000
  S   S8        1.0  0.06861  0.39109  0.02728  1.0000
  H   H8        1.0  0.41818  0.13012  0.13235  1.0000
  Fe  Fe5       1.0  0.39082  0.22253  0.22537  1.0000
  S   S9        1.0  0.39016  0.18698  0.23540  1.0000
  S   S10       1.0  0.42286  0.23722  0.21181  1.0000
  Fe  Fe6       1.0  0.34110  0.22975  0.23390  1.0000
  S   S11       1.0  0.33798  0.19363  0.24444  1.0000
  S   S12       1.0  0.30883  0.25142  0.23511  1.0000
  Fe  Fe7       1.0  0.36837  0.19659  0.27201  1.0000
  S   S13       1.0  0.38064  0.18107  0.31466  1.0000
  Fe  Fe8       1.0  0.36022  0.18661  0.20701  1.0000
  S   S14       1.0  0.35694  0.15642  0.17766  1.0000
  S   S15       1.0  0.37070  0.23280  0.26348  1.0000
  S   S16       1.0  0.36167  0.22208  0.19490  1.0000
  Fe  Fe9       1.0  0.20573  0.41416  0.22668  1.0000
  S   S17       1.0  0.17265  0.40273  0.23872  1.0000
  S   S18       1.0  0.20562  0.44962  0.21032  1.0000
  Fe  Fe10      1.0  0.22580  0.36621  0.22901  1.0000
  S   S19       1.0  0.19329  0.35278  0.24031  1.0000
  S   S20       1.0  0.25844  0.34613  0.22281  1.0000
  Fe  Fe11      1.0  0.17853  0.37570  0.20661  1.0000
  S   S21       1.0  0.14894  0.37030  0.17676  1.0000
  Fe  Fe12      1.0  0.19009  0.38121  0.27116  1.0000
  S   S22       1.0  0.18264  0.37510  0.31854  1.0000
  S   S23       1.0  0.21099  0.38760  0.19350  1.0000
  S   S24       1.0  0.22323  0.39414  0.26113  1.0000
  C   C4        1.0  0.43039  0.12173  0.11940  1.0000
  H   H9        1.0  0.22975  0.46228  0.26267  1.0000
  H   H10       1.0  0.42758  0.16405  0.09281  1.0000
  C   C5        1.0  0.29519  0.27801  0.23182  1.0000
  C   C6        1.0  0.27271  0.28037  0.23774  1.0000
  C   C7        1.0  0.26123  0.30086  0.23529  1.0000
  C   C8        1.0  0.27195  0.31954  0.22660  1.0000
  C   C9        1.0  0.29434  0.31711  0.22034  1.0000
  C   C10       1.0  0.30585  0.29668  0.22299  1.0000
  H   H11       1.0  0.26410  0.26620  0.24445  1.0000
  H   H12       1.0  0.24408  0.30218  0.24017  1.0000
  H   H13       1.0  0.30297  0.33123  0.21353  1.0000
  H   H14       1.0  0.32301  0.29538  0.21815  1.0000
  C   C11       1.0  0.44901  0.22562  0.22092  1.0000
  H   H15       1.0  0.31240  0.13334  0.47898  1.0000
  C   C12       1.0  0.45164  0.20896  0.24117  1.0000
  H   H16       1.0  0.46585  0.24705  0.19304  1.0000
  H   H17       1.0  0.43744  0.20241  0.25097  1.0000
  C   C13       1.0  0.12834  0.39518  0.38212  1.0000
  C   C14       1.0  0.12602  0.40041  0.35287  1.0000
  C   C15       1.0  0.14246  0.39457  0.33318  1.0000
  C   C16       1.0  0.16152  0.38342  0.34247  1.0000
  C   C17       1.0  0.16383  0.37818  0.37172  1.0000
  C   C18       1.0  0.14736  0.38396  0.39142  1.0000
  H   H18       1.0  0.11134  0.40893  0.34531  1.0000
  H   H19       1.0  0.14030  0.39843  0.31073  1.0000
  H   H20       1.0  0.17853  0.36962  0.37920  1.0000
  H   H21       1.0  0.14949  0.38000  0.41384  1.0000
  C   C19       1.0  0.13545  0.36743  0.07887  1.0000
  C   C20       1.0  0.15703  0.36546  0.08974  1.0000
  C   C21       1.0  0.16165  0.36698  0.11946  1.0000
  C   C22       1.0  0.14462  0.36993  0.13883  1.0000
  C   C23       1.0  0.12311  0.37179  0.12793  1.0000
  C   C24       1.0  0.11854  0.37089  0.09822  1.0000
  H   H22       1.0  0.17025  0.36275  0.07503  1.0000
  H   H23       1.0  0.17828  0.36525  0.12743  1.0000
  H   H24       1.0  0.10979  0.37358  0.14265  1.0000
  H   H25       1.0  0.10186  0.37215  0.09035  1.0000
  C   C25       1.0  0.15094  0.46092  0.44728  1.0000
  C   C26       1.0  0.16412  0.47824  0.44035  1.0000
  H   H26       1.0  0.98834  0.35669  0.45091  1.0000
  H   H27       1.0  0.18324  0.44852  0.26245  1.0000
  C   C27       1.0  0.12949  0.32544  0.45209  1.0000
  H   H28       1.0  0.48062  0.29350  0.33878  1.0000
  C   C28       1.0  0.14627  0.48126  0.22584  1.0000
  H   H29       1.0  0.13216  0.28149  0.44039  1.0000
  C   C29       1.0  0.43413  0.01324  0.04322  1.0000
  C   C30       1.0  0.35100  0.14814  0.39342  1.0000
  C   C31       1.0  0.33727  0.15714  0.37175  1.0000
  C   C32       1.0  0.34592  0.16746  0.34765  1.0000
  C   C33       1.0  0.36851  0.16889  0.34490  1.0000
  C   C34       1.0  0.38223  0.15994  0.36666  1.0000
  C   C35       1.0  0.37359  0.14954  0.39066  1.0000
  H   H30       1.0  0.31978  0.15615  0.37359  1.0000
  H   H31       1.0  0.33511  0.17424  0.33118  1.0000
  H   H32       1.0  0.39967  0.16119  0.36505  1.0000
  H   H33       1.0  0.38438  0.14280  0.40717  1.0000
  C   C36       1.0  0.36288  0.15185  0.14069  1.0000
  C   C37       1.0  0.36110  0.13065  0.12919  1.0000
  C   C38       1.0  0.36520  0.12622  0.10000  1.0000
  C   C39       1.0  0.37117  0.14299  0.08177  1.0000
  C   C40       1.0  0.37324  0.16415  0.09334  1.0000
  C   C41       1.0  0.36917  0.16857  0.12255  1.0000
  H   H34       1.0  0.35617  0.11759  0.14289  1.0000
  H   H35       1.0  0.36335  0.10991  0.09152  1.0000
  H   H36       1.0  0.37775  0.17731  0.07952  1.0000
  H   H37       1.0  0.37050  0.18498  0.13092  1.0000
  C   C42       1.0  0.42409  0.11189  0.09364  1.0000
  H   H38       1.0  0.48127  0.19872  0.05807  1.0000
  C   C43       1.0  0.00857  0.47958  0.02208  1.0000
  H   H39       1.0  0.38386  0.18064  0.01126  1.0000
  H   H40       1.0  0.40828  0.18503  0.43116  1.0000
  C   C44       1.0  0.16443  0.44063  0.40629  1.0000
  H   H41       1.0  0.47607  0.17933  0.01211  1.0000
  H   H42       1.0  0.03490  0.34653  0.41915  1.0000
  H   H43       1.0  0.00899  0.35473  0.02355  1.0000
  C   C45       1.0  0.12892  0.43936  0.05010  1.0000
  H   H44       1.0  0.47545  0.05160  0.38760  1.0000
  H   H45       1.0  0.07795  0.45735  0.46617  1.0000
  C   C46       1.0  0.24927  0.34501  0.09951  1.0000
  C   C47       1.0  0.25393  0.35956  0.12175  1.0000
  C   C48       1.0  0.24587  0.35605  0.14904  1.0000
  C   C49       1.0  0.23289  0.33817  0.15413  1.0000
  C   C50       1.0  0.22800  0.32359  0.13186  1.0000
  C   C51       1.0  0.23660  0.32692  0.10463  1.0000
  P   P2        1.0  0.21396  0.29886  0.13885  1.0000
  H   H46       1.0  0.14052  0.46206  0.46580  1.0000
  C   C52       1.0  0.19985  0.30074  0.17243  1.0000
  C   C53       1.0  0.20621  0.28762  0.19594  1.0000
  C   C54       1.0  0.12780  0.47495  0.18023  1.0000
  C   C55       1.0  0.17541  0.30196  0.22270  1.0000
  C   C56       1.0  0.16895  0.31498  0.19940  1.0000
  C   C57       1.0  0.18122  0.31458  0.17449  1.0000
  Fe  Fe13      1.0  0.42011  0.07797  0.00037  1.0000
  C   C58       1.0  0.15282  0.44549  0.28402  1.0000
  C   C59       1.0  0.01394  0.42205  0.44117  1.0000
  C   C60       1.0  0.44907  0.16109  0.02673  1.0000
  H   H47       1.0  0.47224  0.06639  0.12209  1.0000
  H   H48       1.0  0.16106  0.32183  0.06232  1.0000
  H   H49       1.0  0.20460  0.45477  0.30657  1.0000
  C   C61       1.0  0.48287  0.06722  0.39104  1.0000
  H   H50       1.0  0.48113  0.31992  0.37859  1.0000
  C   C62       1.0  0.02566  0.40875  0.42207  1.0000
  C   C63       1.0  0.19247  0.29454  0.11260  1.0000
  H   H51       1.0  0.25591  0.34744  0.07850  1.0000
  H   H52       1.0  0.26418  0.37331  0.11810  1.0000
  H   H53       1.0  0.25018  0.36685  0.16657  1.0000
  H   H54       1.0  0.22731  0.33546  0.17566  1.0000
  H   H55       1.0  0.23376  0.31530  0.08751  1.0000
  H   H56       1.0  0.04588  0.44804  0.37993  1.0000
  H   H57       1.0  0.41909  0.25822  0.06083  1.0000
  C   C64       1.0  0.21172  0.43288  0.37284  1.0000
  H   H58       1.0  0.15459  0.32573  0.20074  1.0000
  H   H59       1.0  0.17598  0.32495  0.15676  1.0000
  H   H60       1.0  0.03263  0.48707  0.48970  1.0000
  C   C65       1.0  0.19412  0.28841  0.22104  1.0000
  C   C66       1.0  0.45499  0.16765  0.19053  1.0000
  C   C67       1.0  0.19382  0.45925  0.12712  1.0000
  C   C68       1.0  0.46875  0.23754  0.31447  1.0000
  C   C69       1.0  0.15704  0.31923  0.32322  1.0000
  S   S25       1.0  0.43550  0.13759  0.48251  1.0000
  H   H61       1.0  0.12218  0.22085  0.39665  1.0000
  H   H62       1.0  0.20292  0.41530  0.33407  1.0000
  C   C70       1.0  0.26894  0.24551  0.14166  1.0000
  C   C71       1.0  0.11591  0.24986  0.37151  1.0000
  H   H63       1.0  0.45580  0.16681  0.44397  1.0000
  C   C72       1.0  0.44575  0.00352  0.02073  1.0000
  H   H64       1.0  0.19214  0.32740  0.09533  1.0000
  H   H65       1.0  0.40717  0.11259  0.08661  1.0000
  C   C73       1.0  0.28484  0.24879  0.45195  1.0000
  H   H66       1.0  0.28311  0.26498  0.17522  1.0000
  H   H67       1.0  0.15504  0.25670  0.09402  1.0000
  H   H68       1.0  0.48286  0.15270  0.30170  1.0000
  H   H69       1.0  0.42653  0.15723  0.21234  1.0000
  S   S26       1.0  0.06895  0.45426  0.02601  1.0000
  C   C74       1.0  0.29392  0.21951  0.48522  1.0000
  C   C75       1.0  0.45682  0.18890  0.40833  1.0000
  H   H70       1.0  0.27275  0.25835  0.43979  1.0000
  C   C76       1.0  0.46805  0.10995  0.11142  1.0000
  H   H71       1.0  0.48077  0.03019  0.14279  1.0000
  C   C77       1.0  0.47364  0.08289  0.00433  1.0000
  P   P3        1.0  0.99746  0.46184  0.46252  1.0000
  H   H72       1.0  0.00611  0.41452  0.45897  1.0000
  H   H73       1.0  0.48358  0.10836  0.18257  1.0000
  C   C78       1.0  0.17077  0.34118  0.44146  1.0000
  C   C79       1.0  0.21297  0.41541  0.35331  1.0000
  C   C80       1.0  0.45233  0.12091  0.12825  1.0000
  C   C81       1.0  0.15651  0.28872  0.07552  1.0000
  C   C82       1.0  0.21232  0.47525  0.22585  1.0000
  C   C83       1.0  0.18721  0.45242  0.30796  1.0000
  H   H74       1.0  0.16284  0.47191  0.18774  1.0000
  C   C84       1.0  0.44183  0.22282  0.10994  1.0000
  H   H75       1.0  0.99831  0.42896  0.00876  1.0000
  H   H76       1.0  0.47252  0.17502  0.34119  1.0000
  H   H77       1.0  0.09797  0.46169  0.09352  1.0000
  C   C85       1.0  0.43528  0.99539  0.41474  1.0000
  C   C86       1.0  0.10657  0.46832  0.38905  1.0000
  C   C87       1.0  0.09661  0.45735  0.36635  1.0000
  C   C88       1.0  0.09333  0.46778  0.34003  1.0000
  H   H78       1.0  0.11067  0.28124  0.35182  1.0000
  C   C89       1.0  0.07559  0.30993  0.40153  1.0000
  C   C90       1.0  0.35669  0.19999  0.45022  1.0000
  C   C91       1.0  0.15448  0.44927  0.33565  1.0000
  H   H79       1.0  0.22383  0.44527  0.41336  1.0000
  H   H80       1.0  0.42226  0.00386  0.33438  1.0000
  H   H81       1.0  0.10862  0.46032  0.40963  1.0000
  H   H82       1.0  0.09124  0.44084  0.36942  1.0000
  H   H83       1.0  0.08529  0.45934  0.32258  1.0000
  H   H84       1.0  0.43613  0.02925  0.08419  1.0000
  H   H85       1.0  0.43468  0.09388  0.05653  1.0000
  H   H86       1.0  0.43710  0.22389  0.30701  1.0000
  H   H87       1.0  0.19930  0.27848  0.23920  1.0000
  H   H88       1.0  0.16132  0.48179  0.23825  1.0000
  H   H89       1.0  0.22772  0.38396  0.34353  1.0000
  C   C92       1.0  0.40634  0.00982  0.34112  1.0000
  C   C93       1.0  0.43657  0.23216  0.08319  1.0000
  H   H90       1.0  0.34066  0.20220  0.44039  1.0000
  C   C94       1.0  0.36521  0.02513  0.35863  1.0000
  C   C95       1.0  0.38228  0.03974  0.35672  1.0000
  C   C96       1.0  0.40280  0.03199  0.34752  1.0000
  P   P4        1.0  0.37773  0.06844  0.36465  1.0000
  C   C97       1.0  0.35529  0.07077  0.38927  1.0000
  C   C98       1.0  0.40164  0.07782  0.38384  1.0000
  C   C99       1.0  0.40873  0.09922  0.38056  1.0000
  C   C100      1.0  0.42642  0.10660  0.39677  1.0000
  C   C101      1.0  0.43742  0.09263  0.41606  1.0000
  C   C102      1.0  0.43067  0.07126  0.41935  1.0000
  C   C103      1.0  0.41283  0.06390  0.40343  1.0000
  C   C104      1.0  0.33588  0.08258  0.38233  1.0000
  C   C105      1.0  0.31885  0.08399  0.40184  1.0000
  C   C106      1.0  0.32078  0.07319  0.42806  1.0000
  C   C107      1.0  0.33969  0.06082  0.43471  1.0000
  C   C108      1.0  0.35685  0.05968  0.41550  1.0000
  C   C109      1.0  0.37240  0.08348  0.33171  1.0000
  C   C110      1.0  0.37440  0.07298  0.30498  1.0000
  C   C111      1.0  0.36985  0.08445  0.27961  1.0000
  C   C112      1.0  0.36331  0.10650  0.28063  1.0000
  C   C113      1.0  0.36135  0.11709  0.30701  1.0000
  C   C114      1.0  0.36583  0.10569  0.33242  1.0000
  H   H91       1.0  0.24882  0.41348  0.42256  1.0000
  C   C115      1.0  0.23523  0.27770  0.13969  1.0000
  H   H92       1.0  0.13252  0.24133  0.44053  1.0000
  H   H93       1.0  0.34912  0.03073  0.36521  1.0000
  H   H94       1.0  0.41606  0.04308  0.34542  1.0000
  H   H95       1.0  0.40039  0.11057  0.36626  1.0000
  H   H96       1.0  0.43110  0.12339  0.39510  1.0000
  H   H97       1.0  0.45095  0.09846  0.42883  1.0000
  H   H98       1.0  0.43872  0.06070  0.43514  1.0000
  H   H99       1.0  0.40743  0.04754  0.40721  1.0000
  H   H100      1.0  0.33363  0.09083  0.36211  1.0000
  H   H101      1.0  0.30429  0.09381  0.39682  1.0000
  H   H102      1.0  0.30771  0.07451  0.44331  1.0000
  H   H103      1.0  0.34127  0.05231  0.45498  1.0000
  H   H104      1.0  0.37126  0.04995  0.42120  1.0000
  H   H105      1.0  0.37917  0.05587  0.30353  1.0000
  H   H106      1.0  0.37115  0.07621  0.25910  1.0000
  H   H107      1.0  0.35963  0.11542  0.26101  1.0000
  H   H108      1.0  0.35616  0.13418  0.30769  1.0000
  H   H109      1.0  0.36376  0.11414  0.35265  1.0000
  H   H110      1.0  0.02439  0.47156  0.41228  1.0000
  Fe  Fe14      1.0  0.38006  0.07758  0.48659  1.0000
  C   C116      1.0  0.22709  0.39747  0.35866  1.0000
  C   C117      1.0  0.44779  0.23710  0.30224  1.0000
  C   C118      1.0  0.17266  0.46836  0.12867  1.0000
  C   C119      1.0  0.10770  0.44833  0.13506  1.0000
  C   C120      1.0  0.15523  0.45530  0.13610  1.0000
  C   C121      1.0  0.15934  0.43301  0.14175  1.0000
  C   C122      1.0  0.18049  0.42401  0.14021  1.0000
  C   C123      1.0  0.23498  0.25983  0.12070  1.0000
  P   P5        1.0  0.47948  0.12861  0.35546  1.0000
  C   C124      1.0  0.43277  0.16409  0.19292  1.0000
  C   C125      1.0  0.10369  0.43182  0.15487  1.0000
  C   C126      1.0  0.08821  0.41614  0.14867  1.0000
  C   C127      1.0  0.07664  0.41676  0.12264  1.0000
  C   C128      1.0  0.08024  0.43331  0.10302  1.0000
  C   C129      1.0  0.09558  0.44914  0.10922  1.0000
  C   C130      1.0  0.45982  0.16864  0.42162  1.0000
  C   C131      1.0  0.35860  0.01224  0.49159  1.0000
  C   C132      1.0  0.37427  0.19459  0.43268  1.0000
  P   P6        1.0  0.19339  0.45610  0.36673  1.0000
  C   C133      1.0  0.48271  0.25448  0.30791  1.0000
  C   C134      1.0  0.99389  0.48675  0.00043  1.0000
  C   C135      1.0  0.43381  0.23291  0.13484  1.0000
  C   C136      1.0  0.26965  0.26356  0.15998  1.0000
  H   H111      1.0  0.14649  0.42249  0.14810  1.0000
  H   H112      1.0  0.18350  0.40692  0.14530  1.0000
  H   H113      1.0  0.28184  0.23297  0.14277  1.0000
  H   H114      1.0  0.20551  0.47887  0.06387  1.0000
  C   C137      1.0  0.44859  0.18321  0.14322  1.0000
  H   H115      1.0  0.11288  0.43070  0.17487  1.0000
  H   H116      1.0  0.08556  0.40319  0.16381  1.0000
  H   H117      1.0  0.06499  0.40432  0.11754  1.0000
  H   H118      1.0  0.07126  0.43376  0.08279  1.0000
  H   H119      1.0  0.18664  0.34758  0.43729  1.0000
  C   C138      1.0  0.22435  0.47695  0.25146  1.0000
  H   H120      1.0  0.44924  0.28216  0.26035  1.0000
  H   H121      1.0  0.16489  0.33241  0.39769  1.0000
  C   C139      1.0  0.46152  0.19106  0.37938  1.0000
  C   C140      1.0  0.99457  0.36029  0.01168  1.0000
  H   H122      1.0  0.41419  0.25923  0.15254  1.0000
  C   C141      1.0  0.12619  0.34458  0.31794  1.0000
  C   C142      1.0  0.20781  0.45324  0.00705  1.0000
  H   H123      1.0  0.12529  0.44258  0.31133  1.0000
  H   H124      1.0  0.44624  0.15313  0.00630  1.0000
  C   C143      1.0  0.12155  0.28442  0.39597  1.0000
  C   C144      1.0  0.11864  0.33840  0.34468  1.0000
  H   H125      1.0  0.14254  0.28660  0.06135  1.0000
  C   C145      1.0  0.46731  0.15048  0.40596  1.0000
  C   C146      1.0  0.16358  0.27190  0.09390  1.0000
  C   C147      1.0  0.17514  0.44897  0.28283  1.0000
  C   C148      1.0  0.39492  0.19017  0.44473  1.0000
  C   C149      1.0  0.47551  0.27064  0.28836  1.0000
  C   C150      1.0  0.15133  0.44200  0.43044  1.0000
  H   H126      1.0  0.21423  0.43020  0.13297  1.0000
  H   H127      1.0  0.37167  0.19320  0.40974  1.0000
  C   C151      1.0  0.41839  0.17030  0.17075  1.0000
  C   C152      1.0  0.18131  0.27488  0.11261  1.0000
  S   S27       1.0  0.45345  0.06486  0.01377  1.0000
  H   H128      1.0  0.41404  0.18776  0.48367  1.0000
  C   C153      1.0  0.05461  0.31808  0.40775  1.0000
  C   C154      1.0  0.08938  0.34636  0.40683  1.0000
  C   C155      1.0  0.06838  0.35448  0.41276  1.0000
  H   H129      1.0  0.17198  0.34905  0.48661  1.0000
  H   H130      1.0  0.17009  0.48573  0.12525  1.0000
  C   C156      1.0  0.47271  0.20146  0.24975  1.0000
  H   H131      1.0  0.11750  0.35725  0.30583  1.0000
  H   H132      1.0  0.44246  0.22476  0.06363  1.0000
  C   C157      1.0  0.08298  0.47547  0.01049  1.0000
  H   H133      1.0  0.22033  0.27663  0.19513  1.0000
  H   H134      1.0  0.10396  0.34635  0.35258  1.0000
  C   C158      1.0  0.19775  0.43711  0.13305  1.0000
  H   H135      1.0  0.43761  0.22607  0.15573  1.0000
  C   C159      1.0  0.46771  0.23405  0.20855  1.0000
  C   C160      1.0  0.45528  0.18247  0.07948  1.0000
  S   S28       1.0  0.39063  0.04175  0.47680  1.0000
  P   P7        1.0  0.45818  0.19779  0.11257  1.0000
  H   H136      1.0  0.07798  0.29262  0.39762  1.0000
  C   C161      1.0  0.43558  0.15684  0.04959  1.0000
  H   H137      1.0  0.04114  0.30712  0.40868  1.0000
  C   C162      1.0  0.45464  0.26998  0.27589  1.0000
  H   H138      1.0  0.10279  0.35741  0.40715  1.0000
  H   H139      1.0  0.06574  0.37167  0.41772  1.0000
  C   C163      1.0  0.13016  0.32236  0.36080  1.0000
  C   C164      1.0  0.42617  0.18005  0.14617  1.0000
  H   H140      1.0  0.40105  0.16827  0.17307  1.0000
  H   H141      1.0  0.41453  0.18581  0.12997  1.0000
  H   H142      1.0  0.02639  0.39121  0.42508  1.0000
  C   C165      1.0  0.47845  0.12439  0.48188  1.0000
  C   C166      1.0  0.12785  0.25009  0.42115  1.0000
  C   C167      1.0  0.16112  0.42119  0.07037  1.0000
  C   C168      1.0  0.13845  0.42399  0.06880  1.0000
  H   H143      1.0  0.11133  0.44141  0.04873  1.0000
  H   H144      1.0  0.16609  0.30262  0.24217  1.0000
  C   C169      1.0  0.16473  0.44882  0.03386  1.0000
  C   C170      1.0  0.17429  0.43379  0.05331  1.0000
  H   H145      1.0  0.14602  0.44925  0.35571  1.0000
  H   H146      1.0  0.31198  0.26618  0.43596  1.0000
  C   C171      1.0  0.08225  0.47334  0.47359  1.0000
  C   C172      1.0  0.05103  0.34032  0.41350  1.0000
  C   C173      1.0  0.42053  0.25184  0.13309  1.0000
  C   C174      1.0  0.25171  0.24373  0.12187  1.0000
  H   H147      1.0  0.24021  0.46312  0.35693  1.0000
  C   C175      1.0  0.46153  0.10034  0.08538  1.0000
  S   S29       1.0  0.02928  0.36700  0.47825  1.0000
  H   H148      1.0  0.42671  0.01015  0.40756  1.0000
  H   H149      1.0  0.16844  0.40923  0.08487  1.0000
  H   H150      1.0  0.12824  0.41421  0.08200  1.0000
  H   H151      1.0  0.22212  0.25830  0.10480  1.0000
  H   H152      1.0  0.20733  0.46951  0.12249  1.0000
  H   H153      1.0  0.19182  0.43171  0.05539  1.0000
  C   C176      1.0  0.35971  0.20175  0.48005  1.0000
  H   H154      1.0  0.46851  0.13487  0.41670  1.0000
  H   H155      1.0  0.11132  0.24091  0.35237  1.0000
  C   C177      1.0  0.42330  0.25117  0.08149  1.0000
  S   S30       1.0  0.09376  0.36626  0.47644  1.0000
  C   C178      1.0  0.23886  0.41407  0.40318  1.0000
  C   C179      1.0  0.15833  0.33249  0.41899  1.0000
  C   C180      1.0  0.24006  0.39679  0.38354  1.0000
  H   H156      1.0  0.47650  0.02545  0.08754  1.0000
  C   C181      1.0  0.23125  0.47858  0.35496  1.0000
  H   H157      1.0  0.25091  0.38279  0.38762  1.0000
  C   C182      1.0  0.12624  0.48606  0.23859  1.0000
  C   C183      1.0  0.27833  0.23200  0.46972  1.0000
  C   C184      1.0  0.14199  0.45182  0.03280  1.0000
  C   C185      1.0  0.45714  0.12258  0.33117  1.0000
  C   C186      1.0  0.12763  0.27294  0.42097  1.0000
  C   C187      1.0  0.46938  0.17301  0.36370  1.0000
  C   C188      1.0  0.14936  0.31273  0.34976  1.0000
  H   H158      1.0  0.45047  0.20281  0.42036  1.0000
  C   C189      1.0  0.44519  0.02109  0.06732  1.0000
  C   C190      1.0  0.12202  0.23855  0.39645  1.0000
  C   C191      1.0  0.43685  0.13374  0.33322  1.0000
  C   C192      1.0  0.42014  0.12977  0.31332  1.0000
  C   C193      1.0  0.42348  0.11462  0.29127  1.0000
  C   C194      1.0  0.44360  0.10342  0.28904  1.0000
  C   C195      1.0  0.46042  0.10747  0.30879  1.0000
  C   C196      1.0  0.14708  0.47573  0.19684  1.0000
  H   H159      1.0  0.03827  0.44713  0.49173  1.0000
  C   C197      1.0  0.17740  0.47682  0.41627  1.0000
  C   C198      1.0  0.46858  0.00126  0.02242  1.0000
  H   H160      1.0  0.14367  0.44210  0.26452  1.0000
  C   C199      1.0  0.10770  0.47954  0.19324  1.0000
  C   C200      1.0  0.38935  0.99532  0.34356  1.0000
  C   C201      1.0  0.43964  0.10132  0.07661  1.0000
  H   H161      1.0  0.16456  0.42585  0.39344  1.0000
  H   H162      1.0  0.13436  0.46385  0.01866  1.0000
  H   H163      1.0  0.45865  0.20665  0.36895  1.0000
  H   H164      1.0  0.25397  0.29367  0.17313  1.0000
  C   C202      1.0  0.11563  0.27270  0.37126  1.0000
  H   H165      1.0  0.41459  0.20601  0.01161  1.0000
  C   C203      1.0  0.44073  0.25333  0.28302  1.0000
  C   C204      1.0  0.18489  0.31156  0.09453  1.0000
  H   H166      1.0  0.43384  0.14570  0.34989  1.0000
  H   H167      1.0  0.40461  0.13867  0.31478  1.0000
  H   H168      1.0  0.41052  0.11180  0.27577  1.0000
  H   H169      1.0  0.44621  0.09178  0.27181  1.0000
  H   H170      1.0  0.46517  0.08266  0.35649  1.0000
  C   C205      1.0  0.13751  0.32465  0.42411  1.0000
  H   H171      1.0  0.09263  0.47879  0.18086  1.0000
  H   H172      1.0  0.45581  0.01235  0.44455  1.0000
  C   C206      1.0  0.16708  0.30857  0.07595  1.0000
  C   C207      1.0  0.17707  0.45222  0.33465  1.0000
  C   C208      1.0  0.03664  0.44076  0.39672  1.0000
  C   C209      1.0  0.03722  0.41809  0.40004  1.0000
  H   H173      1.0  0.47606  0.09894  0.30656  1.0000
  C   C210      1.0  0.32258  0.24077  0.46531  1.0000
  C   C211      1.0  0.01295  0.44482  0.43782  1.0000
  C   C212      1.0  0.02441  0.45408  0.41531  1.0000
  C   C213      1.0  0.41281  0.19445  0.99418  1.0000
  C   C214      1.0  0.45688  0.11806  0.48445  1.0000
  H   H174      1.0  0.47894  0.23436  0.14244  1.0000
  C   C215      1.0  0.09317  0.32406  0.40117  1.0000
  C   C216      1.0  0.43863  0.16744  0.07584  1.0000
  H   H175      1.0  0.42467  0.25264  0.27297  1.0000
  C   C217      1.0  0.46297  0.17695  0.16571  1.0000
  C   C218      1.0  0.14248  0.44582  0.31038  1.0000
  Fe  Fe15      1.0  0.07750  0.42193  0.00539  1.0000
  H   H176      1.0  0.40710  0.99901  0.46145  1.0000
  C   C219      1.0  0.41524  0.26097  0.10643  1.0000
  P   P8        1.0  0.12076  0.31392  0.39538  1.0000
  H   H177      1.0  0.15861  0.30046  0.36190  1.0000
  H   H178      1.0  0.47402  0.22448  0.32861  1.0000
  C   C220      1.0  0.46789  0.01899  0.06916  1.0000
  C   C221      1.0  0.46873  0.18674  0.05621  1.0000
  C   C222      1.0  0.22471  0.43204  0.39790  1.0000
  H   H179      1.0  0.15174  0.34062  0.28714  1.0000
  H   H180      1.0  0.45680  0.12885  0.14810  1.0000
  C   C223      1.0  0.14543  0.33511  0.30730  1.0000
  C   C224      1.0  0.45166  0.99654  0.43587  1.0000
  H   H181      1.0  0.11342  0.31964  0.45662  1.0000
  H   H182      1.0  0.48193  0.13713  0.99618  1.0000
  H   H183      1.0  0.41656  0.01532  0.04172  1.0000
  H   H184      1.0  0.25139  0.22985  0.10740  1.0000
  C   C225      1.0  0.14201  0.33404  0.47449  1.0000
  C   C226      1.0  0.30695  0.25320  0.44980  1.0000
  H   H185      1.0  0.46590  0.16401  0.20843  1.0000
  H   H186      1.0  0.48198  0.14134  0.47844  1.0000
  C   C227      1.0  0.39812  0.19176  0.47434  1.0000
  P   P9        1.0  0.12866  0.46775  0.14266  1.0000
  C   C228      1.0  0.39547  0.18023  0.99399  1.0000
  H   H187      1.0  0.18607  0.26200  0.12750  1.0000
  C   C229      1.0  0.36881  0.00297  0.35231  1.0000
  C   C230      1.0  0.31619  0.22370  0.48295  1.0000
  Fe  Fe16      1.0  0.40388  0.12090  0.48846  1.0000
  C   C231      1.0  0.47226  0.15248  0.37681  1.0000
  C   C232      1.0  0.20872  0.48016  0.35987  1.0000
  C   C233      1.0  0.20955  0.43110  0.99905  1.0000
  C   C234      1.0  0.46951  0.10545  0.00543  1.0000
  C   C235      1.0  0.46572  0.17596  0.03003  1.0000
  S   S31       1.0  0.11823  0.41148  0.49254  1.0000
  C   C236      1.0  0.47717  0.08496  0.37332  1.0000
  C   C237      1.0  0.37914  0.01536  0.48000  1.0000
  H   H188      1.0  0.08098  0.48730  0.43142  1.0000
  S   S32       1.0  0.11131  0.41062  0.99412  1.0000
  H   H189      1.0  0.32777  0.16869  0.46794  1.0000
  H   H190      1.0  0.33966  0.24440  0.46344  1.0000
  H   H191      1.0  0.01010  0.46255  0.02791  1.0000
  H   H192      1.0  0.13767  0.47649  0.08287  1.0000
  C   C238      1.0  0.39128  0.99686  0.47050  1.0000
  C   C239      1.0  0.16257  0.34203  0.46918  1.0000
  H   H193      1.0  0.48020  0.17996  0.16483  1.0000
  H   H194      1.0  0.43578  0.09098  0.48966  1.0000
  C   C240      1.0  0.10695  0.48517  0.22230  1.0000
  H   H195      1.0  0.19531  0.36317  0.99856  1.0000
  C   C241      1.0  0.48636  0.20435  0.11923  1.0000
  C   C242      1.0  0.45241  0.09608  0.48844  1.0000
  H   H196      1.0  0.45436  0.11190  0.01379  1.0000
  C   C243      1.0  0.46949  0.08044  0.49024  1.0000
  C   C244      1.0  0.24703  0.45581  0.00247  1.0000
  H   H197      1.0  0.35566  0.99171  0.35437  1.0000
  C   C245      1.0  0.48512  0.11971  0.99576  1.0000
  H   H198      1.0  0.26119  0.22857  0.47137  1.0000
  H   H199      1.0  0.22562  0.48294  0.01307  1.0000
  C   C246      1.0  0.00174  0.37506  0.48619  1.0000
  H   H200      1.0  0.26155  0.46543  0.00347  1.0000
  H   H201      1.0  0.43696  0.99835  0.00172  1.0000
  Fe  Fe17      1.0  0.06190  0.38264  0.49005  1.0000
  C   C247      1.0  0.22665  0.46564  0.00821  1.0000
  C   C248      1.0  0.24869  0.43367  0.99509  1.0000
  H   H202      1.0  0.39509  0.01387  0.00107  1.0000
  C   C249      1.0  0.38445  0.00072  0.99572  1.0000
  H   H203      1.0  0.19512  0.42141  0.99708  1.0000
  H   H204      1.0  0.15740  0.37817  0.99441  1.0000
  H   H205      1.0  0.48604  0.28371  0.28262  1.0000
  C   C250      1.0  0.48644  0.10539  0.37814  1.0000
  C   C251      1.0  0.32253  0.16575  0.48953  1.0000
  C   C252      1.0  0.38064  0.19766  0.49197  1.0000
  S   S33       1.0  0.34761  0.09553  0.49255  1.0000
  C   C253      1.0  0.22995  0.42136  0.99326  1.0000
  C   C254      1.0  0.17541  0.41714  0.57253  1.0000
  S   S34       1.0  0.39669  0.09632  0.52221  1.0000
  H   H206      1.0  0.04492  0.46440  0.59479  1.0000
  Fe  Fe18      1.0  0.39358  0.10048  0.95135  1.0000
  C   C255      1.0  0.37856  0.99290  0.83833  1.0000
  S   S35       1.0  0.40128  0.11219  0.90595  1.0000
  Fe  Fe19      1.0  0.36507  0.11569  0.52631  1.0000
  S   S36       1.0  0.35042  0.12303  0.57025  1.0000
  H   H207      1.0  0.04610  0.43323  0.54043  1.0000
  C   C256      1.0  0.45749  0.03176  0.53875  1.0000
  H   H208      1.0  0.36981  0.21359  0.59986  1.0000
  S   S37       1.0  0.40429  0.06556  0.96026  1.0000
  Fe  Fe20      1.0  0.10901  0.38134  0.51633  1.0000
  H   H209      1.0  0.36053  0.25286  0.60494  1.0000
  S   S38       1.0  0.13554  0.36548  0.54548  1.0000
  H   H210      1.0  0.46234  0.05663  0.93943  1.0000
  H   H211      1.0  0.39352  0.99679  0.84959  1.0000
  H   H212      1.0  0.39817  0.12698  0.63934  1.0000
  C   C257      1.0  0.18252  0.42608  0.59848  1.0000
  H   H213      1.0  0.39652  0.03819  0.89183  1.0000
  Fe  Fe21      1.0  0.09700  0.39844  0.95254  1.0000
  S   S39       1.0  0.11127  0.40991  0.91004  1.0000
  S   S40       1.0  0.07663  0.39453  0.53180  1.0000
  H   H214      1.0  0.31804  0.18945  0.55551  1.0000
  Fe  Fe22      1.0  0.40566  0.22501  0.75281  1.0000
  S   S41       1.0  0.39716  0.19032  0.74289  1.0000
  S   S42       1.0  0.44122  0.22802  0.76838  1.0000
  Fe  Fe23      1.0  0.35660  0.24177  0.74694  1.0000
  S   S43       1.0  0.34607  0.20752  0.73642  1.0000
  S   S44       1.0  0.33072  0.26949  0.75721  1.0000
  Fe  Fe24      1.0  0.36894  0.19591  0.77246  1.0000
  S   S45       1.0  0.35737  0.17452  0.80943  1.0000
  Fe  Fe25      1.0  0.37552  0.20487  0.70791  1.0000
  S   S46       1.0  0.38121  0.19494  0.66098  1.0000
  S   S47       1.0  0.37817  0.23002  0.78400  1.0000
  S   S48       1.0  0.38519  0.23973  0.71672  1.0000
  Fe  Fe26      1.0  0.21564  0.41560  0.74909  1.0000
  S   S49       1.0  0.17996  0.40899  0.74917  1.0000
  S   S50       1.0  0.22845  0.44883  0.76284  1.0000
  Fe  Fe27      1.0  0.22882  0.36731  0.73472  1.0000
  S   S51       1.0  0.19332  0.35794  0.73375  1.0000
  S   S52       1.0  0.25744  0.34364  0.72100  1.0000
  Fe  Fe28      1.0  0.18632  0.38908  0.70895  1.0000
  S   S53       1.0  0.16071  0.39671  0.67329  1.0000
  Fe  Fe29      1.0  0.18951  0.37874  0.77384  1.0000
  S   S54       1.0  0.17194  0.36607  0.81331  1.0000
  S   S55       1.0  0.22178  0.39766  0.70764  1.0000
  S   S56       1.0  0.22528  0.38617  0.77617  1.0000
  C   C258      1.0  0.31365  0.14563  0.49568  1.0000
  C   C259      1.0  0.15494  0.46978  0.91959  1.0000
  C   C260      1.0  0.21127  0.48561  0.65317  1.0000
  C   C261      1.0  0.31067  0.29038  0.74670  1.0000
  C   C262      1.0  0.30817  0.29786  0.71846  1.0000
  C   C263      1.0  0.29206  0.31416  0.71125  1.0000
  C   C264      1.0  0.27796  0.32336  0.73196  1.0000
  C   C265      1.0  0.28040  0.31586  0.76020  1.0000
  C   C266      1.0  0.29662  0.29963  0.76745  1.0000
  H   H215      1.0  0.31879  0.29122  0.70215  1.0000
  H   H216      1.0  0.29048  0.31969  0.68935  1.0000
  H   H217      1.0  0.26979  0.32256  0.77648  1.0000
  H   H218      1.0  0.29823  0.29413  0.78936  1.0000
  C   C267      1.0  0.46589  0.23339  0.75051  1.0000
  C   C268      1.0  0.46622  0.24571  0.72543  1.0000
  H   H219      1.0  0.35685  0.09163  0.91111  1.0000
  H   H220      1.0  0.45101  0.25166  0.71581  1.0000
  C   C269      1.0  0.42760  0.14232  0.65361  1.0000
  C   C270      1.0  0.12824  0.39733  0.88353  1.0000
  C   C271      1.0  0.13278  0.37480  0.88274  1.0000
  C   C272      1.0  0.14601  0.36562  0.86103  1.0000
  C   C273      1.0  0.15523  0.37876  0.84006  1.0000
  C   C274      1.0  0.15099  0.40135  0.84117  1.0000
  C   C275      1.0  0.13750  0.41053  0.86263  1.0000
  H   H221      1.0  0.12581  0.36438  0.89855  1.0000
  H   H222      1.0  0.14898  0.34813  0.86032  1.0000
  H   H223      1.0  0.15807  0.41169  0.82543  1.0000
  H   H224      1.0  0.13425  0.42799  0.86304  1.0000
  C   C276      1.0  0.14215  0.37394  0.58129  1.0000
  C   C277      1.0  0.16092  0.36497  0.59527  1.0000
  C   C278      1.0  0.16689  0.37153  0.62338  1.0000
  C   C279      1.0  0.15402  0.38707  0.63806  1.0000
  C   C280      1.0  0.13512  0.39579  0.62420  1.0000
  C   C281      1.0  0.12925  0.38939  0.59605  1.0000
  H   H225      1.0  0.17100  0.35294  0.58423  1.0000
  H   H226      1.0  0.18142  0.36458  0.63367  1.0000
  H   H227      1.0  0.12488  0.40752  0.63547  1.0000
  H   H228      1.0  0.11472  0.39637  0.58579  1.0000
  H   H229      1.0  0.00247  0.40449  0.92154  1.0000
  P   P10       1.0  0.33648  0.20748  0.50261  1.0000
  H   H230      1.0  0.32322  0.99888  0.84235  1.0000
  H   H231      1.0  0.14337  0.43761  0.92678  1.0000
  H   H232      1.0  0.26447  0.42609  0.99057  1.0000
  S   S57       1.0  0.08947  0.36562  0.97089  1.0000
  H   H233      1.0  0.34114  0.27276  0.56544  1.0000
  C   C282      1.0  0.44828  0.19759  0.58385  1.0000
  H   H234      1.0  0.18396  0.40301  0.56353  1.0000
  C   C283      1.0  0.38943  0.13104  0.88055  1.0000
  C   C284      1.0  0.40088  0.13549  0.85547  1.0000
  C   C285      1.0  0.39176  0.14939  0.83400  1.0000
  C   C286      1.0  0.37080  0.15875  0.83706  1.0000
  C   C287      1.0  0.35949  0.15453  0.86234  1.0000
  C   C288      1.0  0.36883  0.14107  0.88412  1.0000
  H   H235      1.0  0.41681  0.12788  0.85242  1.0000
  H   H236      1.0  0.40069  0.15241  0.81475  1.0000
  H   H237      1.0  0.34327  0.16164  0.86501  1.0000
  H   H238      1.0  0.35979  0.13793  0.90324  1.0000
  C   C289      1.0  0.37267  0.17405  0.63701  1.0000
  C   C290      1.0  0.38316  0.17186  0.61060  1.0000
  C   C291      1.0  0.37648  0.15653  0.58988  1.0000
  C   C292      1.0  0.35930  0.14284  0.59554  1.0000
  C   C293      1.0  0.34891  0.14481  0.62214  1.0000
  C   C294      1.0  0.35557  0.16029  0.64281  1.0000
  H   H239      1.0  0.39671  0.18206  0.60636  1.0000
  H   H240      1.0  0.38477  0.15511  0.56968  1.0000
  H   H241      1.0  0.33566  0.13424  0.62680  1.0000
  H   H242      1.0  0.34739  0.16166  0.66309  1.0000
  C   C295      1.0  0.25314  0.40815  0.91811  1.0000
  C   C296      1.0  0.47139  0.02691  0.96156  1.0000
  H   H243      1.0  0.14864  0.44179  0.70945  1.0000
  H   H244      1.0  0.24751  0.29652  0.68410  1.0000
  C   C297      1.0  0.16987  0.46818  0.97672  1.0000
  C   C298      1.0  0.43609  0.22251  0.66411  1.0000
  C   C299      1.0  0.44259  0.13392  0.59836  1.0000
  P   P11       1.0  0.46580  0.16218  0.67224  1.0000
  C   C300      1.0  0.34717  0.05036  0.84929  1.0000
  C   C301      1.0  0.21422  0.17776  0.70306  1.0000
  H   H245      1.0  0.34902  0.02617  0.49914  1.0000
  H   H246      1.0  0.19455  0.46416  0.72179  1.0000
  C   C302      1.0  0.15677  0.42589  0.55868  1.0000
  C   C303      1.0  0.36363  0.00577  0.98454  1.0000
  C   C304      1.0  0.20426  0.37372  0.95642  1.0000
  C   C305      1.0  0.06218  0.46630  0.59874  1.0000
  C   C306      1.0  0.12880  0.48569  0.80719  1.0000
  C   C307      1.0  0.99561  0.45351  0.95565  1.0000
  C   C308      1.0  0.14286  0.45603  0.66789  1.0000
  P   P12       1.0  0.13601  0.47422  0.61365  1.0000
  H   H247      1.0  0.14901  0.47025  0.89762  1.0000
  C   C309      1.0  0.15166  0.45204  0.59750  1.0000
  C   C310      1.0  0.39313  0.16526  0.97161  1.0000
  H   H248      1.0  0.98822  0.41044  0.84281  1.0000
  H   H249      1.0  0.37969  0.15418  0.97152  1.0000
  C   C311      1.0  0.46135  0.10293  0.90239  1.0000
  H   H250      1.0  0.43067  0.03002  0.91834  1.0000
  C   C312      1.0  0.33331  0.00372  0.90252  1.0000
  C   C313      1.0  0.02809  0.45267  0.92660  1.0000
  H   H251      1.0  0.48646  0.23637  0.64265  1.0000
  H   H252      1.0  0.30372  0.15345  0.56637  1.0000
  C   C314      1.0  0.35818  0.99902  0.84961  1.0000
  C   C315      1.0  0.02963  0.43835  0.53434  1.0000
  C   C316      1.0  0.99649  0.38856  0.50948  1.0000
  H   H253      1.0  0.45619  0.09776  0.94726  1.0000
  H   H254      1.0  0.03506  0.42254  0.90402  1.0000
  H   H255      1.0  0.30093  0.12525  0.52845  1.0000
  C   C317      1.0  0.43241  0.18938  0.56528  1.0000
  H   H256      1.0  0.14970  0.43627  0.78562  1.0000
  C   C318      1.0  0.45763  0.15641  0.70829  1.0000
  C   C319      1.0  0.24312  0.38802  0.91421  1.0000
  C   C320      1.0  0.25496  0.36865  0.92104  1.0000
  P   P13       1.0  0.21522  0.38669  0.90125  1.0000
  C   C321      1.0  0.19724  0.38448  0.93124  1.0000
  C   C322      1.0  0.20783  0.41099  0.88084  1.0000
  C   C323      1.0  0.20345  0.43089  0.89511  1.0000
  C   C324      1.0  0.19936  0.45008  0.87953  1.0000
  C   C325      1.0  0.19925  0.44952  0.84963  1.0000
  C   C326      1.0  0.20290  0.42973  0.83529  1.0000
  C   C327      1.0  0.20703  0.41052  0.85075  1.0000
  C   C328      1.0  0.17567  0.39271  0.92907  1.0000
  H   H257      1.0  0.28251  0.42439  0.93049  1.0000
  H   H258      1.0  0.21917  0.45400  0.67146  1.0000
  H   H259      1.0  0.15625  0.43592  0.97683  1.0000
  H   H260      1.0  0.22057  0.36663  0.95839  1.0000
  C   C329      1.0  0.21376  0.36274  0.87864  1.0000
  C   C330      1.0  0.19702  0.34791  0.88174  1.0000
  C   C331      1.0  0.19598  0.32955  0.86386  1.0000
  C   C332      1.0  0.21156  0.32594  0.84275  1.0000
  C   C333      1.0  0.22840  0.34050  0.83973  1.0000
  C   C334      1.0  0.22961  0.35876  0.85772  1.0000
  H   H261      1.0  0.29136  0.02158  0.94447  1.0000
  H   H262      1.0  0.01421  0.38364  0.86571  1.0000
  H   H263      1.0  0.24760  0.35291  0.91829  1.0000
  H   H264      1.0  0.20358  0.43162  0.91828  1.0000
  H   H265      1.0  0.19654  0.46545  0.89060  1.0000
  H   H266      1.0  0.19643  0.46441  0.83751  1.0000
  H   H267      1.0  0.20273  0.42922  0.81206  1.0000
  H   H268      1.0  0.20946  0.39544  0.83894  1.0000
  H   H269      1.0  0.16965  0.40043  0.90955  1.0000
  C   C335      1.0  0.43849  0.17508  0.54329  1.0000
  C   C336      1.0  0.31973  0.01810  0.91820  1.0000
  C   C337      1.0  0.47345  0.22621  0.64966  1.0000
  H   H270      1.0  0.14632  0.47751  0.73503  1.0000
  H   H271      1.0  0.18438  0.35073  0.89730  1.0000
  H   H272      1.0  0.18259  0.31859  0.86562  1.0000
  H   H273      1.0  0.21024  0.31218  0.82823  1.0000
  H   H274      1.0  0.24019  0.33795  0.82292  1.0000
  H   H275      1.0  0.24254  0.37010  0.85474  1.0000
  C   C338      1.0  0.47762  0.20396  0.65470  1.0000
  H   H276      1.0  0.00049  0.35462  0.89669  1.0000
  H   H277      1.0  0.45618  0.02694  0.97291  1.0000
  C   C339      1.0  0.41792  0.01821  0.91804  1.0000
  C   C340      1.0  0.99159  0.44283  0.54607  1.0000
  C   C341      1.0  0.01404  0.46378  0.94537  1.0000
  C   C342      1.0  0.27652  0.36939  0.93114  1.0000
  H   H278      1.0  0.33095  0.25349  0.52121  1.0000
  H   H279      1.0  0.45167  0.04491  0.55251  1.0000
  H   H280      1.0  0.36044  0.05201  0.92054  1.0000
  C   C343      1.0  0.47660  0.17727  0.55811  1.0000
  H   H281      1.0  0.19668  0.41894  0.60956  1.0000
  C   C344      1.0  0.46109  0.19089  0.66496  1.0000
  C   C345      1.0  0.07061  0.48717  0.60136  1.0000
  C   C346      1.0  0.02371  0.43144  0.91766  1.0000
  C   C347      1.0  0.41450  0.13145  0.63371  1.0000
  H   H282      1.0  0.46594  0.06340  0.49307  1.0000
  H   H283      1.0  0.46091  0.18963  0.72404  1.0000
  C   C348      1.0  0.15168  0.45130  0.93607  1.0000
  C   C349      1.0  0.30859  0.15710  0.54478  1.0000
  C   C350      1.0  0.45027  0.16845  0.75693  1.0000
  C   C351      1.0  0.16146  0.39050  0.95184  1.0000
  H   H284      1.0  0.18233  0.45843  0.77930  1.0000
  H   H285      1.0  0.25820  0.46157  0.67920  1.0000
  C   C352      1.0  0.42201  0.12717  0.60614  1.0000
  H   H286      1.0  0.34457  0.03927  0.83159  1.0000
  H   H287      1.0  0.45893  0.22126  0.92460  1.0000
  C   C353      1.0  0.35607  0.05761  0.89913  1.0000
  C   C354      1.0  0.22090  0.47498  0.74875  1.0000
  C   C355      1.0  0.27473  0.40883  0.92815  1.0000
  H   H288      1.0  0.44916  0.18147  0.77273  1.0000
  C   C356      1.0  0.48589  0.22618  0.76305  1.0000
  H   H289      1.0  0.42096  0.14635  0.67438  1.0000
  H   H290      1.0  0.48635  0.26153  0.69479  1.0000
  H   H291      1.0  0.11556  0.45354  0.80355  1.0000
  H   H292      1.0  0.14354  0.44027  0.65727  1.0000
  H   H293      1.0  0.06972  0.43165  0.59849  1.0000
  C   C357      1.0  0.35279  0.04255  0.87679  1.0000
  H   H294      1.0  0.34706  0.10505  0.86251  1.0000
  C   C358      1.0  0.47029  0.19166  0.58024  1.0000
  C   C359      1.0  0.31723  0.17736  0.53863  1.0000
  C   C360      1.0  0.46047  0.16922  0.53955  1.0000
  C   C361      1.0  0.47101  0.18836  0.93372  1.0000
  H   H295      1.0  0.00940  0.39453  0.52315  1.0000
  H   H296      1.0  0.17668  0.45018  0.63091  1.0000
  H   H297      1.0  0.14470  0.39646  0.94976  1.0000
  C   C362      1.0  0.45270  0.23550  0.65439  1.0000
  C   C363      1.0  0.24740  0.47387  0.66941  1.0000
  C   C364      1.0  0.15899  0.45048  0.96453  1.0000
  C   C365      1.0  0.34475  0.22202  0.53474  1.0000
  H   H298      1.0  0.41999  0.22963  0.66803  1.0000
  H   H299      1.0  0.44959  0.25282  0.65105  1.0000
  Fe  Fe30      1.0  0.08543  0.42388  0.50655  1.0000
  H   H300      1.0  0.47159  0.15006  0.61176  1.0000
  C   C366      1.0  0.35394  0.08005  0.89396  1.0000
  C   C367      1.0  0.45256  0.13505  0.71596  1.0000
  C   C368      1.0  0.31140  0.20159  0.65951  1.0000
  C   C369      1.0  0.32611  0.21845  0.65759  1.0000
  C   C370      1.0  0.32370  0.23695  0.67500  1.0000
  C   C371      1.0  0.30645  0.23871  0.69411  1.0000
  C   C372      1.0  0.29129  0.22214  0.69570  1.0000
  C   C373      1.0  0.29420  0.20328  0.67875  1.0000
  P   P14       1.0  0.27055  0.22384  0.72258  1.0000
  C   C374      1.0  0.25695  0.25042  0.72379  1.0000
  C   C375      1.0  0.24899  0.20525  0.71500  1.0000
  C   C376      1.0  0.23999  0.20408  0.68722  1.0000
  C   C377      1.0  0.22277  0.19025  0.68125  1.0000
  C   C378      1.0  0.22277  0.17923  0.73092  1.0000
  C   C379      1.0  0.23998  0.19306  0.73696  1.0000
  C   C380      1.0  0.24437  0.25631  0.74761  1.0000
  C   C381      1.0  0.23324  0.27659  0.74858  1.0000
  C   C382      1.0  0.23430  0.29097  0.72559  1.0000
  C   C383      1.0  0.24642  0.28506  0.70158  1.0000
  C   C384      1.0  0.25765  0.26482  0.70056  1.0000
  C   C385      1.0  0.28469  0.21754  0.75582  1.0000
  C   C386      1.0  0.29147  0.19590  0.76187  1.0000
  C   C387      1.0  0.30379  0.19113  0.78667  1.0000
  C   C388      1.0  0.30979  0.20795  0.80523  1.0000
  C   C389      1.0  0.30346  0.22954  0.79905  1.0000
  C   C390      1.0  0.29097  0.23434  0.77444  1.0000
  H   H301      1.0  0.31372  0.18698  0.64660  1.0000
  H   H302      1.0  0.33975  0.21686  0.64324  1.0000
  H   H303      1.0  0.33555  0.24967  0.67441  1.0000
  H   H304      1.0  0.30525  0.25271  0.70826  1.0000
  H   H305      1.0  0.28357  0.18966  0.68078  1.0000
  H   H306      1.0  0.24620  0.21399  0.67024  1.0000
  H   H307      1.0  0.21593  0.18938  0.65974  1.0000
  H   H308      1.0  0.24599  0.19439  0.75881  1.0000
  H   H309      1.0  0.24331  0.24529  0.76554  1.0000
  H   H310      1.0  0.22391  0.28131  0.76720  1.0000
  H   H311      1.0  0.22606  0.30691  0.72652  1.0000
  H   H312      1.0  0.26687  0.26061  0.68171  1.0000
  H   H313      1.0  0.28776  0.18282  0.74708  1.0000
  H   H314      1.0  0.30951  0.17452  0.79102  1.0000
  H   H315      1.0  0.32002  0.20430  0.82387  1.0000
  H   H316      1.0  0.30898  0.24271  0.81265  1.0000
  H   H317      1.0  0.28712  0.25128  0.76943  1.0000
  H   H318      1.0  0.45704  0.15186  0.86878  1.0000
  C   C391      1.0  0.48630  0.25133  0.71361  1.0000
  C   C392      1.0  0.47989  0.02752  0.53590  1.0000
  C   C393      1.0  0.17368  0.48649  0.95976  1.0000
  S   S58       1.0  0.36250  0.09806  0.97601  1.0000
  C   C394      1.0  0.00527  0.42128  0.92747  1.0000
  P   P15       1.0  0.44615  0.17575  0.92203  1.0000
  C   C395      1.0  0.43628  0.18879  0.88944  1.0000
  C   C396      1.0  0.45194  0.14723  0.91415  1.0000
  C   C397      1.0  0.47253  0.99884  0.50124  1.0000
  H   H319      1.0  0.46484  0.15858  0.52191  1.0000
  C   C398      1.0  0.42095  0.99846  0.93257  1.0000
  C   C399      1.0  0.45663  0.10965  0.93026  1.0000
  C   C400      1.0  0.45199  0.13171  0.93615  1.0000
  C   C401      1.0  0.45118  0.19682  0.86985  1.0000
  C   C402      1.0  0.44373  0.20634  0.84421  1.0000
  C   C403      1.0  0.42143  0.20784  0.83786  1.0000
  C   C404      1.0  0.40651  0.19982  0.85707  1.0000
  C   C405      1.0  0.41387  0.19020  0.88272  1.0000
  C   C406      1.0  0.42602  0.17814  0.94986  1.0000
  C   C407      1.0  0.40832  0.16423  0.94966  1.0000
  C   C408      1.0  0.99676  0.36955  0.98457  1.0000
  C   C409      1.0  0.14497  0.44335  0.57099  1.0000
  C   C410      1.0  0.34505  0.07283  0.84425  1.0000
  C   C411      1.0  0.13953  0.47536  0.65214  1.0000
  H   H320      1.0  0.11988  0.48487  0.95886  1.0000
  H   H321      1.0  0.45347  0.12193  0.70035  1.0000
  H   H322      1.0  0.30325  0.38998  0.94203  1.0000
  C   C412      1.0  0.45694  0.14035  0.88622  1.0000
  C   C413      1.0  0.08528  0.47746  0.50281  1.0000
  C   C414      1.0  0.02507  0.44609  0.50668  1.0000
  H   H323      1.0  0.42518  0.02245  0.52561  1.0000
  H   H324      1.0  0.46454  0.08581  0.89777  1.0000
  H   H325      1.0  0.04284  0.46015  0.91976  1.0000
  H   H326      1.0  0.44830  0.13658  0.95782  1.0000
  H   H327      1.0  0.46857  0.19544  0.87412  1.0000
  H   H328      1.0  0.45518  0.21252  0.82904  1.0000
  H   H329      1.0  0.41576  0.21509  0.81789  1.0000
  H   H330      1.0  0.38922  0.20074  0.85176  1.0000
  H   H331      1.0  0.40200  0.18361  0.89685  1.0000
  H   H332      1.0  0.40634  0.15244  0.93261  1.0000
  H   H333      1.0  0.43823  0.99291  0.49379  1.0000
  H   H334      1.0  0.41158  0.11913  0.59061  1.0000
  C   C415      1.0  0.45006  0.00256  0.50520  1.0000
  H   H335      1.0  0.48223  0.19847  0.59469  1.0000
  H   H336      1.0  0.35985  0.19363  0.55554  1.0000
  C   C416      1.0  0.44583  0.13059  0.74374  1.0000
  S   S59       1.0  0.08270  0.45672  0.52769  1.0000
  C   C417      1.0  0.12975  0.46335  0.80076  1.0000
  C   C418      1.0  0.47479  0.04383  0.94234  1.0000
  C   C419      1.0  0.09850  0.45023  0.60537  1.0000
  H   H337      1.0  0.44806  0.13104  0.57673  1.0000
  H   H338      1.0  0.43900  0.14401  0.78557  1.0000
  C   C420      1.0  0.35626  0.24435  0.58531  1.0000
  C   C421      1.0  0.36155  0.22213  0.58236  1.0000
  C   C422      1.0  0.35590  0.21097  0.55721  1.0000
  C   C423      1.0  0.17088  0.44364  0.61076  1.0000
  H   H339      1.0  0.28564  0.35434  0.93590  1.0000
  H   H340      1.0  0.21591  0.16981  0.74793  1.0000
  C   C424      1.0  0.98906  0.36579  0.88575  1.0000
  C   C425      1.0  0.10716  0.47112  0.60741  1.0000
  S   S60       1.0  0.35387  0.03334  0.98017  1.0000
  H   H341      1.0  0.15105  0.41856  0.53891  1.0000
  C   C426      1.0  0.34534  0.25552  0.56306  1.0000
  H   H342      1.0  0.32322  0.03522  0.92029  1.0000
  C   C427      1.0  0.33960  0.24445  0.53790  1.0000
  S   S61       1.0  0.06381  0.41275  0.96275  1.0000
  C   C428      1.0  0.30699  0.14117  0.52340  1.0000
  H   H343      1.0  0.20081  0.16713  0.69845  1.0000
  H   H344      1.0  0.38345  0.19823  0.51482  1.0000
  C   C429      1.0  0.16586  0.48745  0.93145  1.0000
  C   C430      1.0  0.07612  0.44785  0.60088  1.0000
  H   H345      1.0  0.42615  0.16842  0.52913  1.0000
  C   C431      1.0  0.14904  0.45356  0.79076  1.0000
  C   C432      1.0  0.39831  0.02292  0.90332  1.0000
  C   C433      1.0  0.20374  0.47802  0.72890  1.0000
  H   H346      1.0  0.10904  0.43578  0.60684  1.0000
  H   H347      1.0  0.34091  0.07883  0.82300  1.0000
  C   C434      1.0  0.16741  0.46607  0.78724  1.0000
  C   C435      1.0  0.09668  0.47135  0.98734  1.0000
  C   C436      1.0  0.44872  0.14832  0.64639  1.0000
  C   C437      1.0  0.47252  0.21119  0.93266  1.0000
  C   C438      1.0  0.14546  0.45683  0.69766  1.0000
  H   H348      1.0  0.48445  0.19289  0.50340  1.0000
  C   C439      1.0  0.30150  0.01039  0.93204  1.0000
  C   C440      1.0  0.45584  0.14463  0.61830  1.0000
  H   H349      1.0  0.33381  0.99213  0.96888  1.0000
  C   C441      1.0  0.34848  0.08765  0.86654  1.0000
  C   C442      1.0  0.42805  0.19345  0.97221  1.0000
  C   C443      1.0  0.44027  0.20033  0.66938  1.0000
  H   H350      1.0  0.24459  0.42336  0.91296  1.0000
  C   C444      1.0  0.22539  0.46956  0.66497  1.0000
  C   C445      1.0  0.46158  0.11827  0.88040  1.0000
  C   C446      1.0  0.45678  0.17304  0.72913  1.0000
  S   S62       1.0  0.37373  0.14164  0.49507  1.0000
  C   C447      1.0  0.28643  0.38946  0.93462  1.0000
  H   H351      1.0  0.01655  0.43041  0.57526  1.0000
  C   C448      1.0  0.01296  0.43681  0.55406  1.0000
  Fe  Fe31      1.0  0.05651  0.38080  0.98334  1.0000
  H   H352      1.0  0.42725  0.19058  0.67729  1.0000
  C   C449      1.0  0.14402  0.47687  0.71204  1.0000
  C   C450      1.0  0.19000  0.37168  0.97925  1.0000
  P   P16       1.0  0.48375  0.98961  0.99284  1.0000
  C   C451      1.0  0.16861  0.38010  0.97696  1.0000
  C   C452      1.0  0.44457  0.14732  0.76417  1.0000
  C   C453      1.0  0.99680  0.38229  0.86850  1.0000
  H   H353      1.0  0.44348  0.20855  0.60108  1.0000
  H   H354      1.0  0.13036  0.44968  0.56007  1.0000
  H   H355      1.0  0.28853  0.20656  0.49883  1.0000
  H   H356      1.0  0.23121  0.40428  0.98721  1.0000
  C   C454      1.0  0.33909  0.99402  0.83422  1.0000
  C   C455      1.0  0.35044  0.99095  0.49363  1.0000
  P   P17       1.0  0.35638  0.01353  0.88330  1.0000
  H   H357      1.0  0.41541  0.19414  0.56781  1.0000
  C   C456      1.0  0.38128  0.00810  0.90371  1.0000
  H   H358      1.0  0.09804  0.45517  0.97809  1.0000
  H   H359      1.0  0.43595  0.99501  0.94436  1.0000
  H   H360      1.0  0.33455  0.98879  0.50267  1.0000
  C   C457      1.0  0.32497  0.18156  0.51113  1.0000
  C   C458      1.0  0.35005  0.98847  0.97704  1.0000
  H   H361      1.0  0.44145  0.20445  0.97304  1.0000
  H   H362      1.0  0.44134  0.11423  0.74936  1.0000
  S   S63       1.0  0.02250  0.37063  0.96738  1.0000
  H   H363      1.0  0.01795  0.48009  0.95236  1.0000
  H   H364      1.0  0.48588  0.21689  0.78266  1.0000
  Fe  Fe32      1.0  0.37455  0.06351  0.98701  1.0000
  S   S64       1.0  0.41219  0.11288  0.98971  1.0000
  H   H365      1.0  0.46506  0.11305  0.85875  1.0000
  C   C459      1.0  0.99112  0.43231  0.94613  1.0000
  H   H366      1.0  0.19410  0.48245  0.65071  1.0000
  H   H367      1.0  0.47993  0.12939  0.54519  1.0000
  C   C460      1.0  0.00364  0.45227  0.49847  1.0000
  C   C461      1.0  0.44259  0.01915  0.52357  1.0000
  C   C462      1.0  0.38471  0.98806  0.91782  1.0000
  H   H368      1.0  0.13560  0.33488  0.49599  1.0000
  C   C463      1.0  0.29675  0.98826  0.93055  1.0000
  H   H369      1.0  0.03416  0.48695  0.54795  1.0000
  Fe  Fe33      1.0  0.40666  0.88999  0.45197  1.0000
  S   S65       1.0  0.37561  0.90251  0.43107  1.0000
  C   C464      1.0  0.36266  0.97242  0.48428  1.0000
  H   H370      1.0  0.18009  0.50156  0.35768  1.0000
  H   H371      1.0  0.23984  0.49876  0.28151  1.0000
  S   S66       1.0  0.34393  0.83563  0.03055  1.0000
  Fe  Fe34      1.0  0.36295  0.86927  0.44110  1.0000
  S   S67       1.0  0.34568  0.84376  0.41337  1.0000
  C   C465      1.0  0.03134  0.51843  0.46999  1.0000
  H   H372      1.0  0.09790  0.49692  0.31571  1.0000
  S   S68       1.0  0.39481  0.85646  0.45880  1.0000
  C   C466      1.0  0.48058  0.89064  0.45124  1.0000
  H   H373      1.0  0.02586  0.70923  0.48054  1.0000
  S   S69       1.0  0.09039  0.57611  0.01979  1.0000
  H   H374      1.0  0.39284  0.96162  0.46529  1.0000
  Fe  Fe35      1.0  0.09879  0.61095  0.45162  1.0000
  S   S70       1.0  0.11874  0.58376  0.47253  1.0000
  S   S71       1.0  0.11756  0.63169  0.41992  1.0000
  Fe  Fe36      1.0  0.08992  0.56408  0.46092  1.0000
  S   S72       1.0  0.09250  0.53178  0.43857  1.0000
  Fe  Fe37      1.0  0.10853  0.60652  0.01180  1.0000
  S   S73       1.0  0.12354  0.62562  0.04911  1.0000
  S   S74       1.0  0.07048  0.59041  0.43834  1.0000
  C   C467      1.0  0.14043  0.52863  0.32637  1.0000
  Fe  Fe38      1.0  0.37138  0.77995  0.18844  1.0000
  S   S75       1.0  0.38080  0.74487  0.19869  1.0000
  S   S76       1.0  0.38341  0.79739  0.14852  1.0000
  Fe  Fe39      1.0  0.35988  0.79006  0.25219  1.0000
  S   S77       1.0  0.36815  0.75552  0.26541  1.0000
  S   S78       1.0  0.35764  0.82101  0.28024  1.0000
  Fe  Fe40      1.0  0.39792  0.75778  0.23802  1.0000
  S   S79       1.0  0.43201  0.75391  0.25860  1.0000
  Fe  Fe41      1.0  0.34988  0.74500  0.22520  1.0000
  S   S80       1.0  0.32967  0.71313  0.22329  1.0000
  S   S81       1.0  0.39013  0.79240  0.22644  1.0000
  S   S82       1.0  0.33990  0.78004  0.21302  1.0000
  Fe  Fe42      1.0  0.17895  0.60804  0.26496  1.0000
  S   S83       1.0  0.21440  0.60502  0.27843  1.0000
  S   S84       1.0  0.14760  0.60774  0.29175  1.0000
  Fe  Fe43      1.0  0.19006  0.59998  0.20064  1.0000
  S   S85       1.0  0.22630  0.59667  0.21057  1.0000
  S   S86       1.0  0.17576  0.58701  0.15824  1.0000
  Fe  Fe44      1.0  0.21659  0.57613  0.24795  1.0000
  S   S87       1.0  0.23143  0.54278  0.26158  1.0000
  Fe  Fe45      1.0  0.22159  0.62608  0.23984  1.0000
  S   S88       1.0  0.24238  0.65759  0.24247  1.0000
  S   S89       1.0  0.18116  0.57819  0.23673  1.0000
  S   S90       1.0  0.18548  0.63038  0.22770  1.0000
  C   C468      1.0  0.22365  0.51697  0.24750  1.0000
  H   H375      1.0  0.18315  0.57414  0.02428  1.0000
  C   C469      1.0  0.12427  0.49182  0.12069  1.0000
  C   C470      1.0  0.02122  0.53198  0.44949  1.0000
  C   C471      1.0  0.21103  0.51528  0.22238  1.0000
  C   C472      1.0  0.13559  0.54254  0.22920  1.0000
  H   H376      1.0  0.20569  0.52996  0.21115  1.0000
  C   C473      1.0  0.30509  0.69808  0.22870  1.0000
  C   C474      1.0  0.30506  0.67546  0.22253  1.0000
  C   C475      1.0  0.28625  0.66292  0.22649  1.0000
  C   C476      1.0  0.26691  0.67266  0.23690  1.0000
  C   C477      1.0  0.26695  0.69528  0.24310  1.0000
  C   C478      1.0  0.28572  0.70784  0.23896  1.0000
  H   H377      1.0  0.31977  0.66751  0.21461  1.0000
  H   H378      1.0  0.28677  0.64563  0.22159  1.0000
  H   H379      1.0  0.25225  0.70322  0.25107  1.0000
  H   H380      1.0  0.28514  0.72515  0.24373  1.0000
  C   C479      1.0  0.47670  0.75365  0.25748  1.0000
  C   C480      1.0  0.45755  0.74824  0.24241  1.0000
  C   C481      1.0  0.45934  0.73729  0.21614  1.0000
  C   C482      1.0  0.07862  0.54645  0.36198  1.0000
  H   H381      1.0  0.47551  0.76205  0.27780  1.0000
  H   H382      1.0  0.44475  0.73285  0.20446  1.0000
  C   C483      1.0  0.14037  0.61378  0.32805  1.0000
  C   C484      1.0  0.11948  0.60842  0.33726  1.0000
  C   C485      1.0  0.11258  0.61315  0.36540  1.0000
  C   C486      1.0  0.12639  0.62368  0.38486  1.0000
  C   C487      1.0  0.14725  0.62921  0.37563  1.0000
  C   C488      1.0  0.15432  0.62404  0.34760  1.0000
  H   H383      1.0  0.10842  0.60082  0.32234  1.0000
  H   H384      1.0  0.09637  0.60909  0.37183  1.0000
  H   H385      1.0  0.15803  0.63760  0.39025  1.0000
  H   H386      1.0  0.17038  0.62847  0.34096  1.0000
  C   C489      1.0  0.13733  0.61447  0.07982  1.0000
  C   C490      1.0  0.14303  0.62845  0.10258  1.0000
  C   C491      1.0  0.15428  0.62034  0.12712  1.0000
  C   C492      1.0  0.16027  0.59815  0.12894  1.0000
  C   C493      1.0  0.15426  0.58411  0.10641  1.0000
  C   C494      1.0  0.14282  0.59216  0.08201  1.0000
  H   H387      1.0  0.13874  0.64569  0.10118  1.0000
  H   H388      1.0  0.15856  0.63130  0.14441  1.0000
  H   H389      1.0  0.15852  0.56689  0.10784  1.0000
  H   H390      1.0  0.13847  0.58120  0.06476  1.0000
  C   C495      1.0  0.03786  0.57928  0.25082  1.0000
  C   C496      1.0  0.47226  0.85162  0.47917  1.0000
  C   C497      1.0  0.09010  0.51090  0.46329  1.0000
  C   C498      1.0  0.46846  0.88902  0.00208  1.0000
  C   C499      1.0  0.42669  0.77370  0.10689  1.0000
  C   C500      1.0  0.45668  0.95714  0.43431  1.0000
  C   C501      1.0  0.06146  0.67619  0.47433  1.0000
  H   H391      1.0  0.46429  0.90265  0.01592  1.0000
  C   C502      1.0  0.16601  0.51097  0.29386  1.0000
  C   C503      1.0  0.05972  0.57161  0.32949  1.0000
  C   C504      1.0  0.35046  0.83691  0.37675  1.0000
  C   C505      1.0  0.36258  0.85003  0.35897  1.0000
  C   C506      1.0  0.36480  0.84469  0.32967  1.0000
  C   C507      1.0  0.35561  0.82582  0.31785  1.0000
  C   C508      1.0  0.34384  0.81245  0.33575  1.0000
  C   C509      1.0  0.34114  0.81808  0.36491  1.0000
  H   H392      1.0  0.36963  0.86468  0.36759  1.0000
  H   H393      1.0  0.37346  0.85544  0.31593  1.0000
  H   H394      1.0  0.33628  0.79813  0.32694  1.0000
  H   H395      1.0  0.33147  0.80796  0.37830  1.0000
  C   C510      1.0  0.37188  0.80774  0.11587  1.0000
  C   C511      1.0  0.38468  0.82081  0.09854  1.0000
  C   C512      1.0  0.37638  0.82940  0.07243  1.0000
  C   C513      1.0  0.35520  0.82491  0.06317  1.0000
  C   C514      1.0  0.34250  0.81165  0.08036  1.0000
  C   C515      1.0  0.35070  0.80321  0.10663  1.0000
  H   H396      1.0  0.40110  0.82437  0.10538  1.0000
  H   H397      1.0  0.38625  0.83957  0.05944  1.0000
  H   H398      1.0  0.32623  0.80774  0.07324  1.0000
  H   H399      1.0  0.34069  0.79309  0.11958  1.0000
  C   C516      1.0  0.42932  0.97510  0.40384  1.0000
  C   C517      1.0  0.45861  0.75916  0.13229  1.0000
  H   H400      1.0  0.04598  0.58261  0.32464  1.0000
  H   H401      1.0  0.48383  0.90590  0.44088  1.0000
  C   C518      1.0  0.45955  0.88261  0.45067  1.0000
  H   H402      1.0  0.15708  0.53773  0.16283  1.0000
  S   S91       1.0  0.43868  0.89695  0.43219  1.0000
  H   H403      1.0  0.25965  0.49555  0.34186  1.0000
  C   C519      1.0  0.47687  0.84396  0.05376  1.0000
  C   C520      1.0  0.47728  0.80923  0.41164  1.0000
  C   C521      1.0  0.47205  0.77256  0.11643  1.0000
  H   H404      1.0  0.11976  0.49824  0.40403  1.0000
  H   H405      1.0  0.12804  0.50748  0.05106  1.0000
  H   H406      1.0  0.03212  0.52780  0.03843  1.0000
  H   H407      1.0  0.45452  0.95653  0.01425  1.0000
  C   C522      1.0  0.46832  0.77415  0.36051  1.0000
  H   H408      1.0  0.00671  0.54055  0.00001  1.0000
  C   C523      1.0  0.48012  0.73116  0.20567  1.0000
  H   H409      1.0  0.46943  0.91157  0.12577  1.0000
  H   H410      1.0  0.37954  0.71738  0.99531  1.0000
  H   H411      1.0  0.06010  0.57939  0.07377  1.0000
  H   H412      1.0  0.46558  0.74824  0.14844  1.0000
  H   H413      1.0  0.47246  0.79638  0.08221  1.0000
  C   C524      1.0  0.02136  0.51636  0.02810  1.0000
  C   C525      1.0  0.42750  0.87277  0.13987  1.0000
  C   C526      1.0  0.23110  0.51690  0.34213  1.0000
  H   H414      1.0  0.16978  0.56740  0.44133  1.0000
  H   H415      1.0  0.20555  0.51309  0.09238  1.0000
  H   H416      1.0  0.42400  0.76322  0.40044  1.0000
  H   H417      1.0  0.02197  0.63853  0.46925  1.0000
  S   S92       1.0  0.39307  0.87268  0.00663  1.0000
  H   H418      1.0  0.03984  0.56445  0.11424  1.0000
  C   C527      1.0  0.23013  0.49767  0.26204  1.0000
  H   H419      1.0  0.44325  0.79681  0.27928  1.0000
  C   C528      1.0  0.45534  0.86324  0.46497  1.0000
  P   P18       1.0  0.46089  0.86923  0.09958  1.0000
  C   C529      1.0  0.45847  0.85112  0.06905  1.0000
  C   C530      1.0  0.44329  0.85909  0.12680  1.0000
  C   C531      1.0  0.44468  0.83685  0.13405  1.0000
  C   C532      1.0  0.43065  0.82844  0.15415  1.0000
  C   C533      1.0  0.41493  0.84211  0.16695  1.0000
  C   C534      1.0  0.04591  0.64387  0.43751  1.0000
  Fe  Fe46      1.0  0.36211  0.85534  0.99763  1.0000
  H   H420      1.0  0.08831  0.62907  0.15854  1.0000
  C   C535      1.0  0.14961  0.54881  0.32055  1.0000
  C   C536      1.0  0.18214  0.52998  0.06493  1.0000
  C   C537      1.0  0.43558  0.83053  0.03634  1.0000
  C   C538      1.0  0.43782  0.84413  0.06027  1.0000
  C   C539      1.0  0.45246  0.89684  0.08991  1.0000
  C   C540      1.0  0.45923  0.91444  0.10692  1.0000
  C   C541      1.0  0.45294  0.93590  0.09963  1.0000
  C   C542      1.0  0.43979  0.93995  0.07538  1.0000
  C   C543      1.0  0.43294  0.92255  0.05843  1.0000
  C   C544      1.0  0.43919  0.90107  0.06561  1.0000
  H   H421      1.0  0.07280  0.65147  0.41061  1.0000
  H   H422      1.0  0.43610  0.82031  0.23712  1.0000
  C   C545      1.0  0.17468  0.53120  0.28784  1.0000
  H   H423      1.0  0.45650  0.82597  0.12395  1.0000
  H   H424      1.0  0.43138  0.81114  0.15914  1.0000
  H   H425      1.0  0.40364  0.83534  0.18188  1.0000
  H   H426      1.0  0.16272  0.52374  0.21219  1.0000
  H   H427      1.0  0.46791  0.88054  0.36780  1.0000
  C   C546      1.0  0.11889  0.55801  0.22329  1.0000
  H   H428      1.0  0.02448  0.57761  0.26540  1.0000
  H   H429      1.0  0.48142  0.72201  0.18587  1.0000
  H   H430      1.0  0.41954  0.82580  0.02901  1.0000
  H   H431      1.0  0.42338  0.84954  0.07157  1.0000
  H   H432      1.0  0.16398  0.49275  0.45374  1.0000
  H   H433      1.0  0.48480  0.77589  0.42473  1.0000
  H   H434      1.0  0.43488  0.95656  0.06964  1.0000
  H   H435      1.0  0.42278  0.92572  0.03960  1.0000
  H   H436      1.0  0.43384  0.88797  0.05184  1.0000
  C   C547      1.0  0.48423  0.87509  0.36189  1.0000
  C   C548      1.0  0.13337  0.53920  0.38395  1.0000
  C   C549      1.0  0.10900  0.52860  0.11350  1.0000
  C   C550      1.0  0.09482  0.55540  0.31681  1.0000
  H   H437      1.0  0.31522  0.61310  0.03507  1.0000
  C   C551      1.0  0.19548  0.51208  0.07316  1.0000
  C   C552      1.0  0.46975  0.75463  0.34492  1.0000
  H   H438      1.0  0.07632  0.57823  0.29037  1.0000
  C   C553      1.0  0.12933  0.56112  0.39154  1.0000
  C   C554      1.0  0.14266  0.57123  0.41184  1.0000
  C   C555      1.0  0.15973  0.55946  0.42533  1.0000
  H   H439      1.0  0.99567  0.67058  0.47114  1.0000
  C   C556      1.0  0.02396  0.49736  0.47432  1.0000
  C   C557      1.0  0.09603  0.54424  0.34305  1.0000
  C   C558      1.0  0.07675  0.56908  0.31016  1.0000
  H   H440      1.0  0.14282  0.49377  0.31806  1.0000
  H   H441      1.0  0.14377  0.56367  0.33106  1.0000
  C   C559      1.0  0.16658  0.55006  0.30129  1.0000
  H   H442      1.0  0.17363  0.56571  0.29710  1.0000
  C   C560      1.0  0.45403  0.82316  0.02163  1.0000
  H   H443      1.0  0.11627  0.57062  0.38139  1.0000
  H   H444      1.0  0.13973  0.58827  0.41722  1.0000
  H   H445      1.0  0.17721  0.64252  0.04362  1.0000
  C   C561      1.0  0.05539  0.57190  0.11826  1.0000
  S   S93       1.0  0.02969  0.58260  0.00457  1.0000
  C   C562      1.0  0.41334  0.86424  0.15983  1.0000
  C   C563      1.0  0.15082  0.52760  0.39723  1.0000
  C   C564      1.0  0.42239  0.86130  0.37147  1.0000
  C   C565      1.0  0.41875  0.85752  0.34230  1.0000
  C   C566      1.0  0.42471  0.83730  0.33026  1.0000
  C   C567      1.0  0.43462  0.82095  0.34731  1.0000
  C   C568      1.0  0.43845  0.82468  0.37665  1.0000
  C   C569      1.0  0.43210  0.84494  0.38860  1.0000
  P   P19       1.0  0.44993  0.80343  0.39958  1.0000
  C   C570      1.0  0.43195  0.80214  0.42961  1.0000
  C   C571      1.0  0.45167  0.77771  0.38042  1.0000
  C   C572      1.0  0.20873  0.51860  0.34699  1.0000
  H   H446      1.0  0.42699  0.72883  0.37318  1.0000
  C   C573      1.0  0.06189  0.60230  0.22469  1.0000
  H   H447      1.0  0.17718  0.52857  0.42841  1.0000
  C   C574      1.0  0.00696  0.52358  0.00642  1.0000
  C   C575      1.0  0.44004  0.80396  0.45779  1.0000
  H   H448      1.0  0.24598  0.62337  0.04110  1.0000
  C   C576      1.0  0.11536  0.56577  0.19526  1.0000
  C   C577      1.0  0.39513  0.80118  0.44779  1.0000
  C   C578      1.0  0.40935  0.80110  0.42478  1.0000
  C   C579      1.0  0.99652  0.50319  0.43705  1.0000
  H   H449      1.0  0.43921  0.85691  0.46471  1.0000
  C   C580      1.0  0.43995  0.78660  0.09042  1.0000
  H   H450      1.0  0.45584  0.72333  0.33705  1.0000
  H   H451      1.0  0.40085  0.87466  0.16948  1.0000
  C   C581      1.0  0.14920  0.53502  0.20737  1.0000
  H   H452      1.0  0.41732  0.87679  0.38104  1.0000
  H   H453      1.0  0.41079  0.87008  0.32922  1.0000
  H   H454      1.0  0.42115  0.83418  0.30783  1.0000
  H   H455      1.0  0.43876  0.80536  0.33760  1.0000
  H   H456      1.0  0.43438  0.84807  0.41129  1.0000
  C   C582      1.0  0.40335  0.80289  0.47579  1.0000
  H   H457      1.0  0.16456  0.61025  0.01706  1.0000
  C   C583      1.0  0.03547  0.64832  0.46335  1.0000
  H   H458      1.0  0.08680  0.67978  0.44334  1.0000
  C   C584      1.0  0.46256  0.78610  0.09511  1.0000
  H   H459      1.0  0.45723  0.80581  0.46206  1.0000
  C   C585      1.0  0.00395  0.52428  0.43281  1.0000
  C   C586      1.0  0.10589  0.61294  0.19371  1.0000
  H   H460      1.0  0.37768  0.80099  0.44379  1.0000
  H   H461      1.0  0.40265  0.80081  0.40320  1.0000
  C   C587      1.0  0.16865  0.52854  0.04062  1.0000
  H   H462      1.0  0.09120  0.52972  0.01938  1.0000
  C   C588      1.0  0.08677  0.58999  0.10049  1.0000
  C   C589      1.0  0.17849  0.60860  0.03163  1.0000
  C   C590      1.0  0.98941  0.60710  0.45574  1.0000
  C   C591      1.0  0.00611  0.48969  0.45839  1.0000
  C   C592      1.0  0.12455  0.50861  0.07366  1.0000
  H   H463      1.0  0.13844  0.53700  0.25091  1.0000
  H   H464      1.0  0.43253  0.79707  0.07418  1.0000
  C   C593      1.0  0.02215  0.49436  0.03591  1.0000
  H   H465      1.0  0.10926  0.56441  0.24081  1.0000
  Fe  Fe47      1.0  0.36710  0.91228  0.47629  1.0000
  C   C594      1.0  0.08097  0.49658  0.02190  1.0000
  C   C595      1.0  0.10840  0.65133  0.18148  1.0000
  H   H466      1.0  0.07918  0.53788  0.38217  1.0000
  H   H467      1.0  0.10082  0.54315  0.12181  1.0000
  C   C596      1.0  0.06373  0.57360  0.14624  1.0000
  H   H468      1.0  0.04523  0.52418  0.48221  1.0000
  H   H469      1.0  0.05433  0.56731  0.16348  1.0000
  C   C597      1.0  0.43856  0.74148  0.36974  1.0000
  C   C598      1.0  0.12258  0.65437  0.20479  1.0000
  H   H470      1.0  0.47304  0.85224  0.33039  1.0000
  H   H471      1.0  0.09542  0.59673  0.08273  1.0000
  H   H472      1.0  0.11077  0.59926  0.13183  1.0000
  H   H473      1.0  0.99642  0.53464  0.41646  1.0000
  H   H474      1.0  0.10937  0.51207  0.15373  1.0000
  C   C599      1.0  0.09530  0.59153  0.12838  1.0000
  C   C600      1.0  0.04473  0.60005  0.24364  1.0000
  H   H475      1.0  0.48448  0.79483  0.22332  1.0000
  C   C601      1.0  0.42574  0.80447  0.48077  1.0000
  H   H476      1.0  0.04014  0.63104  0.42355  1.0000
  H   H477      1.0  0.12916  0.67030  0.20905  1.0000
  H   H478      1.0  0.12766  0.56468  0.15209  1.0000
  C   C602      1.0  0.45459  0.80938  0.27419  1.0000
  H   H479      1.0  0.31682  0.83928  0.47111  1.0000
  C   C603      1.0  0.18568  0.62685  0.04661  1.0000
  H   H480      1.0  0.19647  0.49352  0.19157  1.0000
  H   H481      1.0  0.39207  0.97811  0.33877  1.0000
  C   C604      1.0  0.16856  0.50926  0.02444  1.0000
  C   C605      1.0  0.06539  0.56289  0.22020  1.0000
  C   C606      1.0  0.43602  0.75997  0.12780  1.0000
  C   C607      1.0  0.04821  0.56071  0.23914  1.0000
  C   C608      1.0  0.43689  0.76112  0.38513  1.0000
  C   C609      1.0  0.45055  0.82265  0.25037  1.0000
  C   C610      1.0  0.46522  0.83874  0.24360  1.0000
  H   H482      1.0  0.46485  0.94212  0.44132  1.0000
  H   H483      1.0  0.18784  0.49017  0.41163  1.0000
  H   H484      1.0  0.03670  0.61448  0.25266  1.0000
  P   P20       1.0  0.11974  0.52757  0.35317  1.0000
  C   C611      1.0  0.12916  0.55817  0.17350  1.0000
  H   H485      1.0  0.46208  0.84899  0.22505  1.0000
  C   C612      1.0  0.45481  0.73835  0.34940  1.0000
  C   C613      1.0  0.14597  0.54280  0.17954  1.0000
  H   H486      1.0  0.48244  0.75210  0.32930  1.0000
  S   S94       1.0  0.35122  0.87985  0.48497  1.0000
  C   C614      1.0  0.44021  0.95604  0.41334  1.0000
  H   H487      1.0  0.42565  0.75009  0.14070  1.0000
  C   C615      1.0  0.08367  0.58371  0.15163  1.0000
  H   H488      1.0  0.26871  0.95520  0.15334  1.0000
  C   C616      1.0  0.11428  0.52748  0.08457  1.0000
  C   C617      1.0  0.07241  0.58372  0.21287  1.0000
  H   H489      1.0  0.02705  0.54831  0.44631  1.0000
  H   H490      1.0  0.42576  0.88989  0.13441  1.0000
  H   H491      1.0  0.17304  0.49636  0.28411  1.0000
  H   H492      1.0  0.15445  0.51092  0.39109  1.0000
  C   C618      1.0  0.06682  0.58023  0.09541  1.0000
  C   C619      1.0  0.31435  0.71095  0.30434  1.0000
  C   C620      1.0  0.30768  0.68957  0.30784  1.0000
  C   C621      1.0  0.32260  0.67344  0.31761  1.0000
  C   C622      1.0  0.34426  0.67865  0.32365  1.0000
  C   C623      1.0  0.35109  0.70013  0.32018  1.0000
  C   C624      1.0  0.33596  0.71622  0.31030  1.0000
  P   P21       1.0  0.37965  0.70625  0.32374  1.0000
  C   C625      1.0  0.38242  0.73440  0.33504  1.0000
  C   C626      1.0  0.39250  0.68840  0.35018  1.0000
  C   C627      1.0  0.39341  0.69452  0.37919  1.0000
  C   C628      1.0  0.40338  0.68054  0.39947  1.0000
  C   C629      1.0  0.41238  0.66032  0.39099  1.0000
  C   C630      1.0  0.41135  0.65401  0.36223  1.0000
  C   C631      1.0  0.40140  0.66794  0.34190  1.0000
  C   C632      1.0  0.39828  0.74740  0.32305  1.0000
  C   C633      1.0  0.39953  0.76945  0.33046  1.0000
  C   C634      1.0  0.38539  0.77862  0.35060  1.0000
  C   C635      1.0  0.36988  0.76573  0.36325  1.0000
  C   C636      1.0  0.36824  0.74376  0.35534  1.0000
  C   C637      1.0  0.39253  0.70140  0.28963  1.0000
  C   C638      1.0  0.37990  0.69874  0.26456  1.0000
  C   C639      1.0  0.38993  0.69565  0.23818  1.0000
  C   C640      1.0  0.41266  0.69519  0.23655  1.0000
  C   C641      1.0  0.42538  0.69745  0.26143  1.0000
  C   C642      1.0  0.41538  0.70040  0.28791  1.0000
  H   H493      1.0  0.30292  0.72332  0.29602  1.0000
  H   H494      1.0  0.29106  0.68540  0.30231  1.0000
  H   H495      1.0  0.31744  0.65679  0.31979  1.0000
  H   H496      1.0  0.35568  0.66576  0.33030  1.0000
  H   H497      1.0  0.34092  0.73269  0.30627  1.0000
  H   H498      1.0  0.38639  0.70998  0.38631  1.0000
  H   H499      1.0  0.40399  0.68533  0.42183  1.0000
  H   H500      1.0  0.42002  0.64947  0.40674  1.0000
  H   H501      1.0  0.41818  0.63826  0.35567  1.0000
  H   H502      1.0  0.40052  0.66264  0.31975  1.0000
  H   H503      1.0  0.40925  0.74093  0.30714  1.0000
  H   H504      1.0  0.41113  0.77949  0.31991  1.0000
  H   H505      1.0  0.38604  0.79588  0.35575  1.0000
  H   H506      1.0  0.35864  0.77302  0.37847  1.0000
  H   H507      1.0  0.35566  0.73419  0.36466  1.0000
  H   H508      1.0  0.36228  0.69938  0.26506  1.0000
  H   H509      1.0  0.37993  0.69410  0.21892  1.0000
  H   H510      1.0  0.42040  0.69340  0.21598  1.0000
  H   H511      1.0  0.44299  0.69762  0.26003  1.0000
  H   H512      1.0  0.42546  0.70254  0.30689  1.0000
  C   C643      1.0  0.11082  0.50008  0.35884  1.0000
  C   C644      1.0  0.14888  0.50963  0.31307  1.0000
  H   H513      1.0  0.43561  0.94027  0.40495  1.0000
  H   H514      1.0  0.11019  0.54113  0.07053  1.0000
  C   C645      1.0  0.11387  0.51084  0.13152  1.0000
  C   C646      1.0  0.38187  0.88673  0.08677  1.0000
  C   C647      1.0  0.37661  0.90245  0.06599  1.0000
  C   C648      1.0  0.35543  0.91133  0.06373  1.0000
  C   C649      1.0  0.33952  0.90480  0.08262  1.0000
  C   C650      1.0  0.34480  0.88945  0.10415  1.0000
  C   C651      1.0  0.36600  0.88011  0.10569  1.0000
  P   P22       1.0  0.32412  0.88119  0.12852  1.0000
  C   C652      1.0  0.30646  0.90458  0.13648  1.0000
  C   C653      1.0  0.30828  0.85987  0.11237  1.0000
  C   C654      1.0  0.29706  0.84547  0.12970  1.0000
  C   C655      1.0  0.28443  0.82922  0.11729  1.0000
  C   C656      1.0  0.28275  0.82733  0.08752  1.0000
  C   C657      1.0  0.29377  0.84166  0.07015  1.0000
  C   C658      1.0  0.30653  0.85784  0.08248  1.0000
  C   C659      1.0  0.28396  0.90222  0.13986  1.0000
  C   C660      1.0  0.27043  0.92043  0.14593  1.0000
  C   C661      1.0  0.27924  0.94110  0.14872  1.0000
  C   C662      1.0  0.30162  0.94358  0.14553  1.0000
  C   C663      1.0  0.31520  0.92541  0.13951  1.0000
  C   C664      1.0  0.33688  0.87126  0.16136  1.0000
  C   C665      1.0  0.33861  0.88484  0.18560  1.0000
  C   C666      1.0  0.34813  0.87675  0.21101  1.0000
  C   C667      1.0  0.35602  0.85512  0.21240  1.0000
  C   C668      1.0  0.35446  0.84158  0.18838  1.0000
  C   C669      1.0  0.34503  0.84961  0.16294  1.0000
  H   H515      1.0  0.39812  0.87937  0.08786  1.0000
  H   H516      1.0  0.38876  0.90748  0.05112  1.0000
  H   H517      1.0  0.35136  0.92311  0.04703  1.0000
  H   H518      1.0  0.32307  0.91160  0.08025  1.0000
  H   H519      1.0  0.37031  0.86755  0.12116  1.0000
  H   H520      1.0  0.29808  0.84676  0.15282  1.0000
  H   H521      1.0  0.27605  0.81798  0.13078  1.0000
  H   H522      1.0  0.27319  0.81458  0.07788  1.0000
  H   H523      1.0  0.29304  0.83987  0.04705  1.0000
  H   H524      1.0  0.31527  0.86836  0.06849  1.0000
  H   H525      1.0  0.27675  0.88639  0.13780  1.0000
  H   H526      1.0  0.25307  0.91850  0.14844  1.0000
  H   H527      1.0  0.30844  0.95963  0.14767  1.0000
  H   H528      1.0  0.33253  0.92761  0.13723  1.0000
  H   H529      1.0  0.33242  0.90156  0.18519  1.0000
  H   H530      1.0  0.34909  0.88709  0.22986  1.0000
  H   H531      1.0  0.36310  0.84873  0.23220  1.0000
  H   H532      1.0  0.36034  0.82473  0.18958  1.0000
  H   H533      1.0  0.34395  0.83883  0.14457  1.0000
  C   C670      1.0  0.06425  0.65540  0.43020  1.0000
  H   H534      1.0  0.07310  0.54837  0.21104  1.0000
  H   H535      1.0  0.06682  0.61856  0.21926  1.0000
  P   P23       1.0  0.09433  0.58646  0.18790  1.0000
  H   H536      1.0  0.10395  0.66494  0.16759  1.0000
  H   H537      1.0  0.12478  0.60296  0.23148  1.0000
  C   C671      1.0  0.38320  0.97558  0.47265  1.0000
  Fe  Fe48      1.0  0.05640  0.59817  0.48168  1.0000
  H   H538      1.0  0.18782  0.53236  0.27298  1.0000
  C   C672      1.0  0.18886  0.58822  0.03596  1.0000
  C   C673      1.0  0.12007  0.61621  0.21718  1.0000
  C   C674      1.0  0.16379  0.53759  0.41810  1.0000
  H   H539      1.0  0.35256  0.82024  0.47763  1.0000
  H   H540      1.0  0.48017  0.78654  0.35700  1.0000
  H   H541      1.0  0.18200  0.54485  0.07765  1.0000
  H   H542      1.0  0.40914  0.77440  0.10353  1.0000
  H   H543      1.0  0.45226  0.81295  0.00274  1.0000
  H   H544      1.0  0.13879  0.63929  0.24131  1.0000
  H   H545      1.0  0.04757  0.56225  0.37054  1.0000
  H   H546      1.0  0.04283  0.54462  0.24467  1.0000
  C   C675      1.0  0.12817  0.63688  0.22281  1.0000
  H   H547      1.0  0.00262  0.60947  0.44120  1.0000
  C   C676      1.0  0.06061  0.56019  0.35532  1.0000
  C   C677      1.0  0.47467  0.82978  0.03043  1.0000
  H   H548      1.0  0.47598  0.80166  0.30959  1.0000
  H   H549      1.0  0.10789  0.55405  0.30165  1.0000
  C   C678      1.0  0.21191  0.64340  0.15651  1.0000
  C   C679      1.0  0.23041  0.65338  0.16754  1.0000
  C   C680      1.0  0.25095  0.64767  0.15688  1.0000
  C   C681      1.0  0.25300  0.63217  0.13487  1.0000
  C   C682      1.0  0.23440  0.62233  0.12328  1.0000
  C   C683      1.0  0.21393  0.62788  0.13462  1.0000
  P   P24       1.0  0.23663  0.60165  0.09553  1.0000
  C   C684      1.0  0.23750  0.57476  0.11144  1.0000
  C   C685      1.0  0.21366  0.60429  0.07077  1.0000
  C   C686      1.0  0.20334  0.62480  0.06586  1.0000
  C   C687      1.0  0.19755  0.50026  0.35546  1.0000
  H   H550      1.0  0.07055  0.49981  0.03994  1.0000
  H   H551      1.0  0.45830  0.94941  0.11273  1.0000
  C   C688      1.0  0.20634  0.58602  0.05550  1.0000
  C   C689      1.0  0.24681  0.55676  0.09675  1.0000
  C   C690      1.0  0.24783  0.53607  0.10942  1.0000
  C   C691      1.0  0.23953  0.53319  0.13678  1.0000
  C   C692      1.0  0.23011  0.55098  0.15136  1.0000
  C   C693      1.0  0.22909  0.57163  0.13874  1.0000
  C   C694      1.0  0.26144  0.60520  0.07611  1.0000
  C   C695      1.0  0.28141  0.59686  0.08728  1.0000
  C   C696      1.0  0.30072  0.59969  0.07249  1.0000
  C   C697      1.0  0.30023  0.61086  0.04647  1.0000
  C   C698      1.0  0.28044  0.61928  0.03527  1.0000
  C   C699      1.0  0.26109  0.61654  0.05004  1.0000
  H   H552      1.0  0.19603  0.64748  0.16520  1.0000
  H   H553      1.0  0.22886  0.66533  0.18465  1.0000
  H   H554      1.0  0.26527  0.65517  0.16603  1.0000
  H   H555      1.0  0.26910  0.62795  0.12720  1.0000
  H   H556      1.0  0.19952  0.62004  0.12664  1.0000
  H   H557      1.0  0.20876  0.63925  0.07699  1.0000
  H   H558      1.0  0.19998  0.53404  0.34336  1.0000
  C   C700      1.0  0.09979  0.63080  0.17618  1.0000
  H   H559      1.0  0.47513  0.84393  0.40270  1.0000
  H   H560      1.0  0.21404  0.57008  0.05860  1.0000
  H   H561      1.0  0.25337  0.55876  0.07560  1.0000
  H   H562      1.0  0.25526  0.52230  0.09818  1.0000
  H   H563      1.0  0.24050  0.51728  0.14688  1.0000
  H   H564      1.0  0.22371  0.54893  0.17263  1.0000
  H   H565      1.0  0.22176  0.58511  0.15047  1.0000
  H   H566      1.0  0.28209  0.58840  0.10762  1.0000
  H   H567      1.0  0.31609  0.59333  0.08133  1.0000
  H   H568      1.0  0.47611  0.77772  0.17741  1.0000
  H   H569      1.0  0.34205  0.71666  0.01420  1.0000
  H   H570      1.0  0.28007  0.62806  0.01518  1.0000
  C   C701      1.0  0.07209  0.67146  0.44867  1.0000
  C   C702      1.0  0.46193  0.97734  0.44655  1.0000
  C   C703      1.0  0.48528  0.83038  0.41027  1.0000
  C   C704      1.0  0.08429  0.49019  0.45386  1.0000
  C   C705      1.0  0.24237  0.49692  0.34623  1.0000
  H   H571      1.0  0.23959  0.53095  0.33450  1.0000
  C   C706      1.0  0.47327  0.81212  0.29125  1.0000
  C   C707      1.0  0.20568  0.49457  0.21145  1.0000
  C   C708      1.0  0.09274  0.51353  0.01034  1.0000
  C   C709      1.0  0.11326  0.48976  0.38557  1.0000
  H   H572      1.0  0.15776  0.54216  0.03460  1.0000
  H   H573      1.0  0.48462  0.84979  0.15014  1.0000
  H   H574      1.0  0.48566  0.73127  0.09844  1.0000
  H   H575      1.0  0.41609  0.97408  0.38832  1.0000
  C   C710      1.0  0.34486  0.72408  0.99363  1.0000
  H   H576      1.0  0.98751  0.57126  0.02521  1.0000
  C   C711      1.0  0.48401  0.84146  0.26056  1.0000
  C   C712      1.0  0.99401  0.60074  0.48398  1.0000
  S   S95       1.0  0.35149  0.94587  0.48750  1.0000
  C   C713      1.0  0.04287  0.66482  0.48169  1.0000
  H   H577      1.0  0.40730  0.97499  0.00920  1.0000
  H   H578      1.0  0.12571  0.49037  0.26108  1.0000
  H   H579      1.0  0.15722  0.50817  0.00653  1.0000
  C   C714      1.0  0.12979  0.49100  0.09168  1.0000
  C   C715      1.0  0.19550  0.49281  0.05688  1.0000
  C   C716      1.0  0.09341  0.51494  0.49247  1.0000
  C   C717      1.0  0.39136  0.97873  0.99998  1.0000
  P   P25       1.0  0.48205  0.97898  0.47514  1.0000
  C   C718      1.0  0.98890  0.66464  0.49074  1.0000
  C   C719      1.0  0.18236  0.49142  0.03204  1.0000
  S   S96       1.0  0.38789  0.93412  0.99768  1.0000
  H   H580      1.0  0.46916  0.83634  0.48952  1.0000
  H   H581      1.0  0.06808  0.68833  0.48868  1.0000
  C   C720      1.0  0.10049  0.48902  0.33623  1.0000
  H   H582      1.0  0.48017  0.78135  0.49228  1.0000
  H   H583      1.0  0.03368  0.48853  0.05221  1.0000
  C   C721      1.0  0.32099  0.83163  0.49149  1.0000
  H   H584      1.0  0.09140  0.48875  0.23218  1.0000
  H   H585      1.0  0.02488  0.74853  0.49272  1.0000
  H   H586      1.0  0.05983  0.50147  0.59971  1.0000
  S   S97       1.0  0.39191  0.88767  0.93900  1.0000
  H   H587      1.0  0.41952  0.81572  0.68433  1.0000
  C   C722      1.0  0.30188  0.73905  0.78009  1.0000
  C   C723      1.0  0.37796  0.96144  0.99188  1.0000
  S   S98       1.0  0.39333  0.84235  0.53630  1.0000
  Fe  Fe49      1.0  0.36140  0.86858  0.93397  1.0000
  S   S99       1.0  0.34585  0.86563  0.88931  1.0000
  H   H588      1.0  0.12010  0.50468  0.90820  1.0000
  C   C724      1.0  0.27381  0.51120  0.59710  1.0000
  C   C725      1.0  0.34697  0.81146  0.52154  1.0000
  H   H589      1.0  0.28280  0.98228  0.94163  1.0000
  C   C726      1.0  0.00719  0.55173  0.85495  1.0000
  C   C727      1.0  0.47538  0.77997  0.51438  1.0000
  C   C728      1.0  0.39966  0.74164  0.61095  1.0000
  Fe  Fe50      1.0  0.09977  0.60429  0.94653  1.0000
  H   H590      1.0  0.30971  0.81225  0.85608  1.0000
  S   S100      1.0  0.10321  0.61671  0.90049  1.0000
  S   S101      1.0  0.12301  0.52991  0.97468  1.0000
  H   H591      1.0  0.36166  0.96778  0.77700  1.0000
  C   C729      1.0  0.03096  0.70543  0.55318  1.0000
  S   S102      1.0  0.11746  0.58461  0.55767  1.0000
  S   S103      1.0  0.08031  0.57403  0.95087  1.0000
  C   C730      1.0  0.22874  0.67182  0.80923  1.0000
  Fe  Fe51      1.0  0.36448  0.79249  0.69135  1.0000
  S   S104      1.0  0.36936  0.75761  0.67694  1.0000
  S   S105      1.0  0.35947  0.82247  0.66229  1.0000
  Fe  Fe52      1.0  0.36714  0.78001  0.75530  1.0000
  S   S106      1.0  0.37233  0.74415  0.74466  1.0000
  S   S107      1.0  0.37090  0.78746  0.80325  1.0000
  Fe  Fe53      1.0  0.39559  0.75593  0.71166  1.0000
  S   S108      1.0  0.42911  0.73973  0.70410  1.0000
  Fe  Fe54      1.0  0.34551  0.74862  0.71129  1.0000
  S   S109      1.0  0.31508  0.72777  0.70136  1.0000
  S   S110      1.0  0.39192  0.79119  0.72412  1.0000
  S   S111      1.0  0.33904  0.78405  0.72381  1.0000
  Fe  Fe55      1.0  0.19085  0.61081  0.76593  1.0000
  S   S112      1.0  0.22424  0.59561  0.75799  1.0000
  S   S113      1.0  0.18317  0.60811  0.81389  1.0000
  Fe  Fe56      1.0  0.18397  0.61950  0.70107  1.0000
  S   S114      1.0  0.21683  0.60480  0.69039  1.0000
  S   S115      1.0  0.16305  0.63368  0.66382  1.0000
  Fe  Fe57      1.0  0.20833  0.57808  0.72117  1.0000
  S   S116      1.0  0.20643  0.54218  0.70732  1.0000
  Fe  Fe58      1.0  0.22993  0.62391  0.72819  1.0000
  S   S117      1.0  0.26375  0.64020  0.73225  1.0000
  S   S118      1.0  0.17488  0.59215  0.73006  1.0000
  S   S119      1.0  0.19725  0.64001  0.73797  1.0000
  C   C731      1.0  0.21105  0.51709  0.72583  1.0000
  C   C732      1.0  0.22776  0.51415  0.74634  1.0000
  H   H592      1.0  0.26959  0.80560  0.52678  1.0000
  C   C733      1.0  0.32846  0.98145  0.90130  1.0000
  C   C734      1.0  0.06690  0.66291  0.55101  1.0000
  H   H593      1.0  0.23758  0.52774  0.75254  1.0000
  C   C735      1.0  0.36970  0.73438  0.95667  1.0000
  C   C736      1.0  0.30142  0.70302  0.70996  1.0000
  C   C737      1.0  0.31020  0.68732  0.72907  1.0000
  C   C738      1.0  0.29849  0.66837  0.73548  1.0000
  C   C739      1.0  0.27769  0.66472  0.72325  1.0000
  C   C740      1.0  0.26897  0.68040  0.70414  1.0000
  C   C741      1.0  0.28068  0.69930  0.69762  1.0000
  H   H594      1.0  0.32605  0.68972  0.73884  1.0000
  H   H595      1.0  0.30566  0.65640  0.75008  1.0000
  H   H596      1.0  0.25328  0.67782  0.69403  1.0000
  H   H597      1.0  0.27355  0.71116  0.68285  1.0000
  H   H598      1.0  0.05684  0.49496  0.90632  1.0000
  C   C742      1.0  0.45442  0.75069  0.71516  1.0000
  C   C743      1.0  0.45555  0.77086  0.72920  1.0000
  H   H599      1.0  0.42364  0.86373  0.89923  1.0000
  H   H600      1.0  0.47324  0.72303  0.69922  1.0000
  H   H601      1.0  0.44074  0.78029  0.73339  1.0000
  C   C744      1.0  0.16015  0.60927  0.83682  1.0000
  C   C745      1.0  0.16292  0.60234  0.86541  1.0000
  C   C746      1.0  0.14560  0.60391  0.88493  1.0000
  C   C747      1.0  0.12524  0.61278  0.87624  1.0000
  C   C748      1.0  0.12233  0.61930  0.84749  1.0000
  C   C749      1.0  0.13958  0.61745  0.82785  1.0000
  H   H602      1.0  0.17871  0.59599  0.87265  1.0000
  H   H603      1.0  0.14815  0.59877  0.90688  1.0000
  H   H604      1.0  0.10668  0.62618  0.84046  1.0000
  H   H605      1.0  0.13713  0.62294  0.80604  1.0000
  C   C750      1.0  0.13063  0.59868  0.58646  1.0000
  C   C751      1.0  0.13444  0.62108  0.58576  1.0000
  C   C752      1.0  0.14437  0.63147  0.60952  1.0000
  C   C753      1.0  0.15101  0.61961  0.63414  1.0000
  C   C754      1.0  0.14734  0.59717  0.63472  1.0000
  C   C755      1.0  0.13722  0.58684  0.61109  1.0000
  H   H606      1.0  0.12964  0.63042  0.56697  1.0000
  H   H607      1.0  0.14704  0.64882  0.60879  1.0000
  H   H608      1.0  0.15210  0.58780  0.65352  1.0000
  H   H609      1.0  0.13425  0.56955  0.61205  1.0000
  C   C756      1.0  0.40954  0.84915  0.83128  1.0000
  H   H610      1.0  0.44756  0.81717  0.58555  1.0000
  C   C757      1.0  0.28303  0.72700  0.77679  1.0000
  H   H611      1.0  0.04801  0.57953  0.90276  1.0000
  H   H612      1.0  0.11644  0.51544  0.76500  1.0000
  H   H613      1.0  0.39230  0.71165  0.63210  1.0000
  H   H614      1.0  0.38621  0.73469  0.94895  1.0000
  H   H615      1.0  0.41398  0.84883  0.65459  1.0000
  H   H616      1.0  0.38292  0.74509  0.60416  1.0000
  H   H617      1.0  0.09255  0.50158  0.53490  1.0000
  C   C758      1.0  0.35374  0.84451  0.86481  1.0000
  C   C759      1.0  0.36863  0.82776  0.87273  1.0000
  C   C760      1.0  0.37397  0.81080  0.85330  1.0000
  C   C761      1.0  0.36463  0.81035  0.82562  1.0000
  C   C762      1.0  0.35008  0.82734  0.81736  1.0000
  C   C763      1.0  0.34464  0.84429  0.83691  1.0000
  H   H618      1.0  0.37602  0.82789  0.89386  1.0000
  H   H619      1.0  0.38540  0.79791  0.85978  1.0000
  H   H620      1.0  0.34271  0.82722  0.79615  1.0000
  H   H621      1.0  0.33313  0.85719  0.83048  1.0000
  C   C764      1.0  0.36858  0.82731  0.62686  1.0000
  C   C765      1.0  0.36305  0.84743  0.61373  1.0000
  C   C766      1.0  0.36990  0.85214  0.58578  1.0000
  C   C767      1.0  0.38264  0.83681  0.57067  1.0000
  C   C768      1.0  0.38792  0.81656  0.58362  1.0000
  C   C769      1.0  0.38084  0.81174  0.61144  1.0000
  H   H622      1.0  0.35349  0.85955  0.62536  1.0000
  H   H623      1.0  0.36570  0.86779  0.57619  1.0000
  H   H624      1.0  0.39781  0.80466  0.57213  1.0000
  H   H625      1.0  0.38520  0.79621  0.62123  1.0000
  P   P26       1.0  0.45734  0.77305  0.60933  1.0000
  H   H626      1.0  0.26987  0.78760  0.57789  1.0000
  C   C770      1.0  0.00356  0.62583  0.89656  1.0000
  H   H627      1.0  0.20656  0.55851  0.86948  1.0000
  C   C771      1.0  0.42734  0.83517  0.82516  1.0000
  C   C772      1.0  0.23163  0.64942  0.81420  1.0000
  H   H628      1.0  0.31961  0.76123  0.80699  1.0000
  C   C773      1.0  0.02006  0.56347  0.83626  1.0000
  C   C774      1.0  0.10706  0.50925  0.98794  1.0000
  C   C775      1.0  0.47029  0.77287  0.80909  1.0000
  C   C776      1.0  0.16517  0.53186  0.59624  1.0000
  H   H629      1.0  0.20641  0.83737  0.53232  1.0000
  H   H630      1.0  0.09845  0.53077  0.49977  1.0000
  H   H631      1.0  0.41136  0.77132  0.59361  1.0000
  C   C777      1.0  0.20210  0.57921  0.61849  1.0000
  C   C778      1.0  0.46337  0.77629  0.57186  1.0000
  H   H632      1.0  0.13288  0.51028  0.65554  1.0000
  C   C779      1.0  0.33104  0.74326  0.95152  1.0000
  C   C780      1.0  0.36078  0.74355  0.85083  1.0000
  C   C781      1.0  0.31256  0.81978  0.90100  1.0000
  H   H633      1.0  0.30445  0.75526  0.64706  1.0000
  H   H634      1.0  0.25799  0.85682  0.58911  1.0000
  C   C782      1.0  0.40145  0.75203  0.89560  1.0000
  C   C783      1.0  0.41580  0.75648  0.60505  1.0000
  H   H635      1.0  0.34227  0.79010  0.94988  1.0000
  C   C784      1.0  0.48216  0.84835  0.56606  1.0000
  H   H636      1.0  0.39627  0.85131  0.81579  1.0000
  C   C785      1.0  0.42635  0.81617  0.66315  1.0000
  H   H637      1.0  0.45476  0.83914  0.88917  1.0000
  C   C786      1.0  0.13954  0.49608  0.69672  1.0000
  C   C787      1.0  0.21369  0.55640  0.82462  1.0000
  C   C788      1.0  0.20609  0.55025  0.79751  1.0000
  C   C789      1.0  0.18563  0.54119  0.79418  1.0000
  C   C790      1.0  0.17266  0.53793  0.81812  1.0000
  H   H638      1.0  0.34664  0.95339  0.97409  1.0000
  P   P27       1.0  0.14581  0.52720  0.81321  1.0000
  C   C791      1.0  0.13086  0.53110  0.84599  1.0000
  C   C792      1.0  0.13250  0.54285  0.78481  1.0000
  C   C793      1.0  0.13593  0.56536  0.78273  1.0000
  C   C794      1.0  0.12606  0.57759  0.76061  1.0000
  C   C795      1.0  0.11297  0.56743  0.74008  1.0000
  C   C796      1.0  0.10951  0.54503  0.74189  1.0000
  C   C797      1.0  0.11919  0.53276  0.76420  1.0000
  C   C798      1.0  0.45748  0.85997  0.97009  1.0000
  H   H639      1.0  0.13842  0.51162  0.70788  1.0000
  C   C799      1.0  0.10894  0.53728  0.89781  1.0000
  C   C800      1.0  0.10908  0.55416  0.87783  1.0000
  C   C801      1.0  0.12005  0.55115  0.85203  1.0000
  S   S120      1.0  0.02115  0.59672  0.49758  1.0000
  C   C802      1.0  0.24126  0.51036  0.64988  1.0000
  Fe  Fe59      1.0  0.38415  0.86830  0.50222  1.0000
  H   H640      1.0  0.17721  0.76029  0.81196  1.0000
  H   H641      1.0  0.29095  0.84293  0.63092  1.0000
  C   C803      1.0  0.18804  0.74239  0.84943  1.0000
  S   S121      1.0  0.43702  0.84432  0.95467  1.0000
  H   H642      1.0  0.22926  0.56411  0.82690  1.0000
  H   H643      1.0  0.21578  0.55296  0.77887  1.0000
  H   H644      1.0  0.17986  0.53705  0.77281  1.0000
  H   H645      1.0  0.36324  0.73368  0.80673  1.0000
  H   H646      1.0  0.14641  0.57351  0.79806  1.0000
  H   H647      1.0  0.12893  0.59492  0.75915  1.0000
  H   H648      1.0  0.10571  0.57693  0.72264  1.0000
  Fe  Fe60      1.0  0.10169  0.59239  0.51350  1.0000
  C   C804      1.0  0.23723  0.82003  0.52719  1.0000
  C   C805      1.0  0.47866  0.87912  0.59857  1.0000
  H   H649      1.0  0.32742  0.90078  0.57735  1.0000
  C   C806      1.0  0.31626  0.80692  0.87667  1.0000
  H   H650      1.0  0.10102  0.56976  0.88257  1.0000
  H   H651      1.0  0.12033  0.56468  0.83727  1.0000
  H   H652      1.0  0.32060  0.69642  0.85796  1.0000
  C   C807      1.0  0.29770  0.80470  0.59500  1.0000
  C   C808      1.0  0.47075  0.96452  0.94575  1.0000
  C   C809      1.0  0.20343  0.72735  0.86082  1.0000
  H   H653      1.0  0.40688  0.96785  0.94323  1.0000
  H   H654      1.0  0.21775  0.63975  0.81938  1.0000
  C   C810      1.0  0.25221  0.63932  0.81141  1.0000
  C   C811      1.0  0.26997  0.65164  0.80386  1.0000
  C   C812      1.0  0.26715  0.67407  0.79882  1.0000
  C   C813      1.0  0.24653  0.68438  0.80166  1.0000
  C   C814      1.0  0.30289  0.85259  0.58964  1.0000
  P   P28       1.0  0.24220  0.71283  0.79237  1.0000
  C   C815      1.0  0.23350  0.71456  0.75521  1.0000
  C   C816      1.0  0.22112  0.72465  0.81471  1.0000
  C   C817      1.0  0.20568  0.73989  0.80349  1.0000
  H   H655      1.0  0.28069  0.71749  0.75748  1.0000
  C   C818      1.0  0.23749  0.73330  0.73914  1.0000
  C   C819      1.0  0.23053  0.73473  0.71051  1.0000
  C   C820      1.0  0.21921  0.71765  0.69785  1.0000
  C   C821      1.0  0.21488  0.69911  0.71379  1.0000
  C   C822      1.0  0.22209  0.69749  0.74228  1.0000
  C   C823      1.0  0.04119  0.61404  0.90420  1.0000
  H   H656      1.0  0.25423  0.62182  0.81425  1.0000
  H   H657      1.0  0.28571  0.64361  0.80048  1.0000
  H   H658      1.0  0.28091  0.68306  0.79176  1.0000
  H   H659      1.0  0.47797  0.77458  0.87348  1.0000
  H   H660      1.0  0.20619  0.74491  0.78135  1.0000
  C   C824      1.0  0.03537  0.59224  0.90141  1.0000
  H   H661      1.0  0.24609  0.74678  0.74861  1.0000
  H   H662      1.0  0.23407  0.74902  0.69808  1.0000
  H   H663      1.0  0.21395  0.71864  0.67561  1.0000
  H   H664      1.0  0.20631  0.68572  0.70390  1.0000
  H   H665      1.0  0.21888  0.68278  0.75391  1.0000
  H   H666      1.0  0.25869  0.74070  0.83966  1.0000
  H   H667      1.0  0.06558  0.50418  0.95685  1.0000
  H   H668      1.0  0.42818  0.84941  0.60531  1.0000
  C   C825      1.0  0.43729  0.79769  0.65209  1.0000
  C   C826      1.0  0.28953  0.75199  0.82621  1.0000
  C   C827      1.0  0.21995  0.71855  0.84358  1.0000
  C   C828      1.0  0.20131  0.57884  0.58862  1.0000
  Fe  Fe61      1.0  0.40404  0.85893  0.96456  1.0000
  C   C829      1.0  0.44626  0.93439  0.94829  1.0000
  C   C830      1.0  0.46233  0.85471  0.55280  1.0000
  C   C831      1.0  0.45077  0.87333  0.56217  1.0000
  H   H669      1.0  0.30679  0.95654  0.91443  1.0000
  C   C832      1.0  0.27059  0.73998  0.82290  1.0000
  C   C833      1.0  0.30507  0.75169  0.80469  1.0000
  H   H670      1.0  0.09626  0.65683  0.57630  1.0000
  H   H671      1.0  0.29519  0.55542  0.63079  1.0000
  H   H672      1.0  0.43859  0.75487  0.55533  1.0000
  C   C834      1.0  0.44266  0.84203  0.87239  1.0000
  H   H673      1.0  0.45582  0.84523  0.53520  1.0000
  H   H674      1.0  0.43540  0.87814  0.55175  1.0000
  C   C835      1.0  0.21548  0.56474  0.57364  1.0000
  C   C836      1.0  0.44424  0.83167  0.84553  1.0000
  P   P29       1.0  0.46702  0.81316  0.83743  1.0000
  H   H675      1.0  0.32582  0.54554  0.59962  1.0000
  C   C837      1.0  0.00193  0.66220  0.51565  1.0000
  S   S122      1.0  0.08176  0.62125  0.98307  1.0000
  H   H676      1.0  0.09928  0.50586  0.60790  1.0000
  C   C838      1.0  0.14466  0.49862  0.59619  1.0000
  H   H677      1.0  0.43186  0.80691  0.50244  1.0000
  H   H678      1.0  0.32058  0.90538  0.62926  1.0000
  C   C839      1.0  0.47638  0.84033  0.79112  1.0000
  H   H679      1.0  0.03065  0.51790  0.87845  1.0000
  H   H680      1.0  0.01063  0.53515  0.77461  1.0000
  C   C840      1.0  0.48430  0.82431  0.81045  1.0000
  H   H681      1.0  0.43024  0.70464  0.64961  1.0000
  C   C841      1.0  0.45677  0.78742  0.82461  1.0000
  C   C842      1.0  0.43508  0.78188  0.82946  1.0000
  C   C843      1.0  0.42681  0.76273  0.81772  1.0000
  C   C844      1.0  0.44022  0.74868  0.80163  1.0000
  Fe  Fe62      1.0  0.06437  0.58969  0.98923  1.0000
  C   C845      1.0  0.23079  0.84870  0.56217  1.0000
  H   H682      1.0  0.42764  0.82668  0.80474  1.0000
  C   C846      1.0  0.30257  0.76895  0.63244  1.0000
  C   C847      1.0  0.27487  0.52922  0.61578  1.0000
  C   C848      1.0  0.02124  0.55750  0.80738  1.0000
  C   C849      1.0  0.48308  0.76543  0.62644  1.0000
  C   C850      1.0  0.31008  0.51803  0.58036  1.0000
  H   H683      1.0  0.31651  0.86751  0.55216  1.0000
  H   H684      1.0  0.47237  0.74283  0.78491  1.0000
  C   C851      1.0  0.21908  0.50603  0.64591  1.0000
  C   C852      1.0  0.99839  0.60436  0.96965  1.0000
  H   H685      1.0  0.48115  0.78939  0.66072  1.0000
  H   H686      1.0  0.42425  0.79246  0.84173  1.0000
  H   H687      1.0  0.40980  0.75911  0.82045  1.0000
  H   H688      1.0  0.43363  0.73421  0.79172  1.0000
  C   C853      1.0  0.31222  0.82380  0.54091  1.0000
  H   H689      1.0  0.47461  0.84814  0.64098  1.0000
  C   C854      1.0  0.40494  0.72278  0.62664  1.0000
  H   H690      1.0  0.21247  0.67913  0.81042  1.0000
  H   H691      1.0  0.45016  0.90024  0.59199  1.0000
  C   C855      1.0  0.42307  0.75866  0.89523  1.0000
  C   C856      1.0  0.40836  0.85969  0.85782  1.0000
  C   C857      1.0  0.00968  0.53974  0.79700  1.0000
  C   C858      1.0  0.01345  0.58704  0.89694  1.0000
  H   H692      1.0  0.05676  0.51966  0.54507  1.0000
  H   H693      1.0  0.13379  0.52836  0.53573  1.0000
  C   C859      1.0  0.04710  0.65448  0.54108  1.0000
  C   C860      1.0  0.11996  0.51747  0.89225  1.0000
  H   H694      1.0  0.21478  0.56441  0.55045  1.0000
  C   C861      1.0  0.42844  0.77905  0.90643  1.0000
  C   C862      1.0  0.34159  0.71334  0.82978  1.0000
  C   C863      1.0  0.29884  0.85544  0.61895  1.0000
  C   C864      1.0  0.02919  0.54212  0.54100  1.0000
  H   H695      1.0  0.17064  0.54214  0.86419  1.0000
  C   C865      1.0  0.00649  0.54448  0.53951  1.0000
  H   H696      1.0  0.44898  0.75858  0.50498  1.0000
  C   C866      1.0  0.32183  0.81350  0.92734  1.0000
  P   P30       1.0  0.35698  0.75758  0.90743  1.0000
  C   C867      1.0  0.38499  0.76596  0.90676  1.0000
  H   H697      1.0  0.03124  0.73294  0.58213  1.0000
  C   C868      1.0  0.13687  0.49529  0.66694  1.0000
  H   H698      1.0  0.02700  0.62613  0.54093  1.0000
  H   H699      1.0  0.25857  0.52723  0.70071  1.0000
  H   H700      1.0  0.37859  0.79690  0.92809  1.0000
  C   C869      1.0  0.36599  0.72451  0.98299  1.0000
  C   C870      1.0  0.45789  0.76713  0.52160  1.0000
  C   C871      1.0  0.04179  0.63325  0.54891  1.0000
  C   C872      1.0  0.03913  0.52143  0.54434  1.0000
  C   C873      1.0  0.23074  0.55136  0.58854  1.0000
  C   C874      1.0  0.08090  0.65040  0.56888  1.0000
  C   C875      1.0  0.35129  0.73977  0.87738  1.0000
  P   P31       1.0  0.00600  0.55893  0.89243  1.0000
  H   H701      1.0  0.39429  0.87013  0.86282  1.0000
  H   H702      1.0  0.31390  0.73878  0.76331  1.0000
  H   H703      1.0  0.41641  0.80850  0.92691  1.0000
  H   H704      1.0  0.39763  0.73612  0.88704  1.0000
  C   C876      1.0  0.18046  0.54394  0.84541  1.0000
  C   C877      1.0  0.47938  0.85389  0.96611  1.0000
  H   H705      1.0  0.43747  0.92133  0.93800  1.0000
  C   C878      1.0  0.05427  0.51451  0.94453  1.0000
  H   H706      1.0  0.32624  0.81666  0.61696  1.0000
  C   C879      1.0  0.02531  0.63083  0.90185  1.0000
  C   C880      1.0  0.45904  0.88566  0.58491  1.0000
  P   P32       1.0  0.25212  0.53596  0.63861  1.0000
  H   H707      1.0  0.27434  0.75643  0.61083  1.0000
  H   H708      1.0  0.05804  0.61797  0.90828  1.0000
  H   H709      1.0  0.29207  0.76175  0.84532  1.0000
  C   C881      1.0  0.31546  0.89077  0.61819  1.0000
  H   H710      1.0  0.20243  0.72237  0.88297  1.0000
  C   C882      1.0  0.42636  0.71873  0.63629  1.0000
  H   H711      1.0  0.18603  0.50103  0.70162  1.0000
  H   H712      1.0  0.08656  0.61934  0.58972  1.0000
  H   H713      1.0  0.17626  0.54272  0.60695  1.0000
  H   H714      1.0  0.45977  0.84662  0.79194  1.0000
  C   C883      1.0  0.33194  0.70951  0.85608  1.0000
  H   H715      1.0  0.45454  0.91125  0.51652  1.0000
  H   H716      1.0  0.43883  0.78303  0.66504  1.0000
  C   C884      1.0  0.31310  0.86918  0.57473  1.0000
  C   C885      1.0  0.44254  0.73357  0.63049  1.0000
  H   H717      1.0  0.03903  0.55641  0.53925  1.0000
  H   H718      1.0  0.10065  0.53961  0.91790  1.0000
  H   H719      1.0  0.45869  0.73060  0.63959  1.0000
  C   C886      1.0  0.13601  0.50409  0.56907  1.0000
  H   H720      1.0  0.36290  0.80368  0.52478  1.0000
  C   C887      1.0  0.04502  0.53332  0.95692  1.0000
  C   C888      1.0  0.04915  0.50922  0.91614  1.0000
  C   C889      1.0  0.31028  0.97377  0.91527  1.0000
  C   C890      1.0  0.25890  0.81771  0.53680  1.0000
  C   C891      1.0  0.02634  0.50305  0.54610  1.0000
  Fe  Fe63      1.0  0.10728  0.56318  0.98083  1.0000
  C   C892      1.0  0.03060  0.54683  0.94098  1.0000
  C   C893      1.0  0.48083  0.78921  0.56434  1.0000
  H   H721      1.0  0.43435  0.92727  0.98998  1.0000
  C   C894      1.0  0.31127  0.53597  0.59886  1.0000
  C   C895      1.0  0.45938  0.94778  0.93229  1.0000
  C   C896      1.0  0.02480  0.54132  0.91274  1.0000
  C   C897      1.0  0.99762  0.60403  0.89402  1.0000
  C   C898      1.0  0.31933  0.88818  0.58897  1.0000
  C   C899      1.0  0.23169  0.55182  0.61861  1.0000
  C   C900      1.0  0.15560  0.53777  0.56991  1.0000
  C   C901      1.0  0.07544  0.62927  0.57652  1.0000
  C   C902      1.0  0.42486  0.85604  0.87836  1.0000
  H   H722      1.0  0.99119  0.63884  0.89500  1.0000
  H   H723      1.0  0.27251  0.49715  0.66507  1.0000
  C   C903      1.0  0.39073  0.78606  0.91875  1.0000
  C   C904      1.0  0.31478  0.80367  0.61537  1.0000
  S   S123      1.0  0.12763  0.59244  0.97484  1.0000
  H   H724      1.0  0.16826  0.50190  0.91875  1.0000
  C   C905      1.0  0.33900  0.78155  0.90489  1.0000
  H   H725      1.0  0.05202  0.60406  0.57167  1.0000
  S   S124      1.0  0.07429  0.57003  0.50299  1.0000
  C   C906      1.0  0.03432  0.52241  0.90035  1.0000
  C   C907      1.0  0.45191  0.76521  0.55025  1.0000
  C   C908      1.0  0.20090  0.55321  0.84857  1.0000
  H   H726      1.0  0.33769  0.70334  0.81126  1.0000
  C   C909      1.0  0.35601  0.73037  0.82719  1.0000
  C   C910      1.0  0.33676  0.72266  0.87984  1.0000
  C   C911      1.0  0.02671  0.73649  0.50959  1.0000
  C   C912      1.0  0.14727  0.49841  0.80399  1.0000
  P   P33       1.0  0.29478  0.82799  0.57130  1.0000
  H   H727      1.0  0.43563  0.74806  0.88608  1.0000
  C   C913      1.0  0.14122  0.52375  0.55615  1.0000
  C   C914      1.0  0.47391  0.73862  0.71013  1.0000
  H   H728      1.0  0.39235  0.80403  0.49359  1.0000
  H   H729      1.0  0.33791  0.80653  0.56495  1.0000
  C   C915      1.0  0.26671  0.83095  0.55914  1.0000
  C   C916      1.0  0.26067  0.55259  0.66873  1.0000
  H   H730      1.0  0.25941  0.50142  0.59614  1.0000
  C   C917      1.0  0.29377  0.54156  0.61654  1.0000
  C   C918      1.0  0.32952  0.78795  0.87852  1.0000
  H   H731      1.0  0.47640  0.79389  0.75023  1.0000
  C   C919      1.0  0.34037  0.98277  0.80815  1.0000
  C   C920      1.0  0.09301  0.48959  0.60583  1.0000
  C   C921      1.0  0.26487  0.57477  0.66450  1.0000
  C   C922      1.0  0.27097  0.58801  0.68758  1.0000
  C   C923      1.0  0.27271  0.57931  0.71511  1.0000
  C   C924      1.0  0.26849  0.55732  0.71956  1.0000
  C   C925      1.0  0.26246  0.54399  0.69650  1.0000
  H   H732      1.0  0.18961  0.58942  0.57720  1.0000
  H   H733      1.0  0.02765  0.76051  0.54345  1.0000
  S   S125      1.0  0.34620  0.88389  0.97363  1.0000
  H   H734      1.0  0.03224  0.69358  0.57032  1.0000
  C   C926      1.0  0.28314  0.78745  0.59339  1.0000
  C   C927      1.0  0.21688  0.56544  0.63339  1.0000
  C   C928      1.0  0.99339  0.50886  0.99250  1.0000
  H   H735      1.0  0.30250  0.87628  0.65591  1.0000
  H   H736      1.0  0.02412  0.56173  0.95060  1.0000
  H   H737      1.0  0.29147  0.84270  0.51141  1.0000
  C   C929      1.0  0.46880  0.92083  0.51316  1.0000
  H   H738      1.0  0.33292  0.77892  0.85907  1.0000
  H   H739      1.0  0.01189  0.61126  0.95867  1.0000
  H   H740      1.0  0.23135  0.80984  0.50985  1.0000
  Fe  Fe64      1.0  0.37823  0.90055  0.98039  1.0000
  C   C930      1.0  0.02988  0.69856  0.52449  1.0000
  H   H741      1.0  0.26309  0.58195  0.64343  1.0000
  H   H742      1.0  0.27375  0.60523  0.68437  1.0000
  H   H743      1.0  0.27689  0.58982  0.73302  1.0000
  H   H744      1.0  0.26944  0.55070  0.74100  1.0000
  H   H745      1.0  0.18112  0.49759  0.79079  1.0000
  H   H746      1.0  0.07177  0.67893  0.54448  1.0000
  C   C931      1.0  0.15993  0.51225  0.60921  1.0000
  H   H747      1.0  0.13996  0.49917  0.86296  1.0000
  H   H748      1.0  0.19133  0.59024  0.63023  1.0000
  H   H749      1.0  0.21694  0.56561  0.65653  1.0000
  C   C932      1.0  0.26710  0.72753  0.79796  1.0000
  H   H750      1.0  0.46083  0.94505  0.90946  1.0000
  S   S126      1.0  0.37448  0.83906  0.95749  1.0000
  H   H751      1.0  0.31734  0.75055  0.93966  1.0000
  H   H752      1.0  0.32899  0.71950  0.89991  1.0000
  C   C933      1.0  0.43140  0.83522  0.61867  1.0000
  C   C934      1.0  0.42334  0.83490  0.64643  1.0000
  C   C935      1.0  0.44543  0.79787  0.62418  1.0000
  C   C936      1.0  0.44238  0.81679  0.60751  1.0000
  H   H753      1.0  0.15906  0.55334  0.56031  1.0000
  H   H754      1.0  0.44508  0.78435  0.90614  1.0000
  C   C937      1.0  0.35225  0.74396  0.94083  1.0000
  C   C938      1.0  0.25246  0.84642  0.57183  1.0000
  C   C939      1.0  0.43738  0.75251  0.61462  1.0000
  C   C940      1.0  0.30662  0.83336  0.51435  1.0000
  C   C941      1.0  0.05592  0.62069  0.56647  1.0000
  H   H755      1.0  0.17514  0.74908  0.86275  1.0000
  C   C942      1.0  0.47585  0.77856  0.73869  1.0000
  H   H756      1.0  0.99397  0.49095  0.54600  1.0000
  H   H757      1.0  0.23173  0.70686  0.85271  1.0000
  H   H758      1.0  0.37161  0.75697  0.84826  1.0000
  C   C943      1.0  0.02739  0.71422  0.50275  1.0000
  H   H759      1.0  0.02990  0.64768  0.90427  1.0000
  H   H760      1.0  0.09947  0.53716  0.72584  1.0000
  C   C944      1.0  0.30523  0.87441  0.63317  1.0000
  C   C945      1.0  0.13105  0.51443  0.86658  1.0000
  C   C946      1.0  0.46203  0.75357  0.79775  1.0000
  H   H761      1.0  0.11367  0.49304  0.81480  1.0000
  H   H762      1.0  0.39552  0.97687  0.80368  1.0000
  H   H763      1.0  0.32369  0.51369  0.56676  1.0000
  H   H764      1.0  0.31940  0.82379  0.94605  1.0000
  C   C947      1.0  0.41228  0.79268  0.91823  1.0000
  C   C948      1.0  0.28560  0.76968  0.61206  1.0000
  H   H765      1.0  0.04937  0.53775  0.97876  1.0000
  C   C949      1.0  0.31716  0.78595  0.63403  1.0000
  C   C950      1.0  0.33488  0.79441  0.92935  1.0000
  C   C951      1.0  0.18920  0.74869  0.82081  1.0000
  C   C952      1.0  0.00356  0.50538  0.54471  1.0000
  H   H766      1.0  0.00153  0.65485  0.56094  1.0000
  C   C953      1.0  0.02823  0.74324  0.53817  1.0000
  P   P34       1.0  0.03016  0.66986  0.51578  1.0000
  H   H767      1.0  0.46758  0.83265  0.68824  1.0000
  C   C954      1.0  0.29135  0.50565  0.57948  1.0000
  S   S127      1.0  0.39917  0.90117  0.49658  1.0000
  C   C955      1.0  0.46655  0.94126  0.49999  1.0000
  H   H768      1.0  0.21990  0.86074  0.57196  1.0000
  H   H769      1.0  0.29043  0.49168  0.56522  1.0000
  H   H770      1.0  0.30319  0.83504  0.89923  1.0000
  H   H771      1.0  0.12498  0.49327  0.55815  1.0000
  C   C956      1.0  0.46897  0.96807  0.97538  1.0000
  C   C957      1.0  0.22318  0.83554  0.53985  1.0000
  H   H772      1.0  0.33874  0.96995  0.88956  1.0000
  H   H773      1.0  0.02927  0.57720  0.84386  1.0000
  C   C958      1.0  0.44451  0.93775  0.97773  1.0000
  C   C959      1.0  0.09051  0.49833  0.51229  1.0000
  C   C960      1.0  0.25537  0.49411  0.66167  1.0000
  H   H774      1.0  0.99920  0.56067  0.53667  1.0000
  H   H775      1.0  0.33030  0.78549  0.64986  1.0000
  H   H776      1.0  0.20776  0.51843  0.63761  1.0000
  C   C961      1.0  0.33265  0.81309  0.54441  1.0000
  H   H777      1.0  0.03118  0.56667  0.79307  1.0000
  H   H778      1.0  0.24179  0.54089  0.57651  1.0000
  H   H779      1.0  0.48361  0.84011  0.95248  1.0000
  H   H780      1.0  0.37209  0.97616  0.91817  1.0000
  H   H781      1.0  0.24583  0.49108  0.77321  1.0000
  C   C962      1.0  0.35727  0.96644  0.98017  1.0000
  C   C963      1.0  0.03028  0.72771  0.55996  1.0000
  H   H782      1.0  0.32558  0.97887  0.79644  1.0000
  C   C964      1.0  0.48418  0.83350  0.68089  1.0000
  C   C965      1.0  0.99577  0.53379  0.84443  1.0000
  C   C966      1.0  0.99344  0.52618  0.54172  1.0000
  C   C967      1.0  0.36070  0.97654  0.79719  1.0000
  C   C968      1.0  0.19888  0.49897  0.71758  1.0000
  H   H783      1.0  0.48094  0.97459  0.93297  1.0000
  H   H784      1.0  0.43523  0.88304  0.99004  1.0000
  C   C969      1.0  0.45588  0.95442  0.99132  1.0000
  H   H785      1.0  0.45038  0.94741  0.49383  1.0000
  H   H786      1.0  0.48367  0.86048  0.75504  1.0000
  C   C970      1.0  0.99697  0.52787  0.81553  1.0000
  C   C971      1.0  0.99217  0.65579  0.54112  1.0000
  C   C972      1.0  0.48505  0.95328  0.49403  1.0000
  H   H787      1.0  0.16751  0.50806  0.62958  1.0000
  C   C973      1.0  0.45205  0.87792  0.98747  1.0000
  H   H788      1.0  0.98782  0.54988  0.94929  1.0000
  C   C974      1.0  0.00257  0.59035  0.99278  1.0000
  C   C975      1.0  0.37977  0.98165  0.81224  1.0000
  C   C976      1.0  0.48439  0.80895  0.86870  1.0000
  H   H789      1.0  0.98808  0.51406  0.80751  1.0000
  C   C977      1.0  0.23256  0.49324  0.75780  1.0000
  H   H790      1.0  0.18263  0.50007  0.96830  1.0000
  C   C978      1.0  0.40452  0.98324  0.93204  1.0000
  H   H791      1.0  0.48484  0.88876  0.61627  1.0000
  H   H792      1.0  0.31104  0.73318  0.98621  1.0000
  C   C979      1.0  0.32739  0.73339  0.97786  1.0000
  S   S128      1.0  0.08331  0.62138  0.49400  1.0000
  C   C980      1.0  0.48682  0.79105  0.53574  1.0000
  C   C981      1.0  0.34120  0.82078  0.49512  1.0000
  C   C982      1.0  0.10901  0.48817  0.97640  1.0000
  C   C983      1.0  0.16659  0.48840  0.79379  1.0000
  C   C984      1.0  0.48677  0.78837  0.88168  1.0000
  H   H793      1.0  0.64912  0.18294  0.99780  1.0000
  C   C985      1.0  0.79735  0.47750  0.42841  1.0000
  S   S129      1.0  0.61436  0.11285  0.04708  1.0000
  C   C986      1.0  0.49140  0.21008  0.23769  1.0000
  S   S130      1.0  0.56338  0.07310  0.44545  1.0000
  H   H794      1.0  0.51247  0.14840  0.03509  1.0000
  Fe  Fe65      1.0  0.57816  0.10578  0.45348  1.0000
  S   S131      1.0  0.57708  0.13439  0.42114  1.0000
  C   C987      1.0  0.52341  0.12554  0.33933  1.0000
  H   H795      1.0  0.49980  0.23305  0.37762  1.0000
  C   C988      1.0  0.85386  0.44060  0.15212  1.0000
  Fe  Fe66      1.0  0.89514  0.38764  0.49006  1.0000
  Fe  Fe67      1.0  0.87003  0.41587  0.02105  1.0000
  S   S132      1.0  0.87641  0.38666  0.04861  1.0000
  S   S133      1.0  0.87429  0.44839  0.04242  1.0000
  Fe  Fe68      1.0  0.85927  0.37252  0.44749  1.0000
  C   C989      1.0  0.59256  0.99513  0.12605  1.0000
  S   S134      1.0  0.85146  0.35327  0.40642  1.0000
  Fe  Fe69      1.0  0.84593  0.37397  0.02844  1.0000
  S   S135      1.0  0.81659  0.36173  0.05286  1.0000
  H   H796      1.0  0.74540  0.45906  0.11571  1.0000
  H   H797      1.0  0.52510  0.00992  0.00670  1.0000
  C   C990      1.0  0.52504  0.17678  0.45877  1.0000
  S   S136      1.0  0.88474  0.39819  0.44566  1.0000
  Fe  Fe70      1.0  0.75819  0.36356  0.27650  1.0000
  S   S137      1.0  0.72240  0.36872  0.26431  1.0000
  S   S138      1.0  0.76846  0.37081  0.32302  1.0000
  Fe  Fe71      1.0  0.77129  0.35690  0.21365  1.0000
  S   S139      1.0  0.73670  0.36146  0.19770  1.0000
  S   S140      1.0  0.80292  0.35421  0.18819  1.0000
  Fe  Fe72      1.0  0.73470  0.38983  0.22884  1.0000
  S   S141      1.0  0.72067  0.42314  0.21360  1.0000
  Fe  Fe73      1.0  0.72686  0.33970  0.23428  1.0000
  S   S142      1.0  0.70519  0.30936  0.22523  1.0000
  S   S143      1.0  0.76965  0.38626  0.24274  1.0000
  S   S144      1.0  0.76218  0.33358  0.24863  1.0000
  Fe  Fe74      1.0  0.59344  0.17570  0.25856  1.0000
  S   S145      1.0  0.57949  0.20825  0.27225  1.0000
  S   S146      1.0  0.60292  0.14769  0.28951  1.0000
  Fe  Fe75      1.0  0.58618  0.18659  0.19397  1.0000
  S   S147      1.0  0.57164  0.22000  0.20490  1.0000
  S   S148      1.0  0.58150  0.17854  0.14601  1.0000
  Fe  Fe76      1.0  0.59965  0.22270  0.23706  1.0000
  S   S149      1.0  0.61742  0.25517  0.24658  1.0000
  Fe  Fe77      1.0  0.55317  0.20287  0.23880  1.0000
  S   S150      1.0  0.51738  0.20113  0.25135  1.0000
  S   S151      1.0  0.61499  0.19001  0.22471  1.0000
  S   S152      1.0  0.56647  0.16965  0.22662  1.0000
  S   S153      1.0  0.83838  0.40448  0.00283  1.0000
  C   C991      1.0  0.49331  0.29185  0.35506  1.0000
  H   H798      1.0  0.79900  0.44779  0.10115  1.0000
  H   H799      1.0  0.50303  0.23304  0.20733  1.0000
  H   H800      1.0  0.81575  0.48758  0.01264  1.0000
  C   C992      1.0  0.68067  0.29451  0.23170  1.0000
  C   C993      1.0  0.66366  0.30276  0.24876  1.0000
  C   C994      1.0  0.64468  0.29055  0.25296  1.0000
  C   C995      1.0  0.64217  0.26971  0.24044  1.0000
  C   C996      1.0  0.65923  0.26136  0.22353  1.0000
  C   C997      1.0  0.67814  0.27365  0.21913  1.0000
  H   H801      1.0  0.66509  0.31867  0.25866  1.0000
  H   H802      1.0  0.63181  0.29739  0.26609  1.0000
  H   H803      1.0  0.65793  0.24538  0.21389  1.0000
  H   H804      1.0  0.69104  0.26688  0.20597  1.0000
  C   C998      1.0  0.73024  0.44928  0.22380  1.0000
  C   C999      1.0  0.72146  0.46815  0.21018  1.0000
  C   C1000     1.0  0.74617  0.45168  0.24527  1.0000
  H   H805      1.0  0.70900  0.46649  0.19371  1.0000
  H   H806      1.0  0.75282  0.43734  0.25610  1.0000
  C   C1001     1.0  0.81321  0.35939  0.09058  1.0000
  C   C1002     1.0  0.83071  0.36088  0.11007  1.0000
  C   C1003     1.0  0.82729  0.35864  0.13971  1.0000
  C   C1004     1.0  0.80629  0.35580  0.15044  1.0000
  C   C1005     1.0  0.78882  0.35424  0.13100  1.0000
  C   C1006     1.0  0.79231  0.35572  0.10127  1.0000
  H   H807      1.0  0.84694  0.36322  0.10223  1.0000
  H   H808      1.0  0.84097  0.35902  0.15450  1.0000
  H   H809      1.0  0.77273  0.35147  0.13891  1.0000
  H   H810      1.0  0.77870  0.35400  0.08650  1.0000
  C   C1007     1.0  0.82849  0.35847  0.38308  1.0000
  C   C1008     1.0  0.81251  0.37454  0.38922  1.0000
  C   C1009     1.0  0.79450  0.37811  0.37044  1.0000
  C   C1010     1.0  0.79212  0.36578  0.34513  1.0000
  C   C1011     1.0  0.80819  0.34979  0.33876  1.0000
  C   C1012     1.0  0.82618  0.34612  0.35771  1.0000
  H   H811      1.0  0.81385  0.38406  0.40866  1.0000
  H   H812      1.0  0.78224  0.39046  0.37566  1.0000
  H   H813      1.0  0.80659  0.34004  0.31952  1.0000
  H   H814      1.0  0.83829  0.33348  0.35279  1.0000
  C   C1013     1.0  0.97361  0.35706  0.02278  1.0000
  P   P35       1.0  0.59538  0.02898  0.08620  1.0000
  C   C1014     1.0  0.49354  0.30693  0.37766  1.0000
  C   C1015     1.0  0.50051  0.13458  0.20279  1.0000
  C   C1016     1.0  0.77463  0.48648  0.46893  1.0000
  H   H815      1.0  0.53997  0.25575  0.22721  1.0000
  C   C1017     1.0  0.87228  0.46956  0.01749  1.0000
  C   C1018     1.0  0.95374  0.47714  0.45929  1.0000
  H   H816      1.0  0.54261  0.05231  0.17393  1.0000
  C   C1019     1.0  0.62260  0.05731  0.15737  1.0000
  C   C1020     1.0  0.58456  0.13747  0.38450  1.0000
  C   C1021     1.0  0.58103  0.15797  0.37133  1.0000
  C   C1022     1.0  0.58664  0.16141  0.34250  1.0000
  C   C1023     1.0  0.59601  0.14438  0.32630  1.0000
  C   C1024     1.0  0.59988  0.12396  0.33957  1.0000
  C   C1025     1.0  0.59395  0.12043  0.36831  1.0000
  H   H817      1.0  0.57397  0.17133  0.38362  1.0000
  H   H818      1.0  0.58397  0.17730  0.33288  1.0000
  H   H819      1.0  0.60723  0.11065  0.32743  1.0000
  H   H820      1.0  0.59690  0.10458  0.37802  1.0000
  C   C1026     1.0  0.60429  0.13058  0.07464  1.0000
  C   C1027     1.0  0.61245  0.12805  0.10286  1.0000
  C   C1028     1.0  0.60546  0.14226  0.12510  1.0000
  C   C1029     1.0  0.59055  0.15952  0.11928  1.0000
  C   C1030     1.0  0.58250  0.16207  0.09102  1.0000
  C   C1031     1.0  0.58919  0.14767  0.06892  1.0000
  H   H821      1.0  0.62434  0.11506  0.10754  1.0000
  H   H822      1.0  0.61176  0.13998  0.14665  1.0000
  H   H823      1.0  0.57124  0.17550  0.08598  1.0000
  H   H824      1.0  0.58311  0.15018  0.04727  1.0000
  H   H825      1.0  0.54016  0.09209  0.10362  1.0000
  H   H826      1.0  0.55294  0.03386  0.11222  1.0000
  C   C1032     1.0  0.80759  0.44850  0.36994  1.0000
  S   S154      1.0  0.51201  0.06681  0.49123  1.0000
  H   H827      1.0  0.54588  0.18251  0.31938  1.0000
  C   C1033     1.0  0.85013  0.48565  0.23416  1.0000
  C   C1034     1.0  0.80167  0.45607  0.08126  1.0000
  C   C1035     1.0  0.87662  0.38215  0.18656  1.0000
  H   H828      1.0  0.51726  0.24164  0.15447  1.0000
  H   H829      1.0  0.50209  0.05614  0.42763  1.0000
  C   C1036     1.0  0.85640  0.31369  0.28259  1.0000
  C   C1037     1.0  0.83626  0.30943  0.26969  1.0000
  C   C1038     1.0  0.82366  0.32647  0.25748  1.0000
  C   C1039     1.0  0.83084  0.34787  0.25881  1.0000
  C   C1040     1.0  0.85084  0.35238  0.27229  1.0000
  C   C1041     1.0  0.86389  0.33501  0.28336  1.0000
  P   P36       1.0  0.86110  0.37962  0.27132  1.0000
  C   C1042     1.0  0.87620  0.38052  0.23855  1.0000
  C   C1043     1.0  0.83868  0.39944  0.27162  1.0000
  C   C1044     1.0  0.83815  0.41762  0.25338  1.0000
  C   C1045     1.0  0.82046  0.43263  0.25384  1.0000
  C   C1046     1.0  0.80356  0.42991  0.27300  1.0000
  C   C1047     1.0  0.80429  0.41218  0.29170  1.0000
  C   C1048     1.0  0.82180  0.39704  0.29107  1.0000
  C   C1049     1.0  0.89905  0.37804  0.23899  1.0000
  C   C1050     1.0  0.91057  0.37815  0.21342  1.0000
  C   C1051     1.0  0.89937  0.38035  0.18723  1.0000
  H   H830      1.0  0.66914  0.43446  0.11478  1.0000
  C   C1052     1.0  0.86501  0.38191  0.21206  1.0000
  C   C1053     1.0  0.87748  0.38570  0.30277  1.0000
  C   C1054     1.0  0.87466  0.37450  0.32853  1.0000
  C   C1055     1.0  0.88778  0.37889  0.35252  1.0000
  C   C1056     1.0  0.90331  0.39501  0.35134  1.0000
  C   C1057     1.0  0.90554  0.40695  0.32619  1.0000
  C   C1058     1.0  0.89257  0.40244  0.30205  1.0000
  H   H831      1.0  0.86632  0.30042  0.29169  1.0000
  H   H832      1.0  0.83051  0.29289  0.26876  1.0000
  H   H833      1.0  0.80844  0.32307  0.24652  1.0000
  H   H834      1.0  0.82088  0.36074  0.24882  1.0000
  H   H835      1.0  0.87986  0.33788  0.29255  1.0000
  H   H836      1.0  0.85127  0.42022  0.23878  1.0000
  H   H837      1.0  0.81976  0.44634  0.23934  1.0000
  H   H838      1.0  0.78990  0.44151  0.27339  1.0000
  H   H839      1.0  0.79119  0.40995  0.30660  1.0000
  H   H840      1.0  0.82212  0.38340  0.30569  1.0000
  H   H841      1.0  0.90800  0.37550  0.25893  1.0000
  H   H842      1.0  0.92819  0.37611  0.21385  1.0000
  C   C1059     1.0  0.54190  0.26159  0.24900  1.0000
  H   H843      1.0  0.52492  0.14548  0.12845  1.0000
  H   H844      1.0  0.84731  0.38239  0.21106  1.0000
  H   H845      1.0  0.86229  0.36243  0.33032  1.0000
  H   H846      1.0  0.88562  0.36998  0.37224  1.0000
  H   H847      1.0  0.91327  0.39847  0.37013  1.0000
  H   H848      1.0  0.91733  0.41971  0.32549  1.0000
  H   H849      1.0  0.89438  0.41192  0.28279  1.0000
  H   H850      1.0  0.63674  0.07401  0.02061  1.0000
  H   H851      1.0  0.51602  0.02283  0.16834  1.0000
  C   C1060     1.0  0.50979  0.30534  0.39897  1.0000
  C   C1061     1.0  0.52568  0.27357  0.37515  1.0000
  S   S155      1.0  0.60668  0.09122  0.47944  1.0000
  H   H852      1.0  0.50998  0.31709  0.41641  1.0000
  P   P37       1.0  0.50963  0.25568  0.32431  1.0000
  C   C1062     1.0  0.52884  0.26385  0.29778  1.0000
  C   C1063     1.0  0.51752  0.22898  0.33815  1.0000
  C   C1064     1.0  0.53057  0.21450  0.32202  1.0000
  H   H853      1.0  0.54918  0.13137  0.02964  1.0000
  H   H854      1.0  0.51221  0.11373  0.48249  1.0000
  C   C1065     1.0  0.54686  0.27637  0.30539  1.0000
  C   C1066     1.0  0.56248  0.28104  0.28502  1.0000
  C   C1067     1.0  0.56007  0.27354  0.25689  1.0000
  S   S156      1.0  0.87142  0.35980  0.49089  1.0000
  H   H855      1.0  0.80969  0.45896  0.32598  1.0000
  C   C1068     1.0  0.83701  0.42393  0.38630  1.0000
  H   H856      1.0  0.76504  0.47435  0.27020  1.0000
  H   H857      1.0  0.55393  0.15803  0.47103  1.0000
  H   H858      1.0  0.64146  0.12073  0.38312  1.0000
  S   S157      1.0  0.60499  0.02550  0.46108  1.0000
  C   C1069     1.0  0.75657  0.44024  0.33542  1.0000
  S   S158      1.0  0.85223  0.45296  0.44964  1.0000
  H   H859      1.0  0.75430  0.47303  0.16586  1.0000
  C   C1070     1.0  0.77896  0.47117  0.41248  1.0000
  H   H860      1.0  0.85868  0.42456  0.16012  1.0000
  C   C1071     1.0  0.71190  0.46790  0.12392  1.0000
  H   H861      1.0  0.53644  0.21916  0.30134  1.0000
  C   C1072     1.0  0.60106  0.04764  0.11527  1.0000
  C   C1073     1.0  0.84704  0.42566  0.35989  1.0000
  H   H862      1.0  0.54923  0.28220  0.32705  1.0000
  H   H863      1.0  0.57667  0.29024  0.29101  1.0000
  H   H864      1.0  0.57240  0.27686  0.24128  1.0000
  H   H865      1.0  0.62707  0.02728  0.13387  1.0000
  C   C1074     1.0  0.85584  0.44517  0.12299  1.0000
  C   C1075     1.0  0.72876  0.45367  0.11500  1.0000
  C   C1076     1.0  0.79358  0.47744  0.07748  1.0000
  H   H866      1.0  0.52692  0.11608  0.35838  1.0000
  C   C1077     1.0  0.81748  0.44969  0.34317  1.0000
  C   C1078     1.0  0.65131  0.04167  0.02435  1.0000
  C   C1079     1.0  0.65667  0.17579  0.28380  1.0000
  C   C1080     1.0  0.67882  0.17862  0.27907  1.0000
  C   C1081     1.0  0.69185  0.18795  0.30041  1.0000
  C   C1082     1.0  0.68276  0.19442  0.32651  1.0000
  C   C1083     1.0  0.66045  0.19185  0.33122  1.0000
  C   C1084     1.0  0.64750  0.18253  0.30966  1.0000
  P   P38       1.0  0.64825  0.19989  0.36470  1.0000
  C   C1085     1.0  0.64392  0.17626  0.38671  1.0000
  C   C1086     1.0  0.66615  0.21806  0.38372  1.0000
  C   C1087     1.0  0.66437  0.24076  0.37965  1.0000
  C   C1088     1.0  0.67880  0.25457  0.39380  1.0000
  C   C1089     1.0  0.69511  0.24583  0.41204  1.0000
  C   C1090     1.0  0.69706  0.22326  0.41610  1.0000
  C   C1091     1.0  0.68271  0.20940  0.40192  1.0000
  C   C1092     1.0  0.63951  0.17903  0.41595  1.0000
  C   C1093     1.0  0.63561  0.16094  0.43305  1.0000
  H   H867      1.0  0.57831  0.07316  0.10034  1.0000
  H   H868      1.0  0.55042  0.14329  0.28136  1.0000
  C   C1094     1.0  0.64472  0.15507  0.37502  1.0000
  C   C1095     1.0  0.62261  0.21403  0.35632  1.0000
  C   C1096     1.0  0.60398  0.21056  0.37251  1.0000
  C   C1097     1.0  0.58406  0.22099  0.36513  1.0000
  C   C1098     1.0  0.58265  0.23509  0.34174  1.0000
  C   C1099     1.0  0.60114  0.23884  0.32569  1.0000
  C   C1100     1.0  0.62099  0.22823  0.33277  1.0000
  H   H869      1.0  0.64654  0.16827  0.26754  1.0000
  H   H870      1.0  0.68587  0.17356  0.25891  1.0000
  H   H871      1.0  0.70902  0.19019  0.29673  1.0000
  H   H872      1.0  0.69318  0.20151  0.34274  1.0000
  H   H873      1.0  0.63029  0.18032  0.31298  1.0000
  H   H874      1.0  0.65207  0.24792  0.36541  1.0000
  H   H875      1.0  0.67745  0.27206  0.39042  1.0000
  H   H876      1.0  0.70634  0.25656  0.42287  1.0000
  H   H877      1.0  0.70982  0.21648  0.43009  1.0000
  H   H878      1.0  0.68471  0.19191  0.40496  1.0000
  H   H879      1.0  0.63872  0.19521  0.42542  1.0000
  H   H880      1.0  0.63167  0.16314  0.45543  1.0000
  C   C1101     1.0  0.68576  0.43992  0.11449  1.0000
  C   C1102     1.0  0.52870  0.18703  0.35890  1.0000
  H   H881      1.0  0.64778  0.15230  0.35256  1.0000
  H   H882      1.0  0.60455  0.19944  0.39040  1.0000
  H   H883      1.0  0.56964  0.21776  0.37724  1.0000
  H   H884      1.0  0.56718  0.24277  0.33571  1.0000
  H   H885      1.0  0.60003  0.24950  0.30720  1.0000
  H   H886      1.0  0.63502  0.23099  0.31962  1.0000
  C   C1103     1.0  0.93723  0.43549  0.45155  1.0000
  H   H887      1.0  0.53475  0.16849  0.16967  1.0000
  C   C1104     1.0  0.76169  0.44297  0.36466  1.0000
  C   C1105     1.0  0.49558  0.10876  0.48409  1.0000
  H   H888      1.0  0.50125  0.02176  0.46475  1.0000
  H   H889      1.0  0.74021  0.48202  0.46253  1.0000
  C   C1106     1.0  0.84566  0.45668  0.17084  1.0000
  H   H890      1.0  0.61519  0.08899  0.17588  1.0000
  H   H891      1.0  0.73855  0.42186  0.30391  1.0000
  H   H892      1.0  0.53294  0.17075  0.36669  1.0000
  H   H893      1.0  0.53792  0.18267  0.11145  1.0000
  C   C1107     1.0  0.83726  0.43843  0.33826  1.0000
  C   C1108     1.0  0.75307  0.47268  0.25316  1.0000
  C   C1109     1.0  0.83358  0.48566  0.28087  1.0000
  H   H894      1.0  0.52986  0.17797  0.43667  1.0000
  H   H895      1.0  0.92036  0.43148  0.03553  1.0000
  H   H896      1.0  0.84480  0.43922  0.31754  1.0000
  C   C1110     1.0  0.95977  0.43819  0.45266  1.0000
  H   H897      1.0  0.84451  0.41376  0.40294  1.0000
  C   C1111     1.0  0.78293  0.42929  0.49102  1.0000
  C   C1112     1.0  0.48881  0.22616  0.21663  1.0000
  H   H898      1.0  0.58672  0.09876  0.13943  1.0000
  C   C1113     1.0  0.52689  0.04696  0.04962  1.0000
  H   H899      1.0  0.94956  0.36626  0.46163  1.0000
  C   C1114     1.0  0.81853  0.45714  0.03495  1.0000
  C   C1115     1.0  0.83956  0.47753  0.16049  1.0000
  C   C1116     1.0  0.78688  0.48432  0.17202  1.0000
  C   C1117     1.0  0.51336  0.22730  0.14196  1.0000
  H   H900      1.0  0.54205  0.04803  0.00843  1.0000
  C   C1118     1.0  0.61121  0.07743  0.15908  1.0000
  H   H901      1.0  0.67741  0.47188  0.13123  1.0000
  C   C1119     1.0  0.59505  0.08287  0.13867  1.0000
  C   C1120     1.0  0.74227  0.42415  0.32649  1.0000
  H   H902      1.0  0.86227  0.41690  0.35620  1.0000
  C   C1121     1.0  0.84094  0.48172  0.13106  1.0000
  H   H903      1.0  0.72315  0.39720  0.33938  1.0000
  C   C1122     1.0  0.80349  0.43834  0.49178  1.0000
  C   C1123     1.0  0.97342  0.41399  0.03257  1.0000
  H   H904      1.0  0.84398  0.45269  0.19318  1.0000
  C   C1124     1.0  0.50930  0.27494  0.35375  1.0000
  Fe  Fe78      1.0  0.58997  0.05875  0.47409  1.0000
  C   C1125     1.0  0.52332  0.15552  0.17225  1.0000
  C   C1126     1.0  0.59016  0.06817  0.11665  1.0000
  P   P39       1.0  0.49637  0.10753  0.12274  1.0000
  H   H905      1.0  0.51625  0.04390  0.09281  1.0000
  H   H906      1.0  0.62848  0.16098  0.03188  1.0000
  H   H907      1.0  0.74559  0.48367  0.34240  1.0000
  Fe  Fe79      1.0  0.59893  0.10657  0.00263  1.0000
  H   H908      1.0  0.66448  0.04493  0.01000  1.0000
  C   C1127     1.0  0.73911  0.41232  0.37552  1.0000
  H   H909      1.0  0.63341  0.00163  0.06686  1.0000
  C   C1128     1.0  0.84939  0.46573  0.11252  1.0000
  H   H910      1.0  0.53840  0.26089  0.37433  1.0000
  C   C1129     1.0  0.52495  0.19407  0.11766  1.0000
  C   C1130     1.0  0.75337  0.42844  0.38454  1.0000
  P   P40       1.0  0.78172  0.46239  0.37573  1.0000
  C   C1131     1.0  0.96250  0.37263  0.47495  1.0000
  H   H911      1.0  0.94512  0.40133  0.05257  1.0000
  C   C1132     1.0  0.81724  0.43515  0.39129  1.0000
  C   C1133     1.0  0.52736  0.05538  0.16231  1.0000
  C   C1134     1.0  0.49454  0.12162  0.17939  1.0000
  C   C1135     1.0  0.51016  0.22227  0.36493  1.0000
  C   C1136     1.0  0.49160  0.22314  0.13496  1.0000
  H   H912      1.0  0.51077  0.05149  0.04137  1.0000
  C   C1137     1.0  0.51208  0.00901  0.45649  1.0000
  H   H913      1.0  0.73310  0.40079  0.39076  1.0000
  C   C1138     1.0  0.92292  0.45356  0.45396  1.0000
  C   C1139     1.0  0.49255  0.04294  0.14473  1.0000
  C   C1140     1.0  0.53169  0.01497  0.44442  1.0000
  H   H914      1.0  0.75839  0.42905  0.40685  1.0000
  H   H915      1.0  0.80959  0.43331  0.41181  1.0000
  C   C1141     1.0  0.59459  0.00076  0.09713  1.0000
  C   C1142     1.0  0.81397  0.44578  0.05988  1.0000
  C   C1143     1.0  0.50322  0.18971  0.11092  1.0000
  H   H916      1.0  0.60623  0.06668  0.05230  1.0000
  H   H917      1.0  0.50992  0.19619  0.39575  1.0000
  C   C1144     1.0  0.95143  0.41439  0.03983  1.0000
  H   H918      1.0  0.51905  0.16196  0.21711  1.0000
  C   C1145     1.0  0.63871  0.17393  0.03975  1.0000
  C   C1146     1.0  0.65036  0.18628  0.02058  1.0000
  C   C1147     1.0  0.66359  0.20288  0.03082  1.0000
  C   C1148     1.0  0.66530  0.20706  0.06026  1.0000
  C   C1149     1.0  0.65384  0.19452  0.07966  1.0000
  C   C1150     1.0  0.64032  0.17814  0.06912  1.0000
  P   P41       1.0  0.65569  0.19961  0.11776  1.0000
  C   C1151     1.0  0.63242  0.21611  0.12924  1.0000
  C   C1152     1.0  0.65684  0.17372  0.13628  1.0000
  C   C1153     1.0  0.66668  0.15514  0.12350  1.0000
  C   C1154     1.0  0.66778  0.13519  0.13799  1.0000
  C   C1155     1.0  0.65939  0.13371  0.16548  1.0000
  C   C1156     1.0  0.64984  0.15217  0.17849  1.0000
  C   C1157     1.0  0.64852  0.17209  0.16391  1.0000
  C   C1158     1.0  0.61310  0.21731  0.11268  1.0000
  C   C1159     1.0  0.59552  0.23075  0.12130  1.0000
  C   C1160     1.0  0.59708  0.24305  0.14648  1.0000
  C   C1161     1.0  0.61614  0.24176  0.16326  1.0000
  C   C1162     1.0  0.63371  0.22829  0.15477  1.0000
  C   C1163     1.0  0.68016  0.21410  0.12662  1.0000
  C   C1164     1.0  0.69916  0.20281  0.13629  1.0000
  C   C1165     1.0  0.71761  0.21431  0.14456  1.0000
  C   C1166     1.0  0.71722  0.23711  0.14324  1.0000
  C   C1167     1.0  0.69850  0.24845  0.13326  1.0000
  C   C1168     1.0  0.68009  0.23701  0.12475  1.0000
  C   C1169     1.0  0.53863  0.16540  0.47819  1.0000
  C   C1170     1.0  0.85979  0.47516  0.47095  1.0000
  H   H919      1.0  0.67257  0.21247  0.01590  1.0000
  H   H920      1.0  0.67564  0.21996  0.06773  1.0000
  H   H921      1.0  0.63109  0.16854  0.08369  1.0000
  H   H922      1.0  0.67349  0.15599  0.10233  1.0000
  H   H923      1.0  0.67510  0.12087  0.12780  1.0000
  H   H924      1.0  0.66022  0.11826  0.17669  1.0000
  H   H925      1.0  0.64322  0.15103  0.19975  1.0000
  H   H926      1.0  0.64095  0.18614  0.17417  1.0000
  H   H927      1.0  0.61135  0.20773  0.09333  1.0000
  H   H928      1.0  0.58057  0.23133  0.10862  1.0000
  H   H929      1.0  0.58342  0.25336  0.15326  1.0000
  H   H930      1.0  0.61730  0.25114  0.18297  1.0000
  H   H931      1.0  0.64831  0.22745  0.16813  1.0000
  H   H932      1.0  0.69978  0.18518  0.13779  1.0000
  H   H933      1.0  0.73217  0.20555  0.15229  1.0000
  H   H934      1.0  0.73140  0.24603  0.15008  1.0000
  H   H935      1.0  0.69817  0.26615  0.13249  1.0000
  H   H936      1.0  0.66570  0.24611  0.11718  1.0000
  C   C1171     1.0  0.50151  0.10766  0.40089  1.0000
  S   S159      1.0  0.83393  0.39471  0.46672  1.0000
  C   C1172     1.0  0.53605  0.19362  0.33230  1.0000
  C   C1173     1.0  0.72575  0.35296  0.11988  1.0000
  C   C1174     1.0  0.71963  0.34385  0.09359  1.0000
  C   C1175     1.0  0.72140  0.35590  0.06848  1.0000
  C   C1176     1.0  0.72951  0.37698  0.06962  1.0000
  C   C1177     1.0  0.73640  0.38596  0.09589  1.0000
  C   C1178     1.0  0.73397  0.37398  0.12105  1.0000
  P   P42       1.0  0.74642  0.41335  0.09770  1.0000
  C   C1179     1.0  0.76656  0.41453  0.12647  1.0000
  C   C1180     1.0  0.75838  0.41969  0.06372  1.0000
  C   C1181     1.0  0.77210  0.40414  0.05024  1.0000
  C   C1182     1.0  0.78059  0.40827  0.02336  1.0000
  C   C1183     1.0  0.93117  0.47437  0.45779  1.0000
  S   S160      1.0  0.92845  0.35815  0.02161  1.0000
  C   C1184     1.0  0.75319  0.43946  0.04965  1.0000
  C   C1185     1.0  0.78866  0.40937  0.12169  1.0000
  C   C1186     1.0  0.80392  0.41001  0.14426  1.0000
  C   C1187     1.0  0.79720  0.41524  0.17194  1.0000
  C   C1188     1.0  0.77526  0.42030  0.17695  1.0000
  C   C1189     1.0  0.76000  0.41990  0.15439  1.0000
  C   C1190     1.0  0.72425  0.43232  0.10609  1.0000
  C   C1191     1.0  0.54685  0.11075  0.06661  1.0000
  C   C1192     1.0  0.50531  0.13011  0.07295  1.0000
  C   C1193     1.0  0.69042  0.46101  0.12375  1.0000
  C   C1194     1.0  0.48778  0.06357  0.13299  1.0000
  C   C1195     1.0  0.70258  0.42559  0.10570  1.0000
  H   H937      1.0  0.72428  0.34364  0.13939  1.0000
  H   H938      1.0  0.71348  0.32747  0.09275  1.0000
  H   H939      1.0  0.71658  0.34887  0.04810  1.0000
  H   H940      1.0  0.73048  0.38613  0.04996  1.0000
  H   H941      1.0  0.73863  0.38077  0.14159  1.0000
  H   H942      1.0  0.77604  0.38858  0.06028  1.0000
  H   H943      1.0  0.51263  0.24715  0.26296  1.0000
  H   H944      1.0  0.51891  0.09175  0.43575  1.0000
  H   H945      1.0  0.60974  0.01760  0.99562  1.0000
  H   H946      1.0  0.74237  0.45159  0.05916  1.0000
  H   H947      1.0  0.79426  0.40449  0.10076  1.0000
  H   H948      1.0  0.82081  0.40546  0.14042  1.0000
  H   H949      1.0  0.80884  0.41461  0.18964  1.0000
  H   H950      1.0  0.76985  0.42385  0.19850  1.0000
  H   H951      1.0  0.74297  0.42313  0.15907  1.0000
  H   H952      1.0  0.81341  0.43773  0.47288  1.0000
  C   C1196     1.0  0.49375  0.07467  0.99470  1.0000
  H   H953      1.0  0.49711  0.00794  0.04875  1.0000
  C   C1197     1.0  0.61829  0.05379  0.04814  1.0000
  H   H954      1.0  0.69861  0.40916  0.09930  1.0000
  C   C1198     1.0  0.55077  0.03707  0.08956  1.0000
  C   C1199     1.0  0.49108  0.08677  0.48833  1.0000
  H   H955      1.0  0.71547  0.48412  0.13154  1.0000
  H   H956      1.0  0.97027  0.42372  0.45184  1.0000
  Fe  Fe80      1.0  0.54587  0.07896  0.48654  1.0000
  H   H957      1.0  0.76389  0.45023  0.31941  1.0000
  H   H958      1.0  0.56305  0.10345  0.06411  1.0000
  C   C1200     1.0  0.63331  0.01724  0.05620  1.0000
  C   C1201     1.0  0.51582  0.20139  0.37527  1.0000
  H   H959      1.0  0.49959  0.17472  0.09974  1.0000
  C   C1202     1.0  0.51466  0.15170  0.19912  1.0000
  H   H960      1.0  0.50899  0.12317  0.40514  1.0000
  C   C1203     1.0  0.73348  0.41026  0.34654  1.0000
  C   C1204     1.0  0.85190  0.48254  0.26378  1.0000
  C   C1205     1.0  0.49891  0.14609  0.30753  1.0000
  H   H961      1.0  0.66262  0.00874  0.03333  1.0000
  C   C1206     1.0  0.52637  0.25677  0.26934  1.0000
  H   H962      1.0  0.63546  0.05330  0.17286  1.0000
  H   H963      1.0  0.57874  0.03800  0.02709  1.0000
  C   C1207     1.0  0.76178  0.44359  0.02272  1.0000
  C   C1208     1.0  0.61770  0.04255  0.13539  1.0000
  C   C1209     1.0  0.51238  0.03881  0.15921  1.0000
  H   H964      1.0  0.77714  0.42138  0.47167  1.0000
  H   H965      1.0  0.63288  0.12597  0.43433  1.0000
  Fe  Fe81      1.0  0.85986  0.41950  0.46755  1.0000
  C   C1210     1.0  0.51842  0.13632  0.05047  1.0000
  C   C1211     1.0  0.61686  0.03330  0.06110  1.0000
  S   S161      1.0  0.56801  0.08816  0.00268  1.0000
  C   C1212     1.0  0.50551  0.18663  0.46801  1.0000
  C   C1213     1.0  0.50725  0.08988  0.41831  1.0000
  H   H966      1.0  0.55657  0.12181  0.32564  1.0000
  C   C1214     1.0  0.64117  0.13702  0.39232  1.0000
  H   H967      1.0  0.53409  0.08892  0.15424  1.0000
  C   C1215     1.0  0.93747  0.43130  0.03006  1.0000
  H   H968      1.0  0.82050  0.42925  0.06287  1.0000
  C   C1216     1.0  0.53002  0.21276  0.13333  1.0000
  C   C1217     1.0  0.63640  0.13995  0.42123  1.0000
  C   C1218     1.0  0.94543  0.44777  0.01287  1.0000
  H   H969      1.0  0.74378  0.46929  0.41251  1.0000
  C   C1219     1.0  0.54597  0.99899  0.43331  1.0000
  C   C1220     1.0  0.51287  0.11406  0.09247  1.0000
  C   C1221     1.0  0.59494  0.99970  0.47143  1.0000
  H   H970      1.0  0.51335  0.15849  0.26955  1.0000
  C   C1222     1.0  0.65022  0.02131  0.03748  1.0000
  C   C1223     1.0  0.54051  0.12875  0.32067  1.0000
  H   H971      1.0  0.90828  0.38013  0.16739  1.0000
  C   C1224     1.0  0.51755  0.14247  0.14885  1.0000
  Fe  Fe82      1.0  0.89447  0.37305  0.01047  1.0000
  C   C1225     1.0  0.56539  0.03948  0.04190  1.0000
  H   H972      1.0  0.97216  0.34920  0.04330  1.0000
  C   C1226     1.0  0.98138  0.43018  0.01500  1.0000
  H   H973      1.0  0.86799  0.38323  0.16617  1.0000
  C   C1227     1.0  0.53376  0.10439  0.08906  1.0000
  H   H974      1.0  0.59107  0.00761  0.14243  1.0000
  C   C1228     1.0  0.63553  0.05798  0.03003  1.0000
  H   H975      1.0  0.79109  0.39600  0.01326  1.0000
  C   C1229     1.0  0.75828  0.47330  0.42476  1.0000
  C   C1230     1.0  0.53915  0.12665  0.04730  1.0000
  C   C1231     1.0  0.75617  0.48073  0.45299  1.0000
  C   C1232     1.0  0.54452  0.04512  0.03119  1.0000
  C   C1233     1.0  0.51614  0.14929  0.28902  1.0000
  C   C1234     1.0  0.56870  0.03582  0.07131  1.0000
  C   C1235     1.0  0.53696  0.14066  0.29557  1.0000
  H   H976      1.0  0.90542  0.45136  0.45342  1.0000
  H   H977      1.0  0.53856  0.28756  0.41412  1.0000
  C   C1236     1.0  0.96834  0.45907  0.45633  1.0000
  H   H978      1.0  0.79342  0.46819  0.17741  1.0000
  H   H979      1.0  0.54687  0.21573  0.13916  1.0000
  C   C1237     1.0  0.77550  0.42801  0.00959  1.0000
  H   H980      1.0  0.49406  0.13152  0.22378  1.0000
  H   H981      1.0  0.86463  0.48408  0.22131  1.0000
  C   C1238     1.0  0.81084  0.47867  0.03131  1.0000
  H   H982      1.0  0.86232  0.43282  0.10838  1.0000
  C   C1239     1.0  0.50285  0.08029  0.13579  1.0000
  H   H983      1.0  0.82878  0.44952  0.01889  1.0000
  C   C1240     1.0  0.50233  0.13405  0.33285  1.0000
  H   H984      1.0  0.93403  0.46037  0.00542  1.0000
  C   C1241     1.0  0.52999  0.04273  0.07873  1.0000
  H   H985      1.0  0.53611  0.03195  0.44439  1.0000
  C   C1242     1.0  0.52254  0.07608  0.15093  1.0000
  C   C1243     1.0  0.50287  0.12558  0.15217  1.0000
  H   H986      1.0  0.93087  0.41921  0.44969  1.0000
  C   C1244     1.0  0.52587  0.28868  0.39769  1.0000
  H   H987      1.0  0.75772  0.45880  0.01189  1.0000
  C   C1245     1.0  0.98457  0.36722  0.46892  1.0000
  H   H988      1.0  0.81346  0.47657  0.41924  1.0000
  C   C1246     1.0  0.49784  0.06972  0.41358  1.0000
  C   C1247     1.0  0.79517  0.48501  0.45655  1.0000
  H   H989      1.0  0.48929  0.13788  0.07499  1.0000
  C   C1248     1.0  0.57817  0.99800  0.49115  1.0000
  H   H990      1.0  0.49509  0.19570  0.45304  1.0000
  H   H991      1.0  0.83513  0.48401  0.30390  1.0000
  H   H992      1.0  0.85086  0.46923  0.08989  1.0000
  H   H993      1.0  0.86760  0.47835  0.27361  1.0000
  C   C1249     1.0  0.96748  0.44730  0.00497  1.0000
  H   H994      1.0  0.56015  0.99547  0.02641  1.0000
  C   C1250     1.0  0.95456  0.36367  0.00743  1.0000
  C   C1251     1.0  0.76469  0.48699  0.16523  1.0000
  H   H995      1.0  0.78472  0.48538  0.09471  1.0000
  C   C1252     1.0  0.52689  0.99275  0.01177  1.0000
  H   H996      1.0  0.56151  0.00359  0.42485  1.0000
  C   C1253     1.0  0.77951  0.48720  0.35508  1.0000
  H   H997      1.0  0.49704  0.05724  0.99379  1.0000
  H   H998      1.0  0.98420  0.40075  0.03993  1.0000
  H   H999      1.0  0.59602  0.98810  0.05387  1.0000
  Fe  Fe83      1.0  0.58561  0.09661  0.51852  1.0000
  C   C1254     1.0  0.57493  0.09812  0.69544  1.0000
  S   S162      1.0  0.59601  0.10576  0.56469  1.0000
  C   C1255     1.0  0.98214  0.39737  0.85565  1.0000
  S   S163      1.0  0.56689  0.09140  0.93272  1.0000
  C   C1256     1.0  0.73140  0.43224  0.84867  1.0000
  Fe  Fe84      1.0  0.59805  0.10955  0.93625  1.0000
  S   S164      1.0  0.61506  0.11944  0.89506  1.0000
  H   H1000     1.0  0.55885  0.22347  0.62256  1.0000
  H   H1001     1.0  0.87467  0.45592  0.50491  1.0000
  H   H1002     1.0  0.56906  0.11283  0.85643  1.0000
  C   C1257     1.0  0.50789  0.18572  0.95355  1.0000
  H   H1003     1.0  0.94239  0.37875  0.96891  1.0000
  S   S165      1.0  0.87128  0.41098  0.51185  1.0000
  C   C1258     1.0  0.58244  0.33429  0.83356  1.0000
  Fe  Fe85      1.0  0.85814  0.38897  0.96759  1.0000
  C   C1259     1.0  0.79221  0.45491  0.60365  1.0000
  S   S166      1.0  0.84980  0.39601  0.91992  1.0000
  Fe  Fe86      1.0  0.84711  0.38419  0.51018  1.0000
  S   S167      1.0  0.81947  0.38163  0.54285  1.0000
  C   C1260     1.0  0.54605  0.06478  0.70559  1.0000
  H   H1004     1.0  0.52170  0.17580  0.96133  1.0000
  C   C1261     1.0  0.57787  0.33850  0.88472  1.0000
  C   C1262     1.0  0.81915  0.44841  0.77272  1.0000
  Fe  Fe87      1.0  0.77167  0.37829  0.77477  1.0000
  S   S168      1.0  0.73939  0.39648  0.76784  1.0000
  S   S169      1.0  0.78243  0.36737  0.82031  1.0000
  Fe  Fe88      1.0  0.78032  0.37685  0.70906  1.0000
  S   S170      1.0  0.74871  0.39487  0.69869  1.0000
  S   S171      1.0  0.80761  0.36702  0.67780  1.0000
  Fe  Fe89      1.0  0.75712  0.41689  0.73602  1.0000
  S   S172      1.0  0.76471  0.45332  0.73436  1.0000
  Fe  Fe90      1.0  0.73341  0.37253  0.73131  1.0000
  S   S173      1.0  0.70016  0.35611  0.72153  1.0000
  S   S174      1.0  0.78951  0.39957  0.74497  1.0000
  S   S175      1.0  0.76486  0.35361  0.73969  1.0000
  Fe  Fe91      1.0  0.59345  0.20792  0.75953  1.0000
  S   S176      1.0  0.58853  0.24461  0.75896  1.0000
  S   S177      1.0  0.58607  0.19326  0.80356  1.0000
  Fe  Fe92      1.0  0.59658  0.20587  0.69311  1.0000
  S   S178      1.0  0.59227  0.24253  0.68979  1.0000
  S   S179      1.0  0.59397  0.18952  0.64847  1.0000
  Fe  Fe93      1.0  0.61603  0.24529  0.72715  1.0000
  S   S180      1.0  0.64725  0.26631  0.73268  1.0000
  Fe  Fe94      1.0  0.56543  0.23888  0.72175  1.0000
  S   S181      1.0  0.53114  0.25308  0.71156  1.0000
  S   S182      1.0  0.62189  0.20848  0.72919  1.0000
  S   S183      1.0  0.56904  0.20258  0.72364  1.0000
  C   C1263     1.0  0.51401  0.16641  0.76078  1.0000
  C   C1264     1.0  0.50630  0.24429  0.72626  1.0000
  C   C1265     1.0  0.50596  0.23135  0.75084  1.0000
  H   H1005     1.0  0.53874  0.18856  0.77467  1.0000
  H   H1006     1.0  0.52118  0.22603  0.76103  1.0000
  C   C1266     1.0  0.68639  0.33050  0.72412  1.0000
  C   C1267     1.0  0.66579  0.32847  0.71058  1.0000
  C   C1268     1.0  0.65379  0.30913  0.71274  1.0000
  C   C1269     1.0  0.66196  0.29131  0.72887  1.0000
  C   C1270     1.0  0.68263  0.29329  0.74234  1.0000
  C   C1271     1.0  0.69480  0.31253  0.73981  1.0000
  H   H1007     1.0  0.65897  0.34206  0.69832  1.0000
  H   H1008     1.0  0.63816  0.30807  0.70186  1.0000
  H   H1009     1.0  0.68935  0.27977  0.75480  1.0000
  H   H1010     1.0  0.71053  0.31359  0.75046  1.0000
  C   C1272     1.0  0.81507  0.48698  0.92807  1.0000
  H   H1011     1.0  0.91100  0.30229  0.95061  1.0000
  C   C1273     1.0  0.57270  0.34509  0.85674  1.0000
  C   C1274     1.0  0.53250  0.16333  0.50671  1.0000
  H   H1012     1.0  0.71837  0.46761  0.73069  1.0000
  C   C1275     1.0  0.81703  0.37823  0.58068  1.0000
  C   C1276     1.0  0.79718  0.38439  0.59365  1.0000
  C   C1277     1.0  0.79419  0.38165  0.62335  1.0000
  C   C1278     1.0  0.81090  0.37229  0.64051  1.0000
  C   C1279     1.0  0.83086  0.36643  0.62761  1.0000
  C   C1280     1.0  0.83400  0.36955  0.59800  1.0000
  H   H1013     1.0  0.78397  0.39129  0.58059  1.0000
  H   H1014     1.0  0.77881  0.38639  0.63286  1.0000
  H   H1015     1.0  0.84394  0.35918  0.64057  1.0000
  H   H1016     1.0  0.84935  0.36468  0.58846  1.0000
  C   C1281     1.0  0.83040  0.38818  0.89293  1.0000
  C   C1282     1.0  0.81536  0.37189  0.89717  1.0000
  C   C1283     1.0  0.80081  0.36596  0.87480  1.0000
  C   C1284     1.0  0.80086  0.37629  0.84790  1.0000
  C   C1285     1.0  0.81576  0.39279  0.84376  1.0000
  C   C1286     1.0  0.83045  0.39856  0.86606  1.0000
  H   H1017     1.0  0.81508  0.36363  0.91757  1.0000
  H   H1018     1.0  0.78946  0.35314  0.87836  1.0000
  H   H1019     1.0  0.81622  0.40082  0.82322  1.0000
  H   H1020     1.0  0.84211  0.41104  0.86240  1.0000
  C   C1287     1.0  0.51055  0.14117  0.56225  1.0000
  C   C1288     1.0  0.50081  0.13434  0.65598  1.0000
  C   C1289     1.0  0.75802  0.45820  0.62921  1.0000
  C   C1290     1.0  0.96665  0.36402  0.88964  1.0000
  H   H1021     1.0  0.97060  0.40336  0.53447  1.0000
  H   H1022     1.0  0.48895  0.12378  0.64629  1.0000
  H   H1023     1.0  0.96124  0.35146  0.90385  1.0000
  C   C1291     1.0  0.59709  0.31653  0.83823  1.0000
  C   C1292     1.0  0.56541  0.09656  0.72250  1.0000
  C   C1293     1.0  0.75083  0.47919  0.73694  1.0000
  C   C1294     1.0  0.60665  0.13992  0.86964  1.0000
  C   C1295     1.0  0.61859  0.14221  0.84437  1.0000
  C   C1296     1.0  0.61253  0.15826  0.82378  1.0000
  C   C1297     1.0  0.59441  0.17227  0.82820  1.0000
  C   C1298     1.0  0.58239  0.16984  0.85331  1.0000
  C   C1299     1.0  0.58842  0.15382  0.87388  1.0000
  H   H1024     1.0  0.63269  0.13155  0.84078  1.0000
  H   H1025     1.0  0.62201  0.15996  0.80470  1.0000
  H   H1026     1.0  0.56832  0.18054  0.85699  1.0000
  H   H1027     1.0  0.57902  0.15230  0.89308  1.0000
  C   C1300     1.0  0.59442  0.12930  0.58751  1.0000
  C   C1301     1.0  0.58896  0.15029  0.57736  1.0000
  C   C1302     1.0  0.58875  0.16840  0.59633  1.0000
  C   C1303     1.0  0.59379  0.16585  0.62573  1.0000
  C   C1304     1.0  0.59874  0.14477  0.63592  1.0000
  C   C1305     1.0  0.59916  0.12672  0.61694  1.0000
  H   H1028     1.0  0.58534  0.15263  0.55483  1.0000
  H   H1029     1.0  0.58494  0.18456  0.58806  1.0000
  H   H1030     1.0  0.60280  0.14237  0.65824  1.0000
  H   H1031     1.0  0.60359  0.11064  0.62504  1.0000
  H   H1032     1.0  0.73921  0.36964  0.62049  1.0000
  C   C1306     1.0  0.57275  0.10396  0.83686  1.0000
  C   C1307     1.0  0.53802  0.19591  0.62145  1.0000
  H   H1033     1.0  0.56124  0.35866  0.85299  1.0000
  C   C1308     1.0  0.95548  0.48155  0.96195  1.0000
  C   C1309     1.0  0.59295  0.32123  0.88954  1.0000
  C   C1310     1.0  0.58758  0.07166  0.81328  1.0000
  C   C1311     1.0  0.93104  0.41050  0.92347  1.0000
  H   H1034     1.0  0.84937  0.43025  0.76681  1.0000
  P   P43       1.0  0.80868  0.46240  0.57355  1.0000
  H   H1035     1.0  0.93730  0.43473  0.95578  1.0000
  C   C1312     1.0  0.60270  0.31041  0.86640  1.0000
  C   C1313     1.0  0.55105  0.07963  0.72743  1.0000
  H   H1036     1.0  0.79616  0.48549  0.67643  1.0000
  C   C1314     1.0  0.78152  0.30189  0.76268  1.0000
  C   C1315     1.0  0.80102  0.31269  0.75929  1.0000
  C   C1316     1.0  0.80845  0.31693  0.73183  1.0000
  C   C1317     1.0  0.79652  0.31019  0.70777  1.0000
  C   C1318     1.0  0.77715  0.29891  0.71097  1.0000
  C   C1319     1.0  0.76948  0.29521  0.73863  1.0000
  P   P44       1.0  0.76199  0.29077  0.67939  1.0000
  C   C1320     1.0  0.73814  0.27561  0.68784  1.0000
  C   C1321     1.0  0.75488  0.31569  0.66049  1.0000
  C   C1322     1.0  0.76559  0.32115  0.63532  1.0000
  C   C1323     1.0  0.75979  0.34045  0.62082  1.0000
  C   C1324     1.0  0.74352  0.35457  0.63156  1.0000
  C   C1325     1.0  0.73322  0.34951  0.65698  1.0000
  C   C1326     1.0  0.73912  0.33033  0.67166  1.0000
  C   C1327     1.0  0.74047  0.25676  0.70478  1.0000
  C   C1328     1.0  0.72226  0.24465  0.71125  1.0000
  C   C1329     1.0  0.70168  0.25099  0.70034  1.0000
  C   C1330     1.0  0.69934  0.26925  0.68265  1.0000
  C   C1331     1.0  0.71746  0.28147  0.67627  1.0000
  C   C1332     1.0  0.77818  0.27250  0.65730  1.0000
  C   C1333     1.0  0.79867  0.26416  0.66669  1.0000
  C   C1334     1.0  0.81090  0.25004  0.64910  1.0000
  C   C1335     1.0  0.80268  0.24399  0.62221  1.0000
  C   C1336     1.0  0.78214  0.25192  0.61295  1.0000
  C   C1337     1.0  0.76987  0.26603  0.63049  1.0000
  H   H1037     1.0  0.77536  0.29942  0.78397  1.0000
  H   H1038     1.0  0.80989  0.31855  0.77794  1.0000
  H   H1039     1.0  0.82303  0.32616  0.72908  1.0000
  H   H1040     1.0  0.80216  0.31425  0.68665  1.0000
  H   H1041     1.0  0.75397  0.28780  0.74184  1.0000
  H   H1042     1.0  0.77867  0.31083  0.62702  1.0000
  H   H1043     1.0  0.76826  0.34468  0.60156  1.0000
  H   H1044     1.0  0.72080  0.36057  0.66559  1.0000
  H   H1045     1.0  0.73128  0.32684  0.69165  1.0000
  H   H1046     1.0  0.75636  0.25153  0.71316  1.0000
  H   H1047     1.0  0.72404  0.23041  0.72483  1.0000
  H   H1048     1.0  0.68743  0.24194  0.70577  1.0000
  H   H1049     1.0  0.68331  0.27419  0.67439  1.0000
  H   H1050     1.0  0.71511  0.29539  0.66232  1.0000
  H   H1051     1.0  0.80527  0.26841  0.68753  1.0000
  H   H1052     1.0  0.82678  0.24382  0.65631  1.0000
  C   C1338     1.0  0.72820  0.48183  0.73354  1.0000
  H   H1053     1.0  0.77573  0.24717  0.59215  1.0000
  H   H1054     1.0  0.75395  0.27205  0.62309  1.0000
  H   H1055     1.0  0.54441  0.16950  0.69343  1.0000
  C   C1339     1.0  0.78703  0.43405  0.64710  1.0000
  C   C1340     1.0  0.80344  0.47092  0.88277  1.0000
  C   C1341     1.0  0.53868  0.14127  0.66710  1.0000
  C   C1342     1.0  0.52296  0.12838  0.65406  1.0000
  H   H1056     1.0  0.81371  0.44672  0.75061  1.0000
  H   H1057     1.0  0.52431  0.21604  0.95879  1.0000
  C   C1343     1.0  0.53224  0.15973  0.68286  1.0000
  H   H1058     1.0  0.92988  0.45322  0.59018  1.0000
  H   H1059     1.0  0.48818  0.15808  0.94571  1.0000
  P   P45       1.0  0.79313  0.47315  0.84629  1.0000
  C   C1344     1.0  0.53112  0.13443  0.57342  1.0000
  C   C1345     1.0  0.49165  0.22114  0.94174  1.0000
  C   C1346     1.0  0.80561  0.45926  0.79229  1.0000
  C   C1347     1.0  0.53208  0.20485  0.56317  1.0000
  H   H1060     1.0  0.55237  0.10721  0.58558  1.0000
  H   H1061     1.0  0.90300  0.45599  0.94613  1.0000
  C   C1348     1.0  0.56895  0.11391  0.81030  1.0000
  C   C1349     1.0  0.52715  0.13013  0.74711  1.0000
  C   C1350     1.0  0.94269  0.48505  0.59832  1.0000
  C   C1351     1.0  0.56986  0.08328  0.67366  1.0000
  H   H1062     1.0  0.55587  0.13697  0.66507  1.0000
  H   H1063     1.0  0.52797  0.11379  0.64235  1.0000
  H   H1064     1.0  0.49331  0.14063  0.74687  1.0000
  H   H1065     1.0  0.51715  0.16891  0.61420  1.0000
  C   C1352     1.0  0.87501  0.46041  0.58747  1.0000
  H   H1066     1.0  0.82944  0.41932  0.57339  1.0000
  C   C1353     1.0  0.52483  0.18263  0.60449  1.0000
  H   H1067     1.0  0.97013  0.45397  0.51235  1.0000
  H   H1068     1.0  0.54085  0.19238  0.64391  1.0000
  C   C1354     1.0  0.89698  0.41527  0.89695  1.0000
  P   P46       1.0  0.61043  0.30338  0.80843  1.0000
  C   C1355     1.0  0.63422  0.31908  0.80165  1.0000
  C   C1356     1.0  0.61728  0.27514  0.81636  1.0000
  C   C1357     1.0  0.63613  0.26501  0.80514  1.0000
  C   C1358     1.0  0.64045  0.24268  0.80925  1.0000
  C   C1359     1.0  0.62596  0.23028  0.82455  1.0000
  C   C1360     1.0  0.60707  0.24021  0.83563  1.0000
  C   C1361     1.0  0.60262  0.26251  0.83137  1.0000
  C   C1362     1.0  0.63309  0.33645  0.78211  1.0000
  C   C1363     1.0  0.65155  0.34854  0.77694  1.0000
  C   C1364     1.0  0.67113  0.34367  0.79161  1.0000
  C   C1365     1.0  0.67221  0.32689  0.81177  1.0000
  C   C1366     1.0  0.65377  0.31478  0.81702  1.0000
  C   C1367     1.0  0.59218  0.30203  0.77778  1.0000
  C   C1368     1.0  0.56978  0.29907  0.78138  1.0000
  C   C1369     1.0  0.55597  0.29660  0.75748  1.0000
  C   C1370     1.0  0.56444  0.29689  0.72992  1.0000
  C   C1371     1.0  0.58676  0.29934  0.72623  1.0000
  C   C1372     1.0  0.60057  0.30172  0.75007  1.0000
  H   H1069     1.0  0.64716  0.27412  0.79234  1.0000
  H   H1070     1.0  0.65468  0.23487  0.79971  1.0000
  H   H1071     1.0  0.62892  0.21283  0.82701  1.0000
  H   H1072     1.0  0.59546  0.23031  0.84645  1.0000
  H   H1073     1.0  0.58744  0.26969  0.83898  1.0000
  H   H1074     1.0  0.61807  0.34056  0.77057  1.0000
  H   H1075     1.0  0.65093  0.36136  0.76101  1.0000
  H   H1076     1.0  0.68556  0.35268  0.78689  1.0000
  H   H1077     1.0  0.68745  0.32311  0.82302  1.0000
  H   H1078     1.0  0.65487  0.30190  0.83281  1.0000
  H   H1079     1.0  0.56306  0.29802  0.80256  1.0000
  H   H1080     1.0  0.53879  0.29372  0.76019  1.0000
  H   H1081     1.0  0.55380  0.29447  0.71148  1.0000
  H   H1082     1.0  0.59349  0.29871  0.70495  1.0000
  H   H1083     1.0  0.61789  0.30269  0.74695  1.0000
  C   C1373     1.0  0.58252  0.00594  0.97098  1.0000
  Fe  Fe95      1.0  0.58121  0.06810  0.96600  1.0000
  C   C1374     1.0  0.87050  0.47214  0.49740  1.0000
  H   H1084     1.0  0.94609  0.40142  0.92809  1.0000
  C   C1375     1.0  0.53541  0.17230  0.76671  1.0000
  C   C1376     1.0  0.55266  0.15718  0.76276  1.0000
  C   C1377     1.0  0.50936  0.20840  0.95210  1.0000
  H   H1085     1.0  0.86240  0.43478  0.69599  1.0000
  P   P47       1.0  0.57109  0.11613  0.75069  1.0000
  C   C1378     1.0  0.55542  0.06664  0.67870  1.0000
  C   C1379     1.0  0.59599  0.12984  0.74317  1.0000
  C   C1380     1.0  0.59628  0.14545  0.72129  1.0000
  C   C1381     1.0  0.61574  0.15523  0.71440  1.0000
  C   C1382     1.0  0.63489  0.15013  0.72988  1.0000
  C   C1383     1.0  0.63465  0.13504  0.75217  1.0000
  C   C1384     1.0  0.61532  0.12485  0.75876  1.0000
  S   S184      1.0  0.57150  0.06311  0.51462  1.0000
  H   H1086     1.0  0.84992  0.48542  0.58381  1.0000
  C   C1385     1.0  0.48878  0.17570  0.94453  1.0000
  C   C1386     1.0  0.80692  0.45005  0.89470  1.0000
  H   H1087     1.0  0.52349  0.11388  0.73985  1.0000
  C   C1387     1.0  0.57421  0.10266  0.78491  1.0000
  H   H1088     1.0  0.49766  0.05856  0.91441  1.0000
  H   H1089     1.0  0.85317  0.36422  0.83318  1.0000
  Fe  Fe96      1.0  0.55665  0.11243  0.96967  1.0000
  C   C1388     1.0  0.58363  0.08147  0.78660  1.0000
  H   H1090     1.0  0.78384  0.42824  0.82718  1.0000
  H   H1091     1.0  0.55335  0.23171  0.57096  1.0000
  C   C1389     1.0  0.81196  0.46089  0.82120  1.0000
  H   H1092     1.0  0.56909  0.16190  0.76796  1.0000
  H   H1093     1.0  0.89676  0.43192  0.58914  1.0000
  H   H1094     1.0  0.58157  0.14984  0.70922  1.0000
  H   H1095     1.0  0.61598  0.16689  0.69704  1.0000
  H   H1096     1.0  0.64986  0.15803  0.72471  1.0000
  H   H1097     1.0  0.64943  0.13132  0.76447  1.0000
  H   H1098     1.0  0.61561  0.11329  0.77619  1.0000
  C   C1390     1.0  0.91219  0.35616  0.93344  1.0000
  H   H1099     1.0  0.81556  0.43118  0.62189  1.0000
  P   P48       1.0  0.50509  0.16960  0.55303  1.0000
  C   C1391     1.0  0.84621  0.45640  0.66563  1.0000
  H   H1100     1.0  0.90973  0.37199  0.94339  1.0000
  H   H1101     1.0  0.87685  0.44323  0.90895  1.0000
  H   H1102     1.0  0.88784  0.47195  0.59055  1.0000
  H   H1103     1.0  0.58855  0.07280  0.76740  1.0000
  C   C1392     1.0  0.50725  0.01141  0.95145  1.0000
  C   C1393     1.0  0.91766  0.31470  0.90865  1.0000
  C   C1394     1.0  0.83758  0.47749  0.66060  1.0000
  H   H1104     1.0  0.52460  0.08248  0.97673  1.0000
  H   H1105     1.0  0.74169  0.46525  0.63118  1.0000
  C   C1395     1.0  0.86352  0.42319  0.58193  1.0000
  H   H1106     1.0  0.53006  0.20862  0.54067  1.0000
  H   H1107     1.0  0.82933  0.48101  0.64038  1.0000
  C   C1396     1.0  0.52124  0.09653  0.57022  1.0000
  C   C1397     1.0  0.92023  0.33341  0.89216  1.0000
  H   H1108     1.0  0.50482  0.00795  0.51552  1.0000
  C   C1398     1.0  0.83920  0.43919  0.78186  1.0000
  C   C1399     1.0  0.84591  0.44123  0.81049  1.0000
  H   H1109     1.0  0.86439  0.47824  0.94616  1.0000
  C   C1400     1.0  0.54823  0.21358  0.60937  1.0000
  C   C1401     1.0  0.90684  0.44146  0.93364  1.0000
  C   C1402     1.0  0.50939  0.08895  0.98509  1.0000
  C   C1403     1.0  0.91270  0.31672  0.93762  1.0000
  C   C1404     1.0  0.88006  0.43797  0.58665  1.0000
  C   C1405     1.0  0.54521  0.21810  0.58027  1.0000
  H   H1110     1.0  0.83783  0.45336  0.85222  1.0000
  H   H1111     1.0  0.97852  0.44101  0.56106  1.0000
  S   S185      1.0  0.52412  0.12962  0.97337  1.0000
  H   H1112     1.0  0.94858  0.40799  0.85042  1.0000
  H   H1113     1.0  0.52567  0.07932  0.57222  1.0000
  C   C1406     1.0  0.90574  0.37548  0.85161  1.0000
  H   H1114     1.0  0.90734  0.37500  0.77861  1.0000
  C   C1407     1.0  0.88363  0.37078  0.85467  1.0000
  C   C1408     1.0  0.81449  0.44768  0.92294  1.0000
  H   H1115     1.0  0.52639  0.02961  0.92224  1.0000
  C   C1409     1.0  0.74952  0.46620  0.85794  1.0000
  H   H1116     1.0  0.96180  0.46655  0.92064  1.0000
  C   C1410     1.0  0.77105  0.46412  0.60644  1.0000
  C   C1411     1.0  0.58219  0.08294  0.83840  1.0000
  H   H1117     1.0  0.57858  0.33984  0.81202  1.0000
  H   H1118     1.0  0.59531  0.05554  0.81458  1.0000
  C   C1412     1.0  0.51082  0.02863  0.93274  1.0000
  C   C1413     1.0  0.97444  0.39360  0.51581  1.0000
  H   H1119     1.0  0.61466  0.29733  0.87048  1.0000
  C   C1414     1.0  0.77788  0.43984  0.54054  1.0000
  H   H1120     1.0  0.84510  0.44391  0.64922  1.0000
  H   H1121     1.0  0.58579  0.07569  0.85917  1.0000
  C   C1415     1.0  0.79860  0.44903  0.54149  1.0000
  H   H1122     1.0  0.76776  0.43969  0.55917  1.0000
  C   C1416     1.0  0.49428  0.15372  0.67020  1.0000
  C   C1417     1.0  0.92623  0.42953  0.93905  1.0000
  C   C1418     1.0  0.81151  0.44777  0.51696  1.0000
  H   H1123     1.0  0.57097  0.01264  0.50055  1.0000
  C   C1419     1.0  0.91426  0.37678  0.82399  1.0000
  S   S186      1.0  0.58666  0.13227  0.97153  1.0000
  C   C1420     1.0  0.77017  0.42993  0.51545  1.0000
  H   H1124     1.0  0.82793  0.45373  0.51725  1.0000
  C   C1421     1.0  0.95172  0.37879  0.87624  1.0000
  C   C1422     1.0  0.79988  0.43946  0.62391  1.0000
  H   H1125     1.0  0.93135  0.37948  0.82085  1.0000
  H   H1126     1.0  0.59719  0.31631  0.91123  1.0000
  S   S187      1.0  0.92979  0.39229  0.50870  1.0000
  H   H1127     1.0  0.50550  0.18026  0.69701  1.0000
  H   H1128     1.0  0.75126  0.40640  0.82994  1.0000
  H   H1129     1.0  0.79311  0.42219  0.66276  1.0000
  C   C1423     1.0  0.60097  0.00337  0.98887  1.0000
  H   H1130     1.0  0.55161  0.05512  0.66178  1.0000
  S   S188      1.0  0.57183  0.03210  0.95979  1.0000
  C   C1424     1.0  0.52194  0.18688  0.57511  1.0000
  C   C1425     1.0  0.93591  0.46792  0.58078  1.0000
  H   H1131     1.0  0.57035  0.34691  0.90266  1.0000
  H   H1132     1.0  0.97903  0.38245  0.94793  1.0000
  H   H1133     1.0  0.90642  0.33891  0.97253  1.0000
  H   H1134     1.0  0.78986  0.46583  0.78503  1.0000
  S   S189      1.0  0.88962  0.40336  0.98420  1.0000
  C   C1426     1.0  0.76865  0.45752  0.84563  1.0000
  C   C1427     1.0  0.87018  0.36795  0.83055  1.0000
  C   C1428     1.0  0.81856  0.46612  0.93963  1.0000
  H   H1135     1.0  0.86138  0.43394  0.81765  1.0000
  H   H1136     1.0  0.75446  0.42236  0.51512  1.0000
  H   H1137     1.0  0.75631  0.48632  0.67560  1.0000
  H   H1138     1.0  0.58630  0.11066  0.69084  1.0000
  S   S190      1.0  0.61341  0.08493  0.96750  1.0000
  H   H1139     1.0  0.54362  0.07801  0.74813  1.0000
  C   C1429     1.0  0.87866  0.36972  0.80317  1.0000
  C   C1430     1.0  0.95971  0.39580  0.85977  1.0000
  H   H1140     1.0  0.54353  0.14615  0.57804  1.0000
  C   C1431     1.0  0.73086  0.45371  0.85902  1.0000
  C   C1432     1.0  0.84203  0.43082  0.57771  1.0000
  C   C1433     1.0  0.83240  0.45216  0.83013  1.0000
  H   H1141     1.0  0.76454  0.47569  0.59079  1.0000
  C   C1434     1.0  0.91633  0.40303  0.90253  1.0000
  H   H1142     1.0  0.86735  0.40578  0.58071  1.0000
  C   C1435     1.0  0.76614  0.44344  0.64979  1.0000
  C   C1436     1.0  0.53631  0.11227  0.57760  1.0000
  H   H1143     1.0  0.56252  0.13058  0.80984  1.0000
  H   H1144     1.0  0.80381  0.43552  0.88213  1.0000
  H   H1145     1.0  0.57727  0.08464  0.65284  1.0000
  H   H1146     1.0  0.75624  0.43921  0.66784  1.0000
  C   C1437     1.0  0.51015  0.16587  0.68461  1.0000
  C   C1438     1.0  0.54875  0.13604  0.75274  1.0000
  H   H1147     1.0  0.93181  0.45634  0.53742  1.0000
  H   H1148     1.0  0.86521  0.46329  0.73378  1.0000
  H   H1149     1.0  0.87675  0.36926  0.87579  1.0000
  C   C1439     1.0  0.75061  0.42323  0.83737  1.0000
  H   H1150     1.0  0.48936  0.09072  0.55245  1.0000
  C   C1440     1.0  0.85770  0.46730  0.71323  1.0000
  C   C1441     1.0  0.93712  0.46964  0.55107  1.0000
  H   H1151     1.0  0.97715  0.42396  0.95388  1.0000
  C   C1442     1.0  0.85612  0.45126  0.69199  1.0000
  H   H1152     1.0  0.49373  0.19723  0.65058  1.0000
  H   H1153     1.0  0.86816  0.36745  0.78453  1.0000
  C   C1443     1.0  0.83670  0.45318  0.57896  1.0000
  H   H1154     1.0  0.71702  0.42248  0.84956  1.0000
  C   C1444     1.0  0.49464  0.04491  0.92830  1.0000
  P   P49       1.0  0.97775  0.46739  0.98068  1.0000
  C   C1445     1.0  0.90070  0.37406  0.79988  1.0000
  H   H1155     1.0  0.81745  0.43147  0.93175  1.0000
  C   C1446     1.0  0.50990  0.14528  0.75111  1.0000
  P   P50       1.0  0.92286  0.37801  0.88330  1.0000
  H   H1156     1.0  0.49282  0.23872  0.94047  1.0000
  H   H1157     1.0  0.71601  0.46062  0.86801  1.0000
  C   C1447     1.0  0.51265  0.17264  0.51605  1.0000
  C   C1448     1.0  0.85340  0.46801  0.58364  1.0000
  H   H1158     1.0  0.55968  0.99952  0.81128  1.0000
  H   H1159     1.0  0.78221  0.43115  0.98875  1.0000
  C   C1449     1.0  0.76915  0.43577  0.83579  1.0000
  C   C1450     1.0  0.48778  0.01080  0.96676  1.0000
  H   H1160     1.0  0.91974  0.29864  0.89907  1.0000
  H   H1161     1.0  0.81222  0.23313  0.60856  1.0000
  H   H1162     1.0  0.82465  0.46423  0.96141  1.0000
  H   H1163     1.0  0.51996  0.99893  0.95435  1.0000
  H   H1164     1.0  0.50066  0.17818  0.76384  1.0000
  C   C1451     1.0  0.91772  0.35427  0.90455  1.0000
  H   H1165     1.0  0.74903  0.48264  0.86662  1.0000
  C   C1452     1.0  0.95150  0.47782  0.93265  1.0000
  C   C1453     1.0  0.49548  0.12514  0.55504  1.0000
  C   C1454     1.0  0.95681  0.37359  0.98083  1.0000
  H   H1166     1.0  0.88517  0.40996  0.88119  1.0000
  C   C1455     1.0  0.86690  0.48188  0.96864  1.0000
  H   H1167     1.0  0.53491  0.05181  0.70950  1.0000
  H   H1168     1.0  0.92445  0.33162  0.86984  1.0000
  S   S191      1.0  0.55818  0.11265  0.49315  1.0000
  C   C1456     1.0  0.50078  0.10298  0.55912  1.0000
  C   C1457     1.0  0.90999  0.33742  0.94997  1.0000
  C   C1458     1.0  0.48740  0.01091  0.51753  1.0000
  C   C1459     1.0  0.89222  0.43435  0.91258  1.0000
  C   C1460     1.0  0.86886  0.46486  0.98849  1.0000
  C   C1461     1.0  0.97768  0.37596  0.96919  1.0000
  C   C1462     1.0  0.49942  0.18479  0.49662  1.0000
  H   H1169     1.0  0.54332  0.15446  0.52145  1.0000
  C   C1463     1.0  0.50496  0.11148  0.98543  1.0000
  H   H1170     1.0  0.93059  0.48528  0.89615  1.0000
  H   H1171     1.0  0.94175  0.48370  0.62137  1.0000
  C   C1464     1.0  0.95726  0.38567  0.49872  1.0000
  H   H1172     1.0  0.86766  0.44812  0.98133  1.0000
  C   C1465     1.0  0.98690  0.45027  0.51832  1.0000
  H   H1173     1.0  0.55757  0.98878  0.94794  1.0000
  H   H1174     1.0  0.49150  0.03743  0.54735  1.0000
  S   S192      1.0  0.86412  0.35735  0.99191  1.0000
  H   H1175     1.0  0.88440  0.48795  0.53451  1.0000
  Fe  Fe97      1.0  0.58313  0.85820  0.44153  1.0000
  H   H1176     1.0  0.87303  0.52505  0.01360  1.0000
  S   S193      1.0  0.58819  0.85234  0.39347  1.0000
  C   C1466     1.0  0.49326  0.85964  0.47974  1.0000
  S   S194      1.0  0.57192  0.89188  0.03759  1.0000
  C   C1467     1.0  0.50839  0.85182  0.33338  1.0000
  Fe  Fe98      1.0  0.58444  0.85846  0.02433  1.0000
  S   S195      1.0  0.59443  0.82894  0.05224  1.0000
  H   H1177     1.0  0.82994  0.54819  0.13151  1.0000
  H   H1178     1.0  0.79923  0.49442  0.28151  1.0000
  C   C1468     1.0  0.80030  0.50247  0.17286  1.0000
  S   S196      1.0  0.55485  0.88125  0.45112  1.0000
  Fe  Fe99      1.0  0.86001  0.59337  0.01616  1.0000
  H   H1179     1.0  0.49938  0.94519  0.01018  1.0000
  S   S197      1.0  0.85357  0.60055  0.06389  1.0000
  C   C1469     1.0  0.75828  0.53594  0.40332  1.0000
  S   S198      1.0  0.87900  0.57053  0.45474  1.0000
  S   S199      1.0  0.92303  0.61431  0.45272  1.0000
  Fe  Fe100     1.0  0.84605  0.58757  0.45053  1.0000
  S   S200      1.0  0.82118  0.57853  0.41540  1.0000
  C   C1470     1.0  0.84860  0.54879  0.09306  1.0000
  C   C1471     1.0  0.79593  0.52006  0.33760  1.0000
  C   C1472     1.0  0.81325  0.64409  0.42137  1.0000
  H   H1180     1.0  0.62247  0.98053  0.01172  1.0000
  Fe  Fe101     1.0  0.58642  0.75809  0.27098  1.0000
  S   S201      1.0  0.58106  0.72344  0.25566  1.0000
  S   S202      1.0  0.58526  0.76401  0.31945  1.0000
  Fe  Fe102     1.0  0.58965  0.77530  0.20953  1.0000
  S   S203      1.0  0.58465  0.74215  0.19039  1.0000
  S   S204      1.0  0.59215  0.80800  0.18617  1.0000
  Fe  Fe103     1.0  0.55815  0.73926  0.22298  1.0000
  S   S205      1.0  0.52498  0.72711  0.20805  1.0000
  Fe  Fe104     1.0  0.60816  0.72872  0.22459  1.0000
  S   S206      1.0  0.63593  0.70459  0.20965  1.0000
  S   S207      1.0  0.56181  0.77310  0.24015  1.0000
  S   S208      1.0  0.61482  0.76260  0.24188  1.0000
  Fe  Fe105     1.0  0.77677  0.59342  0.25470  1.0000
  S   S209      1.0  0.74552  0.57994  0.26961  1.0000
  S   S210      1.0  0.80326  0.60657  0.28469  1.0000
  Fe  Fe106     1.0  0.76417  0.58638  0.19103  1.0000
  S   S211      1.0  0.73179  0.57228  0.20271  1.0000
  S   S212      1.0  0.77057  0.58706  0.14261  1.0000
  Fe  Fe107     1.0  0.72895  0.60041  0.23455  1.0000
  S   S213      1.0  0.69894  0.62236  0.24726  1.0000
  Fe  Fe108     1.0  0.75105  0.55336  0.23653  1.0000
  S   S214      1.0  0.75378  0.51751  0.25090  1.0000
  S   S215      1.0  0.76023  0.61516  0.22124  1.0000
  S   S216      1.0  0.78334  0.56612  0.22321  1.0000
  H   H1181     1.0  0.50049  0.69340  0.09970  1.0000
  S   S217      1.0  0.60579  0.87483  0.47336  1.0000
  C   C1473     1.0  0.53320  0.86839  0.12897  1.0000
  H   H1182     1.0  0.72140  0.50353  0.20755  1.0000
  C   C1474     1.0  0.49073  0.79228  0.42305  1.0000
  C   C1475     1.0  0.65338  0.68187  0.22093  1.0000
  C   C1476     1.0  0.65131  0.67137  0.24728  1.0000
  C   C1477     1.0  0.66533  0.65333  0.25481  1.0000
  C   C1478     1.0  0.68177  0.64543  0.23632  1.0000
  C   C1479     1.0  0.68400  0.65615  0.21013  1.0000
  C   C1480     1.0  0.66996  0.67412  0.20256  1.0000
  H   H1183     1.0  0.63871  0.67694  0.26173  1.0000
  H   H1184     1.0  0.66326  0.64531  0.27510  1.0000
  H   H1185     1.0  0.69653  0.65066  0.19566  1.0000
  H   H1186     1.0  0.67187  0.68202  0.18217  1.0000
  C   C1481     1.0  0.49925  0.73639  0.22093  1.0000
  H   H1187     1.0  0.71255  0.67384  0.14568  1.0000
  H   H1188     1.0  0.51205  0.75201  0.25835  1.0000
  S   S218      1.0  0.85851  0.62027  0.46458  1.0000
  C   C1482     1.0  0.81713  0.58633  0.37885  1.0000
  C   C1483     1.0  0.83015  0.60140  0.36537  1.0000
  C   C1484     1.0  0.82575  0.60742  0.33659  1.0000
  C   C1485     1.0  0.80837  0.59843  0.32088  1.0000
  C   C1486     1.0  0.79547  0.58330  0.33432  1.0000
  C   C1487     1.0  0.79991  0.57721  0.36296  1.0000
  H   H1189     1.0  0.84349  0.60854  0.37718  1.0000
  H   H1190     1.0  0.83589  0.61914  0.32646  1.0000
  H   H1191     1.0  0.78198  0.57641  0.32266  1.0000
  H   H1192     1.0  0.78994  0.56528  0.37279  1.0000
  C   C1488     1.0  0.83007  0.59767  0.08537  1.0000
  C   C1489     1.0  0.80931  0.59463  0.07345  1.0000
  C   C1490     1.0  0.79123  0.59246  0.09136  1.0000
  C   C1491     1.0  0.79373  0.59225  0.12139  1.0000
  C   C1492     1.0  0.81441  0.59565  0.13338  1.0000
  C   C1493     1.0  0.83237  0.59866  0.11545  1.0000
  H   H1193     1.0  0.80716  0.59434  0.05043  1.0000
  H   H1194     1.0  0.77520  0.59084  0.08180  1.0000
  H   H1195     1.0  0.81663  0.59578  0.15639  1.0000
  H   H1196     1.0  0.84831  0.60122  0.12493  1.0000
  S   S219      1.0  0.55536  0.85183  0.99622  1.0000
  C   C1494     1.0  0.96291  0.58705  0.99805  1.0000
  H   H1197     1.0  0.80972  0.53066  0.33663  1.0000
  C   C1495     1.0  0.75864  0.51238  0.32442  1.0000
  C   C1496     1.0  0.78562  0.64538  0.16991  1.0000
  C   C1497     1.0  0.59415  0.95667  0.11332  1.0000
  C   C1498     1.0  0.77668  0.52556  0.32248  1.0000
  H   H1198     1.0  0.94939  0.58038  0.00925  1.0000
  H   H1199     1.0  0.53808  0.88801  0.09158  1.0000
  H   H1200     1.0  0.87641  0.49494  0.04908  1.0000
  H   H1201     1.0  0.52362  0.87378  0.28363  1.0000
  C   C1499     1.0  0.59113  0.82349  0.08936  1.0000
  C   C1500     1.0  0.58884  0.84019  0.10977  1.0000
  C   C1501     1.0  0.58874  0.83510  0.13924  1.0000
  C   C1502     1.0  0.59044  0.81330  0.14869  1.0000
  C   C1503     1.0  0.59171  0.79656  0.12823  1.0000
  C   C1504     1.0  0.59230  0.80167  0.09881  1.0000
  H   H1202     1.0  0.58814  0.85704  0.10290  1.0000
  H   H1203     1.0  0.58787  0.84818  0.15486  1.0000
  H   H1204     1.0  0.59295  0.77971  0.13507  1.0000
  H   H1205     1.0  0.59406  0.78862  0.08325  1.0000
  C   C1505     1.0  0.58713  0.82756  0.37336  1.0000
  C   C1506     1.0  0.58466  0.80727  0.38633  1.0000
  C   C1507     1.0  0.58441  0.78803  0.36952  1.0000
  C   C1508     1.0  0.58626  0.78880  0.33954  1.0000
  C   C1509     1.0  0.58879  0.80907  0.32660  1.0000
  C   C1510     1.0  0.58915  0.82830  0.34339  1.0000
  H   H1206     1.0  0.58324  0.80638  0.40933  1.0000
  H   H1207     1.0  0.58264  0.77243  0.37982  1.0000
  H   H1208     1.0  0.59076  0.80988  0.30371  1.0000
  H   H1209     1.0  0.59124  0.84386  0.33312  1.0000
  C   C1511     1.0  0.74875  0.70713  0.11449  1.0000
  C   C1512     1.0  0.71270  0.60516  0.13616  1.0000
  H   H1210     1.0  0.80299  0.64679  0.11649  1.0000
  H   H1211     1.0  0.71670  0.58523  0.44256  1.0000
  H   H1212     1.0  0.80706  0.63112  0.20228  1.0000
  H   H1213     1.0  0.86258  0.54901  0.05133  1.0000
  H   H1214     1.0  0.81521  0.66661  0.22505  1.0000
  H   H1215     1.0  0.55036  0.86750  0.13500  1.0000
  C   C1513     1.0  0.59551  0.96217  0.08445  1.0000
  C   C1514     1.0  0.80748  0.65007  0.07151  1.0000
  C   C1515     1.0  0.65318  0.76469  0.31709  1.0000
  C   C1516     1.0  0.63965  0.74688  0.31895  1.0000
  C   C1517     1.0  0.64123  0.72995  0.29888  1.0000
  C   C1518     1.0  0.65665  0.73062  0.27728  1.0000
  C   C1519     1.0  0.67092  0.74799  0.27591  1.0000
  C   C1520     1.0  0.66866  0.76537  0.29552  1.0000
  P   P51       1.0  0.68975  0.74933  0.24674  1.0000
  C   C1521     1.0  0.70377  0.72343  0.23985  1.0000
  C   C1522     1.0  0.67371  0.75930  0.21647  1.0000
  C   C1523     1.0  0.66478  0.78072  0.21693  1.0000
  C   C1524     1.0  0.65095  0.78817  0.19466  1.0000
  C   C1525     1.0  0.64571  0.77422  0.17200  1.0000
  C   C1526     1.0  0.65441  0.75285  0.17149  1.0000
  C   C1527     1.0  0.66838  0.74540  0.19361  1.0000
  C   C1528     1.0  0.70398  0.70646  0.26000  1.0000
  C   C1529     1.0  0.71579  0.68694  0.25487  1.0000
  C   C1530     1.0  0.72784  0.68435  0.22994  1.0000
  C   C1531     1.0  0.72815  0.70133  0.21013  1.0000
  C   C1532     1.0  0.71622  0.72082  0.21506  1.0000
  C   C1533     1.0  0.71129  0.76765  0.25570  1.0000
  C   C1534     1.0  0.72220  0.76573  0.28228  1.0000
  C   C1535     1.0  0.73916  0.77959  0.28937  1.0000
  C   C1536     1.0  0.74552  0.79526  0.26983  1.0000
  C   C1537     1.0  0.73503  0.79696  0.24308  1.0000
  C   C1538     1.0  0.71805  0.78311  0.23592  1.0000
  H   H1216     1.0  0.65124  0.77820  0.33203  1.0000
  H   H1217     1.0  0.62747  0.74652  0.33545  1.0000
  H   H1218     1.0  0.63009  0.71660  0.29958  1.0000
  H   H1219     1.0  0.65723  0.71773  0.26140  1.0000
  H   H1220     1.0  0.67849  0.77965  0.29395  1.0000
  H   H1221     1.0  0.66795  0.79145  0.23492  1.0000
  H   H1222     1.0  0.64353  0.80448  0.19545  1.0000
  H   H1223     1.0  0.63438  0.77983  0.15532  1.0000
  H   H1224     1.0  0.64958  0.74172  0.15460  1.0000
  H   H1225     1.0  0.67403  0.72848  0.19349  1.0000
  H   H1226     1.0  0.69519  0.70815  0.27976  1.0000
  H   H1227     1.0  0.71541  0.67363  0.27006  1.0000
  H   H1228     1.0  0.73681  0.66910  0.22602  1.0000
  H   H1229     1.0  0.73764  0.69939  0.19099  1.0000
  H   H1230     1.0  0.71676  0.73389  0.19961  1.0000
  H   H1231     1.0  0.71753  0.75354  0.29754  1.0000
  H   H1232     1.0  0.74739  0.77817  0.31003  1.0000
  H   H1233     1.0  0.75864  0.80602  0.27536  1.0000
  H   H1234     1.0  0.74008  0.80900  0.22785  1.0000
  H   H1235     1.0  0.71037  0.78448  0.21494  1.0000
  C   C1539     1.0  0.72848  0.48918  0.21794  1.0000
  C   C1540     1.0  0.60814  0.98230  0.99800  1.0000
  H   H1236     1.0  0.91993  0.48825  0.46027  1.0000
  C   C1541     1.0  0.87374  0.49128  0.02664  1.0000
  C   C1542     1.0  0.78928  0.54731  0.00481  1.0000
  C   C1543     1.0  0.76904  0.52583  0.15956  1.0000
  C   C1544     1.0  0.79124  0.52325  0.16636  1.0000
  C   C1545     1.0  0.54948  0.96254  0.02954  1.0000
  C   C1546     1.0  0.59634  0.95963  0.46687  1.0000
  H   H1237     1.0  0.59122  0.96882  0.15645  1.0000
  C   C1547     1.0  0.74226  0.54633  0.38612  1.0000
  C   C1548     1.0  0.84348  0.52342  0.18188  1.0000
  C   C1549     1.0  0.86215  0.52480  0.16506  1.0000
  C   C1550     1.0  0.87323  0.54438  0.16378  1.0000
  C   C1551     1.0  0.86599  0.56258  0.17956  1.0000
  C   C1552     1.0  0.84801  0.56105  0.19725  1.0000
  C   C1553     1.0  0.83701  0.54147  0.19873  1.0000
  H   H1238     1.0  0.48891  0.82463  0.01843  1.0000
  H   H1239     1.0  0.59698  0.94941  0.06829  1.0000
  C   C1554     1.0  0.98463  0.58185  0.00700  1.0000
  H   H1240     1.0  0.77571  0.53996  0.30907  1.0000
  C   C1555     1.0  0.74739  0.50678  0.06364  1.0000
  C   C1556     1.0  0.70578  0.60611  0.47682  1.0000
  S   S220      1.0  0.51021  0.89574  0.01905  1.0000
  Fe  Fe109     1.0  0.54689  0.85724  0.48510  1.0000
  C   C1557     1.0  0.80440  0.66614  0.20645  1.0000
  C   C1558     1.0  0.54055  0.97702  0.43398  1.0000
  C   C1559     1.0  0.86010  0.51442  0.47801  1.0000
  C   C1560     1.0  0.52630  0.87995  0.10457  1.0000
  H   H1241     1.0  0.79886  0.70100  0.20504  1.0000
  H   H1242     1.0  0.76204  0.54198  0.15523  1.0000
  H   H1243     1.0  0.80097  0.53763  0.16668  1.0000
  C   C1561     1.0  0.84870  0.54450  0.06372  1.0000
  C   C1562     1.0  0.80313  0.63481  0.44469  1.0000
  H   H1244     1.0  0.88740  0.54551  0.15040  1.0000
  H   H1245     1.0  0.87443  0.57781  0.17828  1.0000
  H   H1246     1.0  0.84257  0.57503  0.20993  1.0000
  H   H1247     1.0  0.82333  0.54044  0.21291  1.0000
  H   H1248     1.0  0.77430  0.69998  0.16284  1.0000
  H   H1249     1.0  0.85588  0.53070  0.47048  1.0000
  H   H1250     1.0  0.51318  0.88622  0.46786  1.0000
  C   C1563     1.0  0.72176  0.60968  0.10969  1.0000
  H   H1251     1.0  0.70816  0.53237  0.10358  1.0000
  H   H1252     1.0  0.80744  0.65417  0.02579  1.0000
  H   H1253     1.0  0.69550  0.59391  0.48575  1.0000
  H   H1254     1.0  0.74999  0.49212  0.05095  1.0000
  C   C1564     1.0  0.51239  0.95650  0.01355  1.0000
  C   C1565     1.0  0.75980  0.54127  0.08216  1.0000
  C   C1566     1.0  0.74069  0.68790  0.12597  1.0000
  H   H1255     1.0  0.78220  0.62974  0.16029  1.0000
  H   H1256     1.0  0.53627  0.82074  0.43798  1.0000
  C   C1567     1.0  0.72365  0.52947  0.09319  1.0000
  H   H1257     1.0  0.82406  0.64331  0.07239  1.0000
  C   C1568     1.0  0.81244  0.53446  0.09579  1.0000
  H   H1258     1.0  0.52344  0.84877  0.16428  1.0000
  C   C1569     1.0  0.51192  0.79643  0.43264  1.0000
  H   H1259     1.0  0.83114  0.53198  0.02748  1.0000
  C   C1570     1.0  0.49742  0.74800  0.24661  1.0000
  H   H1260     1.0  0.96422  0.61639  0.42478  1.0000
  C   C1571     1.0  0.82991  0.49153  0.22138  1.0000
  H   H1261     1.0  0.69012  0.70767  0.14445  1.0000
  C   C1572     1.0  0.79981  0.64613  0.19362  1.0000
  C   C1573     1.0  0.73578  0.72636  0.11385  1.0000
  C   C1574     1.0  0.96759  0.61089  0.44643  1.0000
  H   H1262     1.0  0.92965  0.55062  0.42989  1.0000
  H   H1263     1.0  0.70463  0.74148  0.12416  1.0000
  C   C1575     1.0  0.81155  0.49450  0.23872  1.0000
  H   H1264     1.0  0.83573  0.49744  0.12242  1.0000
  H   H1265     1.0  0.71809  0.59959  0.09125  1.0000
  H   H1266     1.0  0.59440  0.93962  0.11952  1.0000
  C   C1576     1.0  0.73195  0.63521  0.15756  1.0000
  C   C1577     1.0  0.73580  0.62707  0.10705  1.0000
  H   H1267     1.0  0.77201  0.55348  0.08403  1.0000
  H   H1268     1.0  0.74795  0.67334  0.06750  1.0000
  C   C1578     1.0  0.95010  0.60776  0.46491  1.0000
  H   H1269     1.0  0.73568  0.64495  0.17631  1.0000
  H   H1270     1.0  0.77308  0.49201  0.49090  1.0000
  C   C1579     1.0  0.52334  0.87645  0.36912  1.0000
  H   H1271     1.0  0.81091  0.63523  0.46569  1.0000
  P   P52       1.0  0.75799  0.66335  0.12765  1.0000
  C   C1580     1.0  0.59524  0.98412  0.07635  1.0000
  C   C1581     1.0  0.52641  0.86055  0.34788  1.0000
  C   C1582     1.0  0.75575  0.50777  0.15916  1.0000
  C   C1583     1.0  0.52001  0.80505  0.32277  1.0000
  H   H1272     1.0  0.52763  0.75119  0.30517  1.0000
  H   H1273     1.0  0.54019  0.75162  0.15076  1.0000
  P   P53       1.0  0.50113  0.77223  0.12374  1.0000
  C   C1584     1.0  0.79544  0.65219  0.09656  1.0000
  C   C1585     1.0  0.83039  0.54394  0.10905  1.0000
  C   C1586     1.0  0.77668  0.66466  0.04390  1.0000
  C   C1587     1.0  0.52010  0.78586  0.30614  1.0000
  C   C1588     1.0  0.52647  0.76579  0.31832  1.0000
  C   C1589     1.0  0.53245  0.76466  0.34724  1.0000
  C   C1590     1.0  0.53207  0.78359  0.36402  1.0000
  C   C1591     1.0  0.52600  0.80374  0.35188  1.0000
  C   C1592     1.0  0.53457  0.83978  0.28389  1.0000
  C   C1593     1.0  0.53551  0.86181  0.27583  1.0000
  C   C1594     1.0  0.55181  0.86855  0.25760  1.0000
  C   C1595     1.0  0.56738  0.85341  0.24741  1.0000
  C   C1596     1.0  0.56687  0.83162  0.25585  1.0000
  C   C1597     1.0  0.55070  0.82485  0.27423  1.0000
  H   H1274     1.0  0.53738  0.88281  0.38052  1.0000
  C   C1598     1.0  0.79736  0.50094  0.35389  1.0000
  H   H1275     1.0  0.54290  0.85484  0.34312  1.0000
  H   H1276     1.0  0.78331  0.54023  0.43565  1.0000
  C   C1599     1.0  0.51990  0.81743  0.43053  1.0000
  H   H1277     1.0  0.49992  0.89597  0.39273  1.0000
  C   C1600     1.0  0.81219  0.53062  0.06616  1.0000
  C   C1601     1.0  0.95807  0.55050  0.45768  1.0000
  H   H1278     1.0  0.51597  0.78654  0.28352  1.0000
  H   H1279     1.0  0.51713  0.95385  0.44650  1.0000
  H   H1280     1.0  0.53830  0.74927  0.35632  1.0000
  H   H1281     1.0  0.53763  0.78281  0.38611  1.0000
  H   H1282     1.0  0.52662  0.81818  0.36522  1.0000
  H   H1283     1.0  0.49923  0.88944  0.07718  1.0000
  H   H1284     1.0  0.55249  0.88555  0.25152  1.0000
  H   H1285     1.0  0.58005  0.85850  0.23325  1.0000
  H   H1286     1.0  0.57921  0.81996  0.24830  1.0000
  H   H1287     1.0  0.55111  0.80801  0.28098  1.0000
  H   H1288     1.0  0.74373  0.51676  0.31266  1.0000
  H   H1289     1.0  0.74214  0.65014  0.44480  1.0000
  H   H1290     1.0  0.82890  0.65158  0.42425  1.0000
  H   H1291     1.0  0.60349  0.94497  0.45745  1.0000
  H   H1292     1.0  0.73844  0.51006  0.15493  1.0000
  C   C1602     1.0  0.49028  0.88244  0.99900  1.0000
  H   H1293     1.0  0.86224  0.55686  0.10304  1.0000
  C   C1603     1.0  0.70651  0.70753  0.13607  1.0000
  C   C1604     1.0  0.77055  0.54815  0.42269  1.0000
  H   H1294     1.0  0.54971  0.81563  0.03960  1.0000
  S   S221      1.0  0.57325  0.83308  0.47306  1.0000
  H   H1295     1.0  0.76137  0.51849  0.40145  1.0000
  C   C1605     1.0  0.59245  0.97314  0.13408  1.0000
  C   C1606     1.0  0.79810  0.65619  0.04519  1.0000
  H   H1296     1.0  0.98329  0.54928  0.48981  1.0000
  C   C1607     1.0  0.76705  0.57079  0.42457  1.0000
  C   C1608     1.0  0.75154  0.58151  0.40665  1.0000
  C   C1609     1.0  0.73873  0.56899  0.38794  1.0000
  P   P54       1.0  0.74713  0.61082  0.40927  1.0000
  C   C1610     1.0  0.73121  0.61697  0.44066  1.0000
  C   C1611     1.0  0.77320  0.62364  0.41358  1.0000
  C   C1612     1.0  0.78353  0.63305  0.39026  1.0000
  C   C1613     1.0  0.80343  0.64324  0.39421  1.0000
  C   C1614     1.0  0.49593  0.85836  0.13718  1.0000
  H   H1297     1.0  0.50783  0.81838  0.11213  1.0000
  C   C1615     1.0  0.48830  0.82804  0.28446  1.0000
  C   C1616     1.0  0.71785  0.60124  0.45233  1.0000
  H   H1298     1.0  0.55188  0.96459  0.42594  1.0000
  C   C1617     1.0  0.49614  0.79545  0.20623  1.0000
  C   C1618     1.0  0.49733  0.87935  0.46622  1.0000
  C   C1619     1.0  0.50227  0.88379  0.37604  1.0000
  C   C1620     1.0  0.73294  0.62104  0.37745  1.0000
  C   C1621     1.0  0.71435  0.63497  0.37961  1.0000
  C   C1622     1.0  0.70326  0.64244  0.35490  1.0000
  C   C1623     1.0  0.71069  0.63620  0.32788  1.0000
  C   C1624     1.0  0.72925  0.62256  0.32553  1.0000
  C   C1625     1.0  0.74022  0.61483  0.35015  1.0000
  S   S222      1.0  0.88924  0.57152  0.00465  1.0000
  C   C1626     1.0  0.79510  0.68547  0.19522  1.0000
  C   C1627     1.0  0.74091  0.64005  0.13098  1.0000
  H   H1299     1.0  0.77707  0.57990  0.43934  1.0000
  H   H1300     1.0  0.72612  0.57662  0.37454  1.0000
  H   H1301     1.0  0.77666  0.63235  0.36888  1.0000
  H   H1302     1.0  0.81154  0.64994  0.37599  1.0000
  C   C1628     1.0  0.52098  0.97098  0.44612  1.0000
  C   C1629     1.0  0.50062  0.72770  0.11035  1.0000
  H   H1303     1.0  0.77592  0.61715  0.45908  1.0000
  C   C1630     1.0  0.49150  0.78554  0.17991  1.0000
  C   C1631     1.0  0.72735  0.51049  0.07696  1.0000
  C   C1632     1.0  0.78106  0.68479  0.17130  1.0000
  C   C1633     1.0  0.77592  0.66466  0.15874  1.0000
  H   H1304     1.0  0.71462  0.49873  0.07452  1.0000
  H   H1305     1.0  0.70823  0.64003  0.40024  1.0000
  H   H1306     1.0  0.68883  0.65302  0.35664  1.0000
  H   H1307     1.0  0.70205  0.64181  0.30866  1.0000
  H   H1308     1.0  0.73505  0.61796  0.30452  1.0000
  H   H1309     1.0  0.75445  0.60405  0.34785  1.0000
  C   C1634     1.0  0.73988  0.54487  0.09573  1.0000
  H   H1310     1.0  0.71073  0.61445  0.18059  1.0000
  C   C1635     1.0  0.78328  0.62455  0.44082  1.0000
  H   H1311     1.0  0.53479  0.93136  0.02963  1.0000
  H   H1312     1.0  0.73273  0.53686  0.37109  1.0000
  Fe  Fe110     1.0  0.89124  0.60251  0.47134  1.0000
  H   H1313     1.0  0.90715  0.53110  0.46455  1.0000
  H   H1314     1.0  0.74275  0.63012  0.08642  1.0000
  H   H1315     1.0  0.56509  0.95605  0.03729  1.0000
  C   C1636     1.0  0.93663  0.54552  0.45037  1.0000
  C   C1637     1.0  0.51800  0.85777  0.14540  1.0000
  C   C1638     1.0  0.76390  0.52201  0.06655  1.0000
  C   C1639     1.0  0.53861  0.78471  0.05422  1.0000
  C   C1640     1.0  0.53980  0.80742  0.05493  1.0000
  C   C1641     1.0  0.52865  0.81950  0.07579  1.0000
  C   C1642     1.0  0.51630  0.80887  0.09602  1.0000
  C   C1643     1.0  0.51555  0.78598  0.09601  1.0000
  C   C1644     1.0  0.52649  0.77398  0.07460  1.0000
  C   C1645     1.0  0.87171  0.50830  0.00671  1.0000
  C   C1646     1.0  0.51152  0.74430  0.12511  1.0000
  C   C1647     1.0  0.50685  0.78530  0.15790  1.0000
  P   P55       1.0  0.51277  0.83102  0.30633  1.0000
  C   C1648     1.0  0.60392  0.98036  0.45935  1.0000
  C   C1649     1.0  0.51602  0.80540  0.21083  1.0000
  C   C1650     1.0  0.53138  0.80531  0.18916  1.0000
  C   C1651     1.0  0.52696  0.79515  0.16291  1.0000
  C   C1652     1.0  0.79766  0.48870  0.05214  1.0000
  H   H1316     1.0  0.76941  0.66926  0.02340  1.0000
  C   C1653     1.0  0.52865  0.70121  0.12541  1.0000
  C   C1654     1.0  0.53983  0.71772  0.13949  1.0000
  C   C1655     1.0  0.53137  0.73920  0.13929  1.0000
  P   P56       1.0  0.78970  0.51710  0.04925  1.0000
  C   C1656     1.0  0.77393  0.66083  0.09552  1.0000
  C   C1657     1.0  0.71938  0.68825  0.13666  1.0000
  H   H1317     1.0  0.70192  0.59164  0.13830  1.0000
  H   H1318     1.0  0.76513  0.70729  0.10620  1.0000
  C   C1658     1.0  0.76462  0.66700  0.06894  1.0000
  H   H1319     1.0  0.79876  0.53031  0.10865  1.0000
  H   H1320     1.0  0.73715  0.55968  0.10823  1.0000
  H   H1321     1.0  0.53000  0.83708  0.07646  1.0000
  C   C1659     1.0  0.72010  0.64245  0.47817  1.0000
  C   C1660     1.0  0.50660  0.83437  0.41946  1.0000
  H   H1322     1.0  0.86829  0.51096  0.15284  1.0000
  C   C1661     1.0  0.50693  0.98687  0.45838  1.0000
  H   H1323     1.0  0.51975  0.81271  0.23138  1.0000
  H   H1324     1.0  0.54697  0.81267  0.19298  1.0000
  H   H1325     1.0  0.53947  0.79473  0.14680  1.0000
  P   P57       1.0  0.82850  0.49854  0.18390  1.0000
  C   C1662     1.0  0.50426  0.88067  0.09640  1.0000
  H   H1326     1.0  0.53509  0.68453  0.12613  1.0000
  H   H1327     1.0  0.55478  0.71380  0.15137  1.0000
  H   H1328     1.0  0.98355  0.49731  0.42332  1.0000
  H   H1329     1.0  0.94458  0.49958  0.99938  1.0000
  C   C1663     1.0  0.85473  0.49632  0.46124  1.0000
  H   H1330     1.0  0.74210  0.74113  0.10491  1.0000
  C   C1664     1.0  0.71776  0.61795  0.16005  1.0000
  H   H1331     1.0  0.52614  0.75634  0.07386  1.0000
  H   H1332     1.0  0.54754  0.77542  0.03819  1.0000
  Fe  Fe111     1.0  0.57643  0.89653  0.48459  1.0000
  Fe  Fe112     1.0  0.54432  0.88589  0.00684  1.0000
  H   H1333     1.0  0.51268  0.85076  0.41889  1.0000
  H   H1334     1.0  0.52223  0.78344  0.44170  1.0000
  C   C1665     1.0  0.71469  0.72658  0.12468  1.0000
  C   C1666     1.0  0.83063  0.53534  0.05026  1.0000
  H   H1335     1.0  0.95960  0.49327  0.46384  1.0000
  H   H1336     1.0  0.79476  0.55905  0.02061  1.0000
  C   C1667     1.0  0.73210  0.63769  0.45362  1.0000
  Fe  Fe113     1.0  0.58859  0.90471  0.99866  1.0000
  C   C1668     1.0  0.78563  0.52563  0.01256  1.0000
  C   C1669     1.0  0.92391  0.53471  0.46993  1.0000
  H   H1337     1.0  0.79588  0.49983  0.22975  1.0000
  H   H1338     1.0  0.81239  0.49689  0.36553  1.0000
  H   H1339     1.0  0.61689  0.98142  0.44409  1.0000
  C   C1670     1.0  0.53236  0.94851  0.02481  1.0000
  H   H1340     1.0  0.84657  0.49875  0.44072  1.0000
  H   H1341     1.0  0.49511  0.85396  0.25481  1.0000
  C   C1671     1.0  0.50910  0.70621  0.11071  1.0000
  C   C1672     1.0  0.57969  0.95796  0.48677  1.0000
  C   C1673     1.0  0.50963  0.97870  0.00644  1.0000
  H   H1342     1.0  0.96767  0.55963  0.44296  1.0000
  C   C1674     1.0  0.75990  0.49343  0.34096  1.0000
  C   C1675     1.0  0.74438  0.49156  0.23951  1.0000
  S   S223      1.0  0.60579  0.93747  0.00348  1.0000
  H   H1343     1.0  0.49292  0.84953  0.05919  1.0000
  C   C1676     1.0  0.96682  0.54472  0.48455  1.0000
  H   H1344     1.0  0.77452  0.49437  0.99733  1.0000
  H   H1345     1.0  0.95719  0.66012  0.47122  1.0000
  C   C1677     1.0  0.48893  0.86960  0.11232  1.0000
  H   H1346     1.0  0.80952  0.48940  0.46888  1.0000
  C   C1678     1.0  0.70692  0.62669  0.48974  1.0000
  C   C1679     1.0  0.54668  0.98470  0.02332  1.0000
  H   H1347     1.0  0.72107  0.65838  0.48826  1.0000
  C   C1680     1.0  0.81341  0.49153  0.26832  1.0000
  C   C1681     1.0  0.96697  0.65913  0.49078  1.0000
  C   C1682     1.0  0.48723  0.85901  0.34075  1.0000
  C   C1683     1.0  0.95468  0.60077  0.49289  1.0000
  Fe  Fe114     1.0  0.57324  0.86657  0.95981  1.0000
  H   H1348     1.0  0.66331  0.80039  0.61939  1.0000
  S   S224      1.0  0.56415  0.85129  0.91615  1.0000
  C   C1684     1.0  0.54831  0.90483  0.58124  1.0000
  S   S225      1.0  0.56618  0.87369  0.51925  1.0000
  H   H1349     1.0  0.64897  0.88058  0.61810  1.0000
  C   C1685     1.0  0.49424  0.74629  0.71971  1.0000
  S   S226      1.0  0.61077  0.82824  0.53819  1.0000
  H   H1350     1.0  0.65164  0.72634  0.67640  1.0000
  C   C1686     1.0  0.81082  0.53711  0.56225  1.0000
  H   H1351     1.0  0.79756  0.53947  0.60453  1.0000
  S   S227      1.0  0.55991  0.90068  0.96906  1.0000
  Fe  Fe115     1.0  0.85097  0.60992  0.50981  1.0000
  C   C1687     1.0  0.49076  0.77644  0.65085  1.0000
  S   S228      1.0  0.83525  0.63150  0.54448  1.0000
  H   H1352     1.0  0.66034  0.86256  0.66348  1.0000
  S   S229      1.0  0.87706  0.58274  0.93694  1.0000
  C   C1688     1.0  0.77486  0.51773  0.96334  1.0000
  Fe  Fe116     1.0  0.84843  0.60283  0.95240  1.0000
  S   S230      1.0  0.82131  0.61837  0.92379  1.0000
  H   H1353     1.0  0.77748  0.56060  0.80740  1.0000
  Fe  Fe117     1.0  0.86732  0.55866  0.96981  1.0000
  H   H1354     1.0  0.78936  0.57066  0.97038  1.0000
  S   S231      1.0  0.88474  0.59539  0.51746  1.0000
  Fe  Fe118     1.0  0.59775  0.78779  0.77040  1.0000
  S   S232      1.0  0.58240  0.75491  0.77102  1.0000
  S   S233      1.0  0.61218  0.80510  0.80984  1.0000
  Fe  Fe119     1.0  0.59051  0.79214  0.70437  1.0000
  S   S234      1.0  0.57471  0.75967  0.70129  1.0000
  S   S235      1.0  0.58770  0.81885  0.67023  1.0000
  Fe  Fe120     1.0  0.55656  0.76975  0.74101  1.0000
  S   S236      1.0  0.52009  0.77616  0.74888  1.0000
  Fe  Fe121     1.0  0.60222  0.74737  0.73128  1.0000
  S   S237      1.0  0.61923  0.71359  0.72190  1.0000
  S   S238      1.0  0.57138  0.80280  0.74280  1.0000
  S   S239      1.0  0.61885  0.77975  0.73220  1.0000
  Fe  Fe122     1.0  0.77316  0.60620  0.75827  1.0000
  S   S240      1.0  0.73720  0.60550  0.76705  1.0000
  S   S241      1.0  0.80172  0.60057  0.79029  1.0000
  Fe  Fe123     1.0  0.76532  0.60545  0.69187  1.0000
  S   S242      1.0  0.72882  0.60495  0.69718  1.0000
  S   S243      1.0  0.77797  0.59651  0.64694  1.0000
  Fe  Fe124     1.0  0.73280  0.63062  0.73159  1.0000
  S   S244      1.0  0.71330  0.66362  0.73727  1.0000
  Fe  Fe125     1.0  0.73615  0.58005  0.73184  1.0000
  S   S245      1.0  0.71788  0.54811  0.73326  1.0000
  S   S246      1.0  0.76934  0.63253  0.72447  1.0000
  S   S247      1.0  0.77200  0.57945  0.72499  1.0000
  C   C1689     1.0  0.75347  0.51902  0.73990  1.0000
  C   C1690     1.0  0.73090  0.52174  0.73580  1.0000
  C   C1691     1.0  0.71831  0.50300  0.73302  1.0000
  H   H1355     1.0  0.76337  0.53321  0.74216  1.0000
  H   H1356     1.0  0.70084  0.50488  0.72997  1.0000
  C   C1692     1.0  0.64576  0.70027  0.72570  1.0000
  C   C1693     1.0  0.66362  0.71042  0.73849  1.0000
  C   C1694     1.0  0.68405  0.69907  0.74139  1.0000
  C   C1695     1.0  0.68705  0.67724  0.73200  1.0000
  C   C1696     1.0  0.66929  0.66720  0.71878  1.0000
  C   C1697     1.0  0.64894  0.67868  0.71549  1.0000
  H   H1357     1.0  0.66163  0.72703  0.74618  1.0000
  H   H1358     1.0  0.69764  0.70724  0.75123  1.0000
  H   H1359     1.0  0.67117  0.65052  0.71127  1.0000
  H   H1360     1.0  0.63538  0.67057  0.70543  1.0000
  H   H1361     1.0  0.92549  0.56349  0.88219  1.0000
  C   C1698     1.0  0.93049  0.58313  0.57273  1.0000
  H   H1362     1.0  0.50902  0.73661  0.71623  1.0000
  H   H1363     1.0  0.77699  0.54440  0.93358  1.0000
  C   C1699     1.0  0.81561  0.61245  0.88693  1.0000
  C   C1700     1.0  0.79630  0.62107  0.87391  1.0000
  C   C1701     1.0  0.79147  0.61730  0.84459  1.0000
  C   C1702     1.0  0.80611  0.60507  0.82776  1.0000
  C   C1703     1.0  0.82534  0.59636  0.84082  1.0000
  C   C1704     1.0  0.83000  0.59985  0.87019  1.0000
  H   H1364     1.0  0.78505  0.63086  0.88657  1.0000
  H   H1365     1.0  0.77665  0.62415  0.83494  1.0000
  H   H1366     1.0  0.83687  0.58698  0.82809  1.0000
  H   H1367     1.0  0.84495  0.59319  0.87975  1.0000
  C   C1705     1.0  0.82022  0.62124  0.57354  1.0000
  C   C1706     1.0  0.80955  0.60147  0.57136  1.0000
  C   C1707     1.0  0.79669  0.59433  0.59401  1.0000
  C   C1708     1.0  0.79454  0.60666  0.61936  1.0000
  C   C1709     1.0  0.80523  0.62646  0.62163  1.0000
  C   C1710     1.0  0.81782  0.63378  0.59873  1.0000
  H   H1368     1.0  0.81073  0.59207  0.55180  1.0000
  H   H1369     1.0  0.78824  0.57920  0.59182  1.0000
  H   H1370     1.0  0.80370  0.63619  0.64092  1.0000
  H   H1371     1.0  0.82578  0.64923  0.60056  1.0000
  C   C1711     1.0  0.51620  0.74249  0.62694  1.0000
  C   C1712     1.0  0.49649  0.82636  0.87950  1.0000
  C   C1713     1.0  0.95875  0.60102  0.97481  1.0000
  C   C1714     1.0  0.57066  0.97730  0.49876  1.0000
  C   C1715     1.0  0.97458  0.55197  0.93398  1.0000
  H   H1372     1.0  0.96288  0.64480  0.56058  1.0000
  H   H1373     1.0  0.55005  0.91374  0.56144  1.0000
  C   C1716     1.0  0.63986  0.75896  0.66653  1.0000
  H   H1374     1.0  0.69423  0.84715  0.71532  1.0000
  H   H1375     1.0  0.69567  0.77737  0.69662  1.0000
  H   H1376     1.0  0.79592  0.49976  0.61075  1.0000
  C   C1717     1.0  0.60169  0.82495  0.57384  1.0000
  C   C1718     1.0  0.59276  0.84253  0.58943  1.0000
  C   C1719     1.0  0.58841  0.84015  0.61875  1.0000
  C   C1720     1.0  0.59232  0.82010  0.63275  1.0000
  C   C1721     1.0  0.60027  0.80221  0.61686  1.0000
  C   C1722     1.0  0.60529  0.80475  0.58770  1.0000
  H   H1377     1.0  0.59008  0.85822  0.57922  1.0000
  H   H1378     1.0  0.58243  0.85411  0.63081  1.0000
  H   H1379     1.0  0.60296  0.78654  0.62707  1.0000
  H   H1380     1.0  0.61221  0.79106  0.57586  1.0000
  C   C1723     1.0  0.57802  0.83798  0.88730  1.0000
  C   C1724     1.0  0.60078  0.83700  0.88551  1.0000
  C   C1725     1.0  0.61090  0.82679  0.86177  1.0000
  C   C1726     1.0  0.59848  0.81724  0.83964  1.0000
  C   C1727     1.0  0.57574  0.81804  0.84156  1.0000
  C   C1728     1.0  0.56561  0.82848  0.86510  1.0000
  H   H1381     1.0  0.61058  0.84417  0.90234  1.0000
  H   H1382     1.0  0.62849  0.82626  0.86059  1.0000
  H   H1383     1.0  0.56595  0.81076  0.82481  1.0000
  H   H1384     1.0  0.54802  0.82921  0.86607  1.0000
  H   H1385     1.0  0.95036  0.54835  0.96628  1.0000
  H   H1386     1.0  0.62755  0.84058  0.68199  1.0000
  C   C1729     1.0  0.77440  0.64538  0.54682  1.0000
  H   H1387     1.0  0.65223  0.81882  0.57444  1.0000
  H   H1388     1.0  0.94144  0.59850  0.50742  1.0000
  H   H1389     1.0  0.52228  0.80445  0.62120  1.0000
  H   H1390     1.0  0.76932  0.50630  0.94721  1.0000
  H   H1391     1.0  0.65300  0.82396  0.78106  1.0000
  H   H1392     1.0  0.98603  0.52433  0.85864  1.0000
  H   H1393     1.0  0.61754  0.84330  0.77240  1.0000
  C   C1730     1.0  0.95603  0.55304  0.56231  1.0000
  H   H1394     1.0  0.51270  0.80419  0.82284  1.0000
  C   C1731     1.0  0.51957  0.82470  0.78747  1.0000
  H   H1395     1.0  0.49128  0.89627  0.53032  1.0000
  H   H1396     1.0  0.97366  0.62088  0.94335  1.0000
  H   H1397     1.0  0.48986  0.79777  0.58073  1.0000
  H   H1398     1.0  0.52402  0.91801  0.52163  1.0000
  C   C1732     1.0  0.51153  0.84049  0.76825  1.0000
  C   C1733     1.0  0.80805  0.49170  0.56847  1.0000
  H   H1399     1.0  0.56829  0.90335  0.64951  1.0000
  C   C1734     1.0  0.69855  0.82193  0.68296  1.0000
  C   C1735     1.0  0.78048  0.54392  0.81458  1.0000
  H   H1400     1.0  0.75474  0.55599  0.66794  1.0000
  C   C1736     1.0  0.97668  0.60975  0.96093  1.0000
  H   H1401     1.0  0.90607  0.51071  0.92307  1.0000
  C   C1737     1.0  0.66199  0.83003  0.64509  1.0000
  C   C1738     1.0  0.55867  0.89895  0.63082  1.0000
  H   H1402     1.0  0.52599  0.72922  0.61789  1.0000
  H   H1403     1.0  0.57177  0.92386  0.60421  1.0000
  C   C1739     1.0  0.52693  0.83456  0.66153  1.0000
  S   S248      1.0  0.56952  0.93235  0.49760  1.0000
  C   C1740     1.0  0.51263  0.80286  0.91616  1.0000
  S   S249      1.0  0.93176  0.60816  0.96202  1.0000
  C   C1741     1.0  0.50137  0.82493  0.69782  1.0000
  H   H1404     1.0  0.50276  0.76946  0.91527  1.0000
  C   C1742     1.0  0.57855  0.96610  0.97164  1.0000
  H   H1405     1.0  0.74948  0.53288  0.79901  1.0000
  H   H1406     1.0  0.82485  0.52981  0.52128  1.0000
  H   H1407     1.0  0.52370  0.80057  0.93433  1.0000
  C   C1743     1.0  0.97019  0.65034  0.54111  1.0000
  C   C1744     1.0  0.66495  0.78800  0.67665  1.0000
  C   C1745     1.0  0.53890  0.83262  0.56329  1.0000
  S   S250      1.0  0.86504  0.52445  0.95256  1.0000
  C   C1746     1.0  0.80428  0.51639  0.83700  1.0000
  H   H1408     1.0  0.92188  0.52204  0.51230  1.0000
  H   H1409     1.0  0.75628  0.49491  0.81448  1.0000
  C   C1747     1.0  0.62789  0.83909  0.75452  1.0000
  C   C1748     1.0  0.65411  0.82687  0.70813  1.0000
  C   C1749     1.0  0.52909  0.82921  0.58967  1.0000
  H   H1410     1.0  0.50501  0.88597  0.92806  1.0000
  C   C1750     1.0  0.57165  0.98710  0.96205  1.0000
  C   C1751     1.0  0.65851  0.85280  0.64424  1.0000
  H   H1411     1.0  0.62394  0.75378  0.65936  1.0000
  H   H1412     1.0  0.54354  0.83404  0.65392  1.0000
  H   H1413     1.0  0.52197  0.84638  0.75170  1.0000
  H   H1414     1.0  0.55834  0.81866  0.52956  1.0000
  C   C1752     1.0  0.75292  0.52097  0.66959  1.0000
  C   C1753     1.0  0.75886  0.61308  0.52591  1.0000
  C   C1754     1.0  0.74240  0.61397  0.54627  1.0000
  C   C1755     1.0  0.74223  0.63020  0.56766  1.0000
  C   C1756     1.0  0.75796  0.64635  0.56716  1.0000
  P   P58       1.0  0.72057  0.63129  0.59346  1.0000
  C   C1757     1.0  0.71634  0.60512  0.60973  1.0000
  C   C1758     1.0  0.72624  0.64916  0.62334  1.0000
  C   C1759     1.0  0.70952  0.66219  0.63553  1.0000
  C   C1760     1.0  0.71384  0.67497  0.65976  1.0000
  C   C1761     1.0  0.73479  0.67477  0.67200  1.0000
  C   C1762     1.0  0.75138  0.66160  0.66027  1.0000
  C   C1763     1.0  0.74704  0.64862  0.63629  1.0000
  C   C1764     1.0  0.69856  0.60273  0.62784  1.0000
  C   C1765     1.0  0.69542  0.58282  0.64145  1.0000
  C   C1766     1.0  0.71004  0.56519  0.63718  1.0000
  C   C1767     1.0  0.72788  0.56751  0.61940  1.0000
  C   C1768     1.0  0.73126  0.58748  0.60612  1.0000
  C   C1769     1.0  0.69663  0.64118  0.57403  1.0000
  C   C1770     1.0  0.67956  0.62727  0.56707  1.0000
  C   C1771     1.0  0.66125  0.63524  0.55165  1.0000
  C   C1772     1.0  0.65998  0.65703  0.54282  1.0000
  C   C1773     1.0  0.67709  0.67085  0.54926  1.0000
  C   C1774     1.0  0.69540  0.66294  0.56472  1.0000
  H   H1415     1.0  0.75931  0.60017  0.50998  1.0000
  H   H1416     1.0  0.72997  0.60183  0.54558  1.0000
  H   H1417     1.0  0.75783  0.65960  0.58255  1.0000
  H   H1418     1.0  0.69304  0.66210  0.62693  1.0000
  H   H1419     1.0  0.70082  0.68455  0.66967  1.0000
  H   H1420     1.0  0.73798  0.68428  0.69118  1.0000
  H   H1421     1.0  0.76749  0.66097  0.67019  1.0000
  H   H1422     1.0  0.75984  0.63795  0.62808  1.0000
  H   H1423     1.0  0.68740  0.61641  0.63198  1.0000
  H   H1424     1.0  0.68201  0.58122  0.65601  1.0000
  H   H1425     1.0  0.70787  0.54998  0.64838  1.0000
  H   H1426     1.0  0.73962  0.55409  0.61673  1.0000
  H   H1427     1.0  0.74597  0.58926  0.59408  1.0000
  H   H1428     1.0  0.68034  0.61028  0.57339  1.0000
  C   C1775     1.0  0.93649  0.56487  0.55621  1.0000
  H   H1429     1.0  0.55774  0.97629  0.51407  1.0000
  H   H1430     1.0  0.67611  0.68775  0.54242  1.0000
  H   H1431     1.0  0.70857  0.67382  0.56959  1.0000
  C   C1776     1.0  0.65420  0.82827  0.59397  1.0000
  C   C1777     1.0  0.64796  0.82818  0.75937  1.0000
  H   H1432     1.0  0.53606  0.81853  0.70106  1.0000
  H   H1433     1.0  0.64573  0.66322  0.53101  1.0000
  C   C1778     1.0  0.81635  0.50055  0.54334  1.0000
  C   C1779     1.0  0.95084  0.50389  0.58616  1.0000
  H   H1434     1.0  0.53785  0.84839  0.55320  1.0000
  C   C1780     1.0  0.52274  0.82560  0.68822  1.0000
  H   H1435     1.0  0.53931  0.74883  0.66095  1.0000
  C   C1781     1.0  0.96313  0.57788  0.60199  1.0000
  C   C1782     1.0  0.66096  0.82188  0.73626  1.0000
  C   C1783     1.0  0.66022  0.81788  0.61961  1.0000
  C   C1784     1.0  0.64993  0.85080  0.59350  1.0000
  H   H1436     1.0  0.60483  0.85135  0.72267  1.0000
  C   C1785     1.0  0.50083  0.78538  0.90538  1.0000
  C   C1786     1.0  0.70573  0.83776  0.70251  1.0000
  C   C1787     1.0  0.94383  0.58970  0.59550  1.0000
  H   H1437     1.0  0.78828  0.62759  0.51143  1.0000
  H   H1438     1.0  0.93914  0.60392  0.60815  1.0000
  C   C1788     1.0  0.76849  0.50681  0.81927  1.0000
  Fe  Fe126     1.0  0.89720  0.59730  0.97277  1.0000
  Fe  Fe127     1.0  0.59329  0.85093  0.50587  1.0000
  H   H1439     1.0  0.97975  0.59312  0.52447  1.0000
  C   C1789     1.0  0.53420  0.88739  0.58242  1.0000
  C   C1790     1.0  0.81776  0.52314  0.54033  1.0000
  C   C1791     1.0  0.54175  0.79110  0.58770  1.0000
  C   C1792     1.0  0.53019  0.80807  0.60144  1.0000
  C   C1793     1.0  0.48949  0.91242  0.52100  1.0000
  H   H1440     1.0  0.78084  0.49609  0.74313  1.0000
  C   C1794     1.0  0.91997  0.50270  0.93376  1.0000
  C   C1795     1.0  0.53260  0.87516  0.60766  1.0000
  C   C1796     1.0  0.56063  0.91052  0.60537  1.0000
  C   C1797     1.0  0.76384  0.54051  0.66800  1.0000
  H   H1441     1.0  0.98062  0.60060  0.89037  1.0000
  C   C1798     1.0  0.68028  0.77245  0.68745  1.0000
  C   C1799     1.0  0.76466  0.52833  0.81005  1.0000
  C   C1800     1.0  0.67558  0.75024  0.68698  1.0000
  H   H1442     1.0  0.54640  0.95344  0.91603  1.0000
  H   H1443     1.0  0.64798  0.62452  0.54662  1.0000
  H   H1444     1.0  0.54310  0.77508  0.59735  1.0000
  C   C1801     1.0  0.77911  0.53918  0.95563  1.0000
  H   H1445     1.0  0.68733  0.73821  0.69541  1.0000
  H   H1446     1.0  0.51264  0.86039  0.97743  1.0000
  H   H1447     1.0  0.80405  0.50575  0.89194  1.0000
  H   H1448     1.0  0.91546  0.59224  0.56779  1.0000
  C   C1802     1.0  0.50790  0.92460  0.51607  1.0000
  H   H1449     1.0  0.51696  0.77891  0.68202  1.0000
  C   C1803     1.0  0.54466  0.88142  0.63206  1.0000
  H   H1450     1.0  0.49658  0.91861  0.95795  1.0000
  H   H1451     1.0  0.50040  0.80103  0.53008  1.0000
  C   C1804     1.0  0.93243  0.52936  0.49700  1.0000
  H   H1452     1.0  0.96303  0.56482  0.86431  1.0000
  C   C1805     1.0  0.56270  0.94611  0.85609  1.0000
  C   C1806     1.0  0.58157  0.95407  0.84385  1.0000
  P   P59       1.0  0.56422  0.92104  0.87619  1.0000
  C   C1807     1.0  0.58846  0.92025  0.89871  1.0000
  C   C1808     1.0  0.54189  0.92040  0.90081  1.0000
  C   C1809     1.0  0.53031  0.90127  0.90480  1.0000
  C   C1810     1.0  0.51363  0.90088  0.92480  1.0000
  H   H1453     1.0  0.91330  0.51794  0.97440  1.0000
  C   C1811     1.0  0.48830  0.84240  0.65407  1.0000
  C   C1812     1.0  0.53705  0.93883  0.91787  1.0000
  C   C1813     1.0  0.59820  0.90016  0.90698  1.0000
  C   C1814     1.0  0.61664  0.89950  0.92499  1.0000
  C   C1815     1.0  0.62511  0.91889  0.93559  1.0000
  C   C1816     1.0  0.61529  0.93896  0.92791  1.0000
  C   C1817     1.0  0.59693  0.93967  0.90973  1.0000
  C   C1818     1.0  0.56376  0.89924  0.84997  1.0000
  C   C1819     1.0  0.54389  0.89321  0.83737  1.0000
  C   C1820     1.0  0.54338  0.87633  0.81711  1.0000
  C   C1821     1.0  0.56277  0.86572  0.80873  1.0000
  C   C1822     1.0  0.58268  0.87217  0.82039  1.0000
  C   C1823     1.0  0.58324  0.88903  0.84067  1.0000
  H   H1454     1.0  0.54366  0.87279  0.65200  1.0000
  C   C1824     1.0  0.52375  0.75356  0.65116  1.0000
  C   C1825     1.0  0.93561  0.55515  0.92512  1.0000
  C   C1826     1.0  0.93925  0.55977  0.89641  1.0000
  H   H1455     1.0  0.59715  0.94544  0.84678  1.0000
  H   H1456     1.0  0.53463  0.88637  0.89340  1.0000
  P   P60       1.0  0.66992  0.81685  0.67836  1.0000
  C   C1827     1.0  0.78613  0.55400  0.97640  1.0000
  C   C1828     1.0  0.95325  0.55115  0.94382  1.0000
  C   C1829     1.0  0.49021  0.86021  0.58950  1.0000
  H   H1457     1.0  0.59143  0.88497  0.89980  1.0000
  H   H1458     1.0  0.62403  0.88391  0.93127  1.0000
  H   H1459     1.0  0.63890  0.91837  0.95044  1.0000
  C   C1830     1.0  0.76481  0.50125  0.67205  1.0000
  H   H1460     1.0  0.58915  0.95538  0.90490  1.0000
  H   H1461     1.0  0.52874  0.90137  0.84343  1.0000
  H   H1462     1.0  0.52793  0.87134  0.80816  1.0000
  H   H1463     1.0  0.56243  0.85233  0.79349  1.0000
  H   H1464     1.0  0.59768  0.86373  0.81418  1.0000
  H   H1465     1.0  0.59888  0.89386  0.84913  1.0000
  C   C1831     1.0  0.82202  0.55292  0.75221  1.0000
  C   C1832     1.0  0.84065  0.56537  0.75372  1.0000
  C   C1833     1.0  0.85589  0.56393  0.73186  1.0000
  C   C1834     1.0  0.85228  0.55032  0.70821  1.0000
  C   C1835     1.0  0.83318  0.53833  0.70611  1.0000
  C   C1836     1.0  0.81834  0.53929  0.72866  1.0000
  P   P61       1.0  0.82814  0.52115  0.67530  1.0000
  C   C1837     1.0  0.50889  0.91930  0.94163  1.0000
  C   C1838     1.0  0.79878  0.52057  0.67062  1.0000
  H   H1466     1.0  0.51759  0.95223  0.95196  1.0000
  C   C1839     1.0  0.86808  0.50358  0.97778  1.0000
  S   S251      1.0  0.60361  0.87129  0.98719  1.0000
  C   C1840     1.0  0.54151  0.97634  0.83496  1.0000
  C   C1841     1.0  0.78660  0.54032  0.66844  1.0000
  C   C1842     1.0  0.92402  0.50673  0.96278  1.0000
  C   C1843     1.0  0.50977  0.84304  0.64413  1.0000
  C   C1844     1.0  0.49530  0.76625  0.73430  1.0000
  S   S252      1.0  0.83632  0.57865  0.49540  1.0000
  Fe  Fe128     1.0  0.87033  0.56477  0.50046  1.0000
  C   C1845     1.0  0.83978  0.53409  0.64441  1.0000
  C   C1846     1.0  0.83594  0.55657  0.63958  1.0000
  C   C1847     1.0  0.84484  0.56672  0.61595  1.0000
  C   C1848     1.0  0.85764  0.55460  0.59680  1.0000
  C   C1849     1.0  0.86204  0.53242  0.60172  1.0000
  C   C1850     1.0  0.85343  0.52226  0.62558  1.0000
  H   H1467     1.0  0.81010  0.55433  0.76899  1.0000
  H   H1468     1.0  0.84307  0.57637  0.77171  1.0000
  H   H1469     1.0  0.87030  0.57367  0.73310  1.0000
  H   H1470     1.0  0.86420  0.54947  0.69141  1.0000
  H   H1471     1.0  0.80369  0.52991  0.72790  1.0000
  C   C1851     1.0  0.49581  0.86522  0.98046  1.0000
  C   C1852     1.0  0.50610  0.81669  0.80849  1.0000
  H   H1472     1.0  0.49034  0.73975  0.59570  1.0000
  P   P62       1.0  0.51523  0.85176  0.60797  1.0000
  H   H1473     1.0  0.79450  0.55578  0.66885  1.0000
  H   H1474     1.0  0.52598  0.98490  0.83134  1.0000
  H   H1475     1.0  0.49519  0.84229  0.86953  1.0000
  C   C1853     1.0  0.52066  0.93824  0.93822  1.0000
  H   H1476     1.0  0.53611  0.81813  0.78563  1.0000
  C   C1854     1.0  0.77797  0.51100  0.99174  1.0000
  H   H1477     1.0  0.82642  0.56655  0.65424  1.0000
  H   H1478     1.0  0.84182  0.58406  0.61248  1.0000
  H   H1479     1.0  0.86425  0.56240  0.57819  1.0000
  H   H1480     1.0  0.87218  0.52317  0.58689  1.0000
  H   H1481     1.0  0.85777  0.50531  0.62919  1.0000
  C   C1855     1.0  0.74310  0.83047  0.68843  1.0000
  H   H1482     1.0  0.81273  0.55000  0.83081  1.0000
  C   C1856     1.0  0.55032  0.81561  0.54953  1.0000
  C   C1857     1.0  0.58048  0.97334  0.82789  1.0000
  S   S253      1.0  0.87771  0.53402  0.52519  1.0000
  C   C1858     1.0  0.48996  0.84835  0.77012  1.0000
  H   H1483     1.0  0.62149  0.95393  0.93688  1.0000
  C   C1859     1.0  0.80036  0.53790  0.82780  1.0000
  H   H1484     1.0  0.91913  0.55530  0.93312  1.0000
  C   C1860     1.0  0.64147  0.75150  0.81245  1.0000
  C   C1861     1.0  0.65757  0.76224  0.79782  1.0000
  C   C1862     1.0  0.67814  0.75215  0.79444  1.0000
  C   C1863     1.0  0.68258  0.73125  0.80556  1.0000
  C   C1864     1.0  0.66645  0.72035  0.82028  1.0000
  C   C1865     1.0  0.64586  0.73068  0.82366  1.0000
  P   P63       1.0  0.67152  0.69305  0.83400  1.0000
  C   C1866     1.0  0.70052  0.68685  0.83696  1.0000
  C   C1867     1.0  0.65973  0.69156  0.86904  1.0000
  C   C1868     1.0  0.65985  0.70979  0.88742  1.0000
  C   C1869     1.0  0.65069  0.70873  0.91454  1.0000
  C   C1870     1.0  0.64147  0.68944  0.92359  1.0000
  C   C1871     1.0  0.64146  0.67116  0.90553  1.0000
  C   C1872     1.0  0.65058  0.67218  0.87836  1.0000
  C   C1873     1.0  0.71170  0.68783  0.86344  1.0000
  C   C1874     1.0  0.73393  0.68193  0.86537  1.0000
  C   C1875     1.0  0.74513  0.67504  0.84096  1.0000
  C   C1876     1.0  0.73416  0.67429  0.81453  1.0000
  C   C1877     1.0  0.71201  0.68026  0.81256  1.0000
  C   C1878     1.0  0.65907  0.67326  0.81044  1.0000
  C   C1879     1.0  0.64036  0.67892  0.79400  1.0000
  C   C1880     1.0  0.63065  0.66342  0.77626  1.0000
  C   C1881     1.0  0.63970  0.64225  0.77440  1.0000
  C   C1882     1.0  0.65829  0.63643  0.79068  1.0000
  C   C1883     1.0  0.66782  0.65178  0.80884  1.0000
  H   H1485     1.0  0.62550  0.75931  0.81499  1.0000
  H   H1486     1.0  0.65396  0.77835  0.78907  1.0000
  H   H1487     1.0  0.69057  0.76042  0.78289  1.0000
  H   H1488     1.0  0.69852  0.72365  0.80237  1.0000
  H   H1489     1.0  0.63306  0.72257  0.83471  1.0000
  H   H1490     1.0  0.66703  0.72485  0.88080  1.0000
  H   H1491     1.0  0.65069  0.72292  0.92853  1.0000
  H   H1492     1.0  0.63433  0.68866  0.94460  1.0000
  H   H1493     1.0  0.63435  0.65619  0.91256  1.0000
  H   H1494     1.0  0.65043  0.65784  0.86472  1.0000
  H   H1495     1.0  0.70335  0.69290  0.88267  1.0000
  H   H1496     1.0  0.74249  0.68248  0.88585  1.0000
  H   H1497     1.0  0.76228  0.67018  0.84250  1.0000
  H   H1498     1.0  0.74271  0.66883  0.79550  1.0000
  H   H1499     1.0  0.70370  0.67937  0.79204  1.0000
  H   H1500     1.0  0.63331  0.69532  0.79422  1.0000
  H   H1501     1.0  0.61653  0.66815  0.76313  1.0000
  H   H1502     1.0  0.63252  0.63047  0.75999  1.0000
  H   H1503     1.0  0.66551  0.62010  0.78895  1.0000
  H   H1504     1.0  0.68216  0.64687  0.82137  1.0000
  P   P64       1.0  0.96401  0.52957  0.54075  1.0000
  C   C1884     1.0  0.96917  0.55955  0.58560  1.0000
  C   C1885     1.0  0.65224  0.86310  0.61858  1.0000
  C   C1886     1.0  0.73600  0.81507  0.66844  1.0000
  H   H1505     1.0  0.95616  0.51690  0.60011  1.0000
  C   C1887     1.0  0.55197  0.79492  0.56185  1.0000
  H   H1506     1.0  0.78715  0.65725  0.54735  1.0000
  C   C1888     1.0  0.80254  0.52856  0.58732  1.0000
  C   C1889     1.0  0.80144  0.50595  0.59062  1.0000
  H   H1507     1.0  0.73344  0.85406  0.72053  1.0000
  H   H1508     1.0  0.76031  0.83373  0.69059  1.0000
  C   C1890     1.0  0.95399  0.53426  0.50458  1.0000
  C   C1891     1.0  0.78803  0.50086  0.83386  1.0000
  H   H1509     1.0  0.73529  0.52123  0.67078  1.0000
  C   C1892     1.0  0.77500  0.62865  0.52641  1.0000
  H   H1510     1.0  0.51970  0.83682  0.91154  1.0000
  C   C1893     1.0  0.76333  0.49790  0.74056  1.0000
  C   C1894     1.0  0.95765  0.65186  0.51589  1.0000
  C   C1895     1.0  0.64453  0.78114  0.66693  1.0000
  S   S254      1.0  0.86911  0.62007  0.98577  1.0000
  C   C1896     1.0  0.72796  0.84188  0.70535  1.0000
  C   C1897     1.0  0.62079  0.84372  0.72658  1.0000
  C   C1898     1.0  0.83943  0.49385  0.68166  1.0000
  H   H1511     1.0  0.56970  0.95189  0.96508  1.0000
  H   H1512     1.0  0.56140  0.78200  0.55146  1.0000
  H   H1513     1.0  0.52482  0.88329  0.56339  1.0000
  S   S255      1.0  0.83762  0.57781  0.98392  1.0000
  C   C1899     1.0  0.51041  0.82334  0.90326  1.0000
  H   H1514     1.0  0.67606  0.81268  0.74028  1.0000
  C   C1900     1.0  0.71379  0.81093  0.66554  1.0000
  H   H1515     1.0  0.81873  0.50129  0.94089  1.0000
  H   H1516     1.0  0.92579  0.56014  0.53873  1.0000
  C   C1901     1.0  0.95229  0.50571  0.55631  1.0000
  H   H1517     1.0  0.74771  0.80645  0.65503  1.0000
  H   H1518     1.0  0.81245  0.55453  0.56007  1.0000
  C   C1902     1.0  0.78762  0.50096  0.67274  1.0000
  C   C1903     1.0  0.54255  0.95707  0.85094  1.0000
  C   C1904     1.0  0.63382  0.83762  0.70347  1.0000
  H   H1519     1.0  0.64459  0.85861  0.57367  1.0000
  C   C1905     1.0  0.65545  0.74350  0.67633  1.0000
  H   H1520     1.0  0.70846  0.79921  0.64964  1.0000
  C   C1906     1.0  0.51111  0.77058  0.66299  1.0000
  H   H1521     1.0  0.63206  0.79307  0.66028  1.0000
  C   C1907     1.0  0.96057  0.56044  0.88640  1.0000
  H   H1522     1.0  0.81997  0.51192  0.84665  1.0000
  H   H1523     1.0  0.52766  0.95077  0.85923  1.0000
  H   H1524     1.0  0.94696  0.48905  0.51597  1.0000
  H   H1525     1.0  0.94074  0.64720  0.51563  1.0000
  C   C1908     1.0  0.97846  0.55644  0.90510  1.0000
  C   C1909     1.0  0.87078  0.51140  0.50442  1.0000
  C   C1910     1.0  0.59675  0.96355  0.98995  1.0000
  C   C1911     1.0  0.97650  0.59765  0.50245  1.0000
  H   H1526     1.0  0.98292  0.51474  0.97516  1.0000
  H   H1527     1.0  0.97345  0.58295  0.61971  1.0000
  H   H1528     1.0  0.52024  0.95429  0.49992  1.0000
  S   S256      1.0  0.51433  0.84449  0.49659  1.0000
  C   C1912     1.0  0.50570  0.94511  0.50312  1.0000
  C   C1913     1.0  0.94175  0.49633  0.97681  1.0000
  H   H1529     1.0  0.59517  0.97958  0.81885  1.0000
  C   C1914     1.0  0.49599  0.74846  0.61452  1.0000
  H   H1530     1.0  0.69763  0.63045  0.50871  1.0000
  H   H1531     1.0  0.49121  0.83439  0.55776  1.0000
  C   C1915     1.0  0.56049  0.98455  0.82358  1.0000
  H   H1532     1.0  0.49815  0.81726  0.71810  1.0000
  H   H1533     1.0  0.85075  0.50058  0.72503  1.0000
  C   C1916     1.0  0.87601  0.49028  0.51415  1.0000
  C   C1917     1.0  0.94556  0.48832  0.53892  1.0000
  H   H1534     1.0  0.82260  0.49018  0.52641  1.0000
  H   H1535     1.0  0.98410  0.55052  0.59115  1.0000
  C   C1918     1.0  0.80719  0.48942  0.89992  1.0000
  H   H1536     1.0  0.48707  0.77653  0.80494  1.0000
  C   C1919     1.0  0.93380  0.48839  0.91864  1.0000
  C   C1920     1.0  0.84946  0.48852  0.70812  1.0000
