data_image0
_chemical_formula_structural       FeHSC6SFeS2FeS2FeSFeS3FeS2FeS2FeSFeS3HC2HC7H4CHC2H3C6H7C2HC2HC2HCH2C2HC3HPC7H2C9HC2H3CH6CHC2HCH2CHPCHC2H2SCHC7PHC5HPC2HC4H2CH4C2HC2H4C2HC2HC2HCHCHC2H2C5H3CH2CHC2HC2H4CH3CPCHCHC3H3SHCHC2H3CHCHCHC3HC2H2C3H3C4H2CHC3HFeHC4HC2HSHC2HC2H3PCH3CH2SFeS2FeS2FeSFeS3FeS2FeS2FeSFeS3C3HCPCHCHCHC2HCH4C6H4C4HC6H6CPCHCHC5HC6H3C2H2CHCHC6HC2HC2HC2HCHC7PC3H3C2HC6HC2SH6CHC2H6C2PC7H2CHCFeHC5HC2SH3C2H2CH2C2H2CH2C6PC5HC2H3C3H8CH3CFeH4SH3C3H2CH3CHCHCHC2HCH2C7HCH5C2HC6HCHCH6CHCHC4H2C2FeCSH3SHFeS2FeS2FeSFeS3FeS2FeS2FeSFeS3CHCPHCH2C8H4C3H3CH2C10H7CH3C4H2C6H2CHCHCH2C3HCH2C3H3C4HCHPH6C3H3C5HCHCH2C3HC3HC2H2C2H2C5HC10HCH4CHC2HCH3CH2C4H4CH4C6PC7HCH2C7H6C2H3C2H6PC3HC2HC6HCHC5H2C6HCH2PCH4CH2CHCSCFeSFeS2FeSCFeSFeS3FeS2FeS2FeSFeS3C2SC4H5CHC2HC2HC7H5C6H5C3HC4H10CFeC4HCH3CPCHPCHC2H3C4H4CPC3H2C2H3SCHC3H2C2H2CPC7H2C2HCSC3HCH6CH3CPCHC4HCH3CHCHC2HC8HC2H2CH2C4HSHC5H2CHC6HCH2C2PHC2HCHCHCH2C3HCHC2HC2H3C2HC3H2CSH2CH3C3HCH4CHCH3CHCHC2HC2HCFeCH2C4HC2H2C2HSHCFeC4SFeSC2HCFeHC2H2C2HCHCSHC3SCHCHSH2CH4CSHCH3PC7HFeHC4HC3H4C2HCH2CSH2CHCPC4HCHFeCH3CHC2HCH6C3HC2FeCSC2SCH2SCHC6H2CPSH2C3HC2HSH6C2HCHCH2CH2C2HCHC3HCHCHCHCFeHCH3CHCH2CHC2HC2H2CSH2CHC3PC5H2C4SH3C3HFeC2H2CH3C2HSPHFeH2CFeCSFeSHSC2HCHC4H3C3HC3HC6HCSC2FeH2CHCHSCHCSH2SC4H4CHC2H2FeHCH2C3H3FeCS3CFe2SC2H3C2H3CH2CHCH3C6H2C2H3CH2CH4C2HCHC6PCH3CHC3HC4H2SCH2C2H2CH3PCHCHSC3SHC2H4C2HCHC2HC4SFeCSHPCHSFeS2FeS2FeSFeS3FeS2FeS2FeSFeS3C6H4CH2C2HC2H3C3H2C3H2CHCHC7H8CHCFeHSC3H4C4HCH5C2SCH2C2PH2C4HCHCH4C3HC10H3C2HCH4C7PC16H18CH2CH3PC3PHC2H7C2HC4H2C10H2C2H3C3HC4H3CHC2HC2H4C5H4C2HC2HCHCHC4SC9HSFeS2FeS2FeSFeS3FeS2FeS2FeSFeHS2CHC5H2C6H4CHC3H6C2HCH2CH2SC6H4CHC7H6CHC4HC2H2C4HCHC2HCHCH3PCH2CH5CHCHCHC2H2C4HCHC2H2CH2CSC3H3C2H2CHC2HC3H2CPC10H2C6HC4H7C2HC2H2PCH2C2H2CHCHC3HCH3C2PC2H2CH2C2FeH2C2H3CHCH2C4HCHC3H2C5PHCH3C11H5SHC2HCHCH3C2HFeSFeSFeS2FeS2FeSFeS3FeS2FeS2FeSFeS3C3H2C6H4CHCHCH2C2HC2H3C6H4C2H2C2H2C2HCHFeCH3FeCSCH2CHC6PC18HCH18CH3C4HC2PC2HC2HC2PC9HCHC7H12C2HC3HSCHCH4CH3C2HCHC4HC3HSHCH2C2H2CH4C3H2C4PHCH3CH5CH3C2H2C2HCHCSC3HC3HC4HC2H2C2H3CHC6H3CHC2H2C2H2CHC4HSHC4HFeS2FeS2FeSFeS3FeS2FeS2FeSFeS3CHCHC4H2C6H4PC2HC2HC2HC6H5C6H2CHC4HC7HC2PH3CH3C2H2C3H6C7HCHC4H4C2H5CHC6PC12HC3H4CH4CHC2HCH2CH3CH4C7H2CHC2HSCH6CH2CHCH3C3PC2H5C5H3C2HCH2C3H2FeCH2CH2C4HCHCH2CHCHCH3C3H2CH4CHCHC3PH4C2
_chemical_formula_sum              "Fe96 H1152 S192 C1440 P48"
_cell_length_a       60.6667
_cell_length_b       61.418
_cell_length_c       33.5532
_cell_angle_alpha    91.9191
_cell_angle_beta     91.2817
_cell_angle_gamma    88.901

_space_group_name_H-M_alt    "P 1"
_space_group_IT_number       1

loop_
  _space_group_symop_operation_xyz
  'x, y, z'

loop_
  _atom_site_type_symbol
  _atom_site_label
  _atom_site_symmetry_multiplicity
  _atom_site_fract_x
  _atom_site_fract_y
  _atom_site_fract_z
  _atom_site_occupancy
  Fe  Fe1       1.0  0.10428  0.39448  0.04857  1.0000
  H   H1        1.0  0.15390  0.23923  0.46240  1.0000
  S   S1        1.0  0.09897  0.36446  0.08632  1.0000
  C   C1        1.0  0.05390  0.35279  0.24609  1.0000
  C   C2        1.0  0.21402  0.07619  0.01916  1.0000
  C   C3        1.0  0.31687  0.03131  0.07387  1.0000
  C   C4        1.0  0.01523  0.25743  0.46314  1.0000
  C   C5        1.0  0.31607  0.02931  0.11511  1.0000
  C   C6        1.0  0.23013  0.02017  0.28890  1.0000
  S   S2        1.0  0.08957  0.42860  0.05258  1.0000
  Fe  Fe2       1.0  0.10685  0.26755  0.35607  1.0000
  S   S3        1.0  0.09545  0.23818  0.32003  1.0000
  S   S4        1.0  0.11868  0.26148  0.41950  1.0000
  Fe  Fe3       1.0  0.10476  0.29687  0.28334  1.0000
  S   S5        1.0  0.09381  0.26941  0.24226  1.0000
  S   S6        1.0  0.10995  0.33204  0.26537  1.0000
  Fe  Fe4       1.0  0.07114  0.26137  0.29165  1.0000
  S   S7        1.0  0.03628  0.25164  0.27418  1.0000
  Fe  Fe5       1.0  0.11916  0.24860  0.27437  1.0000
  S   S8        1.0  0.14219  0.22495  0.24104  1.0000
  S   S9        1.0  0.08052  0.28998  0.33146  1.0000
  S   S10       1.0  0.13201  0.27680  0.31173  1.0000
  Fe  Fe6       1.0  0.25478  0.09917  0.36964  1.0000
  S   S11       1.0  0.21995  0.09863  0.34563  1.0000
  S   S12       1.0  0.25893  0.08570  0.43185  1.0000
  Fe  Fe7       1.0  0.27199  0.11616  0.29131  1.0000
  S   S13       1.0  0.23817  0.11758  0.26254  1.0000
  S   S14       1.0  0.30263  0.12786  0.26085  1.0000
  Fe  Fe8       1.0  0.22664  0.13152  0.32159  1.0000
  S   S15       1.0  0.20187  0.15827  0.33973  1.0000
  Fe  Fe9       1.0  0.23442  0.08464  0.28930  1.0000
  S   S16       1.0  0.21825  0.05844  0.25038  1.0000
  S   S17       1.0  0.26091  0.13280  0.34885  1.0000
  S   S18       1.0  0.26887  0.08241  0.31457  1.0000
  H   H2        1.0  0.30962  0.04278  0.13319  1.0000
  C   C7        1.0  0.02190  0.26739  0.15302  1.0000
  C   C8        1.0  0.07521  0.32213  0.01807  1.0000
  H   H3        1.0  0.03200  0.28120  0.34361  1.0000
  C   C9        1.0  0.17376  0.22751  0.41423  1.0000
  C   C10       1.0  0.15815  0.20562  0.26786  1.0000
  C   C11       1.0  0.17394  0.19237  0.24804  1.0000
  C   C12       1.0  0.18724  0.17730  0.26914  1.0000
  C   C13       1.0  0.18467  0.17533  0.31021  1.0000
  C   C14       1.0  0.16843  0.18809  0.32949  1.0000
  C   C15       1.0  0.15538  0.20329  0.30869  1.0000
  H   H4        1.0  0.17602  0.19395  0.21637  1.0000
  H   H5        1.0  0.19957  0.16743  0.25385  1.0000
  H   H6        1.0  0.16624  0.18646  0.36100  1.0000
  H   H7        1.0  0.14322  0.21324  0.32427  1.0000
  C   C16       1.0  0.26314  0.10174  0.47611  1.0000
  H   H8        1.0  0.31554  0.06303  0.29653  1.0000
  C   C17       1.0  0.19678  0.02009  0.24805  1.0000
  C   C18       1.0  0.21467  0.03137  0.26498  1.0000
  H   H9        1.0  0.21373  0.19070  0.18220  1.0000
  H   H10       1.0  0.18490  0.02853  0.22931  1.0000
  H   H11       1.0  0.27651  0.13826  0.16771  1.0000
  C   C19       1.0  0.10194  0.35626  0.13662  1.0000
  C   C20       1.0  0.09664  0.33475  0.14540  1.0000
  C   C21       1.0  0.09896  0.32715  0.18450  1.0000
  C   C22       1.0  0.10662  0.34100  0.21553  1.0000
  C   C23       1.0  0.11150  0.36267  0.20696  1.0000
  C   C24       1.0  0.10921  0.37027  0.16774  1.0000
  H   H12       1.0  0.09097  0.32376  0.12167  1.0000
  H   H13       1.0  0.09500  0.31052  0.19057  1.0000
  H   H14       1.0  0.11735  0.37356  0.23070  1.0000
  H   H15       1.0  0.11330  0.38686  0.16152  1.0000
  H   H16       1.0  0.12959  0.12150  0.37300  1.0000
  H   H17       1.0  0.12190  0.38746  0.41788  1.0000
  H   H18       1.0  0.25017  0.04381  0.47413  1.0000
  C   C25       1.0  0.08998  0.28919  0.46069  1.0000
  C   C26       1.0  0.26127  0.00886  0.39627  1.0000
  H   H19       1.0  0.24427  0.02867  0.30139  1.0000
  C   C27       1.0  0.03634  0.31775  0.23962  1.0000
  C   C28       1.0  0.17149  0.40893  0.39782  1.0000
  H   H20       1.0  0.04695  0.32899  0.12984  1.0000
  C   C29       1.0  0.30059  0.10080  0.19305  1.0000
  C   C30       1.0  0.31118  0.11805  0.21326  1.0000
  H   H21       1.0  0.05855  0.25866  0.40006  1.0000
  C   C31       1.0  0.19415  0.99795  0.25482  1.0000
  H   H22       1.0  0.28672  0.09326  0.20644  1.0000
  H   H23       1.0  0.01387  0.34400  0.45840  1.0000
  C   C32       1.0  0.31084  0.14103  0.04686  1.0000
  C   C33       1.0  0.18044  0.21824  0.48352  1.0000
  H   H24       1.0  0.26125  0.00831  0.36399  1.0000
  C   C34       1.0  0.22780  0.99761  0.29480  1.0000
  C   C35       1.0  0.18635  0.13657  0.01652  1.0000
  C   C36       1.0  0.32927  0.12761  0.19552  1.0000
  H   H25       1.0  0.20793  0.05089  0.06025  1.0000
  P   P1        1.0  0.17910  0.12742  0.49230  1.0000
  C   C37       1.0  0.20473  0.14138  0.48677  1.0000
  C   C38       1.0  0.18351  0.09839  0.48457  1.0000
  C   C39       1.0  0.20054  0.09025  0.46027  1.0000
  C   C40       1.0  0.20389  0.06779  0.45462  1.0000
  C   C41       1.0  0.19041  0.05324  0.47328  1.0000
  C   C42       1.0  0.17324  0.06117  0.49712  1.0000
  C   C43       1.0  0.07850  0.49173  0.08450  1.0000
  H   H26       1.0  0.14155  0.18636  0.41909  1.0000
  H   H27       1.0  0.16457  0.37365  0.50249  1.0000
  C   C44       1.0  0.23223  0.04079  0.01709  1.0000
  C   C45       1.0  0.23228  0.15556  0.44352  1.0000
  C   C46       1.0  0.21239  0.14502  0.44838  1.0000
  C   C47       1.0  0.16059  0.13782  0.45424  1.0000
  C   C48       1.0  0.01221  0.33429  0.11551  1.0000
  C   C49       1.0  0.13697  0.13232  0.39547  1.0000
  C   C50       1.0  0.15031  0.12379  0.42596  1.0000
  C   C51       1.0  0.16971  0.08365  0.50260  1.0000
  C   C52       1.0  0.22514  0.13533  0.06375  1.0000
  H   H28       1.0  0.06644  0.36306  0.25996  1.0000
  C   C53       1.0  0.27767  0.01652  0.19546  1.0000
  C   C54       1.0  0.01221  0.22925  0.41080  1.0000
  H   H29       1.0  0.21146  0.10105  0.44574  1.0000
  H   H30       1.0  0.21712  0.06177  0.43583  1.0000
  H   H31       1.0  0.19331  0.03584  0.46922  1.0000
  C   C55       1.0  0.01870  0.30100  0.05709  1.0000
  H   H32       1.0  0.32613  0.13171  0.04548  1.0000
  H   H33       1.0  0.15668  0.30197  0.46863  1.0000
  H   H34       1.0  0.02899  0.47618  0.11910  1.0000
  H   H35       1.0  0.06715  0.39879  0.09698  1.0000
  H   H36       1.0  0.23822  0.15783  0.41376  1.0000
  H   H37       1.0  0.20321  0.13939  0.42203  1.0000
  C   C56       1.0  0.30825  0.09303  0.15581  1.0000
  H   H38       1.0  0.15297  0.10633  0.42667  1.0000
  C   C57       1.0  0.27312  0.14478  0.06918  1.0000
  C   C58       1.0  0.19267  0.21575  0.40318  1.0000
  H   H39       1.0  0.17847  0.42370  0.38711  1.0000
  C   C59       1.0  0.24661  0.09872  0.14405  1.0000
  H   H40       1.0  0.17672  0.27195  0.43552  1.0000
  H   H41       1.0  0.24001  0.10995  0.16653  1.0000
  C   C60       1.0  0.20465  0.13141  0.08053  1.0000
  H   H42       1.0  0.20297  0.39248  0.40450  1.0000
  P   P2        1.0  0.32260  0.00805  0.18625  1.0000
  C   C61       1.0  0.28936  0.17335  0.03150  1.0000
  H   H43       1.0  0.04440  0.24096  0.16668  1.0000
  C   C62       1.0  0.01066  0.23251  0.17603  1.0000
  C   C63       1.0  0.27154  0.16531  0.05197  1.0000
  H   H44       1.0  0.20361  0.12796  0.11193  1.0000
  H   H45       1.0  0.28808  0.18909  0.01794  1.0000
  S   S19       1.0  0.33580  0.09124  0.09203  1.0000
  C   C64       1.0  0.19910  0.20592  0.47190  1.0000
  H   H46       1.0  0.08392  0.29451  0.43198  1.0000
  C   C65       1.0  0.06053  0.46498  0.14072  1.0000
  C   C66       1.0  0.17468  0.30692  0.35929  1.0000
  C   C67       1.0  0.17955  0.28804  0.38003  1.0000
  C   C68       1.0  0.17326  0.28665  0.41961  1.0000
  C   C69       1.0  0.16183  0.30393  0.43842  1.0000
  C   C70       1.0  0.15697  0.32306  0.41793  1.0000
  C   C71       1.0  0.16346  0.32436  0.37810  1.0000
  P   P3        1.0  0.14186  0.34555  0.44139  1.0000
  H   H47       1.0  0.04426  0.39245  0.01856  1.0000
  C   C72       1.0  0.17629  0.37218  0.42103  1.0000
  C   C73       1.0  0.04662  0.47706  0.11561  1.0000
  C   C74       1.0  0.22736  0.17915  0.17884  1.0000
  C   C75       1.0  0.21713  0.05548  0.03458  1.0000
  C   C76       1.0  0.03684  0.41754  0.10062  1.0000
  H   H48       1.0  0.06847  0.31088  0.49458  1.0000
  P   P4        1.0  0.00867  0.35571  0.15347  1.0000
  C   C77       1.0  0.13961  0.38830  0.41514  1.0000
  C   C78       1.0  0.11327  0.34441  0.42497  1.0000
  H   H49       1.0  0.21976  0.19573  0.42278  1.0000
  C   C79       1.0  0.07411  0.34785  0.43867  1.0000
  C   C80       1.0  0.06904  0.34464  0.39812  1.0000
  C   C81       1.0  0.08600  0.34175  0.37091  1.0000
  C   C82       1.0  0.10798  0.34138  0.38422  1.0000
  H   H50       1.0  0.17913  0.30785  0.32828  1.0000
  H   H51       1.0  0.18781  0.27433  0.36516  1.0000
  C   C83       1.0  0.26227  0.01063  0.48010  1.0000
  H   H52       1.0  0.13497  0.20918  0.48685  1.0000
  H   H53       1.0  0.15968  0.33874  0.36122  1.0000
  H   H54       1.0  0.09950  0.35106  0.48349  1.0000
  H   H55       1.0  0.00460  0.43201  0.10844  1.0000
  C   C84       1.0  0.32651  0.10235  0.13831  1.0000
  C   C85       1.0  0.03306  0.32421  0.11088  1.0000
  H   H56       1.0  0.11009  0.48094  0.10774  1.0000
  C   C86       1.0  0.04159  0.38052  0.12227  1.0000
  C   C87       1.0  0.00649  0.39940  0.13028  1.0000
  H   H57       1.0  0.05201  0.34443  0.38770  1.0000
  H   H58       1.0  0.08224  0.33961  0.33933  1.0000
  H   H59       1.0  0.12069  0.33896  0.36233  1.0000
  H   H60       1.0  0.25844  0.04459  0.13129  1.0000
  C   C88       1.0  0.25313  0.10601  0.10691  1.0000
  C   C89       1.0  0.24686  0.15124  0.13953  1.0000
  H   H61       1.0  0.03488  0.27817  0.14509  1.0000
  C   C90       1.0  0.08131  0.29846  0.49610  1.0000
  C   C91       1.0  0.02299  0.32551  0.20856  1.0000
  H   H62       1.0  0.05230  0.36637  0.12545  1.0000
  C   C92       1.0  0.25683  0.06164  0.12435  1.0000
  C   C93       1.0  0.25524  0.02884  0.45864  1.0000
  H   H63       1.0  0.12379  0.16147  0.36900  1.0000
  C   C94       1.0  0.27747  0.11934  0.47756  1.0000
  H   H64       1.0  0.01928  0.46376  0.04250  1.0000
  C   C95       1.0  0.10672  0.27327  0.46268  1.0000
  H   H65       1.0  0.03787  0.22841  0.36714  1.0000
  C   C96       1.0  0.22954  0.16666  0.14342  1.0000
  C   C97       1.0  0.01345  0.26099  0.30197  1.0000
  H   H66       1.0  0.26971  0.05712  0.06538  1.0000
  H   H67       1.0  0.20922  0.19745  0.49356  1.0000
  C   C98       1.0  0.26263  0.14951  0.17056  1.0000
  C   C99       1.0  0.05187  0.33138  0.25818  1.0000
  C   C100      1.0  0.26312  0.06871  0.08719  1.0000
  C   C101      1.0  0.26043  0.16207  0.20582  1.0000
  C   C102      1.0  0.30897  0.16112  0.02869  1.0000
  H   H68       1.0  0.08746  0.32234  0.04215  1.0000
  H   H69       1.0  0.09749  0.20006  0.50479  1.0000
  H   H70       1.0  0.25987  0.17126  0.47303  1.0000
  C   C103      1.0  0.05019  0.39908  0.10611  1.0000
  H   H71       1.0  0.27244  0.16031  0.22999  1.0000
  H   H72       1.0  0.28530  0.12411  0.45064  1.0000
  C   C104      1.0  0.29311  0.13300  0.06740  1.0000
  H   H73       1.0  0.23469  0.02477  0.02907  1.0000
  C   C105      1.0  0.09611  0.34804  0.45204  1.0000
  C   C106      1.0  0.08340  0.46623  0.13764  1.0000
  H   H74       1.0  0.28156  0.03364  0.19440  1.0000
  C   C107      1.0  0.13368  0.15485  0.39321  1.0000
  C   C108      1.0  0.32816  0.03384  0.21145  1.0000
  H   H75       1.0  0.06102  0.35018  0.45985  1.0000
  H   H76       1.0  0.16575  0.17154  0.47221  1.0000
  H   H77       1.0  0.28792  0.04774  0.50138  1.0000
  H   H78       1.0  0.05237  0.29997  0.07882  1.0000
  C   C109      1.0  0.24852  0.07663  0.15270  1.0000
  H   H79       1.0  0.21766  0.16912  0.11945  1.0000
  H   H80       1.0  0.04255  0.37715  0.20585  1.0000
  H   H81       1.0  0.26544  0.09590  0.04900  1.0000
  C   C110      1.0  0.20521  0.20488  0.43189  1.0000
  P   P5        1.0  0.24983  0.13437  0.09473  1.0000
  C   C111      1.0  0.03623  0.30763  0.08194  1.0000
  H   H82       1.0  0.24365  0.07122  0.18164  1.0000
  C   C112      1.0  0.26090  0.09073  0.07820  1.0000
  H   H83       1.0  0.06271  0.32517  0.28132  1.0000
  C   C113      1.0  0.25495  0.02799  0.41691  1.0000
  C   C114      1.0  0.24267  0.17669  0.21017  1.0000
  C   C115      1.0  0.31884  0.03893  0.24864  1.0000
  H   H84       1.0  0.20233  0.08757  0.03276  1.0000
  H   H85       1.0  0.09424  0.45668  0.15664  1.0000
  H   H86       1.0  0.12758  0.25452  0.50213  1.0000
  S   S20       1.0  0.13653  0.47160  0.04081  1.0000
  H   H87       1.0  0.24079  0.18612  0.23784  1.0000
  C   C116      1.0  0.01957  0.38036  0.13413  1.0000
  H   H88       1.0  0.25653  0.17505  0.05431  1.0000
  C   C117      1.0  0.32320  0.05887  0.26834  1.0000
  C   C118      1.0  0.24432  0.16329  0.47681  1.0000
  H   H89       1.0  0.31144  0.04645  0.06098  1.0000
  H   H90       1.0  0.16377  0.23573  0.39185  1.0000
  H   H91       1.0  0.19751  0.21479  0.37223  1.0000
  C   C119      1.0  0.04048  0.36062  0.21508  1.0000
  H   H92       1.0  0.06045  0.35281  0.03678  1.0000
  C   C120      1.0  0.14432  0.34494  0.49532  1.0000
  H   H93       1.0  0.16953  0.12954  0.07042  1.0000
  C   C121      1.0  0.03499  0.26409  0.44672  1.0000
  H   H94       1.0  0.02122  0.28826  0.03445  1.0000
  C   C122      1.0  0.16792  0.22908  0.45428  1.0000
  C   C123      1.0  0.04325  0.25345  0.41257  1.0000
  C   C124      1.0  0.15337  0.37047  0.42461  1.0000
  H   H95       1.0  0.03500  0.30104  0.24881  1.0000
  C   C125      1.0  0.01503  0.41777  0.11299  1.0000
  C   C126      1.0  0.09235  0.47980  0.10988  1.0000
  H   H96       1.0  0.29528  0.11775  0.08221  1.0000
  H   H97       1.0  0.04329  0.43144  0.08596  1.0000
  C   C127      1.0  0.02729  0.24638  0.16507  1.0000
  C   C128      1.0  0.03172  0.23621  0.39430  1.0000
  C   C129      1.0  0.14868  0.40743  0.40169  1.0000
  H   H98       1.0  0.30005  0.07964  0.14062  1.0000
  H   H99       1.0  0.05362  0.45453  0.16243  1.0000
  H   H100      1.0  0.30802  0.02763  0.26229  1.0000
  C   C130      1.0  0.00583  0.47530  0.04802  1.0000
  C   C131      1.0  0.01066  0.38233  0.02394  1.0000
  C   C132      1.0  0.02507  0.34689  0.19579  1.0000
  C   C133      1.0  0.11461  0.26668  0.50014  1.0000
  H   H101      1.0  0.13798  0.42105  0.39399  1.0000
  H   H102      1.0  0.12426  0.31645  0.49971  1.0000
  C   C134      1.0  0.05554  0.49015  0.08663  1.0000
  H   H103      1.0  0.18719  0.35866  0.42844  1.0000
  C   C135      1.0  0.06005  0.33937  0.01498  1.0000
  C   C136      1.0  0.18529  0.39133  0.40760  1.0000
  C   C137      1.0  0.01583  0.27548  0.33474  1.0000
  H   H104      1.0  0.25000  0.04225  0.40049  1.0000
  Fe  Fe10      1.0  0.11956  0.43981  0.02106  1.0000
  H   H105      1.0  0.04419  0.27734  0.46050  1.0000
  C   C138      1.0  0.32542  0.01423  0.04995  1.0000
  C   C139      1.0  0.18532  0.13221  0.05706  1.0000
  C   C140      1.0  0.25346  0.09543  0.51149  1.0000
  C   C141      1.0  0.01681  0.33357  0.48344  1.0000
  H   H106      1.0  0.24286  0.02312  0.20118  1.0000
  C   C142      1.0  0.22611  0.13906  0.02272  1.0000
  C   C143      1.0  0.15741  0.16045  0.45142  1.0000
  H   H107      1.0  0.01510  0.36781  0.03991  1.0000
  S   S21       1.0  0.13573  0.40615  0.02236  1.0000
  H   H108      1.0  0.24272  0.08157  0.51089  1.0000
  C   C144      1.0  0.14373  0.16889  0.42143  1.0000
  C   C145      1.0  0.01085  0.31168  0.48039  1.0000
  H   H109      1.0  0.01125  0.31479  0.19398  1.0000
  C   C146      1.0  0.32401  0.01030  0.13293  1.0000
  C   C147      1.0  0.29443  0.00044  0.19363  1.0000
  H   H110      1.0  0.01496  0.21631  0.18580  1.0000
  H   H111      1.0  0.19879  0.25728  0.49811  1.0000
  H   H112      1.0  0.16273  0.04989  0.51147  1.0000
  P   P6        1.0  0.00553  0.27026  0.50884  1.0000
  C   C148      1.0  0.25568  0.01062  0.19901  1.0000
  H   H113      1.0  0.00315  0.30542  0.45300  1.0000
  H   H114      1.0  0.32676  0.01598  0.01810  1.0000
  H   H115      1.0  0.00334  0.21586  0.39657  1.0000
  C   C149      1.0  0.00419  0.23955  0.44554  1.0000
  H   H116      1.0  0.32280  0.16723  0.01269  1.0000
  H   H117      1.0  0.20253  0.16355  0.62065  1.0000
  S   S22       1.0  0.13797  0.38126  0.91444  1.0000
  Fe  Fe11      1.0  0.09091  0.29211  0.63677  1.0000
  S   S23       1.0  0.09676  0.25697  0.65082  1.0000
  S   S24       1.0  0.07924  0.30464  0.57719  1.0000
  Fe  Fe12      1.0  0.09737  0.30821  0.72422  1.0000
  S   S25       1.0  0.10336  0.27410  0.74515  1.0000
  S   S26       1.0  0.08975  0.33922  0.76087  1.0000
  Fe  Fe13      1.0  0.12431  0.26944  0.69061  1.0000
  S   S27       1.0  0.15935  0.25568  0.68916  1.0000
  Fe  Fe14      1.0  0.07525  0.26443  0.70348  1.0000
  S   S28       1.0  0.04809  0.24191  0.72109  1.0000
  S   S29       1.0  0.12011  0.30444  0.67233  1.0000
  S   S30       1.0  0.06771  0.29868  0.68685  1.0000
  Fe  Fe15      1.0  0.23524  0.09165  0.68222  1.0000
  S   S31       1.0  0.27102  0.09984  0.68378  1.0000
  S   S32       1.0  0.22145  0.05881  0.66303  1.0000
  Fe  Fe16      1.0  0.22068  0.13897  0.70220  1.0000
  S   S33       1.0  0.25580  0.15074  0.70583  1.0000
  S   S34       1.0  0.18699  0.15588  0.70890  1.0000
  Fe  Fe17      1.0  0.26048  0.12933  0.65022  1.0000
  S   S35       1.0  0.27770  0.13926  0.59460  1.0000
  Fe  Fe18      1.0  0.26363  0.12002  0.73950  1.0000
  S   S36       1.0  0.28589  0.11078  0.79278  1.0000
  S   S37       1.0  0.22524  0.11984  0.64476  1.0000
  S   S38       1.0  0.22807  0.10978  0.73969  1.0000
  C   C150      1.0  0.27219  0.12432  0.54943  1.0000
  C   C151      1.0  0.16055  0.28908  0.78497  1.0000
  C   C152      1.0  0.20067  0.03165  0.57181  1.0000
  H   H118      1.0  0.26691  0.02730  0.61641  1.0000
  C   C153      1.0  0.21576  0.21829  0.57280  1.0000
  P   P7        1.0  0.26189  0.01191  0.53400  1.0000
  C   C154      1.0  0.20630  0.17871  0.60686  1.0000
  H   H119      1.0  0.25021  0.10170  0.57482  1.0000
  C   C155      1.0  0.02109  0.24789  0.70304  1.0000
  H   H120      1.0  0.03055  0.27424  0.66682  1.0000
  C   C156      1.0  0.08936  0.29187  0.53346  1.0000
  H   H121      1.0  0.12706  0.16084  0.59008  1.0000
  C   C157      1.0  0.23671  0.15997  0.51507  1.0000
  C   C158      1.0  0.32867  0.14137  0.89499  1.0000
  H   H122      1.0  0.19336  0.04599  0.58635  1.0000
  C   C159      1.0  0.10592  0.27583  0.53539  1.0000
  H   H123      1.0  0.10449  0.48680  0.98137  1.0000
  H   H124      1.0  0.29412  0.15681  0.81796  1.0000
  H   H125      1.0  0.18260  0.31411  0.56968  1.0000
  H   H126      1.0  0.11230  0.27073  0.56403  1.0000
  C   C160      1.0  0.16670  0.22780  0.69357  1.0000
  C   C161      1.0  0.18909  0.22150  0.69319  1.0000
  C   C162      1.0  0.19563  0.19954  0.69750  1.0000
  C   C163      1.0  0.17976  0.18363  0.70184  1.0000
  C   C164      1.0  0.15733  0.18990  0.70161  1.0000
  C   C165      1.0  0.15080  0.21187  0.69749  1.0000
  H   H127      1.0  0.20150  0.23369  0.68994  1.0000
  H   H128      1.0  0.21293  0.19496  0.69784  1.0000
  H   H129      1.0  0.14494  0.17772  0.70515  1.0000
  H   H130      1.0  0.13353  0.21654  0.69794  1.0000
  C   C166      1.0  0.02636  0.34198  0.51886  1.0000
  C   C167      1.0  0.23418  0.03504  0.68146  1.0000
  C   C168      1.0  0.25220  0.03630  0.70800  1.0000
  C   C169      1.0  0.17176  0.30180  0.75849  1.0000
  H   H131      1.0  0.25878  0.05201  0.71691  1.0000
  C   C170      1.0  0.12447  0.36972  0.87175  1.0000
  C   C171      1.0  0.10248  0.37492  0.86249  1.0000
  C   C172      1.0  0.09214  0.36543  0.82838  1.0000
  C   C173      1.0  0.10359  0.35038  0.80356  1.0000
  C   C174      1.0  0.12560  0.34514  0.81283  1.0000
  C   C175      1.0  0.13602  0.35495  0.84666  1.0000
  H   H132      1.0  0.09362  0.38643  0.88150  1.0000
  H   H133      1.0  0.07516  0.36966  0.82145  1.0000
  H   H134      1.0  0.13464  0.33377  0.79376  1.0000
  H   H135      1.0  0.15307  0.35110  0.85366  1.0000
  H   H136      1.0  0.24174  0.14115  0.00850  1.0000
  H   H137      1.0  0.19630  0.33706  0.82520  1.0000
  C   C176      1.0  0.02380  0.30667  0.54837  1.0000
  P   P8        1.0  0.17431  0.22290  0.53576  1.0000
  C   C177      1.0  0.30176  0.12355  0.83198  1.0000
  H   H138      1.0  0.08670  0.29164  0.99208  1.0000
  C   C178      1.0  0.31653  0.15502  0.86924  1.0000
  H   H139      1.0  0.16578  0.37348  0.57581  1.0000
  C   C179      1.0  0.15683  0.36099  0.55902  1.0000
  C   C180      1.0  0.18656  0.32348  0.81397  1.0000
  C   C181      1.0  0.16770  0.28441  0.58692  1.0000
  C   C182      1.0  0.18079  0.29686  0.56302  1.0000
  C   C183      1.0  0.01707  0.26486  0.67698  1.0000
  H   H140      1.0  0.19322  0.32895  0.75232  1.0000
  C   C184      1.0  0.11018  0.30447  0.86789  1.0000
  C   C185      1.0  0.31367  0.11006  0.85806  1.0000
  C   C186      1.0  0.22601  0.08226  0.98631  1.0000
  C   C187      1.0  0.01186  0.34006  0.73279  1.0000
  C   C188      1.0  0.04070  0.25393  0.55348  1.0000
  C   C189      1.0  0.17796  0.12260  0.57458  1.0000
  H   H141      1.0  0.03370  0.35348  0.98067  1.0000
  H   H142      1.0  0.14162  0.25789  0.93787  1.0000
  H   H143      1.0  0.32445  0.05464  0.76078  1.0000
  C   C190      1.0  0.02319  0.37288  0.78882  1.0000
  C   C191      1.0  0.14930  0.14614  0.54730  1.0000
  H   H144      1.0  0.06910  0.46962  0.93599  1.0000
  H   H145      1.0  0.15943  0.29192  0.61234  1.0000
  C   C192      1.0  0.32946  0.05221  0.93990  1.0000
  H   H146      1.0  0.30511  0.07977  0.53379  1.0000
  C   C193      1.0  0.17636  0.25196  0.54623  1.0000
  H   H147      1.0  0.22321  0.09826  0.97453  1.0000
  C   C194      1.0  0.28594  0.05629  0.61628  1.0000
  C   C195      1.0  0.27547  0.03842  0.59800  1.0000
  C   C196      1.0  0.13112  0.20889  0.51804  1.0000
  C   C197      1.0  0.18969  0.26463  0.52263  1.0000
  C   C198      1.0  0.10097  0.23355  0.82327  1.0000
  C   C199      1.0  0.13415  0.32904  0.55762  1.0000
  H   H148      1.0  0.06835  0.24158  0.58732  1.0000
  C   C200      1.0  0.12956  0.29694  0.88693  1.0000
  C   C201      1.0  0.01456  0.29803  0.51268  1.0000
  H   H149      1.0  0.02653  0.29663  0.57401  1.0000
  C   C202      1.0  0.02147  0.39903  0.89428  1.0000
  C   C203      1.0  0.28048  0.01289  0.83432  1.0000
  H   H150      1.0  0.00767  0.32748  0.71060  1.0000
  C   C204      1.0  0.06095  0.48426  0.94767  1.0000
  C   C205      1.0  0.16239  0.29341  0.82626  1.0000
  H   H151      1.0  0.15545  0.25302  0.59805  1.0000
  C   C206      1.0  0.27705  0.13884  0.93867  1.0000
  H   H152      1.0  0.17078  0.01330  0.57093  1.0000
  C   C207      1.0  0.29653  0.07127  0.59317  1.0000
  C   C208      1.0  0.22214  0.03773  0.84486  1.0000
  C   C209      1.0  0.22791  0.04645  0.80865  1.0000
  C   C210      1.0  0.24192  0.06422  0.80852  1.0000
  C   C211      1.0  0.25011  0.07331  0.84445  1.0000
  C   C212      1.0  0.24466  0.06456  0.88098  1.0000
  C   C213      1.0  0.23057  0.04664  0.88095  1.0000
  P   P9        1.0  0.25713  0.07545  0.92678  1.0000
  C   C214      1.0  0.24140  0.06772  0.96894  1.0000
  C   C215      1.0  0.28503  0.06506  0.93209  1.0000
  C   C216      1.0  0.29525  0.06413  0.97003  1.0000
  H   H153      1.0  0.26814  0.02505  0.84233  1.0000
  H   H154      1.0  0.12550  0.31674  0.57325  1.0000
  H   H155      1.0  0.00631  0.22213  0.73475  1.0000
  C   C217      1.0  0.29736  0.05953  0.89823  1.0000
  C   C218      1.0  0.31739  0.05765  0.97378  1.0000
  H   H156      1.0  0.19588  0.26979  0.86086  1.0000
  C   C219      1.0  0.10343  0.32989  0.92322  1.0000
  C   C220      1.0  0.24437  0.04687  0.98445  1.0000
  C   C221      1.0  0.25801  0.10484  0.92489  1.0000
  C   C222      1.0  0.24130  0.11640  0.90447  1.0000
  C   C223      1.0  0.24271  0.13894  0.90064  1.0000
  C   C224      1.0  0.26064  0.15013  0.91755  1.0000
  H   H157      1.0  0.21977  0.23355  0.55975  1.0000
  C   C225      1.0  0.27578  0.11631  0.94241  1.0000
  C   C226      1.0  0.00316  0.36470  0.90063  1.0000
  S   S39       1.0  0.10535  0.43468  0.95918  1.0000
  H   H158      1.0  0.24656  0.07094  0.78050  1.0000
  H   H159      1.0  0.26101  0.08702  0.84370  1.0000
  H   H160      1.0  0.22606  0.03945  0.90849  1.0000
  H   H161      1.0  0.06142  0.47308  0.00756  1.0000
  H   H162      1.0  0.20767  0.23921  0.97258  1.0000
  H   H163      1.0  0.24645  0.16531  0.54094  1.0000
  C   C227      1.0  0.02146  0.41509  0.99152  1.0000
  H   H164      1.0  0.29029  0.06088  0.86860  1.0000
  C   C228      1.0  0.16546  0.26211  0.57859  1.0000
  C   C229      1.0  0.31949  0.05321  0.90218  1.0000
  H   H165      1.0  0.25604  0.03532  0.97125  1.0000
  H   H166      1.0  0.22752  0.10795  0.89042  1.0000
  H   H167      1.0  0.23027  0.14763  0.88340  1.0000
  H   H168      1.0  0.26217  0.16745  0.91339  1.0000
  H   H169      1.0  0.31282  0.09264  0.85370  1.0000
  H   H170      1.0  0.28914  0.10799  0.95786  1.0000
  C   C230      1.0  0.12305  0.32307  0.94176  1.0000
  C   C231      1.0  0.13615  0.30674  0.92368  1.0000
  P   P10       1.0  0.14770  0.27773  0.86129  1.0000
  C   C232      1.0  0.16689  0.26565  0.89638  1.0000
  C   C233      1.0  0.18949  0.26393  0.88833  1.0000
  C   C234      1.0  0.20412  0.25444  0.91580  1.0000
  C   C235      1.0  0.19629  0.24643  0.95123  1.0000
  C   C236      1.0  0.17375  0.24769  0.95903  1.0000
  C   C237      1.0  0.15906  0.25711  0.93157  1.0000
  C   C238      1.0  0.17542  0.31076  0.84054  1.0000
  H   H171      1.0  0.12850  0.33114  0.96941  1.0000
  H   H172      1.0  0.15176  0.30248  0.93784  1.0000
  C   C239      1.0  0.19474  0.20937  0.56686  1.0000
  H   H173      1.0  0.22157  0.25330  0.90956  1.0000
  C   C240      1.0  0.20674  0.13991  0.99935  1.0000
  Fe  Fe19      1.0  0.07641  0.42161  0.99078  1.0000
  H   H174      1.0  0.17667  0.31471  0.87222  1.0000
  C   C241      1.0  0.03775  0.22870  0.60691  1.0000
  C   C242      1.0  0.01772  0.25404  0.54766  1.0000
  C   C243      1.0  0.01490  0.22826  0.60060  1.0000
  C   C244      1.0  0.03804  0.36632  0.75935  1.0000
  C   C245      1.0  0.03239  0.34990  0.73141  1.0000
  H   H175      1.0  0.32908  0.04958  0.87594  1.0000
  C   C246      1.0  0.30317  0.14617  0.83778  1.0000
  C   C247      1.0  0.31262  0.00227  0.67048  1.0000
  S   S40       1.0  0.04181  0.43224  0.97466  1.0000
  H   H176      1.0  0.04540  0.21961  0.63086  1.0000
  H   H177      1.0  0.00489  0.21874  0.61961  1.0000
  H   H178      1.0  0.02763  0.38567  0.81033  1.0000
  C   C248      1.0  0.30025  0.01924  0.81790  1.0000
  C   C249      1.0  0.02982  0.32853  0.55127  1.0000
  H   H179      1.0  0.08720  0.19914  0.57592  1.0000
  H   H180      1.0  0.28647  0.06926  0.99655  1.0000
  C   C250      1.0  0.19174  0.28698  0.53084  1.0000
  H   H181      1.0  0.09375  0.34308  0.93669  1.0000
  H   H182      1.0  0.10540  0.20492  0.78511  1.0000
  C   C251      1.0  0.22597  0.01451  0.66968  1.0000
  C   C252      1.0  0.04477  0.33964  0.98326  1.0000
  H   H183      1.0  0.14579  0.14408  0.64836  1.0000
  H   H184      1.0  0.17759  0.11911  0.63843  1.0000
  C   C253      1.0  0.29722  0.06795  0.55180  1.0000
  H   H185      1.0  0.29131  0.14740  0.95074  1.0000
  H   H186      1.0  0.32115  0.01662  0.61536  1.0000
  C   C254      1.0  0.04959  0.30618  0.80225  1.0000
  C   C255      1.0  0.05136  0.28359  0.80452  1.0000
  C   C256      1.0  0.04463  0.27342  0.83863  1.0000
  C   C257      1.0  0.03637  0.28593  0.87070  1.0000
  C   C258      1.0  0.03540  0.30879  0.86931  1.0000
  C   C259      1.0  0.04177  0.31881  0.83450  1.0000
  P   P11       1.0  0.02551  0.32479  0.91168  1.0000
  C   C260      1.0  0.04434  0.32268  0.95424  1.0000
  C   C261      1.0  0.02363  0.35356  0.90124  1.0000
  C   C262      1.0  0.04301  0.36551  0.89803  1.0000
  C   C263      1.0  0.04188  0.38815  0.89481  1.0000
  C   C264      1.0  0.10389  0.20302  0.56815  1.0000
  H   H187      1.0  0.27534  0.01834  0.74433  1.0000
  C   C265      1.0  0.26160  0.01719  0.72341  1.0000
  C   C266      1.0  0.05942  0.30513  0.95800  1.0000
  H   H188      1.0  0.23966  0.17921  0.63016  1.0000
  H   H189      1.0  0.15301  0.21637  0.61185  1.0000
  H   H190      1.0  0.33458  0.09166  0.78368  1.0000
  C   C267      1.0  0.11963  0.20755  0.59813  1.0000
  C   C268      1.0  0.30962  0.99845  0.93057  1.0000
  C   C269      1.0  0.11334  0.21864  0.80019  1.0000
  H   H191      1.0  0.04411  0.34472  0.70888  1.0000
  H   H192      1.0  0.17449  0.18176  0.57884  1.0000
  H   H193      1.0  0.05404  0.37383  0.75818  1.0000
  H   H194      1.0  0.21201  0.01343  0.64916  1.0000
  H   H195      1.0  0.05422  0.31390  0.77525  1.0000
  H   H196      1.0  0.05758  0.27398  0.77950  1.0000
  H   H197      1.0  0.04548  0.25582  0.83977  1.0000
  H   H198      1.0  0.03072  0.27779  0.89661  1.0000
  C   C270      1.0  0.25775  0.10680  0.54788  1.0000
  H   H199      1.0  0.05903  0.35749  0.89959  1.0000
  H   H200      1.0  0.05684  0.39748  0.89422  1.0000
  H   H201      1.0  0.21129  0.02392  0.84479  1.0000
  C   C271      1.0  0.14126  0.15018  0.58567  1.0000
  Fe  Fe20      1.0  0.11912  0.40044  0.96226  1.0000
  H   H202      1.0  0.06013  0.29199  0.93601  1.0000
  H   H203      1.0  0.28543  0.05866  0.64836  1.0000
  H   H204      1.0  0.08341  0.23130  0.82604  1.0000
  H   H205      1.0  0.03751  0.33488  0.57862  1.0000
  S   S41       1.0  0.08874  0.38711  0.98801  1.0000
  H   H206      1.0  0.11524  0.20710  0.62923  1.0000
  H   H207      1.0  0.22164  0.03943  0.78058  1.0000
  H   H208      1.0  0.04092  0.33631  0.83200  1.0000
  C   C272      1.0  0.13600  0.22141  0.79663  1.0000
  C   C273      1.0  0.09694  0.32049  0.88644  1.0000
  C   C274      1.0  0.11121  0.25137  0.84246  1.0000
  H   H209      1.0  0.17025  0.29832  0.72666  1.0000
  H   H210      1.0  0.16373  0.24145  0.81138  1.0000
  C   C275      1.0  0.14571  0.34512  0.57919  1.0000
  H   H211      1.0  0.08235  0.32656  0.87114  1.0000
  H   H212      1.0  0.10568  0.29862  0.83802  1.0000
  H   H213      1.0  0.14571  0.20968  0.77934  1.0000
  C   C276      1.0  0.27566  0.03522  0.55638  1.0000
  H   H214      1.0  0.20757  0.14307  0.96783  1.0000
  C   C277      1.0  0.13382  0.25481  0.83749  1.0000
  H   H215      1.0  0.15044  0.27607  0.77282  1.0000
  C   C278      1.0  0.28703  0.04989  0.53341  1.0000
  H   H216      1.0  0.10136  0.26229  0.86095  1.0000
  C   C279      1.0  0.18474  0.31899  0.77294  1.0000
  C   C280      1.0  0.14619  0.23943  0.81504  1.0000
  H   H217      1.0  0.02072  0.41666  0.89338  1.0000
  C   C281      1.0  0.05065  0.24129  0.58291  1.0000
  H   H218      1.0  0.31758  0.17251  0.87344  1.0000
  H   H219      1.0  0.14597  0.34526  0.61153  1.0000
  C   C282      1.0  0.19030  0.18928  0.58351  1.0000
  C   C283      1.0  0.23190  0.20742  0.59548  1.0000
  C   C284      1.0  0.16977  0.12663  0.61283  1.0000
  C   C285      1.0  0.22716  0.18765  0.61256  1.0000
  C   C286      1.0  0.22303  0.03153  0.56264  1.0000
  C   C287      1.0  0.07472  0.30487  0.98988  1.0000
  C   C288      1.0  0.15165  0.14063  0.61846  1.0000
  H   H220      1.0  0.24812  0.21428  0.59993  1.0000
  C   C289      1.0  0.14105  0.21292  0.58813  1.0000
  H   H221      1.0  0.03110  0.35889  0.52131  1.0000
  H   H222      1.0  0.30271  0.03633  0.81333  1.0000
  H   H223      1.0  0.23242  0.04604  0.56963  1.0000
  H   H224      1.0  0.21229  0.14550  0.54996  1.0000
  H   H225      1.0  0.15628  0.08950  0.52105  1.0000
  C   C290      1.0  0.14691  0.21416  0.54797  1.0000
  C   C291      1.0  0.32711  0.11881  0.88909  1.0000
  H   H226      1.0  0.19223  0.11186  0.57087  1.0000
  C   C292      1.0  0.05660  0.48629  0.98841  1.0000
  C   C293      1.0  0.10969  0.20352  0.52814  1.0000
  C   C294      1.0  0.31609  0.00352  0.80607  1.0000
  C   C295      1.0  0.21721  0.14871  0.52010  1.0000
  C   C296      1.0  0.23298  0.01278  0.54534  1.0000
  C   C297      1.0  0.16795  0.13252  0.54147  1.0000
  H   H227      1.0  0.16766  0.24140  0.98643  1.0000
  C   C298      1.0  0.18802  0.01322  0.56326  1.0000
  H   H228      1.0  0.32567  0.05791  0.00271  1.0000
  C   C299      1.0  0.31785  0.00039  0.71098  1.0000
  H   H229      1.0  0.00888  0.26322  0.78394  1.0000
  H   H230      1.0  0.14084  0.15373  0.52261  1.0000
  H   H231      1.0  0.30387  0.08565  0.60717  1.0000
  H   H232      1.0  0.00710  0.30144  0.76538  1.0000
  H   H233      1.0  0.05097  0.26381  0.53552  1.0000
  H   H234      1.0  0.17135  0.13729  0.99841  1.0000
  C   C300      1.0  0.32538  0.01511  0.64674  1.0000
  H   H235      1.0  0.29339  0.14389  0.51510  1.0000
  C   C301      1.0  0.15613  0.36096  0.51727  1.0000
  H   H236      1.0  0.30301  0.01195  0.91396  1.0000
  C   C302      1.0  0.28217  0.13040  0.51418  1.0000
  C   C303      1.0  0.13352  0.32889  0.51594  1.0000
  C   C304      1.0  0.00490  0.24070  0.57079  1.0000
  C   C305      1.0  0.33559  0.01179  0.72843  1.0000
  H   H237      1.0  0.33636  0.10801  0.90819  1.0000
  H   H238      1.0  0.20200  0.29660  0.51243  1.0000
  C   C306      1.0  0.00335  0.23534  0.71467  1.0000
  C   C307      1.0  0.02716  0.39628  0.01197  1.0000
  Fe  Fe21      1.0  0.12368  0.64545  0.04381  1.0000
  C   C308      1.0  0.24539  0.96600  0.01556  1.0000
  S   S42       1.0  0.13995  0.65620  0.10272  1.0000
  H   H239      1.0  0.07309  0.72072  0.15811  1.0000
  H   H240      1.0  0.23204  0.90013  0.44538  1.0000
  H   H241      1.0  0.20529  0.82630  0.40832  1.0000
  S   S43       1.0  0.09433  0.62399  0.04904  1.0000
  H   H242      1.0  0.21515  0.97995  0.03858  1.0000
  Fe  Fe22      1.0  0.27960  0.91711  0.28419  1.0000
  S   S44       1.0  0.24592  0.90880  0.25985  1.0000
  S   S45       1.0  0.30611  0.92696  0.24085  1.0000
  Fe  Fe23      1.0  0.26268  0.92067  0.37109  1.0000
  S   S46       1.0  0.22808  0.91264  0.35148  1.0000
  S   S47       1.0  0.26662  0.93356  0.43531  1.0000
  Fe  Fe24      1.0  0.24379  0.88694  0.31214  1.0000
  S   S48       1.0  0.23146  0.85216  0.30718  1.0000
  Fe  Fe25      1.0  0.23336  0.93529  0.30169  1.0000
  S   S49       1.0  0.20593  0.95824  0.28221  1.0000
  S   S50       1.0  0.27864  0.89342  0.33446  1.0000
  S   S51       1.0  0.26683  0.94508  0.32322  1.0000
  Fe  Fe26      1.0  0.11220  0.75596  0.25859  1.0000
  S   S52       1.0  0.09614  0.78924  0.26124  1.0000
  S   S53       1.0  0.11873  0.74674  0.19343  1.0000
  Fe  Fe27      1.0  0.10605  0.75127  0.34901  1.0000
  S   S54       1.0  0.08907  0.78385  0.35688  1.0000
  S   S55       1.0  0.10813  0.72535  0.39581  1.0000
  Fe  Fe28      1.0  0.07099  0.77480  0.29969  1.0000
  S   S56       1.0  0.03526  0.77518  0.27948  1.0000
  Fe  Fe29      1.0  0.11604  0.79536  0.31749  1.0000
  S   S57       1.0  0.13063  0.82890  0.32953  1.0000
  S   S58       1.0  0.08597  0.74131  0.29434  1.0000
  S   S59       1.0  0.13424  0.76311  0.31263  1.0000
  C   C309      1.0  0.01357  0.78183  0.31179  1.0000
  H   H243      1.0  0.11952  0.57191  0.14370  1.0000
  C   C310      1.0  0.01529  0.79834  0.34138  1.0000
  P   P12       1.0  0.18494  0.89975  0.46326  1.0000
  H   H244      1.0  0.03073  0.80664  0.34625  1.0000
  C   C311      1.0  0.12143  0.88040  0.48102  1.0000
  H   H245      1.0  0.11529  0.68716  0.34003  1.0000
  H   H246      1.0  0.16807  0.83958  0.03588  1.0000
  C   C312      1.0  0.17774  0.79228  0.47392  1.0000
  C   C313      1.0  0.00748  0.68512  0.28307  1.0000
  C   C314      1.0  0.20340  0.84591  0.31351  1.0000
  C   C315      1.0  0.18738  0.86225  0.31991  1.0000
  C   C316      1.0  0.16514  0.85674  0.32379  1.0000
  C   C317      1.0  0.15874  0.83487  0.32256  1.0000
  C   C318      1.0  0.17474  0.81850  0.31614  1.0000
  C   C319      1.0  0.19696  0.82403  0.31144  1.0000
  H   H247      1.0  0.19210  0.87915  0.32142  1.0000
  H   H248      1.0  0.15278  0.86951  0.32738  1.0000
  H   H249      1.0  0.17003  0.80160  0.31451  1.0000
  H   H250      1.0  0.20922  0.81130  0.30619  1.0000
  C   C320      1.0  0.03818  0.63168  0.25530  1.0000
  C   C321      1.0  0.10636  0.72581  0.44862  1.0000
  C   C322      1.0  0.05802  0.75643  0.10409  1.0000
  H   H251      1.0  0.10759  0.69081  0.44826  1.0000
  H   H252      1.0  0.10562  0.76062  0.45951  1.0000
  H   H253      1.0  0.16102  0.88335  0.39247  1.0000
  C   C323      1.0  0.26943  0.91900  0.47983  1.0000
  H   H254      1.0  0.33201  0.94350  0.17863  1.0000
  H   H255      1.0  0.01659  0.76038  0.19056  1.0000
  C   C324      1.0  0.10499  0.62491  0.16311  1.0000
  C   C325      1.0  0.01065  0.69920  0.10904  1.0000
  C   C326      1.0  0.10628  0.70560  0.46657  1.0000
  C   C327      1.0  0.16774  0.80959  0.49569  1.0000
  C   C328      1.0  0.13219  0.68090  0.12806  1.0000
  C   C329      1.0  0.13373  0.68246  0.16998  1.0000
  C   C330      1.0  0.12890  0.70227  0.19077  1.0000
  C   C331      1.0  0.12324  0.72089  0.16960  1.0000
  C   C332      1.0  0.12172  0.71930  0.12773  1.0000
  C   C333      1.0  0.12583  0.69935  0.10708  1.0000
  H   H256      1.0  0.13895  0.66835  0.18642  1.0000
  H   H257      1.0  0.13025  0.70331  0.22298  1.0000
  H   H258      1.0  0.11742  0.73362  0.11113  1.0000
  H   H259      1.0  0.12483  0.69843  0.07485  1.0000
  H   H260      1.0  0.28799  0.89194  0.45458  1.0000
  H   H261      1.0  0.30121  0.96567  0.19196  1.0000
  H   H262      1.0  0.03325  0.65922  0.33035  1.0000
  C   C334      1.0  0.21120  0.84228  0.41744  1.0000
  H   H263      1.0  0.13701  0.55207  0.04971  1.0000
  H   H264      1.0  0.24754  0.83759  0.50195  1.0000
  H   H265      1.0  0.02062  0.60504  0.09239  1.0000
  C   C335      1.0  0.20088  0.96183  0.39572  1.0000
  C   C336      1.0  0.08430  0.68225  0.30876  1.0000
  C   C337      1.0  0.04696  0.75423  0.40919  1.0000
  C   C338      1.0  0.12779  0.49808  0.02601  1.0000
  H   H266      1.0  0.23329  0.98414  0.20495  1.0000
  H   H267      1.0  0.12347  0.86930  0.38114  1.0000
  C   C339      1.0  0.02070  0.72746  0.38396  1.0000
  C   C340      1.0  0.04256  0.73430  0.38967  1.0000
  C   C341      1.0  0.00998  0.49756  0.05508  1.0000
  C   C342      1.0  0.04950  0.76594  0.17258  1.0000
  C   C343      1.0  0.33359  0.92600  0.17677  1.0000
  C   C344      1.0  0.07038  0.69708  0.10945  1.0000
  H   H268      1.0  0.08037  0.64185  0.42150  1.0000
  H   H269      1.0  0.17674  0.88621  0.12969  1.0000
  C   C345      1.0  0.07125  0.70367  0.14966  1.0000
  H   H270      1.0  0.01903  0.53132  0.12337  1.0000
  C   C346      1.0  0.18887  0.90574  0.23893  1.0000
  H   H271      1.0  0.08867  0.56650  0.18949  1.0000
  C   C347      1.0  0.14986  0.88317  0.41714  1.0000
  H   H272      1.0  0.27204  0.97547  0.40126  1.0000
  H   H273      1.0  0.06800  0.54137  0.03488  1.0000
  C   C348      1.0  0.01730  0.70137  0.30768  1.0000
  C   C349      1.0  0.02926  0.71770  0.29003  1.0000
  C   C350      1.0  0.03148  0.71772  0.24864  1.0000
  H   H274      1.0  0.06630  0.77060  0.49006  1.0000
  C   C351      1.0  0.06098  0.67092  0.43373  1.0000
  H   H275      1.0  0.29571  0.97052  0.06182  1.0000
  H   H276      1.0  0.06388  0.75921  0.41382  1.0000
  C   C352      1.0  0.15207  0.82302  0.47662  1.0000
  C   C353      1.0  0.22602  0.88402  0.43819  1.0000
  C   C354      1.0  0.03168  0.62765  0.04975  1.0000
  H   H277      1.0  0.05629  0.72420  0.37939  1.0000
  H   H278      1.0  0.24389  0.83607  0.39543  1.0000
  H   H279      1.0  0.10986  0.64109  0.15573  1.0000
  C   C355      1.0  0.24043  0.86851  0.42112  1.0000
  C   C356      1.0  0.17805  0.93030  0.40307  1.0000
  C   C357      1.0  0.04456  0.68514  0.41958  1.0000
  C   C358      1.0  0.20396  0.87892  0.44453  1.0000
  H   H280      1.0  0.24000  0.98877  0.31214  1.0000
  C   C359      1.0  0.33185  0.99288  0.10867  1.0000
  H   H281      1.0  0.13021  0.60938  0.12746  1.0000
  P   P13       1.0  0.07161  0.64559  0.20668  1.0000
  H   H282      1.0  0.03688  0.73056  0.30796  1.0000
  H   H283      1.0  0.04080  0.73046  0.23551  1.0000
  H   H284      1.0  0.28496  0.93079  0.07112  1.0000
  H   H285      1.0  0.06787  0.64241  0.11917  1.0000
  H   H286      1.0  0.11745  0.64354  0.23764  1.0000
  H   H287      1.0  0.19244  0.91139  0.26933  1.0000
  C   C360      1.0  0.02168  0.70152  0.22443  1.0000
  C   C361      1.0  0.32000  0.88887  0.04840  1.0000
  C   C362      1.0  0.01730  0.62357  0.26251  1.0000
  H   H288      1.0  0.06803  0.59821  0.21782  1.0000
  H   H289      1.0  0.30430  0.90009  0.10233  1.0000
  H   H290      1.0  0.05526  0.59081  0.12459  1.0000
  C   C363      1.0  0.02961  0.76766  0.42257  1.0000
  C   C364      1.0  0.23296  0.84773  0.41033  1.0000
  C   C365      1.0  0.06735  0.65262  0.41071  1.0000
  C   C366      1.0  0.02103  0.75083  0.12814  1.0000
  C   C367      1.0  0.06459  0.76460  0.14176  1.0000
  H   H291      1.0  0.06213  0.63417  0.35582  1.0000
  C   C368      1.0  0.03636  0.74954  0.09727  1.0000
  H   H292      1.0  0.31654  0.88064  0.22142  1.0000
  C   C369      1.0  0.10684  0.67862  0.31548  1.0000
  H   H293      1.0  0.18012  0.85298  0.44005  1.0000
  H   H294      1.0  0.04167  0.73982  0.49956  1.0000
  C   C370      1.0  0.18321  0.84290  0.05255  1.0000
  C   C371      1.0  0.26775  0.99119  0.45906  1.0000
  C   C372      1.0  0.18348  0.94877  0.38225  1.0000
  H   H295      1.0  0.25722  0.87287  0.41507  1.0000
  C   C373      1.0  0.15696  0.89036  0.45536  1.0000
  C   C374      1.0  0.07347  0.67171  0.27653  1.0000
  C   C375      1.0  0.28107  0.89917  0.48145  1.0000
  H   H296      1.0  0.26272  0.95556  0.20108  1.0000
  C   C376      1.0  0.08514  0.65741  0.25071  1.0000
  C   C377      1.0  0.29576  0.92060  0.05307  1.0000
  H   H297      1.0  0.05472  0.77222  0.20182  1.0000
  H   H298      1.0  0.04985  0.63364  0.27991  1.0000
  C   C378      1.0  0.26680  0.97259  0.19877  1.0000
  C   C379      1.0  0.18024  0.89139  0.16023  1.0000
  H   H299      1.0  0.08148  0.76961  0.14735  1.0000
  H   H300      1.0  0.16422  0.92276  0.15326  1.0000
  C   C380      1.0  0.24285  0.98706  0.07787  1.0000
  C   C381      1.0  0.17308  0.91216  0.17346  1.0000
  C   C382      1.0  0.10784  0.65391  0.25764  1.0000
  C   C383      1.0  0.08704  0.62209  0.18786  1.0000
  C   C384      1.0  0.00336  0.74132  0.39646  1.0000
  H   H301      1.0  0.03298  0.78330  0.43708  1.0000
  C   C385      1.0  0.11443  0.87368  0.44267  1.0000
  C   C386      1.0  0.19016  0.92462  0.43754  1.0000
  C   C387      1.0  0.20976  0.98648  0.27758  1.0000
  C   C388      1.0  0.15621  0.80157  0.41517  1.0000
  C   C389      1.0  0.32227  0.91334  0.20358  1.0000
  C   C390      1.0  0.17749  0.91935  0.21276  1.0000
  C   C391      1.0  0.06863  0.65945  0.12821  1.0000
  C   C392      1.0  0.20734  0.93818  0.45126  1.0000
  C   C393      1.0  0.00784  0.76113  0.41643  1.0000
  C   C394      1.0  0.12985  0.53794  0.03476  1.0000
  H   H302      1.0  0.09810  0.86713  0.43766  1.0000
  C   C395      1.0  0.19683  0.85768  0.43498  1.0000
  H   H303      1.0  0.13414  0.82911  0.42157  1.0000
  H   H304      1.0  0.16475  0.92045  0.39139  1.0000
  H   H305      1.0  0.17469  0.95264  0.35481  1.0000
  H   H306      1.0  0.15159  0.79835  0.38417  1.0000
  C   C396      1.0  0.07002  0.66588  0.16875  1.0000
  H   H307      1.0  0.02348  0.70161  0.19241  1.0000
  C   C397      1.0  0.11859  0.66445  0.28996  1.0000
  C   C398      1.0  0.23278  0.97792  0.04348  1.0000
  H   H308      1.0  0.20555  0.97565  0.37866  1.0000
  C   C399      1.0  0.10522  0.74489  0.47299  1.0000
  H   H309      1.0  0.14977  0.51474  0.06762  1.0000
  H   H310      1.0  0.07133  0.70901  0.08654  1.0000
  H   H311      1.0  0.21725  0.93408  0.47726  1.0000
  C   C400      1.0  0.21268  0.95663  0.43041  1.0000
  H   H312      1.0  0.27193  0.97645  0.47447  1.0000
  H   H313      1.0  0.17231  0.93555  0.22305  1.0000
  C   C401      1.0  0.08149  0.60090  0.19807  1.0000
  C   C402      1.0  0.26751  0.99044  0.41732  1.0000
  C   C403      1.0  0.07129  0.68819  0.17917  1.0000
  C   C404      1.0  0.04079  0.66266  0.35923  1.0000
  H   H314      1.0  0.06985  0.75522  0.08035  1.0000
  H   H315      1.0  0.06878  0.66989  0.06760  1.0000
  H   H316      1.0  0.13619  0.66205  0.29469  1.0000
  H   H317      1.0  0.23774  0.85116  0.03844  1.0000
  C   C405      1.0  0.01573  0.61646  0.07004  1.0000
  H   H318      1.0  0.03167  0.74302  0.06797  1.0000
  H   H319      1.0  0.21115  0.82093  0.49237  1.0000
  H   H320      1.0  0.02316  0.66662  0.09761  1.0000
  H   H321      1.0  0.16762  0.84283  0.10938  1.0000
  C   C406      1.0  0.25724  0.82589  0.22595  1.0000
  C   C407      1.0  0.27210  0.84295  0.22436  1.0000
  C   C408      1.0  0.26572  0.86225  0.20613  1.0000
  C   C409      1.0  0.24447  0.86457  0.18972  1.0000
  C   C410      1.0  0.22939  0.84755  0.19126  1.0000
  C   C411      1.0  0.23594  0.82815  0.20951  1.0000
  P   P14       1.0  0.20197  0.85109  0.16997  1.0000
  C   C412      1.0  0.19194  0.87773  0.18633  1.0000
  C   C413      1.0  0.20258  0.84892  0.11613  1.0000
  C   C414      1.0  0.18303  0.84471  0.09421  1.0000
  C   C415      1.0  0.12867  0.87503  0.41077  1.0000
  C   C416      1.0  0.00987  0.67651  0.10994  1.0000
  C   C417      1.0  0.22244  0.84943  0.05399  1.0000
  C   C418      1.0  0.22232  0.85124  0.09567  1.0000
  H   H322      1.0  0.08570  0.50231  0.06339  1.0000
  C   C419      1.0  0.00847  0.62369  0.19187  1.0000
  H   H323      1.0  0.07543  0.69370  0.32812  1.0000
  H   H324      1.0  0.17954  0.77480  0.41720  1.0000
  C   C420      1.0  0.19614  0.88506  0.22576  1.0000
  C   C421      1.0  0.18367  0.83041  0.18623  1.0000
  C   C422      1.0  0.16692  0.83551  0.21344  1.0000
  C   C423      1.0  0.15208  0.81958  0.22368  1.0000
  C   C424      1.0  0.15408  0.79839  0.20762  1.0000
  C   C425      1.0  0.17077  0.79312  0.18078  1.0000
  C   C426      1.0  0.18545  0.80907  0.16993  1.0000
  H   H325      1.0  0.26196  0.81121  0.24122  1.0000
  H   H326      1.0  0.28837  0.84141  0.23809  1.0000
  H   H327      1.0  0.27706  0.87567  0.20566  1.0000
  H   H328      1.0  0.23967  0.87983  0.17644  1.0000
  H   H329      1.0  0.22455  0.81502  0.21240  1.0000
  H   H330      1.0  0.02468  0.70647  0.09586  1.0000
  C   C427      1.0  0.32476  0.89062  0.20061  1.0000
  C   C428      1.0  0.30640  0.90290  0.07090  1.0000
  H   H331      1.0  0.03996  0.69920  0.43811  1.0000
  H   H332      1.0  0.23768  0.85431  0.11160  1.0000
  H   H333      1.0  0.07303  0.69388  0.20984  1.0000
  C   C429      1.0  0.11060  0.58585  0.15645  1.0000
  C   C430      1.0  0.11660  0.60690  0.14721  1.0000
  H   H334      1.0  0.20528  0.87486  0.24625  1.0000
  H   H335      1.0  0.16516  0.85167  0.22693  1.0000
  H   H336      1.0  0.13909  0.82360  0.24447  1.0000
  H   H337      1.0  0.14271  0.78604  0.21605  1.0000
  H   H338      1.0  0.17218  0.77662  0.16841  1.0000
  H   H339      1.0  0.19821  0.80478  0.14885  1.0000
  P   P15       1.0  0.03800  0.50681  0.05542  1.0000
  C   C431      1.0  0.04212  0.53406  0.07570  1.0000
  C   C432      1.0  0.09319  0.58285  0.18219  1.0000
  C   C433      1.0  0.03475  0.68145  0.38162  1.0000
  H   H340      1.0  0.05620  0.67532  0.27092  1.0000
  C   C434      1.0  0.14261  0.88864  0.48742  1.0000
  C   C435      1.0  0.06905  0.67500  0.09877  1.0000
  H   H341      1.0  0.06910  0.67439  0.46225  1.0000
  C   C436      1.0  0.03098  0.54149  0.10992  1.0000
  C   C437      1.0  0.03554  0.56201  0.12733  1.0000
  C   C438      1.0  0.05165  0.57493  0.11127  1.0000
  C   C439      1.0  0.02914  0.63232  0.18466  1.0000
  C   C440      1.0  0.02519  0.64299  0.02176  1.0000
  C   C441      1.0  0.28875  0.97841  0.19438  1.0000
  H   H342      1.0  0.03350  0.63516  0.15420  1.0000
  C   C442      1.0  0.00960  0.68527  0.24161  1.0000
  H   H343      1.0  0.22658  0.96639  0.44029  1.0000
  C   C443      1.0  0.04410  0.63660  0.21643  1.0000
  C   C444      1.0  0.02781  0.75912  0.16593  1.0000
  C   C445      1.0  0.14631  0.81893  0.43646  1.0000
  C   C446      1.0  0.17197  0.78830  0.43382  1.0000
  C   C447      1.0  0.05709  0.64835  0.37366  1.0000
  H   H344      1.0  0.07571  0.57734  0.06534  1.0000
  H   H345      1.0  0.23306  0.99601  0.09982  1.0000
  C   C448      1.0  0.27817  0.97264  0.05630  1.0000
  C   C449      1.0  0.06306  0.56746  0.07771  1.0000
  C   C450      1.0  0.05844  0.54707  0.06014  1.0000
  C   C451      1.0  0.25026  0.98868  0.20101  1.0000
  C   C452      1.0  0.26812  0.96274  0.02241  1.0000
  C   C453      1.0  0.10474  0.70419  0.50794  1.0000
  H   H346      1.0  0.02668  0.56787  0.15333  1.0000
  C   C454      1.0  0.13705  0.51673  0.04487  1.0000
  H   H347      1.0  0.18985  0.78172  0.48813  1.0000
  H   H348      1.0  0.27348  0.99177  0.11054  1.0000
  P   P16       1.0  0.01508  0.70094  0.36142  1.0000
  C   C455      1.0  0.20290  0.84526  0.03244  1.0000
  H   H349      1.0  0.14419  0.83653  0.49258  1.0000
  H   H350      1.0  0.32832  0.87523  0.06234  1.0000
  H   H351      1.0  0.04888  0.62461  0.05620  1.0000
  H   H352      1.0  0.18018  0.98953  0.24147  1.0000
  C   C456      1.0  0.33296  0.99505  0.06742  1.0000
  H   H353      1.0  0.32246  0.97921  0.25448  1.0000
  H   H354      1.0  0.01276  0.61995  0.29260  1.0000
  C   C457      1.0  0.26560  0.98465  0.08400  1.0000
  H   H355      1.0  0.11052  0.87902  0.50591  1.0000
  C   C458      1.0  0.29904  0.92465  0.01261  1.0000
  S   S60       1.0  0.09164  0.62289  0.95178  1.0000
  C   C459      1.0  0.26938  0.93361  0.94782  1.0000
  Fe  Fe30      1.0  0.12105  0.64435  0.95265  1.0000
  S   S61       1.0  0.13475  0.65392  0.89278  1.0000
  Fe  Fe31      1.0  0.27030  0.90015  0.65910  1.0000
  S   S62       1.0  0.24070  0.92241  0.66341  1.0000
  S   S63       1.0  0.28400  0.88747  0.60010  1.0000
  Fe  Fe32      1.0  0.27395  0.89534  0.75046  1.0000
  S   S64       1.0  0.24382  0.91647  0.76043  1.0000
  C   C460      1.0  0.25158  0.92040  0.95655  1.0000
  Fe  Fe33      1.0  0.22881  0.89835  0.70717  1.0000
  S   S65       1.0  0.19307  0.88771  0.70090  1.0000
  Fe  Fe34      1.0  0.25858  0.93818  0.71586  1.0000
  S   S66       1.0  0.26535  0.97337  0.73342  1.0000
  S   S67       1.0  0.25769  0.87540  0.70057  1.0000
  S   S68       1.0  0.28949  0.91775  0.70820  1.0000
  Fe  Fe35      1.0  0.13062  0.77522  0.68739  1.0000
  S   S69       1.0  0.12771  0.73866  0.68762  1.0000
  S   S70       1.0  0.16539  0.78799  0.69652  1.0000
  Fe  Fe36      1.0  0.08071  0.78157  0.67967  1.0000
  S   S71       1.0  0.07426  0.74585  0.68007  1.0000
  S   S72       1.0  0.05505  0.80848  0.67495  1.0000
  Fe  Fe37      1.0  0.09989  0.74473  0.72976  1.0000
  S   S73       1.0  0.09246  0.73057  0.79004  1.0000
  Fe  Fe38      1.0  0.10264  0.74308  0.63771  1.0000
  S   S74       1.0  0.10096  0.71907  0.58461  1.0000
  S   S75       1.0  0.10416  0.78101  0.73212  1.0000
  S   S76       1.0  0.10762  0.77899  0.63436  1.0000
  C   C461      1.0  0.02738  0.80615  0.68926  1.0000
  C   C462      1.0  0.03842  0.66385  0.52870  1.0000
  S   S77       1.0  0.10219  0.56674  0.99288  1.0000
  C   C463      1.0  0.16092  0.78730  0.80562  1.0000
  C   C464      1.0  0.15926  0.85458  0.57545  1.0000
  C   C465      1.0  0.10336  0.72295  0.53259  1.0000
  C   C466      1.0  0.29183  0.97507  0.82658  1.0000
  H   H356      1.0  0.19594  0.73842  0.98305  1.0000
  H   H357      1.0  0.30772  0.99031  0.72862  1.0000
  H   H358      1.0  0.29474  0.87450  0.51970  1.0000
  H   H359      1.0  0.14336  0.70012  0.93203  1.0000
  H   H360      1.0  0.14786  0.81654  0.77960  1.0000
  C   C467      1.0  0.00550  0.72844  0.80943  1.0000
  H   H361      1.0  0.09134  0.52399  0.96410  1.0000
  C   C468      1.0  0.01893  0.73014  0.64110  1.0000
  C   C469      1.0  0.27684  0.89907  0.55383  1.0000
  H   H362      1.0  0.06409  0.66142  0.90579  1.0000
  C   C470      1.0  0.26413  0.91823  0.55179  1.0000
  C   C471      1.0  0.13585  0.76795  0.84640  1.0000
  H   H363      1.0  0.25746  0.92562  0.57867  1.0000
  C   C472      1.0  0.01622  0.76428  0.78902  1.0000
  C   C473      1.0  0.18564  0.85988  0.69913  1.0000
  C   C474      1.0  0.20140  0.84315  0.70345  1.0000
  C   C475      1.0  0.19490  0.82124  0.70230  1.0000
  C   C476      1.0  0.17262  0.81580  0.69684  1.0000
  C   C477      1.0  0.15684  0.83248  0.69236  1.0000
  C   C478      1.0  0.16335  0.85442  0.69355  1.0000
  H   H364      1.0  0.21857  0.84706  0.70800  1.0000
  H   H365      1.0  0.20722  0.80844  0.70590  1.0000
  H   H366      1.0  0.13963  0.82850  0.68829  1.0000
  H   H367      1.0  0.15104  0.86725  0.69037  1.0000
  H   H368      1.0  0.11385  0.87134  0.62668  1.0000
  C   C479      1.0  0.12305  0.67520  0.86405  1.0000
  C   C480      1.0  0.10662  0.68910  0.87938  1.0000
  C   C481      1.0  0.09761  0.70594  0.85624  1.0000
  C   C482      1.0  0.10505  0.70928  0.81758  1.0000
  C   C483      1.0  0.12165  0.69549  0.80218  1.0000
  C   C484      1.0  0.13057  0.67850  0.82534  1.0000
  H   H369      1.0  0.10107  0.68701  0.90934  1.0000
  H   H370      1.0  0.08483  0.71653  0.86849  1.0000
  H   H371      1.0  0.12763  0.69792  0.77254  1.0000
  H   H372      1.0  0.14336  0.66788  0.81326  1.0000
  H   H373      1.0  0.11620  0.60986  0.86736  1.0000
  C   C485      1.0  0.31082  0.89308  0.83580  1.0000
  C   C486      1.0  0.17985  0.69748  0.73776  1.0000
  C   C487      1.0  0.17625  0.71941  0.72942  1.0000
  H   H374      1.0  0.02694  0.77120  0.69059  1.0000
  C   C488      1.0  0.02683  0.59967  0.95387  1.0000
  C   C489      1.0  0.25329  0.99668  0.71201  1.0000
  C   C490      1.0  0.19014  0.90561  0.51566  1.0000
  C   C491      1.0  0.02800  0.75346  0.55430  1.0000
  H   H375      1.0  0.04535  0.64772  0.52260  1.0000
  H   H376      1.0  0.21852  0.88686  0.59688  1.0000
  H   H377      1.0  0.27767  0.98597  0.94248  1.0000
  H   H378      1.0  0.20305  0.84379  0.00016  1.0000
  H   H379      1.0  0.18040  0.68533  0.71363  1.0000
  H   H380      1.0  0.07777  0.69288  0.73340  1.0000
  H   H381      1.0  0.02698  0.72887  0.70388  1.0000
  H   H382      1.0  0.02820  0.77472  0.77613  1.0000
  H   H383      1.0  0.19828  0.83292  0.61738  1.0000
  H   H384      1.0  0.21406  0.87937  0.52438  1.0000
  C   C492      1.0  0.04929  0.69364  0.77050  1.0000
  Fe  Fe39      1.0  0.10894  0.60337  0.99937  1.0000
  C   C493      1.0  0.20901  0.83349  0.59203  1.0000
  C   C494      1.0  0.05571  0.78863  0.54243  1.0000
  C   C495      1.0  0.24295  0.76387  0.81985  1.0000
  C   C496      1.0  0.05214  0.68076  0.54186  1.0000
  H   H385      1.0  0.14830  0.88573  0.59976  1.0000
  C   C497      1.0  0.12969  0.55287  0.90856  1.0000
  H   H386      1.0  0.31490  0.86557  0.87366  1.0000
  H   H387      1.0  0.22900  0.97960  0.67595  1.0000
  H   H388      1.0  0.16774  0.93346  0.51741  1.0000
  C   C498      1.0  0.29510  0.98027  0.54384  1.0000
  P   P17       1.0  0.00893  0.73170  0.56012  1.0000
  C   C499      1.0  0.05558  0.77084  0.51542  1.0000
  H   H389      1.0  0.33388  0.88183  0.99086  1.0000
  P   P18       1.0  0.01184  0.69988  0.81602  1.0000
  C   C500      1.0  0.04090  0.60624  0.88840  1.0000
  H   H390      1.0  0.28817  0.95794  0.82806  1.0000
  C   C501      1.0  0.01571  0.66766  0.52433  1.0000
  C   C502      1.0  0.17510  0.73510  0.76050  1.0000
  H   H391      1.0  0.02976  0.53553  0.98901  1.0000
  H   H392      1.0  0.16976  0.73096  0.61885  1.0000
  H   H393      1.0  0.13174  0.75416  0.86373  1.0000
  C   C503      1.0  0.03030  0.71467  0.88872  1.0000
  C   C504      1.0  0.30558  0.96297  0.56322  1.0000
  C   C505      1.0  0.31749  0.91434  0.82938  1.0000
  C   C506      1.0  0.04585  0.50501  0.00390  1.0000
  H   H394      1.0  0.29840  0.99398  0.65781  1.0000
  H   H395      1.0  0.05800  0.67597  0.67490  1.0000
  H   H396      1.0  0.02076  0.72955  0.88503  1.0000
  H   H397      1.0  0.01355  0.62399  0.91498  1.0000
  C   C507      1.0  0.22988  0.84254  0.59733  1.0000
  P   P19       1.0  0.17840  0.74969  0.83986  1.0000
  C   C508      1.0  0.24717  0.91000  0.88654  1.0000
  C   C509      1.0  0.26516  0.92267  0.87774  1.0000
  C   C510      1.0  0.27636  0.93432  0.90820  1.0000
  H   H398      1.0  0.20090  0.75556  0.91868  1.0000
  H   H399      1.0  0.09873  0.54881  0.80618  1.0000
  C   C511      1.0  0.07453  0.52467  0.79092  1.0000
  C   C512      1.0  0.02791  0.77159  0.58094  1.0000
  H   H400      1.0  0.23887  0.90070  0.86277  1.0000
  H   H401      1.0  0.27079  0.92286  0.84730  1.0000
  H   H402      1.0  0.29088  0.94318  0.90073  1.0000
  S   S78       1.0  0.29116  0.87976  0.80397  1.0000
  C   C513      1.0  0.29635  0.95454  0.59710  1.0000
  H   H403      1.0  0.25691  0.75609  0.80521  1.0000
  C   C514      1.0  0.02934  0.69755  0.85991  1.0000
  C   C515      1.0  0.14531  0.56928  0.91112  1.0000
  C   C516      1.0  0.21608  0.82681  0.52184  1.0000
  H   H404      1.0  0.01519  0.60347  0.97724  1.0000
  H   H405      1.0  0.23731  0.95933  0.98894  1.0000
  C   C517      1.0  0.03891  0.52137  0.97789  1.0000
  C   C518      1.0  0.17795  0.72902  0.80026  1.0000
  H   H406      1.0  0.10297  0.75808  0.53389  1.0000
  H   H407      1.0  0.13175  0.80715  0.58346  1.0000
  C   C519      1.0  0.05778  0.57831  0.92886  1.0000
  P   P20       1.0  0.07635  0.58274  0.85451  1.0000
  C   C520      1.0  0.31158  0.98134  0.81012  1.0000
  C   C521      1.0  0.07814  0.60446  0.81959  1.0000
  C   C522      1.0  0.07852  0.59978  0.77834  1.0000
  C   C523      1.0  0.08112  0.61652  0.75165  1.0000
  C   C524      1.0  0.08336  0.63802  0.76590  1.0000
  C   C525      1.0  0.08264  0.64288  0.80679  1.0000
  C   C526      1.0  0.08010  0.62620  0.83356  1.0000
  H   H408      1.0  0.31517  0.91303  0.95898  1.0000
  H   H409      1.0  0.03833  0.53220  0.91745  1.0000
  C   C527      1.0  0.10351  0.57753  0.87627  1.0000
  C   C528      1.0  0.10882  0.55700  0.89157  1.0000
  H   H410      1.0  0.17653  0.78858  0.79085  1.0000
  C   C529      1.0  0.05480  0.67633  0.90056  1.0000
  S   S79       1.0  0.04476  0.65793  0.99748  1.0000
  C   C530      1.0  0.11954  0.59380  0.87837  1.0000
  C   C531      1.0  0.16924  0.71832  0.96167  1.0000
  C   C532      1.0  0.03765  0.53217  0.81450  1.0000
  H   H411      1.0  0.14769  0.89324  0.51752  1.0000
  C   C533      1.0  0.04284  0.58332  0.95906  1.0000
  H   H412      1.0  0.06977  0.56533  0.93316  1.0000
  H   H413      1.0  0.07716  0.58324  0.76663  1.0000
  H   H414      1.0  0.08175  0.61279  0.71991  1.0000
  H   H415      1.0  0.08598  0.65087  0.74534  1.0000
  H   H416      1.0  0.08458  0.65954  0.81784  1.0000
  H   H417      1.0  0.08033  0.63019  0.86524  1.0000
  C   C534      1.0  0.22684  0.79501  0.85530  1.0000
  H   H418      1.0  0.11132  0.81390  0.81074  1.0000
  H   H419      1.0  0.02243  0.84093  0.68995  1.0000
  H   H420      1.0  0.22179  0.73676  0.80792  1.0000
  C   C535      1.0  0.18219  0.70699  0.80835  1.0000
  P   P21       1.0  0.28496  0.94685  0.98796  1.0000
  C   C536      1.0  0.08162  0.54435  0.80858  1.0000
  H   H421      1.0  0.17426  0.72434  0.69883  1.0000
  C   C537      1.0  0.17106  0.74655  0.60501  1.0000
  C   C538      1.0  0.14024  0.58972  0.89597  1.0000
  C   C539      1.0  0.27666  0.96348  0.61169  1.0000
  C   C540      1.0  0.24037  0.90884  0.92594  1.0000
  H   H422      1.0  0.20046  0.79289  0.61320  1.0000
  C   C541      1.0  0.04174  0.67836  0.86600  1.0000
  H   H423      1.0  0.22830  0.81140  0.86794  1.0000
  H   H424      1.0  0.15220  0.60263  0.89846  1.0000
  H   H425      1.0  0.22669  0.89863  0.93274  1.0000
  C   C542      1.0  0.20685  0.78414  0.85704  1.0000
  H   H426      1.0  0.10566  0.83203  0.61814  1.0000
  C   C543      1.0  0.02669  0.68963  0.77296  1.0000
  H   H427      1.0  0.17418  0.86116  0.56406  1.0000
  C   C544      1.0  0.14444  0.86865  0.59526  1.0000
  C   C545      1.0  0.01563  0.67987  0.73995  1.0000
  H   H428      1.0  0.26981  0.95736  0.63859  1.0000
  C   C546      1.0  0.12509  0.86055  0.61049  1.0000
  C   C547      1.0  0.32662  0.96302  0.97209  1.0000
  C   C548      1.0  0.18829  0.78167  0.60137  1.0000
  C   C549      1.0  0.06048  0.68885  0.73526  1.0000
  C   C550      1.0  0.31993  0.88203  0.86854  1.0000
  C   C551      1.0  0.01406  0.72742  0.68114  1.0000
  C   C552      1.0  0.04365  0.71268  0.92292  1.0000
  C   C553      1.0  0.02100  0.74208  0.79293  1.0000
  H   H429      1.0  0.03954  0.61505  0.86106  1.0000
  C   C554      1.0  0.30374  0.96577  0.96747  1.0000
  C   C555      1.0  0.04934  0.67938  0.70240  1.0000
  H   H430      1.0  0.10324  0.78211  0.85140  1.0000
  H   H431      1.0  0.00498  0.65442  0.51517  1.0000
  C   C556      1.0  0.15507  0.83218  0.57148  1.0000
  H   H432      1.0  0.05809  0.49925  0.89066  1.0000
  H   H433      1.0  0.18571  0.67430  0.78379  1.0000
  C   C557      1.0  0.19512  0.91355  0.59812  1.0000
  C   C558      1.0  0.20722  0.89673  0.57934  1.0000
  C   C559      1.0  0.14466  0.80330  0.79915  1.0000
  C   C560      1.0  0.04171  0.78908  0.57491  1.0000
  H   H434      1.0  0.31075  0.92297  0.80415  1.0000
  S   S80       1.0  0.13970  0.62334  0.99688  1.0000
  H   H435      1.0  0.14768  0.71742  0.86738  1.0000
  C   C561      1.0  0.15761  0.77244  0.55694  1.0000
  C   C562      1.0  0.17460  0.73783  0.88794  1.0000
  C   C563      1.0  0.22295  0.75297  0.82140  1.0000
  C   C564      1.0  0.12051  0.83839  0.60575  1.0000
  C   C565      1.0  0.02697  0.67465  0.70490  1.0000
  H   H436      1.0  0.19660  0.91624  0.63017  1.0000
  H   H437      1.0  0.25209  0.94386  0.51432  1.0000
  C   C566      1.0  0.18706  0.76127  0.61842  1.0000
  H   H438      1.0  0.16118  0.56628  0.92555  1.0000
  C   C567      1.0  0.04329  0.70156  0.54988  1.0000
  C   C568      1.0  0.24376  0.84394  0.56489  1.0000
  C   C569      1.0  0.02588  0.61116  0.91862  1.0000
  C   C570      1.0  0.15689  0.76982  0.83033  1.0000
  C   C571      1.0  0.13543  0.82426  0.58628  1.0000
  C   C572      1.0  0.23682  0.83620  0.52713  1.0000
  H   H439      1.0  0.04389  0.57469  0.98669  1.0000
  C   C573      1.0  0.06679  0.55800  0.82970  1.0000
  H   H440      1.0  0.19801  0.75726  0.64315  1.0000
  H   H441      1.0  0.04162  0.80302  0.59553  1.0000
  C   C574      1.0  0.20467  0.76313  0.83964  1.0000
  C   C575      1.0  0.15570  0.71247  0.92903  1.0000
  P   P22       1.0  0.17486  0.81380  0.54791  1.0000
  H   H442      1.0  0.13343  0.53720  0.92131  1.0000
  C   C576      1.0  0.18115  0.92693  0.57566  1.0000
  C   C577      1.0  0.10414  0.52207  0.98668  1.0000
  H   H443      1.0  0.05811  0.70121  0.79552  1.0000
  C   C578      1.0  0.17357  0.78747  0.57044  1.0000
  H   H444      1.0  0.05416  0.71429  0.56107  1.0000
  C   C579      1.0  0.18812  0.74368  0.92101  1.0000
  H   H445      1.0  0.17224  0.75199  0.75327  1.0000
  C   C580      1.0  0.01738  0.78607  0.69470  1.0000
  H   H446      1.0  0.26026  0.79348  0.83478  1.0000
  H   H447      1.0  0.04441  0.72589  0.94504  1.0000
  C   C581      1.0  0.15640  0.75211  0.57421  1.0000
  C   C582      1.0  0.04468  0.55186  0.83220  1.0000
  C   C583      1.0  0.11956  0.78391  0.83962  1.0000
  H   H448      1.0  0.17209  0.94018  0.59032  1.0000
  C   C584      1.0  0.05257  0.51855  0.79399  1.0000
  H   H449      1.0  0.04107  0.66491  0.84434  1.0000
  C   C585      1.0  0.20202  0.82529  0.55432  1.0000
  C   C586      1.0  0.05735  0.59008  0.89373  1.0000
  H   H450      1.0  0.09672  0.54427  0.89139  1.0000
  C   C587      1.0  0.05589  0.69355  0.92878  1.0000
  C   C588      1.0  0.12408  0.80177  0.81660  1.0000
  H   H451      1.0  0.03570  0.73339  0.63305  1.0000
  H   H452      1.0  0.30431  0.94096  0.61189  1.0000
  H   H453      1.0  0.23521  0.84876  0.62655  1.0000
  C   C589      1.0  0.10380  0.74345  0.51508  1.0000
  C   C590      1.0  0.29530  0.98366  0.94668  1.0000
  H   H454      1.0  0.14393  0.74069  0.56406  1.0000
  C   C591      1.0  0.18284  0.69128  0.77722  1.0000
  C   C592      1.0  0.04354  0.51944  0.93725  1.0000
  C   C593      1.0  0.15827  0.72224  0.89240  1.0000
  H   H455      1.0  0.18515  0.70182  0.83854  1.0000
  H   H456      1.0  0.19297  0.79225  0.87137  1.0000
  C   C594      1.0  0.02059  0.70566  0.54465  1.0000
  S   S81       1.0  0.10765  0.66776  0.99949  1.0000
  H   H457      1.0  0.03285  0.56212  0.84805  1.0000
  H   H458      1.0  0.01717  0.77233  0.60631  1.0000
  C   C595      1.0  0.26585  0.98038  0.59180  1.0000
  H   H459      1.0  0.04713  0.50323  0.78051  1.0000
  H   H460      1.0  0.03692  0.73583  0.78355  1.0000
  H   H461      1.0  0.30279  0.98700  0.51828  1.0000
  C   C596      1.0  0.28493  0.88936  0.51840  1.0000
  C   C597      1.0  0.04170  0.75334  0.52112  1.0000
  C   C598      1.0  0.17879  0.92310  0.53451  1.0000
  H   H462      1.0  0.24665  0.91872  0.98711  1.0000
  C   C599      1.0  0.20471  0.89264  0.53822  1.0000
  H   H463      1.0  0.02062  0.52742  0.81687  1.0000
  H   H464      1.0  0.01825  0.66751  0.67930  1.0000
  H   H465      1.0  0.25987  0.85113  0.56897  1.0000
  H   H466      1.0  0.08612  0.51408  0.77512  1.0000
  C   C600      1.0  0.18540  0.73397  0.95770  1.0000
  H   H467      1.0  0.16727  0.71059  0.98995  1.0000
  C   C601      1.0  0.24486  0.78491  0.83659  1.0000
  H   H468      1.0  0.14590  0.77646  0.53336  1.0000
  H   H469      1.0  0.25075  0.98719  0.60397  1.0000
  H   H470      1.0  0.06967  0.67779  0.54654  1.0000
  C   C602      1.0  0.33303  0.92439  0.85549  1.0000
  H   H471      1.0  0.26056  0.98584  0.84971  1.0000
  C   C603      1.0  0.01492  0.82538  0.69436  1.0000
  H   H472      1.0  0.06663  0.80207  0.53824  1.0000
  C   C604      1.0  0.27474  0.98860  0.55716  1.0000
  C   C605      1.0  0.05460  0.50088  0.92214  1.0000
  H   H473      1.0  0.06612  0.69194  0.95545  1.0000
  C   C606      1.0  0.31260  0.91033  0.99023  1.0000
  C   C607      1.0  0.11149  0.50095  0.99646  1.0000
  H   H474      1.0  0.32082  0.95598  0.55187  1.0000
  C   C608      1.0  0.27624  0.99082  0.83859  1.0000
  Fe  Fe40      1.0  0.07950  0.64467  0.00134  1.0000
  C   C609      1.0  0.23555  0.99534  0.68481  1.0000
  H   H475      1.0  0.33358  0.94931  0.98746  1.0000
  H   H476      1.0  0.32292  0.96878  0.79924  1.0000
  C   C610      1.0  0.32309  0.89257  0.00809  1.0000
  C   C611      1.0  0.33243  0.99564  0.93555  1.0000
  C   C612      1.0  0.11318  0.54071  0.00574  1.0000
  C   C613      1.0  0.26091  0.92842  0.51514  1.0000
  H   H477      1.0  0.10500  0.68832  0.52100  1.0000
  C   C614      1.0  0.00676  0.68839  0.53301  1.0000
  C   C615      1.0  0.33559  0.89204  0.89450  1.0000
  H   H478      1.0  0.18797  0.98035  0.53852  1.0000
  H   H479      1.0  0.22751  0.97992  0.52245  1.0000
  C   C616      1.0  0.19772  0.99466  0.54521  1.0000
  C   C617      1.0  0.22012  0.99444  0.53620  1.0000
  H   H480      1.0  0.57567  0.00204  0.11526  1.0000
  S   S82       1.0  0.39492  0.08888  0.04328  1.0000
  H   H481      1.0  0.54018  0.01136  0.24653  1.0000
  C   C618      1.0  0.34722  0.06832  0.21522  1.0000
  Fe  Fe41      1.0  0.36175  0.10499  0.05187  1.0000
  C   C619      1.0  0.66123  0.04266  0.09728  1.0000
  C   C620      1.0  0.48578  0.17865  0.13293  1.0000
  C   C621      1.0  0.50501  0.16670  0.14168  1.0000
  C   C622      1.0  0.51302  0.12139  0.01327  1.0000
  S   S83       1.0  0.58047  0.10580  0.08847  1.0000
  Fe  Fe42      1.0  0.61156  0.12536  0.08891  1.0000
  S   S84       1.0  0.62201  0.14304  0.14713  1.0000
  C   C623      1.0  0.64734  0.13668  0.17258  1.0000
  C   C624      1.0  0.50531  0.04058  0.08700  1.0000
  H   H482      1.0  0.58863  0.03012  0.16343  1.0000
  C   C625      1.0  0.60365  0.02747  0.01273  1.0000
  Fe  Fe43      1.0  0.40753  0.12152  0.02746  1.0000
  H   H483      1.0  0.43389  0.08951  0.11905  1.0000
  C   C626      1.0  0.50842  0.12134  0.05391  1.0000
  C   C627      1.0  0.33726  0.07361  0.25152  1.0000
  H   H484      1.0  0.52185  0.12075  0.07558  1.0000
  H   H485      1.0  0.48315  0.12413  0.09829  1.0000
  C   C628      1.0  0.45321  0.04734  0.06018  1.0000
  C   C629      1.0  0.49061  0.25922  0.07072  1.0000
  H   H486      1.0  0.44023  0.01457  0.05977  1.0000
  C   C630      1.0  0.65423  0.07267  0.23873  1.0000
  H   H487      1.0  0.46189  0.08123  0.06852  1.0000
  C   C631      1.0  0.63733  0.01574  0.19683  1.0000
  S   S85       1.0  0.60396  0.13890  0.02795  1.0000
  H   H488      1.0  0.65892  0.09386  0.44133  1.0000
  C   C632      1.0  0.39006  0.00161  0.03638  1.0000
  C   C633      1.0  0.53989  0.05965  0.08947  1.0000
  C   C634      1.0  0.43560  0.07304  0.10661  1.0000
  S   S86       1.0  0.60080  0.04630  0.08733  1.0000
  C   C635      1.0  0.49349  0.99979  0.01590  1.0000
  H   H489      1.0  0.50336  0.00044  0.14483  1.0000
  C   C636      1.0  0.61423  0.00478  0.06776  1.0000
  H   H490      1.0  0.40910  0.06050  0.14032  1.0000
  S   S87       1.0  0.63246  0.09801  0.06467  1.0000
  H   H491      1.0  0.61684  0.00273  0.09945  1.0000
  H   H492      1.0  0.37207  0.02513  0.07266  1.0000
  C   C637      1.0  0.60666  0.02481  0.05362  1.0000
  H   H493      1.0  0.41262  0.02309  0.11059  1.0000
  H   H494      1.0  0.49761  0.26785  0.09656  1.0000
  H   H495      1.0  0.64815  0.03179  0.10424  1.0000
  H   H496      1.0  0.33752  0.14100  0.21094  1.0000
  C   C638      1.0  0.48290  0.18799  0.09569  1.0000
  S   S88       1.0  0.44129  0.12869  0.05719  1.0000
  H   H497      1.0  0.45465  0.17483  0.03733  1.0000
  C   C639      1.0  0.56492  0.02288  0.20774  1.0000
  H   H498      1.0  0.47306  0.18063  0.15499  1.0000
  H   H499      1.0  0.35075  0.04466  0.16726  1.0000
  H   H500      1.0  0.50834  0.22945  0.08244  1.0000
  P   P23       1.0  0.49556  0.19804  0.01903  1.0000
  C   C640      1.0  0.62340  0.09770  0.22891  1.0000
  C   C641      1.0  0.62098  0.08998  0.18948  1.0000
  C   C642      1.0  0.63533  0.07383  0.17441  1.0000
  C   C643      1.0  0.37944  0.02167  0.04401  1.0000
  C   C644      1.0  0.52516  0.04574  0.10679  1.0000
  C   C645      1.0  0.42357  0.03570  0.10160  1.0000
  C   C646      1.0  0.42164  0.05674  0.11850  1.0000
  H   H501      1.0  0.52916  0.03905  0.13559  1.0000
  Fe  Fe44      1.0  0.60132  0.07932  0.06041  1.0000
  H   H502      1.0  0.57096  0.03513  0.22909  1.0000
  C   C647      1.0  0.51832  0.17300  0.07559  1.0000
  C   C648      1.0  0.52134  0.16406  0.11316  1.0000
  C   C649      1.0  0.66275  0.04952  0.05816  1.0000
  C   C650      1.0  0.57483  0.02011  0.17071  1.0000
  H   H503      1.0  0.62883  0.02950  0.21089  1.0000
  C   C651      1.0  0.47560  0.26987  0.04547  1.0000
  C   C652      1.0  0.45132  0.06836  0.07760  1.0000
  C   C653      1.0  0.46858  0.12411  0.03913  1.0000
  H   H504      1.0  0.61279  0.11086  0.23992  1.0000
  H   H505      1.0  0.60847  0.09711  0.17009  1.0000
  H   H506      1.0  0.63327  0.06839  0.14359  1.0000
  H   H507      1.0  0.49385  0.03004  0.10078  1.0000
  C   C654      1.0  0.65788  0.01821  0.17913  1.0000
  C   C655      1.0  0.43925  0.03097  0.07245  1.0000
  H   H508      1.0  0.50722  0.15940  0.17049  1.0000
  C   C656      1.0  0.54754  0.00957  0.21744  1.0000
  H   H509      1.0  0.46314  0.00032  0.13339  1.0000
  H   H510      1.0  0.63754  0.15262  0.22779  1.0000
  C   C657      1.0  0.66087  0.06823  0.48383  1.0000
  S   S89       1.0  0.37457  0.13847  0.04068  1.0000
  H   H511      1.0  0.64709  0.07459  0.50090  1.0000
  H   H512      1.0  0.34015  0.08930  0.26635  1.0000
  C   C658      1.0  0.66442  0.12516  0.15347  1.0000
  H   H513      1.0  0.53113  0.17030  0.05396  1.0000
  C   C659      1.0  0.51449  0.06394  0.03339  1.0000
  P   P24       1.0  0.47456  0.04169  0.02451  1.0000
  C   C660      1.0  0.48639  0.12314  0.06671  1.0000
  C   C661      1.0  0.65226  0.06520  0.19877  1.0000
  C   C662      1.0  0.49658  0.23743  0.06270  1.0000
  C   C663      1.0  0.63997  0.08901  0.25356  1.0000
  H   H514      1.0  0.55535  0.06357  0.10466  1.0000
  C   C664      1.0  0.66738  0.07901  0.45014  1.0000
  H   H515      1.0  0.46808  0.19756  0.08976  1.0000
  Fe  Fe45      1.0  0.57448  0.11649  0.02574  1.0000
  C   C665      1.0  0.49899  0.18498  0.06643  1.0000
  H   H516      1.0  0.66695  0.06618  0.25839  1.0000
  H   H517      1.0  0.54483  0.00899  0.06881  1.0000
  H   H518      1.0  0.53625  0.15473  0.11984  1.0000
  C   C666      1.0  0.65058  0.14364  0.21271  1.0000
  H   H519      1.0  0.35790  0.07991  0.20200  1.0000
  C   C667      1.0  0.50010  0.04916  0.04965  1.0000
  C   C668      1.0  0.48744  0.22607  0.02946  1.0000
  H   H520      1.0  0.37013  0.05278  0.02079  1.0000
  C   C669      1.0  0.37860  0.03745  0.01479  1.0000
  H   H521      1.0  0.50748  0.00586  0.03279  1.0000
  H   H522      1.0  0.65094  0.04383  0.03570  1.0000
  H   H523      1.0  0.35088  0.12728  0.14495  1.0000
  H   H524      1.0  0.66240  0.11994  0.12257  1.0000
  H   H525      1.0  0.47092  0.28673  0.05178  1.0000
  H   H526      1.0  0.54551  0.08027  0.04013  1.0000
  C   C670      1.0  0.56716  0.00431  0.14309  1.0000
  C   C671      1.0  0.34287  0.04842  0.19537  1.0000
  C   C672      1.0  0.53445  0.06888  0.05296  1.0000
  H   H527      1.0  0.64210  0.09530  0.28392  1.0000
  C   C673      1.0  0.66832  0.99999  0.16090  1.0000
  C   C674      1.0  0.33686  0.11988  0.15812  1.0000
  Fe  Fe46      1.0  0.36575  0.13106  0.97559  1.0000
  C   C675      1.0  0.61938  0.04779  0.88162  1.0000
  S   S90       1.0  0.39962  0.11737  0.96173  1.0000
  C   C676      1.0  0.52789  0.17717  0.97350  1.0000
  C   C677      1.0  0.45805  0.17725  0.92243  1.0000
  S   S91       1.0  0.65449  0.11030  0.96485  1.0000
  C   C678      1.0  0.47314  0.12272  0.99838  1.0000
  H   H528      1.0  0.63397  0.00903  0.79167  1.0000
  H   H529      1.0  0.60495  0.01191  0.95426  1.0000
  S   S92       1.0  0.34531  0.15291  0.93450  1.0000
  C   C679      1.0  0.33766  0.05663  0.78283  1.0000
  H   H530      1.0  0.42484  0.16013  0.99497  1.0000
  C   C680      1.0  0.53894  0.07808  0.92763  1.0000
  C   C681      1.0  0.64455  0.10998  0.88277  1.0000
  C   C682      1.0  0.65067  0.10933  0.84229  1.0000
  C   C683      1.0  0.48493  0.05344  0.94811  1.0000
  C   C684      1.0  0.45052  0.06862  0.97289  1.0000
  C   C685      1.0  0.58823  0.04822  0.73408  1.0000
  H   H531      1.0  0.62734  0.11062  0.89052  1.0000
  H   H532      1.0  0.63807  0.10989  0.81911  1.0000
  C   C686      1.0  0.36567  0.04164  0.82729  1.0000
  P   P25       1.0  0.59351  0.04250  0.85566  1.0000
  S   S93       1.0  0.39150  0.05435  0.94470  1.0000
  H   H533      1.0  0.49306  0.06184  0.88840  1.0000
  H   H534      1.0  0.57156  0.08579  0.84869  1.0000
  C   C687      1.0  0.65885  0.05360  0.88097  1.0000
  C   C688      1.0  0.44668  0.07854  0.93641  1.0000
  C   C689      1.0  0.39863  0.01309  0.96998  1.0000
  H   H535      1.0  0.49843  0.12163  0.95404  1.0000
  C   C690      1.0  0.60786  0.01003  0.98584  1.0000
  C   C691      1.0  0.46985  0.05619  0.97914  1.0000
  H   H536      1.0  0.65946  0.00819  0.99672  1.0000
  S   S94       1.0  0.35138  0.09896  0.98791  1.0000
  H   H537      1.0  0.37455  0.02804  0.84012  1.0000
  H   H538      1.0  0.40655  0.00990  0.94175  1.0000
  H   H539      1.0  0.57840  0.02506  0.77618  1.0000
  H   H540      1.0  0.51739  0.16310  0.97333  1.0000
  H   H541      1.0  0.36417  0.09713  0.83503  1.0000
  H   H542      1.0  0.61957  0.00332  0.87692  1.0000
  C   C692      1.0  0.37125  0.06277  0.84020  1.0000
  C   C693      1.0  0.56444  0.07743  0.87301  1.0000
  H   H543      1.0  0.36244  0.03334  0.71708  1.0000
  C   C694      1.0  0.34859  0.02446  0.70432  1.0000
  H   H544      1.0  0.54283  0.10463  0.88843  1.0000
  C   C695      1.0  0.61971  0.05262  0.92272  1.0000
  H   H545      1.0  0.35329  0.03617  0.64523  1.0000
  H   H546      1.0  0.55360  0.15991  0.94169  1.0000
  C   C696      1.0  0.63941  0.05760  0.94288  1.0000
  H   H547      1.0  0.61572  0.09501  0.75656  1.0000
  H   H548      1.0  0.46546  0.22870  0.97788  1.0000
  C   C697      1.0  0.58638  0.04042  0.77258  1.0000
  C   C698      1.0  0.59490  0.05241  0.80564  1.0000
  H   H549      1.0  0.45971  0.12335  0.97669  1.0000
  C   C699      1.0  0.56249  0.04644  0.91559  1.0000
  H   H550      1.0  0.56689  0.22650  0.97597  1.0000
  C   C700      1.0  0.60523  0.07225  0.79950  1.0000
  C   C701      1.0  0.66513  0.00303  0.93407  1.0000
  C   C702      1.0  0.57156  0.05632  0.88263  1.0000
  H   H551      1.0  0.61183  0.08180  0.82460  1.0000
  C   C703      1.0  0.63924  0.04799  0.86086  1.0000
  H   H552      1.0  0.55333  0.01872  0.83576  1.0000
  C   C704      1.0  0.54809  0.08819  0.89539  1.0000
  H   H553      1.0  0.63956  0.04469  0.82901  1.0000
  C   C705      1.0  0.38897  0.03345  0.97837  1.0000
  H   H554      1.0  0.45884  0.17777  0.89025  1.0000
  C   C706      1.0  0.34340  0.07768  0.79564  1.0000
  Fe  Fe47      1.0  0.38535  0.08573  0.97877  1.0000
  H   H555      1.0  0.34361  0.00707  0.92324  1.0000
  C   C707      1.0  0.46211  0.07639  0.90621  1.0000
  H   H556      1.0  0.49945  0.04315  0.95183  1.0000
  H   H557      1.0  0.52649  0.08662  0.94513  1.0000
  H   H558      1.0  0.38415  0.06523  0.86270  1.0000
  C   C708      1.0  0.60735  0.07984  0.76100  1.0000
  H   H559      1.0  0.56831  0.03053  0.92469  1.0000
  C   C709      1.0  0.59880  0.06786  0.72828  1.0000
  H   H560      1.0  0.63934  0.06212  0.97435  1.0000
  H   H561      1.0  0.42663  0.16129  0.92138  1.0000
  C   C710      1.0  0.47421  0.18528  0.98827  1.0000
  H   H562      1.0  0.53979  0.04981  0.96386  1.0000
  C   C711      1.0  0.58733  0.01384  0.85507  1.0000
  C   C712      1.0  0.48125  0.06380  0.91203  1.0000
  H   H563      1.0  0.60037  0.07385  0.69846  1.0000
  C   C713      1.0  0.36008  0.08077  0.82453  1.0000
  C   C714      1.0  0.53544  0.21459  0.99349  1.0000
  H   H564      1.0  0.43148  0.08758  0.93129  1.0000
  H   H565      1.0  0.58149  0.03903  0.70865  1.0000
  C   C715      1.0  0.54629  0.05730  0.93797  1.0000
  S   S95       1.0  0.54054  0.12232  0.99544  1.0000
  H   H566      1.0  0.60470  0.05313  0.93919  1.0000
  H   H567      1.0  0.45899  0.08419  0.87810  1.0000
  C   C716      1.0  0.65898  0.05820  0.92200  1.0000
  H   H568      1.0  0.59730  0.04275  0.00216  1.0000
  C   C717      1.0  0.54840  0.17535  0.95543  1.0000
  C   C718      1.0  0.34870  0.03839  0.79862  1.0000
  C   C719      1.0  0.56589  0.00701  0.84493  1.0000
  P   P26       1.0  0.34087  0.01131  0.78164  1.0000
  C   C720      1.0  0.66079  0.10998  0.91309  1.0000
  C   C721      1.0  0.55591  0.21278  0.97509  1.0000
  C   C722      1.0  0.56244  0.19312  0.95626  1.0000
  C   C723      1.0  0.49520  0.12172  0.98561  1.0000
  C   C724      1.0  0.47507  0.18596  0.94647  1.0000
  H   H569      1.0  0.57848  0.19155  0.94276  1.0000
  H   H570      1.0  0.34670  0.04772  0.94286  1.0000
  C   C725      1.0  0.45727  0.00501  0.98575  1.0000
  C   C726      1.0  0.43989  0.16802  0.93987  1.0000
  C   C727      1.0  0.43881  0.16746  0.98132  1.0000
  C   C728      1.0  0.39942  0.99733  0.99918  1.0000
  S   S96       1.0  0.59386  0.08850  0.99733  1.0000
  H   H571      1.0  0.48877  0.19344  0.93237  1.0000
  H   H572      1.0  0.44318  0.01542  0.97898  1.0000
  H   H573      1.0  0.43810  0.07031  0.99554  1.0000
  C   C729      1.0  0.34346  0.02611  0.66362  1.0000
  C   C730      1.0  0.52131  0.19672  0.99294  1.0000
  C   C731      1.0  0.47259  0.23696  0.00393  1.0000
  H   H574      1.0  0.55656  0.01328  0.99991  1.0000
  Fe  Fe48      1.0  0.62359  0.10993  0.00340  1.0000
  C   C732      1.0  0.45589  0.17593  0.00543  1.0000
  C   C733      1.0  0.60310  0.99847  0.86794  1.0000
  H   H575      1.0  0.66741  0.04158  0.52247  1.0000
  H   H576      1.0  0.45501  0.26701  0.99248  1.0000
  C   C734      1.0  0.47508  0.01333  0.00843  1.0000
  H   H577      1.0  0.51025  0.07212  0.00621  1.0000
  H   H578      1.0  0.53091  0.22983  0.00848  1.0000
  H   H579      1.0  0.61480  0.00629  0.72573  1.0000
  C   C735      1.0  0.55570  0.99713  0.01172  1.0000
  C   C736      1.0  0.46664  0.25875  0.01207  1.0000
  H   H580      1.0  0.50941  0.94069  0.07412  1.0000
  S   S97       1.0  0.60570  0.93057  0.05888  1.0000
  P   P27       1.0  0.53929  0.97047  0.11714  1.0000
  H   H581      1.0  0.40836  0.85433  0.11821  1.0000
  Fe  Fe49      1.0  0.63722  0.91179  0.07086  1.0000
  H   H582      1.0  0.66570  0.93996  0.44655  1.0000
  H   H583      1.0  0.60142  0.92200  0.15500  1.0000
  C   C737      1.0  0.33801  0.97698  0.23948  1.0000
  Fe  Fe50      1.0  0.38416  0.90201  0.06391  1.0000
  C   C738      1.0  0.35011  0.89365  0.14507  1.0000
  S   S98       1.0  0.36781  0.88103  0.10920  1.0000
  Fe  Fe51      1.0  0.39529  0.94824  0.04840  1.0000
  S   S99       1.0  0.39228  0.98242  0.07392  1.0000
  H   H584      1.0  0.45443  0.86958  0.02880  1.0000
  S   S100      1.0  0.41442  0.92181  0.07890  1.0000
  C   C739      1.0  0.54886  0.97388  0.06718  1.0000
  C   C740      1.0  0.54935  0.99466  0.05106  1.0000
  H   H585      1.0  0.62453  0.97199  0.05194  1.0000
  C   C741      1.0  0.35320  0.96147  0.25350  1.0000
  H   H586      1.0  0.39390  0.96770  0.18687  1.0000
  C   C742      1.0  0.37326  0.95798  0.23439  1.0000
  C   C743      1.0  0.47334  0.98720  0.12096  1.0000
  C   C744      1.0  0.54736  0.90860  0.15870  1.0000
  C   C745      1.0  0.55097  0.94540  0.13559  1.0000
  H   H587      1.0  0.51704  0.88502  0.09007  1.0000
  H   H588      1.0  0.43932  0.87628  0.09579  1.0000
  H   H589      1.0  0.57782  0.89116  0.17099  1.0000
  C   C746      1.0  0.47661  0.95368  0.08157  1.0000
  C   C747      1.0  0.49950  0.95357  0.08799  1.0000
  C   C748      1.0  0.51398  0.89249  0.06168  1.0000
  H   H590      1.0  0.44581  0.97067  0.09247  1.0000
  C   C749      1.0  0.41532  0.83052  0.02610  1.0000
  C   C750      1.0  0.50951  0.97012  0.11155  1.0000
  C   C751      1.0  0.57399  0.94323  0.13975  1.0000
  H   H591      1.0  0.51990  0.92931  0.14375  1.0000
  C   C752      1.0  0.53767  0.92807  0.14586  1.0000
  C   C753      1.0  0.65867  0.97953  0.16141  1.0000
  C   C754      1.0  0.41546  0.85087  0.08924  1.0000
  C   C755      1.0  0.43292  0.86323  0.07661  1.0000
  C   C756      1.0  0.34738  0.91629  0.14778  1.0000
  C   C757      1.0  0.49621  0.98707  0.12767  1.0000
  H   H592      1.0  0.55392  0.93930  0.05446  1.0000
  C   C758      1.0  0.63822  0.97717  0.17889  1.0000
  S   S101      1.0  0.62334  0.88016  0.04630  1.0000
  C   C759      1.0  0.54897  0.99158  0.15179  1.0000
  C   C760      1.0  0.58360  0.92380  0.15285  1.0000
  Fe  Fe52      1.0  0.59235  0.89966  0.03162  1.0000
  H   H593      1.0  0.48071  0.83630  0.02138  1.0000
  H   H594      1.0  0.53711  0.89501  0.16544  1.0000
  C   C761      1.0  0.34262  0.98881  0.20565  1.0000
  H   H595      1.0  0.46899  0.94091  0.06327  1.0000
  C   C762      1.0  0.40654  0.83465  0.06389  1.0000
  H   H596      1.0  0.47856  0.89364  0.06812  1.0000
  S   S102      1.0  0.55888  0.88879  0.05308  1.0000
  C   C763      1.0  0.57030  0.90641  0.16193  1.0000
  H   H597      1.0  0.63083  0.96122  0.17903  1.0000
  C   C764      1.0  0.46354  0.97051  0.09793  1.0000
  S   S103      1.0  0.65077  0.92177  0.13288  1.0000
  H   H598      1.0  0.38472  0.94552  0.24467  1.0000
  H   H599      1.0  0.35615  0.92640  0.12792  1.0000
  S   S104      1.0  0.36443  0.92950  0.03796  1.0000
  C   C765      1.0  0.53190  0.89694  0.03747  1.0000
  C   C766      1.0  0.55443  0.95557  0.04302  1.0000
  C   C767      1.0  0.37837  0.97038  0.20178  1.0000
  C   C768      1.0  0.49211  0.89724  0.04918  1.0000
  H   H600      1.0  0.58457  0.95639  0.13202  1.0000
  H   H601      1.0  0.34904  0.95165  0.27844  1.0000
  H   H602      1.0  0.52666  0.98322  0.19813  1.0000
  H   H603      1.0  0.66716  0.96536  0.14874  1.0000
  C   C769      1.0  0.61848  0.98734  0.04091  1.0000
  H   H604      1.0  0.34068  0.86331  0.16976  1.0000
  C   C770      1.0  0.43326  0.84250  0.01362  1.0000
  C   C771      1.0  0.36327  0.98598  0.18781  1.0000
  H   H605      1.0  0.51960  0.84691  0.01794  1.0000
  H   H606      1.0  0.66862  0.95427  0.08063  1.0000
  Fe  Fe53      1.0  0.42578  0.91149  0.01745  1.0000
  H   H607      1.0  0.39248  0.82568  0.07333  1.0000
  C   C772      1.0  0.44157  0.85927  0.03874  1.0000
  H   H608      1.0  0.36762  0.99550  0.16262  1.0000
  H   H609      1.0  0.61168  0.99339  0.21012  1.0000
  C   C773      1.0  0.62751  0.99528  0.19646  1.0000
  C   C774      1.0  0.33862  0.88085  0.17147  1.0000
  C   C775      1.0  0.53979  0.99378  0.18980  1.0000
  H   H610      1.0  0.66863  0.93635  0.20872  1.0000
  H   H611      1.0  0.34019  0.98200  0.04919  1.0000
  H   H612      1.0  0.33744  0.97772  0.12141  1.0000
  Fe  Fe54      1.0  0.63556  0.89061  0.98648  1.0000
  C   C776      1.0  0.43001  0.87518  0.92239  1.0000
  S   S105      1.0  0.65119  0.86997  0.93648  1.0000
  S   S106      1.0  0.61823  0.96776  0.96642  1.0000
  S   S107      1.0  0.60334  0.90717  0.97015  1.0000
  C   C777      1.0  0.38969  0.85761  0.89715  1.0000
  Fe  Fe55      1.0  0.61918  0.93645  0.99890  1.0000
  Fe  Fe56      1.0  0.37859  0.91859  0.97904  1.0000
  S   S108      1.0  0.36206  0.92671  0.91928  1.0000
  C   C778      1.0  0.44443  0.76528  0.92728  1.0000
  C   C779      1.0  0.57609  0.96994  0.86069  1.0000
  H   H613      1.0  0.59260  0.93128  0.78933  1.0000
  H   H614      1.0  0.40836  0.98241  0.99357  1.0000
  H   H615      1.0  0.60947  0.96488  0.88138  1.0000
  C   C780      1.0  0.39312  0.95870  0.81293  1.0000
  C   C781      1.0  0.44016  0.80307  0.90953  1.0000
  H   H616      1.0  0.56577  0.94396  0.98566  1.0000
  H   H617      1.0  0.64888  0.88151  0.80476  1.0000
  H   H618      1.0  0.43787  0.77584  0.86751  1.0000
  C   C782      1.0  0.48056  0.85338  0.92570  1.0000
  H   H619      1.0  0.56170  0.91168  0.81681  1.0000
  H   H620      1.0  0.50279  0.91774  0.95902  1.0000
  C   C783      1.0  0.51676  0.85676  0.95711  1.0000
  H   H621      1.0  0.40475  0.94575  0.82023  1.0000
  C   C784      1.0  0.45753  0.98328  0.97186  1.0000
  H   H622      1.0  0.38310  0.88861  0.87059  1.0000
  H   H623      1.0  0.35861  0.97552  0.95989  1.0000
  H   H624      1.0  0.34268  0.88324  0.91918  1.0000
  C   C785      1.0  0.50585  0.91095  0.98800  1.0000
  C   C786      1.0  0.63026  0.99318  0.77835  1.0000
  C   C787      1.0  0.47213  0.84582  0.96123  1.0000
  C   C788      1.0  0.65435  0.94128  0.88311  1.0000
  C   C789      1.0  0.47585  0.96986  0.97967  1.0000
  C   C790      1.0  0.41495  0.88764  0.90019  1.0000
  H   H625      1.0  0.54368  0.98000  0.84036  1.0000
  H   H626      1.0  0.56710  0.98078  0.95795  1.0000
  C   C791      1.0  0.61942  0.99164  0.74124  1.0000
  C   C792      1.0  0.44779  0.79397  0.97828  1.0000
  H   H627      1.0  0.63767  0.89743  0.86829  1.0000
  H   H628      1.0  0.37385  0.85104  0.88788  1.0000
  H   H629      1.0  0.44517  0.88252  0.93289  1.0000
  C   C793      1.0  0.36448  0.98443  0.83318  1.0000
  H   H630      1.0  0.54131  0.90993  0.98179  1.0000
  H   H631      1.0  0.56853  0.88491  0.86976  1.0000
  C   C794      1.0  0.44340  0.80973  0.94963  1.0000
  H   H632      1.0  0.61737  0.93650  0.72972  1.0000
  H   H633      1.0  0.53385  0.86152  0.95607  1.0000
  H   H634      1.0  0.45104  0.79880  0.00918  1.0000
  H   H635      1.0  0.60670  0.87769  0.89470  1.0000
  C   C795      1.0  0.39486  0.87882  0.88736  1.0000
  C   C796      1.0  0.39110  0.96580  0.77382  1.0000
  H   H636      1.0  0.64510  0.97593  0.82672  1.0000
  C   C797      1.0  0.34091  0.97794  0.95634  1.0000
  H   H637      1.0  0.60635  0.96998  0.69510  1.0000
  C   C798      1.0  0.60358  0.88957  0.87190  1.0000
  C   C799      1.0  0.58213  0.89361  0.85775  1.0000
  C   C800      1.0  0.57833  0.90873  0.82804  1.0000
  C   C801      1.0  0.59598  0.91984  0.81252  1.0000
  C   C802      1.0  0.61760  0.91605  0.82696  1.0000
  C   C803      1.0  0.62118  0.90082  0.85681  1.0000
  P   P28       1.0  0.64087  0.92903  0.80540  1.0000
  C   C804      1.0  0.63206  0.95363  0.78085  1.0000
  H   H638      1.0  0.66847  0.85695  0.85955  1.0000
  H   H639      1.0  0.44474  0.74811  0.91867  1.0000
  H   H640      1.0  0.41857  0.90437  0.89387  1.0000
  C   C805      1.0  0.40465  0.84518  0.91968  1.0000
  H   H641      1.0  0.45143  0.75972  0.98939  1.0000
  C   C806      1.0  0.56088  0.95811  0.00373  1.0000
  C   C807      1.0  0.63660  0.97428  0.79811  1.0000
  C   C808      1.0  0.66090  0.93647  0.84380  1.0000
  H   H642      1.0  0.50817  0.96774  0.00708  1.0000
  C   C809      1.0  0.61471  0.97119  0.72396  1.0000
  C   C810      1.0  0.62098  0.95226  0.74366  1.0000
  C   C811      1.0  0.65358  0.91010  0.76984  1.0000
  C   C812      1.0  0.56033  0.98512  0.84764  1.0000
  H   H643      1.0  0.40007  0.82903  0.92805  1.0000
  H   H644      1.0  0.63750  0.93925  0.89190  1.0000
  S   S109      1.0  0.40828  0.93937  0.98839  1.0000
  C   C813      1.0  0.42510  0.85377  0.93199  1.0000
  H   H645      1.0  0.38116  0.96231  0.87284  1.0000
  H   H646      1.0  0.47002  0.85499  0.89948  1.0000
  C   C814      1.0  0.56151  0.97886  0.98806  1.0000
  C   C815      1.0  0.65493  0.88775  0.77745  1.0000
  H   H647      1.0  0.44350  0.97682  0.95508  1.0000
  H   H648      1.0  0.43746  0.81499  0.88675  1.0000
  C   C816      1.0  0.37986  0.96807  0.84262  1.0000
  H   H649      1.0  0.66582  0.85590  0.75629  1.0000
  H   H650      1.0  0.57170  0.95309  0.86391  1.0000
  H   H651      1.0  0.50903  0.86537  0.89667  1.0000
  P   P29       1.0  0.44353  0.83829  0.96381  1.0000
  C   C817      1.0  0.59745  0.97660  0.87054  1.0000
  H   H652      1.0  0.66196  0.95475  0.51592  1.0000
  C   C818      1.0  0.50274  0.85905  0.92382  1.0000
  H   H653      1.0  0.47596  0.95298  0.96911  1.0000
  S   S110      1.0  0.46073  0.91055  0.99245  1.0000
  C   C819      1.0  0.44052  0.78091  0.89847  1.0000
  C   C820      1.0  0.66455  0.87306  0.74993  1.0000
  C   C821      1.0  0.34216  0.91332  0.88816  1.0000
  S   S111      1.0  0.39671  0.88947  0.00380  1.0000
  H   H654      1.0  0.64930  0.99555  0.92832  1.0000
  C   C822      1.0  0.44815  0.77182  0.96713  1.0000
  C   C823      1.0  0.66255  0.91752  0.73457  1.0000
  H   H655      1.0  0.66457  0.95194  0.94233  1.0000
  H   H656      1.0  0.40122  0.95834  0.75073  1.0000
  H   H657      1.0  0.40787  0.81826  0.00648  1.0000
  H   H658      1.0  0.37405  0.98709  0.73365  1.0000
  C   C824      1.0  0.48790  0.90606  0.01181  1.0000
  C   C825      1.0  0.37567  0.98216  0.76425  1.0000
  H   H659      1.0  0.35403  0.99119  0.85638  1.0000
  C   C826      1.0  0.52774  0.90661  0.00085  1.0000
  H   H660      1.0  0.66276  0.93471  0.72859  1.0000
  C   C827      1.0  0.50870  0.84852  0.99209  1.0000
  C   C828      1.0  0.48655  0.84283  0.99406  1.0000
  H   H661      1.0  0.33812  0.94081  0.85021  1.0000
  C   C829      1.0  0.36219  0.99154  0.79389  1.0000
  C   C830      1.0  0.49394  0.97818  0.00125  1.0000
  C   C831      1.0  0.61488  0.98986  0.00002  1.0000
  C   C832      1.0  0.66969  0.94862  0.91193  1.0000
  S   S112      1.0  0.65173  0.92058  0.01226  1.0000
  Fe  Fe57      1.0  0.89271  0.38848  0.06687  1.0000
  C   C833      1.0  0.98868  0.23984  0.17616  1.0000
  S   S113      1.0  0.88063  0.38461  0.13033  1.0000
  H   H662      1.0  0.99041  0.24278  0.26502  1.0000
  P   P30       1.0  0.67091  0.04444  0.17897  1.0000
  C   C834      1.0  0.94985  0.22731  0.39628  1.0000
  H   H663      1.0  0.69777  0.11265  0.15831  1.0000
  S   S114      1.0  0.92337  0.40836  0.06390  1.0000
  Fe  Fe58      1.0  0.88182  0.28688  0.29085  1.0000
  S   S115      1.0  0.90770  0.26026  0.29404  1.0000
  S   S116      1.0  0.87595  0.29654  0.22600  1.0000
  Fe  Fe59      1.0  0.87166  0.28186  0.38040  1.0000
  S   S117      1.0  0.89675  0.25517  0.38821  1.0000
  S   S118      1.0  0.84818  0.29202  0.42960  1.0000
  Fe  Fe60      1.0  0.91833  0.27612  0.35206  1.0000
  S   S119      1.0  0.95314  0.28467  0.37216  1.0000
  Fe  Fe61      1.0  0.88340  0.24201  0.32922  1.0000
  S   S120      1.0  0.87571  0.20656  0.31358  1.0000
  S   S121      1.0  0.89386  0.30399  0.34755  1.0000
  S   S122      1.0  0.85697  0.26759  0.32329  1.0000
  Fe  Fe62      1.0  0.72773  0.12310  0.30131  1.0000
  S   S123      1.0  0.76489  0.11924  0.30483  1.0000
  S   S124      1.0  0.71392  0.12252  0.23721  1.0000
  Fe  Fe63      1.0  0.72454  0.12230  0.39245  1.0000
  S   S125      1.0  0.76096  0.11776  0.40172  1.0000
  S   S126      1.0  0.70287  0.12781  0.44632  1.0000
  Fe  Fe64      1.0  0.76401  0.14349  0.35642  1.0000
  S   S127      1.0  0.78419  0.17317  0.37498  1.0000
  Fe  Fe65      1.0  0.75872  0.09384  0.34980  1.0000
  S   S128      1.0  0.77965  0.06279  0.34947  1.0000
  S   S129      1.0  0.72738  0.14947  0.34959  1.0000
  S   S130      1.0  0.72177  0.09619  0.34367  1.0000
  C   C835      1.0  0.84997  0.19714  0.32902  1.0000
  C   C836      1.0  0.84320  0.17587  0.31871  1.0000
  C   C837      1.0  0.82284  0.16822  0.33174  1.0000
  C   C838      1.0  0.80950  0.18168  0.35600  1.0000
  C   C839      1.0  0.81643  0.20280  0.36628  1.0000
  C   C840      1.0  0.83625  0.21067  0.35210  1.0000
  H   H664      1.0  0.85366  0.16532  0.30052  1.0000
  H   H665      1.0  0.81766  0.15189  0.32349  1.0000
  H   H666      1.0  0.80633  0.21322  0.38516  1.0000
  H   H667      1.0  0.84099  0.22722  0.35908  1.0000
  C   C841      1.0  0.98423  0.46779  0.04738  1.0000
  H   H668      1.0  0.98103  0.45064  0.04179  1.0000
  H   H669      1.0  0.76249  0.18837  0.47679  1.0000
  C   C842      1.0  0.82891  0.12571  0.46185  1.0000
  C   C843      1.0  0.70693  0.23432  0.46407  1.0000
  H   H670      1.0  0.94244  0.12276  0.42989  1.0000
  C   C844      1.0  0.73918  0.29413  0.22921  1.0000
  C   C845      1.0  0.72292  0.20761  0.50871  1.0000
  H   H671      1.0  0.87283  0.12338  0.44931  1.0000
  H   H672      1.0  0.91886  0.45862  0.08564  1.0000
  H   H673      1.0  0.92775  0.31623  0.03274  1.0000
  C   C846      1.0  0.74350  0.03697  0.35679  1.0000
  C   C847      1.0  0.76611  0.03766  0.35025  1.0000
  C   C848      1.0  0.77816  0.01803  0.34474  1.0000
  H   H674      1.0  0.73408  0.05192  0.36087  1.0000
  H   H675      1.0  0.79565  0.01849  0.33936  1.0000
  C   C849      1.0  0.90760  0.12049  0.43945  1.0000
  C   C850      1.0  0.97613  0.27528  0.34486  1.0000
  C   C851      1.0  0.97370  0.26118  0.31161  1.0000
  H   H676      1.0  0.97083  0.27117  0.44656  1.0000
  H   H677      1.0  0.95742  0.25630  0.30178  1.0000
  C   C852      1.0  0.93380  0.30823  0.05923  1.0000
  H   H678      1.0  0.70501  0.08477  0.07126  1.0000
  C   C853      1.0  0.88389  0.46031  0.16334  1.0000
  H   H679      1.0  0.89319  0.43516  0.12035  1.0000
  C   C854      1.0  0.99725  0.28235  0.35646  1.0000
  C   C855      1.0  0.88036  0.35995  0.15677  1.0000
  C   C856      1.0  0.88362  0.33957  0.13774  1.0000
  C   C857      1.0  0.88270  0.32040  0.15962  1.0000
  C   C858      1.0  0.87898  0.32134  0.20092  1.0000
  C   C859      1.0  0.87629  0.34173  0.22019  1.0000
  C   C860      1.0  0.87662  0.36088  0.19808  1.0000
  H   H680      1.0  0.88618  0.33855  0.10594  1.0000
  H   H681      1.0  0.88462  0.30471  0.14433  1.0000
  H   H682      1.0  0.87312  0.34271  0.25180  1.0000
  H   H683      1.0  0.87395  0.37654  0.21309  1.0000
  H   H684      1.0  0.72665  0.16784  0.23572  1.0000
  H   H685      1.0  0.77876  0.15380  0.45232  1.0000
  H   H686      1.0  0.92362  0.19590  0.32537  1.0000
  H   H687      1.0  0.96216  0.23983  0.39895  1.0000
  C   C861      1.0  0.69308  0.07263  0.07833  1.0000
  H   H688      1.0  0.92572  0.49218  0.22957  1.0000
  C   C862      1.0  0.72662  0.06442  0.24025  1.0000
  Fe  Fe66      1.0  0.93428  0.38266  0.01976  1.0000
  H   H689      1.0  0.67282  0.14443  0.26429  1.0000
  S   S131      1.0  0.96835  0.36829  0.02655  1.0000
  C   C863      1.0  0.99471  0.32756  0.09020  1.0000
  C   C864      1.0  0.94094  0.30921  0.13058  1.0000
  C   C865      1.0  0.99234  0.25381  0.29057  1.0000
  H   H690      1.0  0.94342  0.22795  0.45880  1.0000
  H   H691      1.0  0.94360  0.16214  0.44670  1.0000
  H   H692      1.0  0.87532  0.47659  0.04012  1.0000
  H   H693      1.0  0.88877  0.21309  0.20825  1.0000
  C   C866      1.0  0.91012  0.46512  0.11130  1.0000
  C   C867      1.0  0.93518  0.25290  0.18203  1.0000
  C   C868      1.0  0.74610  0.03923  0.47263  1.0000
  C   C869      1.0  0.73548  0.04513  0.25513  1.0000
  H   H694      1.0  0.91222  0.26342  0.13557  1.0000
  C   C870      1.0  0.70138  0.19588  0.45006  1.0000
  H   H695      1.0  0.92862  0.49127  0.30291  1.0000
  H   H696      1.0  0.97632  0.22876  0.18516  1.0000
  H   H697      1.0  0.99602  0.29117  0.14419  1.0000
  H   H698      1.0  0.90428  0.18406  0.38416  1.0000
  H   H699      1.0  0.82794  0.23897  0.49270  1.0000
  C   C871      1.0  0.89881  0.23785  0.16862  1.0000
  C   C872      1.0  0.77757  0.02040  0.44364  1.0000
  S   S132      1.0  0.90492  0.36146  0.02569  1.0000
  C   C873      1.0  0.73305  0.01689  0.35853  1.0000
  H   H700      1.0  0.87249  0.45001  0.17807  1.0000
  H   H701      1.0  0.70266  0.07273  0.13992  1.0000
  C   C874      1.0  0.82898  0.16470  0.50726  1.0000
  C   C875      1.0  0.70502  0.02514  0.22485  1.0000
  P   P31       1.0  0.95590  0.27292  0.17292  1.0000
  H   H702      1.0  0.90702  0.10331  0.43104  1.0000
  H   H703      1.0  0.88339  0.23787  0.15170  1.0000
  C   C876      1.0  0.91717  0.19598  0.38816  1.0000
  C   C877      1.0  0.72809  0.30595  0.25917  1.0000
  C   C878      1.0  0.99992  0.27471  0.15283  1.0000
  C   C879      1.0  0.96316  0.27334  0.47522  1.0000
  H   H704      1.0  0.70011  0.07939  0.20741  1.0000
  C   C880      1.0  0.73465  0.01961  0.47306  1.0000
  H   H705      1.0  0.88056  0.26984  0.48368  1.0000
  C   C881      1.0  0.76734  0.03968  0.45744  1.0000
  H   H706      1.0  0.71332  0.20368  0.21240  1.0000
  H   H707      1.0  0.71834  0.32030  0.25185  1.0000
  H   H708      1.0  0.92785  0.33631  0.09777  1.0000
  H   H709      1.0  0.93084  0.27851  0.44883  1.0000
  C   C882      1.0  0.83127  0.29435  0.50378  1.0000
  C   C883      1.0  0.74513  0.00028  0.45954  1.0000
  C   C884      1.0  0.88248  0.20598  0.47556  1.0000
  H   H710      1.0  0.82857  0.11062  0.44412  1.0000
  C   C885      1.0  0.98015  0.35940  0.16795  1.0000
  C   C886      1.0  0.96409  0.36679  0.14047  1.0000
  C   C887      1.0  0.94241  0.37090  0.15221  1.0000
  C   C888      1.0  0.93655  0.36781  0.19153  1.0000
  C   C889      1.0  0.95230  0.36049  0.21912  1.0000
  C   C890      1.0  0.97400  0.35623  0.20748  1.0000
  C   C891      1.0  0.69628  0.04443  0.20872  1.0000
  C   C892      1.0  0.89560  0.45189  0.13077  1.0000
  C   C893      1.0  0.84265  0.22904  0.48789  1.0000
  C   C894      1.0  0.92130  0.22455  0.22332  1.0000
  H   H711      1.0  0.69679  0.00980  0.22045  1.0000
  H   H712      1.0  0.71553  0.01660  0.36361  1.0000
  H   H713      1.0  0.72106  0.30849  0.32180  1.0000
  C   C895      1.0  0.92266  0.20476  0.42622  1.0000
  C   C896      1.0  0.93901  0.22064  0.43005  1.0000
  H   H714      1.0  0.81765  0.30277  0.48920  1.0000
  C   C897      1.0  0.88677  0.48193  0.17655  1.0000
  H   H715      1.0  0.96844  0.37007  0.11020  1.0000
  H   H716      1.0  0.93012  0.37674  0.13096  1.0000
  H   H717      1.0  0.91986  0.37139  0.20072  1.0000
  H   H718      1.0  0.94768  0.35837  0.24969  1.0000
  C   C898      1.0  0.94825  0.28736  0.12851  1.0000
  C   C899      1.0  0.83123  0.22957  0.24507  1.0000
  C   C900      1.0  0.83835  0.24948  0.23166  1.0000
  C   C901      1.0  0.82499  0.26811  0.23636  1.0000
  C   C902      1.0  0.80455  0.26688  0.25444  1.0000
  C   C903      1.0  0.79679  0.24675  0.26653  1.0000
  C   C904      1.0  0.81056  0.22818  0.26239  1.0000
  P   P32       1.0  0.77033  0.24523  0.29023  1.0000
  C   C905      1.0  0.77506  0.24499  0.34362  1.0000
  C   C906      1.0  0.75362  0.26895  0.27823  1.0000
  C   C907      1.0  0.74231  0.28084  0.30813  1.0000
  C   C908      1.0  0.72963  0.29929  0.29858  1.0000
  C   C909      1.0  0.75186  0.27568  0.23864  1.0000
  C   C910      1.0  0.76141  0.23305  0.36784  1.0000
  C   C911      1.0  0.76459  0.23370  0.40930  1.0000
  C   C912      1.0  0.78119  0.24651  0.42694  1.0000
  C   C913      1.0  0.79471  0.25856  0.40307  1.0000
  C   C914      1.0  0.79171  0.25780  0.36158  1.0000
  C   C915      1.0  0.75627  0.22084  0.27252  1.0000
  C   C916      1.0  0.76342  0.20043  0.28580  1.0000
  C   C917      1.0  0.75290  0.18144  0.27240  1.0000
  C   C918      1.0  0.73488  0.18261  0.24592  1.0000
  C   C919      1.0  0.72740  0.20284  0.23279  1.0000
  C   C920      1.0  0.73801  0.22189  0.24596  1.0000
  H   H719      1.0  0.84197  0.21528  0.24297  1.0000
  H   H720      1.0  0.85455  0.25072  0.21900  1.0000
  H   H721      1.0  0.83084  0.28368  0.22708  1.0000
  H   H722      1.0  0.79512  0.28180  0.25939  1.0000
  H   H723      1.0  0.80577  0.21264  0.27316  1.0000
  H   H724      1.0  0.74328  0.27601  0.33885  1.0000
  H   H725      1.0  0.87731  0.21405  0.41350  1.0000
  H   H726      1.0  0.76038  0.26667  0.21509  1.0000
  H   H727      1.0  0.74838  0.22311  0.35484  1.0000
  H   H728      1.0  0.75430  0.22405  0.42760  1.0000
  H   H729      1.0  0.78370  0.24701  0.45902  1.0000
  H   H730      1.0  0.80765  0.26847  0.41665  1.0000
  H   H731      1.0  0.80240  0.26726  0.34366  1.0000
  H   H732      1.0  0.77703  0.19918  0.30690  1.0000
  H   H733      1.0  0.75868  0.16579  0.28277  1.0000
  H   H734      1.0  0.99923  0.29336  0.38202  1.0000
  H   H735      1.0  0.73171  0.23725  0.23541  1.0000
  H   H736      1.0  0.95301  0.22320  0.33267  1.0000
  C   C921      1.0  0.69161  0.06578  0.11754  1.0000
  H   H737      1.0  0.77561  0.05507  0.45518  1.0000
  H   H738      1.0  0.69464  0.18277  0.43127  1.0000
  C   C922      1.0  0.70703  0.06412  0.21753  1.0000
  H   H739      1.0  0.78205  0.12223  0.49635  1.0000
  H   H740      1.0  0.73484  0.07970  0.24670  1.0000
  H   H741      1.0  0.71626  0.17389  0.49129  1.0000
  P   P33       1.0  0.90986  0.19422  0.46948  1.0000
  C   C923      1.0  0.68773  0.12775  0.21404  1.0000
  C   C924      1.0  0.82528  0.16500  0.46596  1.0000
  C   C925      1.0  0.82507  0.14550  0.44333  1.0000
  P   P34       1.0  0.70738  0.01944  0.49355  1.0000
  H   H742      1.0  0.84303  0.23523  0.42552  1.0000
  C   C926      1.0  0.84925  0.28693  0.48143  1.0000
  C   C927      1.0  0.93375  0.31954  0.09600  1.0000
  H   H743      1.0  0.94156  0.27789  0.02819  1.0000
  H   H744      1.0  0.75067  0.04548  0.27273  1.0000
  H   H745      1.0  0.82208  0.18030  0.45139  1.0000
  H   H746      1.0  0.82162  0.14574  0.41146  1.0000
  H   H747      1.0  0.95205  0.24052  0.23431  1.0000
  H   H748      1.0  0.73802  0.29931  0.19865  1.0000
  H   H749      1.0  0.87745  0.48825  0.20169  1.0000
  C   C928      1.0  0.71369  0.19090  0.48433  1.0000
  C   C929      1.0  0.94880  0.27626  0.09126  1.0000
  H   H750      1.0  0.98587  0.35093  0.22977  1.0000
  C   C930      1.0  0.94457  0.21813  0.35872  1.0000
  C   C931      1.0  0.91538  0.25229  0.15942  1.0000
  C   C932      1.0  0.98322  0.26127  0.16569  1.0000
  C   C933      1.0  0.95599  0.29104  0.21641  1.0000
  H   H751      1.0  0.73674  0.09557  0.46366  1.0000
  H   H752      1.0  0.73830  0.05426  0.48305  1.0000
  C   C934      1.0  0.94048  0.27782  0.47639  1.0000
  C   C935      1.0  0.92754  0.13143  0.43886  1.0000
  C   C936      1.0  0.69666  0.05219  0.43995  1.0000
  C   C937      1.0  0.87092  0.21520  0.44336  1.0000
  C   C938      1.0  0.93591  0.29965  0.23018  1.0000
  C   C939      1.0  0.93523  0.31285  0.26484  1.0000
  C   C940      1.0  0.95471  0.31762  0.28605  1.0000
  C   C941      1.0  0.97489  0.30948  0.27213  1.0000
  C   C942      1.0  0.97553  0.29596  0.23778  1.0000
  C   C943      1.0  0.71376  0.11797  0.49170  1.0000
  H   H753      1.0  0.95439  0.25941  0.08911  1.0000
  H   H754      1.0  0.87367  0.16264  0.46772  1.0000
  C   C944      1.0  0.72454  0.02554  0.24792  1.0000
  C   C945      1.0  0.68451  0.12099  0.17391  1.0000
  H   H755      1.0  0.92320  0.21432  0.24893  1.0000
  H   H756      1.0  0.98940  0.23363  0.45864  1.0000
  H   H757      1.0  0.98993  0.31271  0.28913  1.0000
  C   C946      1.0  0.88830  0.13183  0.44993  1.0000
  C   C947      1.0  0.94150  0.28664  0.05676  1.0000
  C   C948      1.0  0.73051  0.10205  0.49164  1.0000
  H   H758      1.0  0.99116  0.28868  0.22932  1.0000
  C   C949      1.0  0.76651  0.00069  0.44491  1.0000
  C   C950      1.0  0.90180  0.22392  0.20046  1.0000
  C   C951      1.0  0.92815  0.20260  0.35464  1.0000
  C   C952      1.0  0.96663  0.48248  0.05274  1.0000
  H   H759      1.0  0.92072  0.29586  0.21424  1.0000
  H   H760      1.0  0.91950  0.31905  0.27546  1.0000
  H   H761      1.0  0.95410  0.32716  0.31377  1.0000
  C   C953      1.0  0.91289  0.48685  0.12411  1.0000
  H   H762      1.0  0.68412  0.00156  0.14697  1.0000
  C   C954      1.0  0.93769  0.23931  0.21474  1.0000
  C   C955      1.0  0.69093  0.04190  0.47494  1.0000
  H   H763      1.0  0.79371  0.02086  0.43058  1.0000
  C   C956      1.0  0.85123  0.22691  0.44976  1.0000
  C   C957      1.0  0.88887  0.15408  0.46034  1.0000
  H   H764      1.0  0.71032  0.04619  0.42226  1.0000
  H   H765      1.0  0.69006  0.07924  0.40188  1.0000
  H   H766      1.0  0.94042  0.31836  0.15867  1.0000
  H   H767      1.0  0.98967  0.40025  0.13998  1.0000
  C   C958      1.0  0.90888  0.16515  0.46003  1.0000
  C   C959      1.0  0.92815  0.15371  0.44871  1.0000
  C   C960      1.0  0.68506  0.07081  0.42794  1.0000
  C   C961      1.0  0.77357  0.15538  0.48295  1.0000
  C   C962      1.0  0.86683  0.27607  0.50090  1.0000
  H   H768      1.0  0.94991  0.47665  0.05159  1.0000
  H   H769      1.0  0.83383  0.99834  0.46357  1.0000
  H   H770      1.0  0.98433  0.30572  0.04232  1.0000
  H   H771      1.0  0.97853  0.33496  0.09231  1.0000
  C   C963      1.0  0.88524  0.49043  0.03365  1.0000
  C   C964      1.0  0.69800  0.21757  0.43988  1.0000
  H   H772      1.0  0.67903  0.07081  0.01880  1.0000
  C   C965      1.0  0.71938  0.22939  0.49836  1.0000
  C   C966      1.0  0.67547  0.05092  0.12751  1.0000
  H   H773      1.0  0.73112  0.01070  0.26066  1.0000
  C   C967      1.0  0.76430  0.17504  0.49702  1.0000
  H   H774      1.0  0.70431  0.25113  0.45609  1.0000
  C   C968      1.0  0.99795  0.31088  0.06141  1.0000
  H   H775      1.0  0.68849  0.22135  0.41318  1.0000
  C   C969      1.0  0.98851  0.38698  0.01484  1.0000
  C   C970      1.0  0.67056  0.13897  0.23353  1.0000
  C   C971      1.0  0.67854  0.06467  0.04871  1.0000
  C   C972      1.0  0.90540  0.48708  0.01471  1.0000
  S   S133      1.0  0.87539  0.40710  0.01756  1.0000
  C   C973      1.0  0.76769  0.99782  0.34685  1.0000
  C   C974      1.0  0.77550  0.13766  0.50783  1.0000
  C   C975      1.0  0.83341  0.12542  0.50293  1.0000
  C   C976      1.0  0.97587  0.27268  0.51063  1.0000
  C   C977      1.0  0.74512  0.99727  0.35436  1.0000
  C   C978      1.0  0.90145  0.49531  0.15724  1.0000
  C   C979      1.0  0.67246  0.04960  0.49600  1.0000
  C   C980      1.0  0.76896  0.26514  0.83395  1.0000
  C   C981      1.0  0.71431  0.11836  0.56470  1.0000
  H   H776      1.0  0.81079  0.24075  0.55786  1.0000
  S   S134      1.0  0.87207  0.36781  0.92000  1.0000
  Fe  Fe67      1.0  0.89006  0.26999  0.74873  1.0000
  S   S135      1.0  0.91187  0.24024  0.73811  1.0000
  S   S136      1.0  0.89593  0.28318  0.81273  1.0000
  Fe  Fe68      1.0  0.87132  0.26611  0.66201  1.0000
  S   S137      1.0  0.89202  0.23672  0.64670  1.0000
  S   S138      1.0  0.84560  0.27787  0.61702  1.0000
  Fe  Fe69      1.0  0.88225  0.22531  0.70679  1.0000
  S   S139      1.0  0.87145  0.19038  0.71379  1.0000
  Fe  Fe70      1.0  0.91921  0.25476  0.67964  1.0000
  S   S140      1.0  0.95186  0.26118  0.65107  1.0000
  S   S141      1.0  0.86009  0.25385  0.72087  1.0000
  S   S142      1.0  0.89893  0.28523  0.69134  1.0000
  Fe  Fe71      1.0  0.75665  0.13314  0.73970  1.0000
  S   S143      1.0  0.72397  0.13171  0.70631  1.0000
  S   S144      1.0  0.77160  0.16685  0.74717  1.0000
  Fe  Fe72      1.0  0.75818  0.08368  0.74936  1.0000
  S   S145      1.0  0.72602  0.07928  0.71631  1.0000
  S   S146      1.0  0.77879  0.05468  0.76976  1.0000
  Fe  Fe73      1.0  0.73885  0.10281  0.67310  1.0000
  S   S147      1.0  0.74332  0.09215  0.60826  1.0000
  Fe  Fe74      1.0  0.71427  0.10828  0.75349  1.0000
  H   H777      1.0  0.96798  0.36936  0.70727  1.0000
  S   S148      1.0  0.77187  0.10559  0.70413  1.0000
  S   S149      1.0  0.74600  0.11159  0.78898  1.0000
  C   C982      1.0  0.73108  0.10239  0.56436  1.0000
  H   H778      1.0  0.91240  0.23421  0.51863  1.0000
  C   C983      1.0  0.99689  0.34637  0.76260  1.0000
  C   C984      1.0  0.70070  0.17822  0.65743  1.0000
  C   C985      1.0  0.84825  0.28093  0.56486  1.0000
  C   C986      1.0  0.86640  0.27315  0.54275  1.0000
  C   C987      1.0  0.83074  0.29134  0.54490  1.0000
  H   H779      1.0  0.87992  0.26483  0.55773  1.0000
  H   H780      1.0  0.81674  0.29754  0.56145  1.0000
  C   C988      1.0  0.84346  0.18405  0.72183  1.0000
  C   C989      1.0  0.82758  0.20031  0.73004  1.0000
  C   C990      1.0  0.80576  0.19468  0.73805  1.0000
  C   C991      1.0  0.79939  0.17280  0.73712  1.0000
  C   C992      1.0  0.81515  0.15650  0.72827  1.0000
  C   C993      1.0  0.83711  0.16213  0.72105  1.0000
  H   H781      1.0  0.83218  0.21720  0.73124  1.0000
  H   H782      1.0  0.79371  0.20734  0.74497  1.0000
  H   H783      1.0  0.81048  0.13959  0.72752  1.0000
  H   H784      1.0  0.84929  0.14942  0.71520  1.0000
  C   C994      1.0  0.81405  0.27289  0.78556  1.0000
  H   H785      1.0  0.99473  0.43477  0.96810  1.0000
  C   C995      1.0  0.74706  0.02620  0.74245  1.0000
  C   C996      1.0  0.76893  0.02871  0.75521  1.0000
  C   C997      1.0  0.78324  0.01042  0.75474  1.0000
  H   H786      1.0  0.82210  0.33423  0.90439  1.0000
  H   H787      1.0  0.68601  0.05803  0.75843  1.0000
  H   H788      1.0  0.73563  0.03971  0.74468  1.0000
  H   H789      1.0  0.80017  0.01218  0.76496  1.0000
  H   H790      1.0  0.95338  0.37197  0.63821  1.0000
  H   H791      1.0  0.73343  0.26710  0.83356  1.0000
  C   C998      1.0  0.98174  0.23984  0.70048  1.0000
  C   C999      1.0  0.97790  0.25668  0.67399  1.0000
  H   H792      1.0  0.74823  0.20354  0.63767  1.0000
  C   C1000     1.0  0.70098  0.04036  0.80665  1.0000
  H   H793      1.0  0.81355  0.29356  0.67712  1.0000
  H   H794      1.0  0.96820  0.22999  0.70927  1.0000
  C   C1001     1.0  0.98276  0.40614  0.99548  1.0000
  H   H795      1.0  0.80558  0.30801  0.85524  1.0000
  H   H796      1.0  0.93369  0.30520  0.63914  1.0000
  S   S150      1.0  0.92084  0.40033  0.96706  1.0000
  C   C1002     1.0  0.88045  0.34523  0.88898  1.0000
  C   C1003     1.0  0.87089  0.34253  0.85053  1.0000
  C   C1004     1.0  0.87606  0.32411  0.82596  1.0000
  C   C1005     1.0  0.89041  0.30789  0.84011  1.0000
  C   C1006     1.0  0.90021  0.31076  0.87827  1.0000
  C   C1007     1.0  0.89550  0.32942  0.90243  1.0000
  H   H797      1.0  0.85926  0.35469  0.83985  1.0000
  H   H798      1.0  0.86860  0.32226  0.79653  1.0000
  H   H799      1.0  0.91120  0.29823  0.88943  1.0000
  H   H800      1.0  0.90289  0.33125  0.93194  1.0000
  C   C1008     1.0  0.69207  0.17561  0.61863  1.0000
  H   H801      1.0  0.77003  0.27424  0.80704  1.0000
  C   C1009     1.0  0.78604  0.24665  0.88970  1.0000
  C   C1010     1.0  0.78805  0.25746  0.85378  1.0000
  C   C1011     1.0  0.85342  0.23808  0.82116  1.0000
  C   C1012     1.0  0.86585  0.21889  0.81535  1.0000
  C   C1013     1.0  0.85597  0.19869  0.81849  1.0000
  C   C1014     1.0  0.83360  0.19767  0.82721  1.0000
  C   C1015     1.0  0.82108  0.21686  0.83274  1.0000
  H   H802      1.0  0.86117  0.25361  0.81778  1.0000
  H   H803      1.0  0.88301  0.21969  0.80732  1.0000
  H   H804      1.0  0.86543  0.18383  0.81251  1.0000
  H   H805      1.0  0.82573  0.18199  0.82786  1.0000
  H   H806      1.0  0.76376  0.23425  0.93226  1.0000
  H   H807      1.0  0.80063  0.24109  0.90593  1.0000
  C   C1016     1.0  0.81341  0.28794  0.70741  1.0000
  H   H808      1.0  0.94835  0.30211  0.70740  1.0000
  C   C1017     1.0  0.77068  0.06020  0.86996  1.0000
  C   C1018     1.0  0.83031  0.12010  0.60278  1.0000
  C   C1019     1.0  0.82439  0.16747  0.60333  1.0000
  C   C1020     1.0  0.70609  0.02197  0.94948  1.0000
  H   H809      1.0  0.99284  0.28208  0.64165  1.0000
  C   C1021     1.0  0.80226  0.20264  0.64143  1.0000
  C   C1022     1.0  0.79309  0.18194  0.64029  1.0000
  H   H810      1.0  0.84950  0.19098  0.59219  1.0000
  H   H811      1.0  0.77354  0.00817  0.52649  1.0000
  C   C1023     1.0  0.80519  0.08982  0.60636  1.0000
  C   C1024     1.0  0.81431  0.08455  0.64347  1.0000
  C   C1025     1.0  0.83136  0.09700  0.66037  1.0000
  C   C1026     1.0  0.83931  0.11472  0.64020  1.0000
  H   H812      1.0  0.93986  0.26540  0.80934  1.0000
  C   C1027     1.0  0.73992  0.07933  0.90065  1.0000
  H   H813      1.0  0.77636  0.02145  0.67278  1.0000
  C   C1028     1.0  0.85387  0.28964  0.92471  1.0000
  C   C1029     1.0  0.71154  0.02213  0.54699  1.0000
  H   H814      1.0  0.79403  0.21605  0.65716  1.0000
  C   C1030     1.0  0.80406  0.16443  0.62134  1.0000
  H   H815      1.0  0.82866  0.17997  0.52414  1.0000
  C   C1031     1.0  0.94889  0.21252  0.58513  1.0000
  H   H816      1.0  0.80775  0.07120  0.65966  1.0000
  H   H817      1.0  0.83801  0.09327  0.68967  1.0000
  H   H818      1.0  0.85202  0.12452  0.65450  1.0000
  P   P35       1.0  0.74035  0.20070  0.55108  1.0000
  C   C1032     1.0  0.95441  0.30640  0.94061  1.0000
  H   H819      1.0  0.93763  0.30393  0.79120  1.0000
  H   H820      1.0  0.67399  0.06320  0.93744  1.0000
  C   C1033     1.0  0.76336  0.25771  0.60175  1.0000
  H   H821      1.0  0.93616  0.33989  0.60393  1.0000
  H   H822      1.0  0.83722  0.10999  0.51641  1.0000
  H   H823      1.0  0.67383  0.05519  0.86466  1.0000
  H   H824      1.0  0.98633  0.39587  0.89806  1.0000
  H   H825      1.0  0.91711  0.13526  0.54302  1.0000
  C   C1034     1.0  0.73908  0.09431  0.52778  1.0000
  H   H826      1.0  0.73265  0.24087  0.59829  1.0000
  C   C1035     1.0  0.99234  0.29410  0.77561  1.0000
  H   H827      1.0  0.72305  0.00453  0.71583  1.0000
  C   C1036     1.0  0.77467  0.01092  0.55834  1.0000
  H   H828      1.0  0.87712  0.13085  0.53216  1.0000
  C   C1037     1.0  0.68310  0.10912  0.90226  1.0000
  C   C1038     1.0  0.69671  0.00120  0.80307  1.0000
  H   H829      1.0  0.97540  0.24490  0.80572  1.0000
  H   H830      1.0  0.76749  0.05176  0.62831  1.0000
  C   C1039     1.0  0.99347  0.27231  0.78634  1.0000
  C   C1040     1.0  0.78537  0.25766  0.59043  1.0000
  C   C1041     1.0  0.96386  0.29835  0.90540  1.0000
  C   C1042     1.0  0.68890  0.04210  0.77089  1.0000
  H   H831      1.0  0.95402  0.28890  0.88398  1.0000
  C   C1043     1.0  0.99923  0.42014  0.98373  1.0000
  H   H832      1.0  0.76954  0.12600  0.56648  1.0000
  C   C1044     1.0  0.92331  0.22214  0.53190  1.0000
  C   C1045     1.0  0.75626  0.17690  0.53594  1.0000
  H   H833      1.0  0.99221  0.29758  0.86873  1.0000
  H   H834      1.0  0.81518  0.99788  0.52808  1.0000
  C   C1046     1.0  0.83296  0.14488  0.52622  1.0000
  H   H835      1.0  0.79608  0.27079  0.60046  1.0000
  H   H836      1.0  0.97530  0.27850  0.57469  1.0000
  C   C1047     1.0  0.72120  0.00601  0.61046  1.0000
  S   S151      1.0  0.67969  0.10698  0.77993  1.0000
  C   C1048     1.0  0.75800  0.22318  0.56545  1.0000
  C   C1049     1.0  0.80229  0.26898  0.71594  1.0000
  C   C1050     1.0  0.71261  0.04457  0.60800  1.0000
  H   H837      1.0  0.75692  0.27102  0.62034  1.0000
  H   H838      1.0  0.96568  0.41007  0.98895  1.0000
  H   H839      1.0  0.99141  0.36851  0.81337  1.0000
  C   C1051     1.0  0.77031  0.03184  0.57444  1.0000
  C   C1052     1.0  0.93452  0.22756  0.56750  1.0000
  H   H840      1.0  0.67494  0.99958  0.87337  1.0000
  H   H841      1.0  0.84749  0.22189  0.54971  1.0000
  C   C1053     1.0  0.70556  0.12601  0.52833  1.0000
  H   H842      1.0  0.80534  0.11159  0.55814  1.0000
  C   C1054     1.0  0.83358  0.18833  0.60487  1.0000
  C   C1055     1.0  0.75870  0.15918  0.56110  1.0000
  H   H843      1.0  0.72125  0.02817  0.66171  1.0000
  C   C1056     1.0  0.81312  0.10750  0.58614  1.0000
  C   C1057     1.0  0.73238  0.19618  0.63193  1.0000
  C   C1058     1.0  0.70361  0.18320  0.58639  1.0000
  H   H844      1.0  0.98795  0.35629  0.90446  1.0000
  H   H845      1.0  0.75228  0.08224  0.52745  1.0000
  C   C1059     1.0  0.79367  0.24062  0.56626  1.0000
  P   P36       1.0  0.97015  0.33388  0.76288  1.0000
  C   C1060     1.0  0.97228  0.30583  0.77743  1.0000
  C   C1061     1.0  0.95217  0.34804  0.79783  1.0000
  C   C1062     1.0  0.93406  0.36072  0.78480  1.0000
  C   C1063     1.0  0.92038  0.37139  0.81258  1.0000
  C   C1064     1.0  0.92463  0.36946  0.85341  1.0000
  C   C1065     1.0  0.94235  0.35655  0.86660  1.0000
  C   C1066     1.0  0.95602  0.34584  0.83891  1.0000
  C   C1067     1.0  0.95340  0.29535  0.79006  1.0000
  C   C1068     1.0  0.95459  0.27349  0.80043  1.0000
  C   C1069     1.0  0.97461  0.26197  0.79855  1.0000
  H   H846      1.0  0.71100  0.06040  0.62304  1.0000
  H   H847      1.0  0.93186  0.24343  0.58169  1.0000
  C   C1070     1.0  0.95906  0.33563  0.71271  1.0000
  C   C1071     1.0  0.94946  0.31756  0.69301  1.0000
  C   C1072     1.0  0.94120  0.31920  0.65397  1.0000
  C   C1073     1.0  0.94259  0.33876  0.63420  1.0000
  C   C1074     1.0  0.95227  0.35679  0.65353  1.0000
  C   C1075     1.0  0.96051  0.35525  0.69263  1.0000
  H   H848      1.0  0.69197  0.17193  0.68232  1.0000
  C   C1076     1.0  0.91379  0.15199  0.60014  1.0000
  C   C1077     1.0  0.67092  0.01009  0.97278  1.0000
  C   C1078     1.0  0.69145  0.01945  0.98055  1.0000
  C   C1079     1.0  0.95201  0.19189  0.56713  1.0000
  H   H849      1.0  0.93020  0.36226  0.75340  1.0000
  H   H850      1.0  0.90625  0.38098  0.80258  1.0000
  H   H851      1.0  0.91390  0.37765  0.87486  1.0000
  H   H852      1.0  0.94524  0.35472  0.89833  1.0000
  H   H853      1.0  0.96964  0.33584  0.84938  1.0000
  H   H854      1.0  0.98723  0.23998  0.56631  1.0000
  H   H855      1.0  0.85153  0.25833  0.89515  1.0000
  C   C1080     1.0  0.83103  0.23725  0.83040  1.0000
  C   C1081     1.0  0.71796  0.00394  0.56908  1.0000
  H   H856      1.0  0.80359  0.21558  0.83749  1.0000
  C   C1082     1.0  0.76521  0.24283  0.90476  1.0000
  C   C1083     1.0  0.76161  0.07915  0.88752  1.0000
  H   H857      1.0  0.83011  0.22172  0.62628  1.0000
  H   H858      1.0  0.79440  0.24647  0.76094  1.0000
  P   P37       1.0  0.81513  0.26232  0.83516  1.0000
  C   C1084     1.0  0.82513  0.29920  0.73765  1.0000
  H   H859      1.0  0.73011  0.24703  0.89602  1.0000
  H   H860      1.0  0.70640  0.10765  0.85412  1.0000
  C   C1085     1.0  0.82563  0.29162  0.77653  1.0000
  C   C1086     1.0  0.74625  0.25005  0.88437  1.0000
  H   H861      1.0  0.75249  0.15991  0.59110  1.0000
  H   H862      1.0  0.83438  0.31346  0.73071  1.0000
  C   C1087     1.0  0.80269  0.26142  0.75484  1.0000
  H   H863      1.0  0.83556  0.30009  0.79903  1.0000
  C   C1088     1.0  0.74813  0.26130  0.84911  1.0000
  H   H864      1.0  0.79383  0.25988  0.69221  1.0000
  C   C1089     1.0  0.84554  0.31098  0.92762  1.0000
  C   C1090     1.0  0.89911  0.15987  0.62893  1.0000
  C   C1091     1.0  0.82767  0.28134  0.87071  1.0000
  H   H865      1.0  0.70815  0.12479  0.59280  1.0000
  C   C1092     1.0  0.84490  0.27479  0.89657  1.0000
  H   H866      1.0  0.85277  0.32264  0.94887  1.0000
  H   H867      1.0  0.73284  0.09417  0.91367  1.0000
  H   H868      1.0  0.77125  0.09383  0.89017  1.0000
  C   C1093     1.0  0.81911  0.30272  0.87439  1.0000
  C   C1094     1.0  0.72724  0.06060  0.89598  1.0000
  P   P38       1.0  0.83879  0.14467  0.57946  1.0000
  C   C1095     1.0  0.73630  0.04140  0.87854  1.0000
  C   C1096     1.0  0.87330  0.20755  0.51372  1.0000
  H   H869      1.0  0.90520  0.16781  0.65630  1.0000
  H   H870      1.0  0.71027  0.06133  0.90517  1.0000
  C   C1097     1.0  0.96570  0.27770  0.54708  1.0000
  H   H871      1.0  0.69575  0.10926  0.92546  1.0000
  H   H872      1.0  0.77795  0.17914  0.65572  1.0000
  C   C1098     1.0  0.75809  0.04142  0.86528  1.0000
  C   C1099     1.0  0.68101  0.02342  0.75090  1.0000
  Fe  Fe75      1.0  0.89030  0.38118  0.97581  1.0000
  H   H873      1.0  0.79679  0.14848  0.62171  1.0000
  H   H874      1.0  0.96326  0.18029  0.58081  1.0000
  C   C1100     1.0  0.96683  0.31913  0.96762  1.0000
  C   C1101     1.0  0.82820  0.31753  0.90243  1.0000
  H   H875      1.0  0.76529  0.02723  0.85022  1.0000
  H   H876      1.0  0.79147  0.08062  0.59385  1.0000
  H   H877      1.0  0.69694  0.18032  0.55657  1.0000
  C   C1102     1.0  0.70963  0.04262  0.56664  1.0000
  H   H878      1.0  0.72205  0.02902  0.95614  1.0000
  C   C1103     1.0  0.77614  0.01850  0.64082  1.0000
  H   H879      1.0  0.78726  0.06026  0.85857  1.0000
  H   H880      1.0  0.93732  0.30318  0.94659  1.0000
  C   C1104     1.0  0.98570  0.30315  0.89711  1.0000
  C   C1105     1.0  0.82260  0.20581  0.62400  1.0000
  C   C1106     1.0  0.77124  0.03565  0.61568  1.0000
  C   C1107     1.0  0.78017  0.99750  0.62488  1.0000
  H   H881      1.0  0.72792  0.18981  0.69407  1.0000
  C   C1108     1.0  0.87644  0.15748  0.62273  1.0000
  H   H882      1.0  0.88180  0.20052  0.53909  1.0000
  C   C1109     1.0  0.68919  0.10823  0.86184  1.0000
  C   C1110     1.0  0.98876  0.32373  0.95980  1.0000
  C   C1111     1.0  0.99562  0.26917  0.66243  1.0000
  H   H883      1.0  0.93136  0.15372  0.60524  1.0000
  H   H884      1.0  0.95752  0.21692  0.61284  1.0000
  C   C1112     1.0  0.78011  0.22336  0.55381  1.0000
  C   C1113     1.0  0.67974  0.00544  0.90295  1.0000
  C   C1114     1.0  0.73987  0.00614  0.72661  1.0000
  C   C1115     1.0  0.72089  0.18843  0.66406  1.0000
  C   C1116     1.0  0.88302  0.13927  0.55895  1.0000
  P   P39       1.0  0.71964  0.01750  0.87053  1.0000
  H   H885      1.0  0.70725  0.05513  0.82091  1.0000
  C   C1117     1.0  0.70020  0.01532  0.91025  1.0000
  H   H886      1.0  0.76577  0.04506  0.55512  1.0000
  H   H887      1.0  0.86535  0.16334  0.64568  1.0000
  H   H888      1.0  0.70617  0.05723  0.55025  1.0000
  C   C1118     1.0  0.94038  0.18615  0.53193  1.0000
  C   C1119     1.0  0.74969  0.24060  0.58920  1.0000
  C   C1120     1.0  0.68501  0.00296  0.76690  1.0000
  C   C1121     1.0  0.90575  0.14162  0.56518  1.0000
  C   C1122     1.0  0.70478  0.01989  0.82336  1.0000
  C   C1123     1.0  0.85366  0.21936  0.51988  1.0000
  C   C1124     1.0  0.94305  0.28226  0.54816  1.0000
  C   C1125     1.0  0.76843  0.13974  0.54712  1.0000
  C   C1126     1.0  0.72378  0.19376  0.59280  1.0000
  C   C1127     1.0  0.86816  0.14761  0.58732  1.0000
  C   C1128     1.0  0.71834  0.02632  0.62989  1.0000
  H   H889      1.0  0.78704  0.21013  0.53570  1.0000
  H   H890      1.0  0.93531  0.28588  0.57643  1.0000
  H   H891      1.0  0.86750  0.28471  0.94395  1.0000
  H   H892      1.0  0.95932  0.32605  0.99423  1.0000
  H   H893      1.0  0.69255  0.13830  0.52855  1.0000
  S   S152      1.0  0.91584  0.46062  0.00051  1.0000
  H   H894      1.0  0.67665  0.16724  0.61344  1.0000
  C   C1129     1.0  0.99838  0.31588  0.92435  1.0000
  C   C1130     1.0  0.00268  0.36294  0.79056  1.0000
  H   H895      1.0  0.99777  0.33431  0.98062  1.0000
  C   C1131     1.0  0.92584  0.20124  0.51410  1.0000
  H   H896      1.0  0.94272  0.16994  0.51921  1.0000
  C   C1132     1.0  0.93043  0.28228  0.51286  1.0000
  H   H897      1.0  0.91299  0.28629  0.51373  1.0000
  H   H898      1.0  0.72634  0.24260  0.51632  1.0000
  H   H899      1.0  0.67216  0.02481  0.72267  1.0000
  C   C1133     1.0  0.67299  0.10837  0.83152  1.0000
  C   C1134     1.0  0.00211  0.38730  0.89700  1.0000
  H   H900      1.0  0.69607  0.02470  0.01069  1.0000
  Fe  Fe76      1.0  0.90723  0.42507  0.01193  1.0000
  S   S153      1.0  0.91261  0.60290  0.10564  1.0000
  Fe  Fe77      1.0  0.89657  0.63514  0.09225  1.0000
  S   S154      1.0  0.87772  0.65420  0.14076  1.0000
  Fe  Fe78      1.0  0.87620  0.77353  0.36331  1.0000
  S   S155      1.0  0.87894  0.73673  0.36047  1.0000
  S   S156      1.0  0.84164  0.78828  0.35831  1.0000
  Fe  Fe79      1.0  0.92529  0.77861  0.37456  1.0000
  S   S157      1.0  0.93183  0.74280  0.37312  1.0000
  S   S158      1.0  0.95356  0.80133  0.38606  1.0000
  Fe  Fe80      1.0  0.90790  0.74107  0.32109  1.0000
  S   S159      1.0  0.92115  0.72146  0.26744  1.0000
  Fe  Fe81      1.0  0.90269  0.74112  0.41257  1.0000
  S   S160      1.0  0.90428  0.71602  0.46054  1.0000
  S   S161      1.0  0.90341  0.77756  0.31970  1.0000
  S   S162      1.0  0.89785  0.77733  0.41830  1.0000
  Fe  Fe82      1.0  0.73135  0.89741  0.40332  1.0000
  S   S163      1.0  0.75927  0.92049  0.41159  1.0000
  S   S164      1.0  0.70993  0.88649  0.45348  1.0000
  Fe  Fe83      1.0  0.73487  0.89604  0.31073  1.0000
  S   S165      1.0  0.76346  0.91887  0.31333  1.0000
  S   S166      1.0  0.72386  0.88100  0.25043  1.0000
  Fe  Fe84      1.0  0.77598  0.89891  0.36483  1.0000
  S   S167      1.0  0.81203  0.88843  0.37350  1.0000
  Fe  Fe85      1.0  0.74399  0.93791  0.35949  1.0000
  S   S168      1.0  0.73124  0.97278  0.36113  1.0000
  S   S169      1.0  0.74869  0.87483  0.35942  1.0000
  S   S170      1.0  0.71475  0.91601  0.35402  1.0000
  C   C1135     1.0  0.69378  0.98701  0.43902  1.0000
  C   C1136     1.0  0.97054  0.50474  0.05802  1.0000
  C   C1137     1.0  0.81144  0.71662  0.44827  1.0000
  H   H901      1.0  0.95671  0.51608  0.06045  1.0000
  H   H902      1.0  0.77708  0.98276  0.34339  1.0000
  C   C1138     1.0  0.83408  0.81626  0.36298  1.0000
  C   C1139     1.0  0.84908  0.83227  0.37549  1.0000
  C   C1140     1.0  0.84213  0.85431  0.37887  1.0000
  C   C1141     1.0  0.82019  0.86051  0.36970  1.0000
  C   C1142     1.0  0.80531  0.84446  0.35715  1.0000
  C   C1143     1.0  0.81220  0.82249  0.35399  1.0000
  H   H903      1.0  0.86594  0.82762  0.38263  1.0000
  H   H904      1.0  0.85378  0.86663  0.38842  1.0000
  H   H905      1.0  0.78852  0.84896  0.34939  1.0000
  H   H906      1.0  0.80050  0.81025  0.34419  1.0000
  C   C1144     1.0  0.73537  0.83486  0.48575  1.0000
  H   H907      1.0  0.71838  0.94141  0.48803  1.0000
  C   C1145     1.0  0.82168  0.78038  0.47243  1.0000
  H   H908      1.0  0.96950  0.63809  0.02667  1.0000
  C   C1146     1.0  0.67093  0.96376  0.49453  1.0000
  H   H909      1.0  0.80730  0.93582  0.43052  1.0000
  H   H910      1.0  0.99810  0.68256  0.43395  1.0000
  C   C1147     1.0  0.75744  0.83254  0.42670  1.0000
  C   C1148     1.0  0.79841  0.94890  0.48861  1.0000
  H   H911      1.0  0.86225  0.73097  0.48336  1.0000
  C   C1149     1.0  0.97503  0.77734  0.32784  1.0000
  C   C1150     1.0  0.97658  0.79396  0.35719  1.0000
  H   H912      1.0  0.78908  0.93467  0.49548  1.0000
  H   H913      1.0  0.95957  0.76922  0.32222  1.0000
  H   H914      1.0  0.70616  0.86623  0.17428  1.0000
  C   C1151     1.0  0.89011  0.67229  0.17672  1.0000
  C   C1152     1.0  0.87768  0.68067  0.20887  1.0000
  C   C1153     1.0  0.88697  0.69539  0.23749  1.0000
  C   C1154     1.0  0.90867  0.70223  0.23370  1.0000
  C   C1155     1.0  0.92110  0.69370  0.20176  1.0000
  C   C1156     1.0  0.91191  0.67880  0.17346  1.0000
  H   H915      1.0  0.86083  0.67560  0.21180  1.0000
  H   H916      1.0  0.87742  0.70130  0.26254  1.0000
  H   H917      1.0  0.93796  0.69869  0.19906  1.0000
  H   H918      1.0  0.92151  0.67243  0.14884  1.0000
  C   C1157     1.0  0.89682  0.85067  0.44407  1.0000
  C   C1158     1.0  0.71672  0.88344  0.06250  1.0000
  H   H919      1.0  0.86106  0.51359  0.13941  1.0000
  H   H920      1.0  0.92033  0.82462  0.43241  1.0000
  C   C1159     1.0  0.72141  0.86593  0.08747  1.0000
  C   C1160     1.0  0.82382  0.98460  0.47050  1.0000
  H   H921      1.0  0.98508  0.73340  0.20348  1.0000
  H   H922      1.0  0.79236  0.83396  0.43598  1.0000
  C   C1161     1.0  0.69756  0.93386  0.07299  1.0000
  C   C1162     1.0  0.94510  0.68333  0.39912  1.0000
  H   H923      1.0  0.92853  0.68005  0.40861  1.0000
  C   C1163     1.0  0.68904  0.84725  0.06153  1.0000
  H   H924      1.0  0.86760  0.59397  0.15169  1.0000
  Fe  Fe86      1.0  0.93950  0.61398  0.06699  1.0000
  C   C1164     1.0  0.94836  0.69136  0.36129  1.0000
  H   H925      1.0  0.72193  0.83208  0.42590  1.0000
  H   H926      1.0  0.84023  0.70513  0.05567  1.0000
  H   H927      1.0  0.84255  0.72133  0.42009  1.0000
  Fe  Fe87      1.0  0.89745  0.58945  0.04841  1.0000
  C   C1165     1.0  0.98125  0.73084  0.49236  1.0000
  S   S171      1.0  0.87974  0.55675  0.04777  1.0000
  C   C1166     1.0  0.80029  0.71683  0.48436  1.0000
  H   H928      1.0  0.71100  0.83473  0.10694  1.0000
  H   H929      1.0  0.97136  0.70417  0.32117  1.0000
  C   C1167     1.0  0.77656  0.83464  0.45038  1.0000
  H   H930      1.0  0.77856  0.92377  0.04894  1.0000
  C   C1168     1.0  0.88904  0.85538  0.12599  1.0000
  C   C1169     1.0  0.88052  0.84177  0.09541  1.0000
  C   C1170     1.0  0.86941  0.82292  0.10471  1.0000
  C   C1171     1.0  0.86699  0.81756  0.14456  1.0000
  C   C1172     1.0  0.87610  0.83083  0.17537  1.0000
  C   C1173     1.0  0.88665  0.85006  0.16586  1.0000
  P   P40       1.0  0.87237  0.82459  0.22689  1.0000
  C   C1174     1.0  0.86744  0.79593  0.23160  1.0000
  C   C1175     1.0  0.89738  0.82903  0.25596  1.0000
  C   C1176     1.0  0.89649  0.83138  0.29765  1.0000
  C   C1177     1.0  0.91594  0.83307  0.32066  1.0000
  C   C1178     1.0  0.93639  0.83207  0.30228  1.0000
  C   C1179     1.0  0.93744  0.82935  0.26087  1.0000
  C   C1180     1.0  0.91803  0.82776  0.23776  1.0000
  C   C1181     1.0  0.85117  0.78881  0.25696  1.0000
  C   C1182     1.0  0.84812  0.76655  0.26159  1.0000
  C   C1183     1.0  0.86156  0.75126  0.24162  1.0000
  C   C1184     1.0  0.87821  0.75818  0.21716  1.0000
  C   C1185     1.0  0.88116  0.78045  0.21216  1.0000
  C   C1186     1.0  0.84945  0.84153  0.24351  1.0000
  C   C1187     1.0  0.82778  0.83600  0.23215  1.0000
  C   C1188     1.0  0.80995  0.84917  0.24449  1.0000
  C   C1189     1.0  0.81366  0.86817  0.26750  1.0000
  C   C1190     1.0  0.83520  0.87416  0.27779  1.0000
  C   C1191     1.0  0.85306  0.86099  0.26570  1.0000
  H   H931      1.0  0.89736  0.87017  0.11880  1.0000
  C   C1192     1.0  0.98999  0.76654  0.05143  1.0000
  H   H932      1.0  0.86251  0.81254  0.08102  1.0000
  H   H933      1.0  0.85791  0.80316  0.15117  1.0000
  H   H934      1.0  0.89302  0.86094  0.18929  1.0000
  H   H935      1.0  0.88080  0.83120  0.31242  1.0000
  H   H936      1.0  0.91529  0.83434  0.35288  1.0000
  H   H937      1.0  0.95146  0.83285  0.32026  1.0000
  H   H938      1.0  0.95338  0.82804  0.24691  1.0000
  H   H939      1.0  0.91924  0.82503  0.20588  1.0000
  H   H940      1.0  0.84116  0.80032  0.27411  1.0000
  H   H941      1.0  0.83570  0.76120  0.28165  1.0000
  H   H942      1.0  0.85931  0.73406  0.24571  1.0000
  H   H943      1.0  0.88908  0.74623  0.20281  1.0000
  H   H944      1.0  0.89433  0.78557  0.19359  1.0000
  H   H945      1.0  0.82461  0.82138  0.21417  1.0000
  H   H946      1.0  0.79319  0.84455  0.23671  1.0000
  H   H947      1.0  0.79984  0.87811  0.27798  1.0000
  H   H948      1.0  0.83795  0.88881  0.29602  1.0000
  H   H949      1.0  0.86958  0.86605  0.27384  1.0000
  C   C1193     1.0  0.85736  0.70404  0.04762  1.0000
  H   H950      1.0  0.83052  0.53733  0.11698  1.0000
  H   H951      1.0  0.89855  0.57049  0.17427  1.0000
  H   H952      1.0  0.71932  0.83525  0.49931  1.0000
  C   C1194     1.0  0.68202  0.89027  0.15520  1.0000
  C   C1195     1.0  0.84272  0.78497  0.45945  1.0000
  C   C1196     1.0  0.75325  0.90357  0.02121  1.0000
  C   C1197     1.0  0.73878  0.91814  0.14337  1.0000
  H   H953      1.0  0.96041  0.67429  0.45470  1.0000
  C   C1198     1.0  0.94528  0.78009  0.17133  1.0000
  C   C1199     1.0  0.82522  0.89455  0.47922  1.0000
  P   P41       1.0  0.99320  0.74131  0.11918  1.0000
  C   C1200     1.0  0.96951  0.69676  0.34974  1.0000
  C   C1201     1.0  0.77528  0.83728  0.49209  1.0000
  H   H954      1.0  0.95967  0.67124  0.15064  1.0000
  C   C1202     1.0  0.99346  0.77137  0.30521  1.0000
  C   C1203     1.0  0.69288  0.91244  0.22736  1.0000
  H   H955      1.0  0.86843  0.70003  0.10856  1.0000
  C   C1204     1.0  0.81377  0.87515  0.48222  1.0000
  C   C1205     1.0  0.83905  0.82185  0.48670  1.0000
  P   P42       1.0  0.90508  0.52313  0.17507  1.0000
  C   C1206     1.0  0.90749  0.52287  0.22892  1.0000
  C   C1207     1.0  0.93010  0.53394  0.15573  1.0000
  C   C1208     1.0  0.92931  0.54518  0.11998  1.0000
  C   C1209     1.0  0.94822  0.55473  0.10590  1.0000
  C   C1210     1.0  0.96820  0.55286  0.12703  1.0000
  C   C1211     1.0  0.96936  0.54111  0.16201  1.0000
  C   C1212     1.0  0.95038  0.53166  0.17635  1.0000
  C   C1213     1.0  0.89830  0.53977  0.25285  1.0000
  C   C1214     1.0  0.90009  0.53917  0.29445  1.0000
  H   H956      1.0  0.67780  0.88157  0.12764  1.0000
  C   C1215     1.0  0.99671  0.80454  0.36384  1.0000
  H   H957      1.0  0.92361  0.81411  0.50248  1.0000
  C   C1216     1.0  0.88198  0.54020  0.15969  1.0000
  C   C1217     1.0  0.86259  0.53103  0.14348  1.0000
  C   C1218     1.0  0.84512  0.54447  0.13073  1.0000
  C   C1219     1.0  0.84686  0.56712  0.13400  1.0000
  C   C1220     1.0  0.86605  0.57639  0.15017  1.0000
  C   C1221     1.0  0.88358  0.56301  0.16282  1.0000
  C   C1222     1.0  0.77348  0.91438  0.02252  1.0000
  H   H958      1.0  0.67823  0.83340  0.06129  1.0000
  H   H959      1.0  0.95924  0.72996  0.44112  1.0000
  H   H960      1.0  0.82558  0.90243  0.45089  1.0000
  H   H961      1.0  0.91400  0.54693  0.10322  1.0000
  H   H962      1.0  0.94729  0.56384  0.07872  1.0000
  H   H963      1.0  0.98267  0.56068  0.11621  1.0000
  H   H964      1.0  0.98489  0.53954  0.17824  1.0000
  H   H965      1.0  0.95160  0.52283  0.20364  1.0000
  H   H966      1.0  0.88960  0.55337  0.23973  1.0000
  H   H967      1.0  0.89286  0.55222  0.31269  1.0000
  H   H968      1.0  0.78295  0.71293  0.48410  1.0000
  H   H969      1.0  0.99068  0.64901  0.12499  1.0000
  C   C1223     1.0  0.96272  0.73747  0.47013  1.0000
  C   C1224     1.0  0.89558  0.69904  0.06837  1.0000
  H   H970      1.0  0.96019  0.71132  0.14757  1.0000
  C   C1225     1.0  0.80928  0.79650  0.49241  1.0000
  C   C1226     1.0  0.91102  0.52173  0.31250  1.0000
  C   C1227     1.0  0.70351  0.89256  0.21803  1.0000
  H   H971      1.0  0.70244  0.99587  0.41706  1.0000
  S   S172      1.0  0.97392  0.60693  0.08938  1.0000
  C   C1228     1.0  0.87769  0.51181  0.04360  1.0000
  H   H972      1.0  0.84579  0.83792  0.49088  1.0000
  C   C1229     1.0  0.76919  0.90663  0.18618  1.0000
  H   H973      1.0  0.69107  0.92091  0.09013  1.0000
  H   H974      1.0  0.85193  0.77265  0.44260  1.0000
  H   H975      1.0  0.93428  0.75884  0.46793  1.0000
  H   H976      1.0  0.86737  0.80951  0.45522  1.0000
  C   C1230     1.0  0.96310  0.68013  0.42512  1.0000
  H   H977      1.0  0.96550  0.71735  0.05980  1.0000
  H   H978      1.0  0.82960  0.96755  0.41433  1.0000
  H   H979      1.0  0.75861  0.83077  0.39457  1.0000
  C   C1231     1.0  0.71833  0.93148  0.05571  1.0000
  C   C1232     1.0  0.87333  0.70124  0.07783  1.0000
  H   H980      1.0  0.79487  0.88767  0.15757  1.0000
  C   C1233     1.0  0.77937  0.89644  0.15338  1.0000
  H   H981      1.0  0.98636  0.73703  0.39069  1.0000
  C   C1234     1.0  0.76923  0.89701  0.11552  1.0000
  C   C1235     1.0  0.85138  0.80571  0.46651  1.0000
  C   C1236     1.0  0.83382  0.72157  0.44798  1.0000
  C   C1237     1.0  0.91851  0.50542  0.24736  1.0000
  H   H982      1.0  0.83363  0.57750  0.12289  1.0000
  C   C1238     1.0  0.94858  0.75376  0.48533  1.0000
  C   C1239     1.0  0.69299  0.99486  0.47871  1.0000
  C   C1240     1.0  0.89028  0.53010  0.03532  1.0000
  H   H983      1.0  0.88233  0.84593  0.06452  1.0000
  S   S173      1.0  0.87885  0.62101  0.03781  1.0000
  H   H984      1.0  0.90781  0.69630  0.09176  1.0000
  C   C1241     1.0  0.99214  0.51234  0.05886  1.0000
  H   H985      1.0  0.73551  0.86615  0.10777  1.0000
  H   H986      1.0  0.93433  0.69420  0.34133  1.0000
  C   C1242     1.0  0.91087  0.83348  0.45493  1.0000
  C   C1243     1.0  0.99314  0.71211  0.12389  1.0000
  H   H987      1.0  0.69417  0.89581  0.01776  1.0000
  H   H988      1.0  0.99479  0.52970  0.06148  1.0000
  C   C1244     1.0  0.97396  0.67918  0.13954  1.0000
  H   H989      1.0  0.89531  0.85510  0.41312  1.0000
  H   H990      1.0  0.98633  0.61306  0.23620  1.0000
  H   H991      1.0  0.93284  0.77884  0.23113  1.0000
  H   H992      1.0  0.77664  0.90569  0.21576  1.0000
  C   C1245     1.0  0.68437  0.86450  0.03645  1.0000
  C   C1246     1.0  0.91063  0.52671  0.01709  1.0000
  C   C1247     1.0  0.71352  0.96755  0.02839  1.0000
  H   H993      1.0  0.99225  0.75856  0.28247  1.0000
  H   H994      1.0  0.00186  0.67281  0.22274  1.0000
  C   C1248     1.0  0.91277  0.82765  0.49481  1.0000
  C   C1249     1.0  0.70755  0.84797  0.08706  1.0000
  C   C1250     1.0  0.98396  0.74713  0.06896  1.0000
  C   C1251     1.0  0.96026  0.77105  0.14396  1.0000
  P   P43       1.0  0.73453  0.90674  0.06234  1.0000
  H   H995      1.0  0.68287  0.98433  0.04210  1.0000
  C   C1252     1.0  0.94454  0.77213  0.20982  1.0000
  H   H996      1.0  0.69691  0.92108  0.25513  1.0000
  H   H997      1.0  0.73673  0.98494  0.45920  1.0000
  H   H998      1.0  0.72266  0.92587  0.14072  1.0000
  C   C1253     1.0  0.99336  0.62015  0.06171  1.0000
  H   H999      1.0  0.75522  0.95735  0.49313  1.0000
  H   H1000     1.0  0.74073  0.92475  0.20685  1.0000
  H   H1001     1.0  0.99800  0.81741  0.38651  1.0000
  H   H1002     1.0  0.96039  0.77731  0.11423  1.0000
  H   H1003     1.0  0.79263  0.79298  0.50074  1.0000
  C   C1254     1.0  0.73682  0.83295  0.44433  1.0000
  H   H1004     1.0  0.86187  0.51419  0.05746  1.0000
  H   H1005     1.0  0.91907  0.69723  0.02111  1.0000
  H   H1006     1.0  0.81463  0.76462  0.46557  1.0000
  C   C1255     1.0  0.92023  0.50486  0.28895  1.0000
  C   C1256     1.0  0.98440  0.68490  0.41323  1.0000
  H   H1007     1.0  0.77692  0.88827  0.09081  1.0000
  H   H1008     1.0  0.87371  0.87537  0.46458  1.0000
  C   C1257     1.0  0.88473  0.86214  0.47313  1.0000
  C   C1258     1.0  0.98778  0.69319  0.37536  1.0000
  H   H1009     1.0  0.95805  0.74894  0.25069  1.0000
  C   C1259     1.0  0.69806  0.88161  0.18172  1.0000
  H   H1010     1.0  0.93415  0.79313  0.16255  1.0000
  C   C1260     1.0  0.69283  0.96969  0.04575  1.0000
  S   S174      1.0  0.92477  0.64737  0.05727  1.0000
  C   C1261     1.0  0.97451  0.70187  0.13826  1.0000
  C   C1262     1.0  0.97470  0.75402  0.15502  1.0000
  C   C1263     1.0  0.72625  0.94853  0.03334  1.0000
  H   H1011     1.0  0.99436  0.77170  0.42624  1.0000
  C   C1264     1.0  0.69806  0.88255  0.03712  1.0000
  C   C1265     1.0  0.74896  0.91750  0.18112  1.0000
  C   C1266     1.0  0.95888  0.75528  0.22101  1.0000
  H   H1012     1.0  0.74220  0.94728  0.01970  1.0000
  C   C1267     1.0  0.97407  0.74641  0.19401  1.0000
  C   C1268     1.0  0.82156  0.96722  0.44284  1.0000
  C   C1269     1.0  0.68488  0.95285  0.06793  1.0000
  C   C1270     1.0  0.74891  0.90803  0.11015  1.0000
  H   H1013     1.0  0.80548  0.86848  0.45584  1.0000
  C   C1271     1.0  0.98681  0.63518  0.03320  1.0000
  C   C1272     1.0  0.97057  0.73237  0.04708  1.0000
  H   H1014     1.0  0.99254  0.71895  0.47928  1.0000
  H   H1015     1.0  0.80277  0.71260  0.42047  1.0000
  C   C1273     1.0  0.80898  0.94932  0.45201  1.0000
  C   C1274     1.0  0.71379  0.88331  0.50563  1.0000
  H   H1016     1.0  0.00009  0.77826  0.06790  1.0000
  H   H1017     1.0  0.77410  0.98582  0.43298  1.0000
  H   H1018     1.0  0.91227  0.52123  0.34473  1.0000
  C   C1275     1.0  0.84496  0.72699  0.48369  1.0000
  H   H1019     1.0  0.99811  0.67235  0.29587  1.0000
  C   C1276     1.0  0.99157  0.66655  0.12528  1.0000
  C   C1277     1.0  0.67287  0.95548  0.45541  1.0000
  C   C1278     1.0  0.81785  0.81736  0.49957  1.0000
  C   C1279     1.0  0.90190  0.69959  0.02864  1.0000
  C   C1280     1.0  0.81302  0.98436  0.50690  1.0000
  C   C1281     1.0  0.68411  0.96723  0.42758  1.0000
  H   H1020     1.0  0.67010  0.86389  0.01646  1.0000
  H   H1021     1.0  0.68568  0.96090  0.39715  1.0000
  H   H1022     1.0  0.84506  0.91876  0.50993  1.0000
  C   C1282     1.0  0.67124  0.91003  0.16478  1.0000
  H   H1023     1.0  0.92371  0.49696  0.10777  1.0000
  C   C1283     1.0  0.67685  0.92108  0.20089  1.0000
  C   C1284     1.0  0.68082  0.98346  0.50614  1.0000
  H   H1024     1.0  0.99716  0.61988  0.16721  1.0000
  H   H1025     1.0  0.77269  0.71420  0.03912  1.0000
  C   C1285     1.0  0.00274  0.64680  0.01355  1.0000
  C   C1286     1.0  0.78474  0.72244  0.02195  1.0000
  H   H1026     1.0  0.76727  0.75332  0.02461  1.0000
  H   H1027     1.0  0.68158  0.86955  0.50918  1.0000
  C   C1287     1.0  0.00243  0.61961  0.23080  1.0000
  H   H1028     1.0  0.80546  0.69392  0.01459  1.0000
  C   C1288     1.0  0.78171  0.74448  0.01385  1.0000
  C   C1289     1.0  0.75444  0.83705  0.50961  1.0000
  C   C1290     1.0  0.98307  0.77089  0.01237  1.0000
  C   C1291     1.0  0.95271  0.76321  0.52314  1.0000
  H   H1029     1.0  0.78725  0.97631  0.73723  1.0000
  S   S175      1.0  0.90143  0.64395  0.94103  1.0000
  H   H1030     1.0  0.84595  0.95801  0.66206  1.0000
  C   C1292     1.0  0.75846  0.95459  0.55730  1.0000
  C   C1293     1.0  0.67421  0.87896  0.90997  1.0000
  C   C1294     1.0  0.68300  0.93911  0.83387  1.0000
  C   C1295     1.0  0.72643  0.94373  0.51705  1.0000
  H   H1031     1.0  0.93347  0.50306  0.99146  1.0000
  Fe  Fe88      1.0  0.91284  0.73674  0.70070  1.0000
  S   S176      1.0  0.90470  0.77194  0.69260  1.0000
  S   S177      1.0  0.91316  0.71168  0.64971  1.0000
  Fe  Fe89      1.0  0.91894  0.74202  0.79202  1.0000
  S   S178      1.0  0.91133  0.77800  0.79000  1.0000
  S   S179      1.0  0.92945  0.72957  0.85320  1.0000
  Fe  Fe90      1.0  0.88406  0.76909  0.74670  1.0000
  S   S180      1.0  0.84863  0.78114  0.75072  1.0000
  Fe  Fe91      1.0  0.93286  0.77760  0.73627  1.0000
  S   S181      1.0  0.95524  0.80589  0.72763  1.0000
  S   S182      1.0  0.89012  0.73298  0.75218  1.0000
  S   S183      1.0  0.94258  0.74245  0.74103  1.0000
  Fe  Fe92      1.0  0.73824  0.88616  0.68902  1.0000
  S   S184      1.0  0.76676  0.90567  0.67198  1.0000
  S   S185      1.0  0.71775  0.86965  0.63998  1.0000
  Fe  Fe93      1.0  0.74497  0.89705  0.77889  1.0000
  S   S186      1.0  0.77460  0.91736  0.76696  1.0000
  S   S187      1.0  0.73618  0.89953  0.84476  1.0000
  Fe  Fe94      1.0  0.75428  0.93066  0.71652  1.0000
  S   S188      1.0  0.74510  0.96467  0.69835  1.0000
  Fe  Fe95      1.0  0.78437  0.89015  0.72386  1.0000
  S   S189      1.0  0.81996  0.87889  0.71499  1.0000
  S   S190      1.0  0.72425  0.91208  0.73060  1.0000
  S   S191      1.0  0.75622  0.86881  0.73885  1.0000
  C   C1296     1.0  0.71695  0.87619  0.58874  1.0000
  H   H1032     1.0  0.76610  0.70605  0.62435  1.0000
  C   C1297     1.0  0.69812  0.87030  0.56648  1.0000
  H   H1033     1.0  0.67937  0.98840  0.75095  1.0000
  C   C1298     1.0  0.74658  0.98602  0.83347  1.0000
  C   C1299     1.0  0.91073  0.71511  0.59750  1.0000
  C   C1300     1.0  0.90744  0.73532  0.57946  1.0000
  C   C1301     1.0  0.91205  0.69618  0.57328  1.0000
  H   H1034     1.0  0.90637  0.75008  0.59791  1.0000
  H   H1035     1.0  0.91450  0.68053  0.58677  1.0000
  C   C1302     1.0  0.84140  0.80863  0.74240  1.0000
  C   C1303     1.0  0.85667  0.82330  0.72881  1.0000
  C   C1304     1.0  0.85004  0.84490  0.72122  1.0000
  C   C1305     1.0  0.82815  0.85200  0.72707  1.0000
  C   C1306     1.0  0.81311  0.83745  0.74171  1.0000
  C   C1307     1.0  0.81965  0.81581  0.74893  1.0000
  H   H1036     1.0  0.87358  0.81803  0.72432  1.0000
  H   H1037     1.0  0.86203  0.85616  0.71128  1.0000
  H   H1038     1.0  0.79637  0.84278  0.74719  1.0000
  H   H1039     1.0  0.80780  0.80463  0.75987  1.0000
  P   P44       1.0  0.78540  0.96654  0.56244  1.0000
  C   C1308     1.0  0.98290  0.80489  0.71212  1.0000
  C   C1309     1.0  0.76336  0.67157  0.61293  1.0000
  H   H1040     1.0  0.98372  0.83986  0.71054  1.0000
  C   C1310     1.0  0.00222  0.72878  0.61163  1.0000
  C   C1311     1.0  0.84790  0.71434  0.88665  1.0000
  H   H1041     1.0  0.68042  0.86913  0.69326  1.0000
  C   C1312     1.0  0.87699  0.74867  0.90064  1.0000
  C   C1313     1.0  0.83622  0.89320  0.54868  1.0000
  H   H1042     1.0  0.68432  0.90287  0.95438  1.0000
  C   C1314     1.0  0.90935  0.66806  0.91775  1.0000
  C   C1315     1.0  0.92683  0.68079  0.93233  1.0000
  C   C1316     1.0  0.93268  0.69958  0.91221  1.0000
  C   C1317     1.0  0.92131  0.70575  0.87721  1.0000
  C   C1318     1.0  0.90391  0.69296  0.86257  1.0000
  C   C1319     1.0  0.89794  0.67428  0.88284  1.0000
  H   H1043     1.0  0.93596  0.67601  0.95878  1.0000
  H   H1044     1.0  0.94637  0.70919  0.92336  1.0000
  H   H1045     1.0  0.89509  0.69744  0.83563  1.0000
  H   H1046     1.0  0.88444  0.66451  0.87128  1.0000
  H   H1047     1.0  0.95347  0.72528  0.99128  1.0000
  C   C1320     1.0  0.78601  0.69507  0.57456  1.0000
  C   C1321     1.0  0.74111  0.98137  0.90389  1.0000
  C   C1322     1.0  0.88597  0.70228  0.99837  1.0000
  C   C1323     1.0  0.82922  0.92782  0.65017  1.0000
  C   C1324     1.0  0.69748  0.87607  0.85106  1.0000
  C   C1325     1.0  0.81280  0.91724  0.62754  1.0000
  H   H1048     1.0  0.77147  0.93912  0.86386  1.0000
  H   H1049     1.0  0.84502  0.90020  0.57432  1.0000
  C   C1326     1.0  0.80301  0.95113  0.59568  1.0000
  H   H1050     1.0  0.85127  0.72089  0.82429  1.0000
  C   C1327     1.0  0.71176  0.89158  0.86813  1.0000
  C   C1328     1.0  0.85599  0.72560  0.85465  1.0000
  C   C1329     1.0  0.84807  0.66134  0.96071  1.0000
  C   C1330     1.0  0.78014  0.99367  0.58335  1.0000
  H   H1051     1.0  0.71852  0.93461  0.61517  1.0000
  C   C1331     1.0  0.78252  0.84677  0.59657  1.0000
  C   C1332     1.0  0.77823  0.84216  0.63607  1.0000
  C   C1333     1.0  0.78845  0.82421  0.65366  1.0000
  C   C1334     1.0  0.80347  0.81121  0.63212  1.0000
  C   C1335     1.0  0.77595  0.99012  0.73918  1.0000
  C   C1336     1.0  0.77022  0.65353  0.58958  1.0000
  C   C1337     1.0  0.73440  0.88589  0.56925  1.0000
  H   H1052     1.0  0.87723  0.86564  0.53500  1.0000
  C   C1338     1.0  0.79641  0.83299  0.57382  1.0000
  C   C1339     1.0  0.96597  0.65819  0.85741  1.0000
  P   P45       1.0  0.79661  0.72178  0.56657  1.0000
  H   H1053     1.0  0.69970  0.98521  0.81493  1.0000
  H   H1054     1.0  0.83692  0.70097  0.88032  1.0000
  H   H1055     1.0  0.81695  0.62118  0.91751  1.0000
  C   C1340     1.0  0.79975  0.92879  0.60022  1.0000
  H   H1056     1.0  0.76691  0.85250  0.65304  1.0000
  H   H1057     1.0  0.78493  0.82059  0.68420  1.0000
  H   H1058     1.0  0.81202  0.79786  0.64654  1.0000
  C   C1341     1.0  0.98073  0.75969  0.81874  1.0000
  C   C1342     1.0  0.84171  0.64043  0.94809  1.0000
  H   H1059     1.0  0.70356  0.95645  0.92441  1.0000
  H   H1060     1.0  0.90294  0.75175  0.52332  1.0000
  C   C1343     1.0  0.91014  0.69714  0.53178  1.0000
  C   C1344     1.0  0.99296  0.82476  0.70604  1.0000
  C   C1345     1.0  0.79730  0.75511  0.99185  1.0000
  H   H1061     1.0  0.94619  0.84646  0.55147  1.0000
  H   H1062     1.0  0.69975  0.93017  0.54882  1.0000
  H   H1063     1.0  0.79493  0.77220  0.98550  1.0000
  H   H1064     1.0  0.96898  0.69996  0.77368  1.0000
  H   H1065     1.0  0.86105  0.76588  0.53511  1.0000
  H   H1066     1.0  0.84593  0.76111  0.60237  1.0000
  C   C1346     1.0  0.78515  0.65615  0.55904  1.0000
  C   C1347     1.0  0.67903  0.86947  0.87232  1.0000
  C   C1348     1.0  0.91797  0.50539  0.00648  1.0000
  C   C1349     1.0  0.87917  0.79440  0.55283  1.0000
  C   C1350     1.0  0.87053  0.74272  0.86165  1.0000
  C   C1351     1.0  0.98076  0.72359  0.62243  1.0000
  C   C1352     1.0  0.97598  0.72076  0.66246  1.0000
  H   H1067     1.0  0.98873  0.72126  0.72295  1.0000
  C   C1353     1.0  0.71586  0.93748  0.55133  1.0000
  H   H1068     1.0  0.71544  0.94761  0.85505  1.0000
  C   C1354     1.0  0.98508  0.73972  0.53089  1.0000
  C   C1355     1.0  0.97087  0.75616  0.54589  1.0000
  C   C1356     1.0  0.76234  0.95447  0.86572  1.0000
  C   C1357     1.0  0.98540  0.66967  0.85277  1.0000
  H   H1069     1.0  0.72061  0.98822  0.55433  1.0000
  H   H1070     1.0  0.73438  0.98677  0.93215  1.0000
  H   H1071     1.0  0.79071  0.64210  0.54132  1.0000
  H   H1072     1.0  0.93278  0.65288  0.83578  1.0000
  C   C1358     1.0  0.69642  0.87414  0.52564  1.0000
  C   C1359     1.0  0.99502  0.78541  0.70574  1.0000
  H   H1073     1.0  0.67876  0.90840  0.67959  1.0000
  H   H1074     1.0  0.96768  0.72158  0.60015  1.0000
  H   H1075     1.0  0.95937  0.71686  0.67060  1.0000
  H   H1076     1.0  0.82346  0.97850  0.61327  1.0000
  H   H1077     1.0  0.72769  0.78540  0.54902  1.0000
  C   C1360     1.0  0.90550  0.73628  0.53726  1.0000
  H   H1078     1.0  0.97389  0.76352  0.57520  1.0000
  C   C1361     1.0  0.90558  0.88348  0.65537  1.0000
  C   C1362     1.0  0.88329  0.88848  0.66119  1.0000
  C   C1363     1.0  0.86711  0.87641  0.64066  1.0000
  C   C1364     1.0  0.87318  0.85921  0.61464  1.0000
  C   C1365     1.0  0.89554  0.85393  0.60888  1.0000
  C   C1366     1.0  0.91174  0.86631  0.62922  1.0000
  P   P46       1.0  0.90305  0.83131  0.57576  1.0000
  C   C1367     1.0  0.93097  0.82226  0.58694  1.0000
  C   C1368     1.0  0.88464  0.80922  0.58401  1.0000
  C   C1369     1.0  0.87610  0.80634  0.62207  1.0000
  C   C1370     1.0  0.86199  0.78915  0.62850  1.0000
  C   C1371     1.0  0.85647  0.77462  0.59714  1.0000
  C   C1372     1.0  0.96854  0.68806  0.79670  1.0000
  C   C1373     1.0  0.78042  0.90231  0.95433  1.0000
  C   C1374     1.0  0.94890  0.83292  0.57097  1.0000
  C   C1375     1.0  0.97053  0.82648  0.58086  1.0000
  C   C1376     1.0  0.97441  0.80942  0.60679  1.0000
  C   C1377     1.0  0.95666  0.79860  0.62238  1.0000
  C   C1378     1.0  0.93505  0.80502  0.61268  1.0000
  H   H1079     1.0  0.75252  0.83859  0.54143  1.0000
  C   C1379     1.0  0.73600  0.75108  0.54858  1.0000
  C   C1380     1.0  0.74077  0.77324  0.55224  1.0000
  C   C1381     1.0  0.90694  0.71705  0.51335  1.0000
  H   H1080     1.0  0.93490  0.67963  0.78229  1.0000
  H   H1081     1.0  0.83863  0.91898  0.67247  1.0000
  H   H1082     1.0  0.91813  0.89262  0.67180  1.0000
  H   H1083     1.0  0.87852  0.90134  0.68238  1.0000
  C   C1382     1.0  0.96995  0.75601  0.99067  1.0000
  H   H1084     1.0  0.86044  0.84965  0.59979  1.0000
  H   H1085     1.0  0.92909  0.86251  0.62580  1.0000
  H   H1086     1.0  0.88065  0.81709  0.64708  1.0000
  H   H1087     1.0  0.85576  0.78685  0.65815  1.0000
  C   C1383     1.0  0.82479  0.87378  0.55190  1.0000
  H   H1088     1.0  0.92046  0.54056  0.01026  1.0000
  C   C1384     1.0  0.77937  0.76411  0.56376  1.0000
  C   C1385     1.0  0.74666  0.89241  0.98579  1.0000
  H   H1089     1.0  0.98434  0.83494  0.56904  1.0000
  C   C1386     1.0  0.75284  0.73540  0.55298  1.0000
  H   H1090     1.0  0.95962  0.78559  0.64301  1.0000
  H   H1091     1.0  0.92168  0.79672  0.62604  1.0000
  C   C1387     1.0  0.98692  0.68463  0.82214  1.0000
  H   H1092     1.0  0.76593  0.96103  0.80354  1.0000
  H   H1093     1.0  0.97393  0.72766  0.83787  1.0000
  H   H1094     1.0  0.75488  0.88332  0.92519  1.0000
  C   C1388     1.0  0.77132  0.69225  0.60563  1.0000
  H   H1095     1.0  0.81926  0.80538  0.57623  1.0000
  H   H1096     1.0  0.75613  0.95238  0.92831  1.0000
  H   H1097     1.0  0.73091  0.88445  0.98321  1.0000
  H   H1098     1.0  0.96504  0.76644  0.82857  1.0000
  C   C1389     1.0  0.86499  0.77729  0.55933  1.0000
  C   C1390     1.0  0.81381  0.72761  0.61019  1.0000
  C   C1391     1.0  0.83356  0.71568  0.61620  1.0000
  C   C1392     1.0  0.84710  0.72020  0.64961  1.0000
  C   C1393     1.0  0.84065  0.73610  0.67794  1.0000
  C   C1394     1.0  0.82060  0.74733  0.67320  1.0000
  C   C1395     1.0  0.80709  0.74300  0.63968  1.0000
  H   H1099     1.0  0.74421  0.99523  0.80680  1.0000
  H   H1100     1.0  0.74894  0.89077  0.58617  1.0000
  C   C1396     1.0  0.82175  0.63744  0.92728  1.0000
  H   H1101     1.0  0.87705  0.75122  0.83683  1.0000
  C   C1397     1.0  0.85413  0.72033  0.92604  1.0000
  C   C1398     1.0  0.75904  0.96667  0.83163  1.0000
  H   H1102     1.0  0.72635  0.99199  0.62744  1.0000
  S   S192      1.0  0.92570  0.59845  0.01051  1.0000
  C   C1399     1.0  0.94919  0.67650  0.80138  1.0000
  H   H1103     1.0  0.83866  0.70301  0.59491  1.0000
  H   H1104     1.0  0.86265  0.71138  0.65363  1.0000
  H   H1105     1.0  0.85106  0.73961  0.70387  1.0000
  H   H1106     1.0  0.81556  0.75935  0.69584  1.0000
  H   H1107     1.0  0.79139  0.75153  0.63742  1.0000
  H   H1108     1.0  0.94169  0.77576  0.53505  1.0000
  C   C1400     1.0  0.81898  0.72151  0.98553  1.0000
  H   H1109     1.0  0.76600  0.79694  0.56260  1.0000
  H   H1110     1.0  0.82777  0.75231  0.96090  1.0000
  C   C1401     1.0  0.67281  0.88051  0.71446  1.0000
  H   H1111     1.0  0.96466  0.75930  0.96031  1.0000
  C   C1402     1.0  0.83464  0.67951  0.95218  1.0000
  H   H1112     1.0  0.80264  0.92197  0.99044  1.0000
  H   H1113     1.0  0.98902  0.69084  0.53140  1.0000
  H   H1114     1.0  0.74652  0.89622  0.51240  1.0000
  C   C1403     1.0  0.80811  0.65541  0.91902  1.0000
  C   C1404     1.0  0.81452  0.67639  0.93139  1.0000
  C   C1405     1.0  0.86868  0.73768  0.93275  1.0000
  P   P47       1.0  0.84302  0.70660  0.96791  1.0000
  C   C1406     1.0  0.82029  0.96140  0.61705  1.0000
  C   C1407     1.0  0.94795  0.66150  0.83159  1.0000
  H   H1115     1.0  0.76414  0.63748  0.59540  1.0000
  H   H1116     1.0  0.79264  0.65307  0.90285  1.0000
  H   H1117     1.0  0.80388  0.69018  0.92448  1.0000
  H   H1118     1.0  0.88867  0.76164  0.90576  1.0000
  H   H1119     1.0  0.87371  0.74269  0.96277  1.0000
  C   C1408     1.0  0.69827  0.94651  0.86275  1.0000
  C   C1409     1.0  0.80331  0.71099  0.00792  1.0000
  C   C1410     1.0  0.81151  0.72186  0.52051  1.0000
  C   C1411     1.0  0.73299  0.88908  0.52749  1.0000
  C   C1412     1.0  0.98562  0.73757  0.82325  1.0000
  H   H1120     1.0  0.84983  0.87981  0.64624  1.0000
  H   H1121     1.0  0.85249  0.62657  0.95421  1.0000
  H   H1122     1.0  0.82495  0.86600  0.58037  1.0000
  C   C1413     1.0  0.69163  0.95133  0.90174  1.0000
  C   C1414     1.0  0.67175  0.90270  0.70673  1.0000
  H   H1123     1.0  0.70101  0.86870  0.82212  1.0000
  C   C1415     1.0  0.90077  0.83917  0.52431  1.0000
  H   H1124     1.0  0.71920  0.74607  0.54229  1.0000
  H   H1125     1.0  0.98731  0.76998  0.71016  1.0000
  C   C1416     1.0  0.75356  0.96193  0.90196  1.0000
  C   C1417     1.0  0.81594  0.74373  0.97787  1.0000
  C   C1418     1.0  0.77461  0.74181  0.56136  1.0000
  H   H1126     1.0  0.71802  0.91271  0.91944  1.0000
  H   H1127     1.0  0.75572  0.94997  0.62055  1.0000
  Fe  Fe96      1.0  0.90836  0.63104  0.00341  1.0000
  C   C1419     1.0  0.79314  0.67681  0.55164  1.0000
  H   H1128     1.0  0.68862  0.93519  0.80401  1.0000
  H   H1129     1.0  0.77471  0.86093  0.58356  1.0000
  C   C1420     1.0  0.83318  0.94982  0.64453  1.0000
  H   H1130     1.0  0.89106  0.70194  0.96766  1.0000
  H   H1131     1.0  0.96465  0.64704  0.88159  1.0000
  C   C1421     1.0  0.80750  0.81558  0.59229  1.0000
  C   C1422     1.0  0.75431  0.98818  0.72424  1.0000
  C   C1423     1.0  0.79951  0.96689  0.51556  1.0000
  C   C1424     1.0  0.70707  0.90074  0.90596  1.0000
  H   H1132     1.0  0.78687  0.92035  0.58339  1.0000
  C   C1425     1.0  0.76243  0.77974  0.55982  1.0000
  H   H1133     1.0  0.88602  0.79578  0.52358  1.0000
  C   C1426     1.0  0.68807  0.89501  0.92614  1.0000
  H   H1134     1.0  0.99115  0.80487  0.61549  1.0000
  H   H1135     1.0  0.78299  0.98431  0.64515  1.0000
  C   C1427     1.0  0.74768  0.94834  0.59152  1.0000
  H   H1136     1.0  0.75200  0.66949  0.63694  1.0000
  C   C1428     1.0  0.76023  0.89175  0.95261  1.0000
  H   H1137     1.0  0.74878  0.71834  0.54952  1.0000
  C   C1429     1.0  0.86358  0.70468  0.00759  1.0000
  H   H1138     1.0  0.68462  0.86274  0.58097  1.0000
  H   H1139     1.0  0.80982  0.90014  0.63205  1.0000
  H   H1140     1.0  0.79077  0.90185  0.92836  1.0000
  C   C1430     1.0  0.72648  0.93982  0.58857  1.0000
  C   C1431     1.0  0.73710  0.99330  0.86935  1.0000
  C   C1432     1.0  0.78706  0.91360  0.98929  1.0000
  H   H1141     1.0  0.84303  0.73157  0.54675  1.0000
  H   H1142     1.0  0.86359  0.66317  0.97687  1.0000
  C   C1433     1.0  0.81347  0.86454  0.51863  1.0000
  H   H1143     1.0  0.67901  0.98963  0.53647  1.0000
  H   H1144     1.0  0.71970  0.98063  0.01117  1.0000
  H   H1145     1.0  0.91113  0.68221  0.51379  1.0000
  H   H1146     1.0  0.98792  0.78579  0.99881  1.0000
  C   C1434     1.0  0.74755  0.95245  0.52002  1.0000
  H   H1147     1.0  0.79614  0.76938  0.56904  1.0000
  C   C1435     1.0  0.99254  0.72298  0.69186  1.0000
  H   H1148     1.0  0.80507  0.67834  0.52842  1.0000
  C   C1436     1.0  0.83389  0.72723  0.51980  1.0000
  C   C1437     1.0  0.99598  0.77304  0.80144  1.0000
  C   C1438     1.0  0.96365  0.73681  0.00810  1.0000
  P   P48       1.0  0.80055  0.83836  0.52192  1.0000
  H   H1149     1.0  0.99207  0.79016  0.79751  1.0000
  H   H1150     1.0  0.99891  0.66700  0.87366  1.0000
  H   H1151     1.0  0.99768  0.65866  0.99187  1.0000
  H   H1152     1.0  0.99821  0.67665  0.74067  1.0000
  C   C1439     1.0  0.83634  0.90364  0.51240  1.0000
  C   C1440     1.0  0.88675  0.85650  0.51313  1.0000
