data_image0
_chemical_formula_structural       FeS2FeCSFeS2FeS2FeSFeS3H3CHCHPC5H5CHC8H5CH2C2HCH2CH2CHCHC3HC3H2CHCH2CH2C5H2C6PC4H3C9HCHCH2CHCHCH7CHC3PSHC2FeCH2C2H2C2H2CH4CH6SPCHCH2CHCHSCHC2HC3H2C4HC7H7CHCH2C2HCH2C3HCH3C2HFeH5C10HC2H2C2HSHCHC6HC3H4C2SCH3CHC2HFeS2FeSH2CSCHCFeS2FeS2FeSFeS3CHCH2C3SHCHCPHCH2C6H4C4H2CFeCHCHC2H2C7PHCHCHCH5CHCH2C6PC14H2C2H15CHC2H4CHC2H2CH3C6H4C2H3CHCHC2HC2FeHC2H4C2SCH4C2H2CHCH4C7HCH3CH2C2HCSC4PC14H2CHC2HCH2SHCHSC4HCH2FeSCHSHFeS2FeS2FeSFeS4C3HC2H2CH2C6H5SCH2CHCH2PC2H2C4PC8SC9FeCH9CH4CH2C3H2CHCHC2HCHC5HCSC3H3CHCHCPC2H7CHC2HC3H3FeHC2HCHC4SCSH3CH2CHFeHC8PC2H2CHC2HC3HC2H2C3HC6H2C3H2CSH2FeSCHC2H8CFeS2FeS2FeSHFeSFeS3CH3C2HC7H4SHC4H5C3HC2H4C4PH2C8HC2H2C2HC3H4CH2C2HCHC4HCHCHC2H3CH2C5HPHCH3C2HCSCHCH4SHC2H2SC4H2C2H3C2HC2HC2HPCHC2HC4HC2SCSFeC3HFeC2HCHC2HCH7C2H2C3HC3HC6HC3HPHCHCH3FeS2FeSHFeSFeS3FeH2FeS2FeSFeHS2CHC4HC7H6C3HC2H2C4HCH2CHCHCHCSCHC5HCSC6H3C2HCHC3HC2H2C2HSHC4H2CH3CHPC3PC7HC4H4C3H7CH2CHCH2C3HCHC3H2C2HSCSCH3C3H2CHFeS2FeS2FeHFeS3FeS2FeSCFeHFeCS2CH4C6H4SHSCH2C2HC2HC8PC8H2C5HC2H10CH9CH2CH3C2HCHCH4C3HC2HCHCPC2HCH3C2H2C5H4CHCSC2HCH2C5SCHCFeS2FeS2FeSFeCS2FeS2FeS2FeSFeHS2CH4CHC2HC3H3C4PC2HC7H4C3HCH3C4H3CHCHC2HCPC2HC10HC4HC2H9C3H4C2H5PC2HC4HC9H2C4H3C3H6C6SCHC2SC5HCH2CH6CH2C4HPC6H3CHCH7C4HC2HC2H8C2HC3H2C2HCHC2H2C5H3CHPCFeS2FeS2FeHFeS3FeS2FeSCFeCFeSCSCH2C8HC5HPH2C6H5SCHC5H3C6PC7HC6H2C2H4SH5CHCH4C3HC4H2C4HC2H2SHC2HCHC4H2CHC2H2C6PC3H2C4HC8H23C2H3C2HC4HC4HC5H5PH2CHSH4C2HSHC4HCHCHCHCH2CHC6H2C2HPC3H2C4H2C5PCHC2H3CH4CHSC4FeS2FeS2FeSFeS3C2HCH2C2HC2H2C3HC7H4CH2CHC8PHC4HPCHCH4CHCHCH2C3PC3HC2HC12HCH3CHFeCH8CHC6HPH8CH2C4HCHPC5HC12HC4HC2HC2H8C2HCH2CH2CH2CH4CHC6HCHC3H3C2PHC2H2CH2C3HC3H5C2SCH3C3H2C4FeH2SC3HCH3C2HCH2C3HFeS2HSHCHC2HCFeS2FeS2FeSFeS3C2HCH2CHC4HC7H5CFeCHC2H3FeHC3HFeCHSH2C2HC6HC4H3SH3C4PC3HC2PHCH2C3HC3H4SC7PC16H11PH6CHCSC3HCHC3H2C2HCHC2H3C2HCHC2SC3H3CH2CH2CHCH2CHCHC2H2FeHCFeSCHC5SCH2CH2C2HC4H4SHCHC2H3CSCHSHFeS2FeS2FeSFeS3C3SC2HC2H4FeC9H7C3FeH8PCPHC2H4CH2C3H3C2HCHC2H2C3H2CH3C3HCSH4C2H5CFeCHC4HC4H5CSHC2HC2H4C9PC4HPC8H9C2HC6H2C4H2C2HC4HCH3C2HCH2C3H2CHCSCHC2H2CFeS2FeSCHCHC2HFeS2FeS2FeSFeCS2CH3C2HCHCH5CHC7H4SC4HCPCHPC2HCHC3FeH2C3HSCHCHC3HC5H3FeH2CHC2HCH4C4HCSCHC3HC5H5CHC4HSC2HCH4CH2CHCSC2H2SC2HCH3C2HC2H5CH3C4HCHC3HC3HCH2CH5C4HC5HC4H2C3H3C2PH5FeH
_chemical_formula_sum              "Fe96 S192 C1440 H1152 P48"
_cell_length_a       58.6997
_cell_length_b       58.6473
_cell_length_c       37.0236
_cell_angle_alpha    89.8776
_cell_angle_beta     89.878
_cell_angle_gamma    86.3763

_space_group_name_H-M_alt    "P 1"
_space_group_IT_number       1

loop_
  _space_group_symop_operation_xyz
  'x, y, z'

loop_
  _atom_site_type_symbol
  _atom_site_label
  _atom_site_symmetry_multiplicity
  _atom_site_fract_x
  _atom_site_fract_y
  _atom_site_fract_z
  _atom_site_occupancy
  Fe  Fe1       1.0  0.08497  0.26998  0.05156  1.0000
  S   S1        1.0  0.07227  0.28641  0.10527  1.0000
  S   S2        1.0  0.08573  0.23172  0.04387  1.0000
  Fe  Fe2       1.0  0.27596  0.07647  0.03213  1.0000
  C   C1        1.0  0.07844  0.36148  0.47701  1.0000
  S   S3        1.0  0.28457  0.07031  0.09213  1.0000
  Fe  Fe3       1.0  0.09208  0.35275  0.29406  1.0000
  S   S4        1.0  0.05743  0.37159  0.29193  1.0000
  S   S5        1.0  0.11031  0.33977  0.24216  1.0000
  Fe  Fe4       1.0  0.09572  0.35965  0.37753  1.0000
  S   S6        1.0  0.06135  0.37795  0.37936  1.0000
  S   S7        1.0  0.11584  0.35775  0.43052  1.0000
  Fe  Fe5       1.0  0.05066  0.35103  0.34157  1.0000
  S   S8        1.0  0.01778  0.33513  0.35410  1.0000
  Fe  Fe6       1.0  0.07201  0.39660  0.32986  1.0000
  S   S9        1.0  0.06244  0.43428  0.33622  1.0000
  S   S10       1.0  0.08444  0.33093  0.34248  1.0000
  S   S11       1.0  0.10728  0.37965  0.32933  1.0000
  H   H1        1.0  0.00913  0.47806  0.44737  1.0000
  H   H2        1.0  0.09307  0.48029  0.37925  1.0000
  H   H3        1.0  0.99591  0.35107  0.22860  1.0000
  C   C2        1.0  0.10223  0.35936  0.47365  1.0000
  H   H4        1.0  0.02381  0.34098  0.27711  1.0000
  C   C3        1.0  0.06917  0.45715  0.30837  1.0000
  H   H5        1.0  0.23250  0.99894  0.01714  1.0000
  P   P1        1.0  0.24249  0.14660  0.12697  1.0000
  C   C4        1.0  0.18851  0.43013  0.28679  1.0000
  C   C5        1.0  0.08808  0.47318  0.25684  1.0000
  C   C6        1.0  0.08194  0.45403  0.27667  1.0000
  C   C7        1.0  0.30466  0.02646  0.45083  1.0000
  C   C8        1.0  0.08122  0.47027  0.45565  1.0000
  H   H6        1.0  0.09799  0.47086  0.23235  1.0000
  H   H7        1.0  0.08733  0.43698  0.26777  1.0000
  H   H8        1.0  0.19672  0.19450  0.02416  1.0000
  H   H9        1.0  0.10964  0.40610  0.17983  1.0000
  H   H10       1.0  0.22576  0.22642  0.16580  1.0000
  C   C9        1.0  0.14537  0.40270  0.47323  1.0000
  H   H11       1.0  0.30652  0.13947  0.04035  1.0000
  C   C10       1.0  0.04411  0.41482  0.99577  1.0000
  C   C11       1.0  0.32036  0.09529  0.11733  1.0000
  C   C12       1.0  0.08352  0.30097  0.14314  1.0000
  C   C13       1.0  0.10621  0.30693  0.14489  1.0000
  C   C14       1.0  0.11405  0.31875  0.17529  1.0000
  C   C15       1.0  0.09944  0.32466  0.20456  1.0000
  C   C16       1.0  0.07672  0.31877  0.20273  1.0000
  C   C17       1.0  0.06885  0.30711  0.17223  1.0000
  H   H12       1.0  0.11773  0.30240  0.12286  1.0000
  H   H13       1.0  0.13164  0.32318  0.17626  1.0000
  H   H14       1.0  0.06519  0.32316  0.22484  1.0000
  H   H15       1.0  0.05125  0.30267  0.17132  1.0000
  H   H16       1.0  0.00744  0.38994  0.07233  1.0000
  C   C18       1.0  0.14081  0.44598  0.22008  1.0000
  H   H17       1.0  0.18111  0.00874  0.08441  1.0000
  H   H18       1.0  0.13262  0.48692  0.26273  1.0000
  C   C19       1.0  0.30667  0.07032  0.42079  1.0000
  C   C20       1.0  0.16443  0.38753  0.46841  1.0000
  H   H19       1.0  0.25241  0.02068  0.08630  1.0000
  C   C21       1.0  0.25659  0.99536  0.48686  1.0000
  H   H20       1.0  0.16378  0.46032  0.41941  1.0000
  H   H21       1.0  0.30059  0.11574  0.24265  1.0000
  C   C22       1.0  0.01086  0.25679  0.45502  1.0000
  H   H22       1.0  0.02171  0.45585  0.25130  1.0000
  H   H23       1.0  0.00252  0.27797  0.05221  1.0000
  C   C23       1.0  0.26690  0.11531  0.21938  1.0000
  H   H24       1.0  0.25051  0.19424  0.14189  1.0000
  C   C24       1.0  0.25970  0.00982  0.19155  1.0000
  H   H25       1.0  0.18561  0.22064  0.18275  1.0000
  C   C25       1.0  0.25263  0.12301  0.19105  1.0000
  C   C26       1.0  0.30056  0.01098  0.09465  1.0000
  C   C27       1.0  0.06646  0.46227  0.42940  1.0000
  H   H26       1.0  0.20037  0.44477  0.23698  1.0000
  C   C28       1.0  0.23296  0.19153  0.14895  1.0000
  C   C29       1.0  0.26086  0.13710  0.16387  1.0000
  C   C30       1.0  0.28342  0.16843  0.02768  1.0000
  H   H27       1.0  0.14149  0.40397  0.28387  1.0000
  H   H28       1.0  0.99731  0.43489  0.42138  1.0000
  C   C31       1.0  0.05496  0.43497  0.00208  1.0000
  H   H29       1.0  0.24397  0.39026  0.28138  1.0000
  C   C32       1.0  0.16436  0.18566  0.00256  1.0000
  H   H30       1.0  0.07490  0.45349  0.03951  1.0000
  H   H31       1.0  0.00705  0.34724  0.45481  1.0000
  C   C33       1.0  0.21637  0.01690  0.08350  1.0000
  H   H32       1.0  0.00374  0.37647  0.40744  1.0000
  H   H33       1.0  0.23530  0.11772  0.19007  1.0000
  C   C34       1.0  0.13300  0.44497  0.40348  1.0000
  C   C35       1.0  0.19925  0.15979  0.00406  1.0000
  C   C36       1.0  0.06604  0.43809  0.03492  1.0000
  C   C37       1.0  0.03683  0.21805  0.09367  1.0000
  C   C38       1.0  0.03392  0.23877  0.11211  1.0000
  H   H34       1.0  0.05350  0.20902  0.09255  1.0000
  H   H35       1.0  0.04842  0.24587  0.12512  1.0000
  C   C39       1.0  0.09908  0.33263  0.03685  1.0000
  C   C40       1.0  0.11974  0.33425  0.05503  1.0000
  C   C41       1.0  0.12112  0.34945  0.08387  1.0000
  C   C42       1.0  0.10180  0.36296  0.09468  1.0000
  C   C43       1.0  0.08077  0.36074  0.07741  1.0000
  C   C44       1.0  0.07968  0.34575  0.04802  1.0000
  P   P2        1.0  0.05584  0.37876  0.08936  1.0000
  C   C45       1.0  0.05680  0.38945  0.13497  1.0000
  C   C46       1.0  0.05459  0.40120  0.05591  1.0000
  C   C47       1.0  0.06610  0.42116  0.06160  1.0000
  C   C48       1.0  0.02442  0.48905  0.22788  1.0000
  H   H36       1.0  0.23583  0.41976  0.23421  1.0000
  H   H37       1.0  0.23463  0.18363  0.07354  1.0000
  H   H38       1.0  0.02305  0.24602  0.40236  1.0000
  C   C49       1.0  0.04669  0.41110  0.14381  1.0000
  C   C50       1.0  0.04737  0.41914  0.17935  1.0000
  C   C51       1.0  0.05762  0.40540  0.20641  1.0000
  C   C52       1.0  0.06695  0.38355  0.19796  1.0000
  C   C53       1.0  0.06633  0.37550  0.16253  1.0000
  C   C54       1.0  0.03115  0.36199  0.08832  1.0000
  C   C55       1.0  0.03327  0.33888  0.09831  1.0000
  C   C56       1.0  0.01435  0.32561  0.09746  1.0000
  C   C57       1.0  0.14492  0.43525  0.25365  1.0000
  H   H39       1.0  0.10394  0.43024  0.37956  1.0000
  C   C58       1.0  0.00960  0.37194  0.07889  1.0000
  H   H40       1.0  0.13464  0.32368  0.04672  1.0000
  C   C59       1.0  0.32042  0.07472  0.18598  1.0000
  H   H41       1.0  0.13714  0.35064  0.09799  1.0000
  H   H42       1.0  0.10338  0.37493  0.11655  1.0000
  C   C60       1.0  0.01233  0.47069  0.23998  1.0000
  H   H43       1.0  0.07543  0.42350  0.08638  1.0000
  C   C61       1.0  0.01843  0.20933  0.07568  1.0000
  H   H44       1.0  0.25703  0.19534  0.02106  1.0000
  C   C62       1.0  0.16743  0.47737  0.27840  1.0000
  H   H45       1.0  0.32050  0.03416  0.06474  1.0000
  H   H46       1.0  0.03813  0.42173  0.12342  1.0000
  H   H47       1.0  0.03979  0.43594  0.18603  1.0000
  H   H48       1.0  0.05812  0.41154  0.23401  1.0000
  H   H49       1.0  0.07468  0.37268  0.21883  1.0000
  H   H50       1.0  0.07328  0.35833  0.15672  1.0000
  H   H51       1.0  0.04959  0.33104  0.10669  1.0000
  C   C63       1.0  0.26313  0.18076  0.03712  1.0000
  H   H52       1.0  0.14766  0.46219  0.21378  1.0000
  C   C64       1.0  0.28927  0.12206  0.22122  1.0000
  C   C65       1.0  0.00581  0.34262  0.28331  1.0000
  C   C66       1.0  0.99825  0.33890  0.31856  1.0000
  P   P3        1.0  0.30267  0.99819  0.46959  1.0000
  S   S12       1.0  0.24121  0.06412  0.01882  1.0000
  H   H53       1.0  0.01638  0.30770  0.10490  1.0000
  C   C67       1.0  0.30496  0.01319  0.21335  1.0000
  C   C68       1.0  0.99728  0.44947  0.31870  1.0000
  Fe  Fe7       1.0  0.06373  0.23946  0.99483  1.0000
  C   C69       1.0  0.29971  0.06779  0.45662  1.0000
  H   H54       1.0  0.13443  0.48198  0.47858  1.0000
  H   H55       1.0  0.06010  0.47328  0.40779  1.0000
  C   C70       1.0  0.30498  0.07856  0.12445  1.0000
  C   C71       1.0  0.12789  0.43563  0.19373  1.0000
  H   H56       1.0  0.29575  0.08279  0.47306  1.0000
  H   H57       1.0  0.06793  0.36158  0.45313  1.0000
  C   C72       1.0  0.29728  0.13678  0.19507  1.0000
  C   C73       1.0  0.19824  0.00395  0.09373  1.0000
  H   H58       1.0  0.11819  0.43293  0.31756  1.0000
  H   H59       1.0  0.03624  0.38207  0.01669  1.0000
  C   C74       1.0  0.04407  0.39790  0.02246  1.0000
  H   H60       1.0  0.05150  0.48175  0.34331  1.0000
  H   H61       1.0  0.99687  0.46781  0.31499  1.0000
  H   H62       1.0  0.32251  0.01476  0.22171  1.0000
  H   H63       1.0  0.02098  0.19380  0.05995  1.0000
  C   C75       1.0  0.00828  0.43978  0.34885  1.0000
  H   H64       1.0  0.30826  0.08724  0.40952  1.0000
  H   H65       1.0  0.29751  0.02304  0.11647  1.0000
  H   H66       1.0  0.29116  0.03406  0.25684  1.0000
  H   H67       1.0  0.13246  0.40427  0.45232  1.0000
  H   H68       1.0  0.06383  0.34410  0.03361  1.0000
  H   H69       1.0  0.00590  0.28047  0.37109  1.0000
  S   S13       1.0  0.11656  0.27299  0.01748  1.0000
  P   P4        1.0  0.16225  0.44784  0.28774  1.0000
  C   C76       1.0  0.25852  0.15545  0.08834  1.0000
  H   H70       1.0  0.00104  0.30322  0.99918  1.0000
  C   C77       1.0  0.08858  0.45545  0.48380  1.0000
  H   H71       1.0  0.16622  0.37765  0.44371  1.0000
  H   H72       1.0  0.02194  0.40329  0.44752  1.0000
  C   C78       1.0  0.23859  0.01046  0.09477  1.0000
  H   H73       1.0  0.01848  0.24187  0.46872  1.0000
  C   C79       1.0  0.06805  0.42497  0.45774  1.0000
  H   H74       1.0  0.20285  0.47457  0.29537  1.0000
  S   S14       1.0  0.06116  0.27722  0.00443  1.0000
  C   C80       1.0  0.31358  0.01744  0.06512  1.0000
  H   H75       1.0  0.99985  0.38389  0.33308  1.0000
  C   C81       1.0  0.29834  0.04595  0.47145  1.0000
  C   C82       1.0  0.21904  0.20975  0.16265  1.0000
  H   H76       1.0  0.28412  0.12740  0.09271  1.0000
  C   C83       1.0  0.30525  0.06823  0.15885  1.0000
  C   C84       1.0  0.06003  0.43973  0.43038  1.0000
  C   C85       1.0  0.22396  0.41804  0.25638  1.0000
  H   H77       1.0  0.12628  0.44425  0.43066  1.0000
  H   H78       1.0  0.04910  0.43353  0.40956  1.0000
  C   C86       1.0  0.19645  0.20649  0.17233  1.0000
  C   C87       1.0  0.18787  0.18491  0.16884  1.0000
  C   C88       1.0  0.20177  0.16664  0.15525  1.0000
  C   C89       1.0  0.22422  0.17000  0.14423  1.0000
  H   H79       1.0  0.17907  0.46201  0.35736  1.0000
  C   C90       1.0  0.22602  0.12407  0.10980  1.0000
  C   C91       1.0  0.23299  0.10106  0.11590  1.0000
  C   C92       1.0  0.22057  0.08372  0.10138  1.0000
  C   C93       1.0  0.20141  0.08921  0.07997  1.0000
  C   C94       1.0  0.19472  0.11207  0.07299  1.0000
  C   C95       1.0  0.20703  0.12946  0.08766  1.0000
  C   C96       1.0  0.27845  0.14268  0.07792  1.0000
  H   H80       1.0  0.17041  0.18235  0.17667  1.0000
  H   H81       1.0  0.19490  0.14998  0.15336  1.0000
  H   H82       1.0  0.24836  0.09637  0.13097  1.0000
  H   H83       1.0  0.22640  0.06603  0.10574  1.0000
  H   H84       1.0  0.19216  0.07579  0.06781  1.0000
  H   H85       1.0  0.18034  0.11633  0.05534  1.0000
  H   H86       1.0  0.20191  0.14707  0.08125  1.0000
  C   C97       1.0  0.25059  0.17421  0.06718  1.0000
  H   H87       1.0  0.28974  0.15585  0.14679  1.0000
  C   C98       1.0  0.06185  0.47928  0.31930  1.0000
  H   H88       1.0  0.18100  0.41047  0.33464  1.0000
  H   H89       1.0  0.11560  0.49030  0.32665  1.0000
  C   C99       1.0  0.13733  0.41328  0.25921  1.0000
  C   C100      1.0  0.28726  0.02419  0.23313  1.0000
  H   H90       1.0  0.06350  0.40735  0.45807  1.0000
  C   C101      1.0  0.19303  0.41312  0.31305  1.0000
  H   H91       1.0  0.32058  0.10325  0.09099  1.0000
  H   H92       1.0  0.25092  0.03112  0.23757  1.0000
  C   C102      1.0  0.08200  0.43291  0.48473  1.0000
  C   C103      1.0  0.15408  0.45405  0.39709  1.0000
  C   C104      1.0  0.11955  0.41421  0.20023  1.0000
  H   H93       1.0  0.21333  0.03166  0.06613  1.0000
  C   C105      1.0  0.29108  0.14940  0.04810  1.0000
  H   H94       1.0  0.12449  0.44418  0.16817  1.0000
  H   H95       1.0  0.32012  0.06689  0.21244  1.0000
  H   H96       1.0  0.11844  0.38616  0.23761  1.0000
  C   C106      1.0  0.21305  0.39890  0.31116  1.0000
  C   C107      1.0  0.28313  0.14441  0.16662  1.0000
  H   H97       1.0  0.29339  0.05534  0.16478  1.0000
  Fe  Fe8       1.0  0.11604  0.23484  0.00685  1.0000
  H   H98       1.0  0.24207  0.00885  0.18356  1.0000
  H   H99       1.0  0.31478  0.01451  0.39731  1.0000
  H   H100      1.0  0.26072  0.10396  0.23978  1.0000
  H   H101      1.0  0.21640  0.38571  0.33135  1.0000
  H   H102      1.0  0.01686  0.45055  0.36744  1.0000
  C   C108      1.0  0.12036  0.43716  0.37464  1.0000
  C   C109      1.0  0.12868  0.43853  0.33931  1.0000
  C   C110      1.0  0.15012  0.44710  0.33268  1.0000
  C   C111      1.0  0.16264  0.45506  0.36187  1.0000
  C   C112      1.0  0.22855  0.40141  0.28293  1.0000
  C   C113      1.0  0.12443  0.40300  0.23285  1.0000
  C   C114      1.0  0.20393  0.43225  0.25813  1.0000
  C   C115      1.0  0.14962  0.49259  0.26642  1.0000
  C   C116      1.0  0.31199  0.05101  0.39966  1.0000
  C   C117      1.0  0.10492  0.49343  0.38217  1.0000
  H   H103      1.0  0.04284  0.48834  0.22986  1.0000
  C   C118      1.0  0.00367  0.27840  0.40000  1.0000
  C   C119      1.0  0.31084  0.02918  0.41447  1.0000
  H   H104      1.0  0.31473  0.14181  0.19654  1.0000
  H   H105      1.0  0.09804  0.32115  0.01407  1.0000
  C   C120      1.0  0.00024  0.48505  0.42382  1.0000
  C   C121      1.0  0.18900  0.48567  0.28480  1.0000
  H   H106      1.0  0.29307  0.17338  0.00426  1.0000
  S   S15       1.0  0.15078  0.21342  0.01196  1.0000
  H   H107      1.0  0.01909  0.40853  0.37605  1.0000
  C   C122      1.0  0.26463  0.02250  0.22226  1.0000
  H   H108      1.0  0.00514  0.41294  0.22714  1.0000
  C   C123      1.0  0.00949  0.41272  0.46426  1.0000
  C   C124      1.0  0.99694  0.22103  0.07676  1.0000
  C   C125      1.0  0.99556  0.43062  0.44954  1.0000
  C   C126      1.0  0.01340  0.25909  0.41766  1.0000
  C   C127      1.0  0.00953  0.41611  0.35369  1.0000
  C   C128      1.0  0.30004  0.00037  0.18283  1.0000
  H   H109      1.0  0.00291  0.38519  0.17758  1.0000
  C   C129      1.0  0.01253  0.25067  0.11292  1.0000
  C   C130      1.0  0.31655  0.00299  0.03532  1.0000
  C   C131      1.0  0.18761  0.18121  0.01146  1.0000
  H   H110      1.0  0.21703  0.15680  0.01116  1.0000
  H   H111      1.0  0.32586  0.00843  0.01187  1.0000
  H   H112      1.0  0.01089  0.26704  0.12642  1.0000
  H   H113      1.0  0.31724  0.05290  0.37180  1.0000
  C   C132      1.0  0.99894  0.40221  0.32916  1.0000
  C   C133      1.0  0.27743  0.99868  0.17148  1.0000
  S   S16       1.0  0.27099  0.10808  0.99695  1.0000
  C   C134      1.0  0.99875  0.27390  0.47479  1.0000
  H   H114      1.0  0.02418  0.31604  0.49179  1.0000
  H   H115      1.0  0.19525  0.37251  0.49229  1.0000
  H   H116      1.0  0.06353  0.47765  0.85471  1.0000
  C   C135      1.0  0.29440  0.02761  0.71252  1.0000
  H   H117      1.0  0.16659  0.12324  0.89929  1.0000
  C   C136      1.0  0.02371  0.31945  0.78249  1.0000
  C   C137      1.0  0.08317  0.44570  0.86083  1.0000
  H   H118      1.0  0.13389  0.35636  0.50323  1.0000
  Fe  Fe9       1.0  0.09271  0.27779  0.96966  1.0000
  S   S17       1.0  0.09616  0.30820  0.93115  1.0000
  S   S18       1.0  0.09406  0.24020  0.95702  1.0000
  Fe  Fe10      1.0  0.28573  0.08580  0.95114  1.0000
  S   S19       1.0  0.25168  0.07446  0.93457  1.0000
  H   H119      1.0  0.10661  0.41390  0.79182  1.0000
  H   H120      1.0  0.01706  0.42398  0.80055  1.0000
  C   C138      1.0  0.00099  0.31383  0.78582  1.0000
  S   S20       1.0  0.20187  0.11528  0.97489  1.0000
  C   C139      1.0  0.15282  0.25095  0.93454  1.0000
  H   H121      1.0  0.11546  0.35848  0.56396  1.0000
  C   C140      1.0  0.32124  0.08039  0.78709  1.0000
  Fe  Fe11      1.0  0.08346  0.34878  0.72389  1.0000
  S   S21       1.0  0.07701  0.38340  0.74859  1.0000
  S   S22       1.0  0.08783  0.31628  0.75866  1.0000
  Fe  Fe12      1.0  0.07609  0.36803  0.64531  1.0000
  S   S23       1.0  0.06900  0.40385  0.66591  1.0000
  S   S24       1.0  0.06711  0.36345  0.58554  1.0000
  Fe  Fe13      1.0  0.09837  0.39602  0.70309  1.0000
  S   S25       1.0  0.12549  0.42038  0.71604  1.0000
  Fe  Fe14      1.0  0.04840  0.38795  0.70898  1.0000
  S   S26       1.0  0.01358  0.40149  0.72656  1.0000
  S   S27       1.0  0.10724  0.36085  0.68035  1.0000
  S   S28       1.0  0.05313  0.35265  0.68660  1.0000
  C   C141      1.0  0.12811  0.49485  0.49769  1.0000
  H   H122      1.0  0.15864  0.49190  0.53013  1.0000
  C   C142      1.0  0.30671  0.99576  0.75148  1.0000
  H   H123      1.0  0.08716  0.44469  0.75624  1.0000
  H   H124      1.0  0.01922  0.39139  0.65095  1.0000
  C   C143      1.0  0.12634  0.44871  0.70006  1.0000
  C   C144      1.0  0.14542  0.46059  0.70927  1.0000
  C   C145      1.0  0.28594  0.01248  0.68756  1.0000
  S   S29       1.0  0.03434  0.21682  0.98266  1.0000
  H   H125      1.0  0.03411  0.21782  0.89678  1.0000
  C   C146      1.0  0.10906  0.45966  0.67891  1.0000
  H   H126      1.0  0.15882  0.45230  0.72559  1.0000
  C   C147      1.0  0.30649  0.13541  0.78192  1.0000
  P   P5        1.0  0.06010  0.48641  0.77701  1.0000
  H   H127      1.0  0.09427  0.45060  0.67154  1.0000
  C   C148      1.0  0.08139  0.36222  0.54306  1.0000
  H   H128      1.0  0.28163  0.14330  0.86407  1.0000
  H   H129      1.0  0.28712  0.04222  0.90792  1.0000
  C   C149      1.0  0.09238  0.31020  0.88334  1.0000
  C   C150      1.0  0.08815  0.29126  0.86199  1.0000
  C   C151      1.0  0.08661  0.29347  0.82400  1.0000
  C   C152      1.0  0.08886  0.31468  0.80685  1.0000
  C   C153      1.0  0.09250  0.33374  0.82829  1.0000
  C   C154      1.0  0.09440  0.33145  0.86620  1.0000
  H   H130      1.0  0.08653  0.27485  0.87479  1.0000
  H   H131      1.0  0.08373  0.27867  0.80771  1.0000
  H   H132      1.0  0.09439  0.35014  0.81562  1.0000
  H   H133      1.0  0.09770  0.34622  0.88235  1.0000
  C   C155      1.0  0.14236  0.41474  0.50563  1.0000
  C   C156      1.0  0.04405  0.45790  0.72417  1.0000
  C   C157      1.0  0.02933  0.34206  0.78653  1.0000
  C   C158      1.0  0.10650  0.41804  0.58299  1.0000
  H   H134      1.0  0.32830  0.03931  0.89432  1.0000
  H   H135      1.0  0.14601  0.21565  0.92945  1.0000
  C   C159      1.0  0.17131  0.44838  0.58203  1.0000
  Fe  Fe15      1.0  0.25885  0.04506  0.97313  1.0000
  C   C160      1.0  0.30424  0.13994  0.81882  1.0000
  H   H136      1.0  0.15366  0.46234  0.62907  1.0000
  C   C161      1.0  0.15811  0.41127  0.53383  1.0000
  H   H137      1.0  0.15565  0.28739  0.93370  1.0000
  C   C162      1.0  0.29763  0.08116  0.84221  1.0000
  C   C163      1.0  0.09530  0.42768  0.84321  1.0000
  H   H138      1.0  0.28136  0.07907  0.85509  1.0000
  H   H139      1.0  0.28597  0.07226  0.78901  1.0000
  C   C164      1.0  0.03725  0.45271  0.68915  1.0000
  C   C165      1.0  0.15938  0.36391  0.63191  1.0000
  C   C166      1.0  0.16678  0.37025  0.66604  1.0000
  C   C167      1.0  0.17036  0.39311  0.67320  1.0000
  C   C168      1.0  0.16648  0.40970  0.64633  1.0000
  C   C169      1.0  0.15921  0.40349  0.61181  1.0000
  C   C170      1.0  0.15548  0.38045  0.60499  1.0000
  P   P6        1.0  0.15297  0.42484  0.57720  1.0000
  H   H140      1.0  0.04976  0.36436  0.51353  1.0000
  C   C171      1.0  0.01223  0.35913  0.79351  1.0000
  H   H141      1.0  0.10044  0.19815  0.79312  1.0000
  C   C172      1.0  0.14611  0.23190  0.91550  1.0000
  H   H142      1.0  0.14155  0.29196  0.87099  1.0000
  C   C173      1.0  0.29343  0.03176  0.88561  1.0000
  H   H143      1.0  0.15608  0.34626  0.62659  1.0000
  H   H144      1.0  0.16914  0.35758  0.68727  1.0000
  H   H145      1.0  0.17521  0.39819  0.70010  1.0000
  H   H146      1.0  0.16868  0.42728  0.65321  1.0000
  H   H147      1.0  0.14932  0.37518  0.57900  1.0000
  C   C174      1.0  0.05428  0.47845  0.73111  1.0000
  H   H148      1.0  0.12965  0.12641  0.86682  1.0000
  C   C175      1.0  0.31676  0.02981  0.87820  1.0000
  H   H149      1.0  0.21686  0.47208  0.54247  1.0000
  H   H150      1.0  0.12790  0.47058  0.57741  1.0000
  C   C176      1.0  0.22599  0.19032  0.90744  1.0000
  C   C177      1.0  0.23393  0.18054  0.93981  1.0000
  C   C178      1.0  0.24297  0.15793  0.94043  1.0000
  C   C179      1.0  0.24369  0.14490  0.90883  1.0000
  C   C180      1.0  0.23512  0.15438  0.87635  1.0000
  C   C181      1.0  0.22673  0.17738  0.87572  1.0000
  P   P7        1.0  0.23540  0.13730  0.83572  1.0000
  C   C182      1.0  0.22824  0.10846  0.84618  1.0000
  C   C183      1.0  0.21384  0.14965  0.80541  1.0000
  C   C184      1.0  0.19146  0.14249  0.80655  1.0000
  C   C185      1.0  0.17460  0.15268  0.78408  1.0000
  C   C186      1.0  0.17996  0.17000  0.76017  1.0000
  C   C187      1.0  0.20214  0.17736  0.75900  1.0000
  C   C188      1.0  0.21901  0.16731  0.78163  1.0000
  C   C189      1.0  0.21342  0.10434  0.87495  1.0000
  C   C190      1.0  0.20702  0.08222  0.88212  1.0000
  C   C191      1.0  0.21577  0.06392  0.86110  1.0000
  C   C192      1.0  0.23062  0.06783  0.83251  1.0000
  C   C193      1.0  0.23666  0.09003  0.82482  1.0000
  C   C194      1.0  0.26323  0.13687  0.81466  1.0000
  C   C195      1.0  0.28274  0.14054  0.83523  1.0000
  H   H151      1.0  0.27827  0.01896  0.66269  1.0000
  H   H152      1.0  0.08267  0.44613  0.89006  1.0000
  C   C196      1.0  0.15288  0.16806  0.98658  1.0000
  C   C197      1.0  0.26567  0.13217  0.77759  1.0000
  H   H153      1.0  0.10405  0.41407  0.85865  1.0000
  H   H154      1.0  0.16873  0.23474  0.74686  1.0000
  H   H155      1.0  0.24901  0.15032  0.96558  1.0000
  H   H156      1.0  0.25069  0.12735  0.90990  1.0000
  H   H157      1.0  0.22039  0.18531  0.85106  1.0000
  H   H158      1.0  0.18688  0.12914  0.82485  1.0000
  H   H159      1.0  0.15736  0.14712  0.78524  1.0000
  H   H160      1.0  0.16691  0.17770  0.74256  1.0000
  H   H161      1.0  0.20628  0.19087  0.74056  1.0000
  H   H162      1.0  0.23604  0.17344  0.78078  1.0000
  H   H163      1.0  0.20703  0.11812  0.89229  1.0000
  H   H164      1.0  0.19603  0.07918  0.90500  1.0000
  H   H165      1.0  0.21141  0.04668  0.86751  1.0000
  H   H166      1.0  0.23770  0.05362  0.81653  1.0000
  H   H167      1.0  0.24813  0.09263  0.80253  1.0000
  C   C198      1.0  0.08545  0.44497  0.78539  1.0000
  H   H168      1.0  0.19284  0.43951  0.53572  1.0000
  C   C199      1.0  0.28724  0.13141  0.76136  1.0000
  C   C200      1.0  0.07220  0.46340  0.84074  1.0000
  H   H169      1.0  0.25101  0.12859  0.76135  1.0000
  H   H170      1.0  0.01659  0.37676  0.79504  1.0000
  H   H171      1.0  0.09931  0.46112  0.50512  1.0000
  H   H172      1.0  0.03703  0.30640  0.77609  1.0000
  C   C201      1.0  0.04058  0.46789  0.66088  1.0000
  H   H173      1.0  0.15525  0.13323  0.96725  1.0000
  C   C202      1.0  0.20297  0.46992  0.56125  1.0000
  C   C203      1.0  0.09257  0.46448  0.58023  1.0000
  H   H174      1.0  0.02905  0.43703  0.68393  1.0000
  H   H175      1.0  0.16254  0.49179  0.70446  1.0000
  C   C204      1.0  0.07630  0.44815  0.58182  1.0000
  H   H176      1.0  0.01778  0.39266  0.51193  1.0000
  H   H177      1.0  0.29328  0.04582  0.70704  1.0000
  H   H178      1.0  0.03505  0.46386  0.63395  1.0000
  C   C205      1.0  0.18928  0.45136  0.55763  1.0000
  C   C206      1.0  0.11812  0.20947  0.74622  1.0000
  C   C207      1.0  0.11539  0.20621  0.78339  1.0000
  C   C208      1.0  0.14352  0.27507  0.88299  1.0000
  C   C209      1.0  0.08327  0.42497  0.58315  1.0000
  C   C210      1.0  0.09661  0.42747  0.80555  1.0000
  H   H179      1.0  0.26064  0.00204  0.51316  1.0000
  H   H180      1.0  0.11144  0.39996  0.58422  1.0000
  H   H181      1.0  0.18803  0.15765  0.90938  1.0000
  H   H182      1.0  0.10138  0.18643  0.91021  1.0000
  C   C211      1.0  0.08983  0.19796  0.89510  1.0000
  C   C212      1.0  0.13699  0.25608  0.86374  1.0000
  H   H183      1.0  0.04690  0.34640  0.78334  1.0000
  H   H184      1.0  0.16434  0.22858  0.81245  1.0000
  H   H185      1.0  0.99982  0.40537  0.85328  1.0000
  C   C213      1.0  0.30032  0.07731  0.80468  1.0000
  H   H186      1.0  0.17243  0.19541  0.88849  1.0000
  C   C214      1.0  0.05709  0.49389  0.70267  1.0000
  H   H187      1.0  0.13909  0.22286  0.70433  1.0000
  C   C215      1.0  0.10516  0.35987  0.53985  1.0000
  C   C216      1.0  0.15140  0.27252  0.91838  1.0000
  H   H188      1.0  0.12746  0.42622  0.50900  1.0000
  C   C217      1.0  0.16744  0.46423  0.61006  1.0000
  C   C218      1.0  0.12303  0.43427  0.58082  1.0000
  Fe  Fe16      1.0  0.23694  0.09493  0.98195  1.0000
  H   H189      1.0  0.08771  0.42138  0.50626  1.0000
  C   C219      1.0  0.99910  0.42743  0.80673  1.0000
  C   C220      1.0  0.18787  0.14235  0.98738  1.0000
  H   H190      1.0  0.03606  0.41210  0.96995  1.0000
  H   H191      1.0  0.07064  0.41227  0.58445  1.0000
  H   H192      1.0  0.99714  0.27206  0.50380  1.0000
  H   H193      1.0  0.06075  0.18977  0.92723  1.0000
  C   C221      1.0  0.03044  0.32348  0.54737  1.0000
  C   C222      1.0  0.30899  0.99623  0.51733  1.0000
  S   S30       1.0  0.31287  0.09543  0.90975  1.0000
  C   C223      1.0  0.06681  0.19992  0.90508  1.0000
  H   H194      1.0  0.10387  0.49182  0.74206  1.0000
  H   H195      1.0  0.12991  0.25873  0.83697  1.0000
  H   H196      1.0  0.08867  0.23896  0.82960  1.0000
  H   H197      1.0  0.03184  0.33161  0.60403  1.0000
  C   C224      1.0  0.08267  0.22766  0.85020  1.0000
  C   C225      1.0  0.11581  0.45758  0.57931  1.0000
  H   H198      1.0  0.13502  0.17094  0.97977  1.0000
  H   H199      1.0  0.21902  0.20788  0.90707  1.0000
  C   C226      1.0  0.17749  0.39631  0.52854  1.0000
  H   H200      1.0  0.05830  0.45339  0.58196  1.0000
  C   C227      1.0  0.32251  0.01202  0.53405  1.0000
  H   H201      1.0  0.26017  0.02192  0.87037  1.0000
  H   H202      1.0  0.02586  0.46726  0.82554  1.0000
  H   H203      1.0  0.10525  0.20416  0.72762  1.0000
  H   H204      1.0  0.04093  0.44602  0.74581  1.0000
  C   C228      1.0  0.27825  0.02038  0.86418  1.0000
  C   C229      1.0  0.31583  0.08831  0.86283  1.0000
  C   C230      1.0  0.00453  0.21852  0.97309  1.0000
  C   C231      1.0  0.18061  0.38450  0.49592  1.0000
  C   C232      1.0  0.02089  0.32863  0.58118  1.0000
  C   C233      1.0  0.18099  0.48286  0.61343  1.0000
  C   C234      1.0  0.05028  0.48855  0.66768  1.0000
  H   H205      1.0  0.28924  0.12698  0.73306  1.0000
  C   C235      1.0  0.05176  0.21585  0.88795  1.0000
  H   H206      1.0  0.11325  0.16414  0.84691  1.0000
  H   H207      1.0  0.04884  0.32238  0.54419  1.0000
  H   H208      1.0  0.04815  0.24250  0.84790  1.0000
  C   C236      1.0  0.07283  0.46286  0.80283  1.0000
  H   H209      1.0  0.23288  0.19042  0.96452  1.0000
  H   H210      1.0  0.15832  0.24913  0.96237  1.0000
  C   C237      1.0  0.05969  0.22974  0.86053  1.0000
  C   C238      1.0  0.30460  0.01933  0.74445  1.0000
  H   H211      1.0  0.18990  0.39338  0.54996  1.0000
  C   C239      1.0  0.13856  0.23425  0.87963  1.0000
  S   S31       1.0  0.25815  0.00858  0.95189  1.0000
  C   C240      1.0  0.15389  0.22668  0.75705  1.0000
  C   C241      1.0  0.13722  0.21994  0.73308  1.0000
  C   C242      1.0  0.13160  0.21379  0.80770  1.0000
  C   C243      1.0  0.15127  0.22331  0.79421  1.0000
  P   P8        1.0  0.12785  0.21032  0.85573  1.0000
  C   C244      1.0  0.14120  0.18272  0.86743  1.0000
  C   C245      1.0  0.12972  0.16293  0.86016  1.0000
  C   C246      1.0  0.13898  0.14152  0.87124  1.0000
  C   C247      1.0  0.15991  0.13968  0.88917  1.0000
  C   C248      1.0  0.17197  0.15914  0.89488  1.0000
  C   C249      1.0  0.16283  0.18058  0.88364  1.0000
  C   C250      1.0  0.09788  0.21161  0.86717  1.0000
  C   C251      1.0  0.11106  0.48246  0.66725  1.0000
  C   C252      1.0  0.14752  0.48301  0.69736  1.0000
  C   C253      1.0  0.00155  0.38968  0.65818  1.0000
  C   C254      1.0  0.06815  0.36300  0.51141  1.0000
  C   C255      1.0  0.11551  0.35851  0.50535  1.0000
  C   C256      1.0  0.32812  0.00980  0.57060  1.0000
  C   C257      1.0  0.16449  0.14660  0.97942  1.0000
  H   H212      1.0  0.05514  0.44800  0.98130  1.0000
  H   H213      1.0  0.31930  0.14209  0.83504  1.0000
  C   C258      1.0  0.31002  0.00394  0.82869  1.0000
  H   H214      1.0  0.00553  0.18230  0.96371  1.0000
  C   C259      1.0  0.19878  0.48570  0.58908  1.0000
  C   C260      1.0  0.32510  0.01598  0.84984  1.0000
  H   H215      1.0  0.31119  0.03135  0.76339  1.0000
  C   C261      1.0  0.01635  0.32001  0.51774  1.0000
  H   H216      1.0  0.08725  0.48252  0.57956  1.0000
  H   H217      1.0  0.32328  0.13405  0.76951  1.0000
  S   S32       1.0  0.29360  0.05571  0.98799  1.0000
  H   H218      1.0  0.99682  0.29632  0.78141  1.0000
  C   C262      1.0  0.13038  0.49412  0.67647  1.0000
  H   H219      1.0  0.09795  0.49085  0.65062  1.0000
  S   S33       1.0  0.32272  0.07780  0.73890  1.0000
  C   C263      1.0  0.01943  0.48395  0.81636  1.0000
  C   C264      1.0  0.28647  0.00671  0.83552  1.0000
  C   C265      1.0  0.00719  0.40670  0.50054  1.0000
  C   C266      1.0  0.99762  0.49235  0.82722  1.0000
  H   H220      1.0  0.99764  0.25470  0.98015  1.0000
  C   C267      1.0  0.99723  0.33018  0.58545  1.0000
  H   H221      1.0  0.27452  0.99794  0.81913  1.0000
  H   H222      1.0  0.29256  0.04439  0.49908  1.0000
  Fe  Fe17      1.0  0.29431  0.84905  0.05295  1.0000
  S   S34       1.0  0.25614  0.85171  0.05978  1.0000
  C   C268      1.0  0.03139  0.60961  0.09203  1.0000
  H   H223      1.0  0.06854  0.66762  0.23013  1.0000
  S   S35       1.0  0.10266  0.63689  0.04512  1.0000
  H   H224      1.0  0.04437  0.65816  0.28241  1.0000
  Fe  Fe18      1.0  0.09496  0.60402  0.25641  1.0000
  S   S36       1.0  0.06585  0.58221  0.24438  1.0000
  S   S37       1.0  0.10614  0.63212  0.21807  1.0000
  Fe  Fe19      1.0  0.10048  0.58405  0.33462  1.0000
  S   S38       1.0  0.07208  0.56067  0.32731  1.0000
  S   S39       1.0  0.11977  0.58390  0.38825  1.0000
  Fe  Fe20      1.0  0.08681  0.55385  0.27199  1.0000
  S   S40       1.0  0.09126  0.51904  0.24523  1.0000
  Fe  Fe21      1.0  0.05403  0.59089  0.30054  1.0000
  S   S41       1.0  0.01815  0.60278  0.31375  1.0000
  S   S42       1.0  0.11708  0.57498  0.28081  1.0000
  S   S43       1.0  0.08128  0.61496  0.31125  1.0000
  S   S44       1.0  0.09777  0.70368  0.00769  1.0000
  C   C269      1.0  0.32448  0.92882  0.26592  1.0000
  C   C270      1.0  0.00312  0.56102  0.29505  1.0000
  C   C271      1.0  0.26507  0.93692  0.11598  1.0000
  H   H225      1.0  0.01964  0.55374  0.30353  1.0000
  C   C272      1.0  0.10537  0.58340  0.43052  1.0000
  C   C273      1.0  0.08160  0.58599  0.43264  1.0000
  H   H226      1.0  0.20951  0.51492  0.28276  1.0000
  H   H227      1.0  0.30002  0.94946  0.45303  1.0000
  C   C274      1.0  0.11799  0.58048  0.46270  1.0000
  H   H228      1.0  0.07176  0.58825  0.40812  1.0000
  H   H229      1.0  0.13641  0.57852  0.46135  1.0000
  C   C275      1.0  0.10294  0.63643  0.09329  1.0000
  C   C276      1.0  0.10808  0.65539  0.11393  1.0000
  C   C277      1.0  0.10876  0.65384  0.15204  1.0000
  C   C278      1.0  0.10390  0.63350  0.17004  1.0000
  C   C279      1.0  0.09802  0.61480  0.14940  1.0000
  C   C280      1.0  0.09774  0.61623  0.11132  1.0000
  H   H230      1.0  0.11192  0.67107  0.10047  1.0000
  H   H231      1.0  0.11334  0.66840  0.16769  1.0000
  H   H232      1.0  0.09416  0.59908  0.16276  1.0000
  H   H233      1.0  0.09359  0.60150  0.09571  1.0000
  H   H234      1.0  0.05216  0.58809  0.46765  1.0000
  S   S45       1.0  0.32311  0.85006  0.09469  1.0000
  C   C281      1.0  0.02281  0.66391  0.10673  1.0000
  H   H235      1.0  0.14744  0.54123  0.38841  1.0000
  H   H236      1.0  0.04715  0.58454  0.05586  1.0000
  C   C282      1.0  0.26806  0.91336  0.12168  1.0000
  H   H237      1.0  0.15766  0.81947  0.08035  1.0000
  C   C283      1.0  0.30480  0.84387  0.16352  1.0000
  H   H238      1.0  0.18821  0.97461  0.12351  1.0000
  H   H239      1.0  0.28975  0.83825  0.15021  1.0000
  P   P9        1.0  0.27147  0.98273  0.13106  1.0000
  C   C284      1.0  0.02633  0.52957  0.47609  1.0000
  C   C285      1.0  0.13592  0.52751  0.38689  1.0000
  H   H240      1.0  0.05209  0.64317  0.41976  1.0000
  H   H241      1.0  0.22716  0.96339  0.14434  1.0000
  C   C286      1.0  0.16153  0.67786  0.11151  1.0000
  C   C287      1.0  0.15096  0.69931  0.11944  1.0000
  C   C288      1.0  0.14383  0.71433  0.09141  1.0000
  C   C289      1.0  0.14897  0.70816  0.05560  1.0000
  P   P10       1.0  0.13063  0.74234  0.10129  1.0000
  C   C290      1.0  0.10869  0.74966  0.06808  1.0000
  C   C291      1.0  0.11789  0.74205  0.14578  1.0000
  C   C292      1.0  0.12076  0.75990  0.17022  1.0000
  C   C293      1.0  0.11115  0.75925  0.20482  1.0000
  C   C294      1.0  0.09869  0.74077  0.21525  1.0000
  C   C295      1.0  0.09572  0.72295  0.19105  1.0000
  C   C296      1.0  0.10519  0.72362  0.15643  1.0000
  C   C297      1.0  0.11477  0.75878  0.03455  1.0000
  S   S46       1.0  0.29353  0.82413  0.00643  1.0000
  C   C298      1.0  0.03666  0.63548  0.42838  1.0000
  C   C299      1.0  0.06901  0.75147  0.04857  1.0000
  C   C300      1.0  0.08558  0.74618  0.07496  1.0000
  C   C301      1.0  0.15225  0.76292  0.09817  1.0000
  C   C302      1.0  0.17555  0.75582  0.09990  1.0000
  C   C303      1.0  0.19217  0.77158  0.09453  1.0000
  C   C304      1.0  0.18572  0.79445  0.08727  1.0000
  C   C305      1.0  0.16260  0.80175  0.08628  1.0000
  C   C306      1.0  0.14591  0.78609  0.09190  1.0000
  Fe  Fe22      1.0  0.25472  0.82840  0.01088  1.0000
  C   C307      1.0  0.00894  0.64454  0.21427  1.0000
  H   H242      1.0  0.16623  0.66602  0.13317  1.0000
  H   H243      1.0  0.14836  0.70397  0.14746  1.0000
  H   H244      1.0  0.14470  0.71978  0.03362  1.0000
  H   H245      1.0  0.13048  0.77428  0.16279  1.0000
  H   H246      1.0  0.11348  0.77303  0.22363  1.0000
  H   H247      1.0  0.09140  0.74020  0.24214  1.0000
  H   H248      1.0  0.08619  0.70853  0.19916  1.0000
  H   H249      1.0  0.10273  0.70965  0.13797  1.0000
  H   H250      1.0  0.13245  0.76144  0.02828  1.0000
  C   C308      1.0  0.22826  0.98273  0.44512  1.0000
  H   H251      1.0  0.05796  0.65041  0.10741  1.0000
  H   H252      1.0  0.05129  0.74831  0.05361  1.0000
  H   H253      1.0  0.08018  0.73912  0.10026  1.0000
  H   H254      1.0  0.18101  0.73809  0.10444  1.0000
  C   C309      1.0  0.07534  0.76018  0.01513  1.0000
  H   H255      1.0  0.12806  0.79194  0.09033  1.0000
  H   H256      1.0  0.31388  0.96466  0.26786  1.0000
  C   C310      1.0  0.23601  0.96222  0.02426  1.0000
  C   C311      1.0  0.15360  0.51539  0.25899  1.0000
  C   C312      1.0  0.02671  0.61551  0.12818  1.0000
  H   H257      1.0  0.29219  0.83772  0.21735  1.0000
  H   H258      1.0  0.19870  0.80639  0.08176  1.0000
  C   C313      1.0  0.01275  0.50858  0.21386  1.0000
  H   H259      1.0  0.05503  0.66232  0.16827  1.0000
  C   C314      1.0  0.20770  0.75764  0.01048  1.0000
  H   H260      1.0  0.21075  0.97919  0.43920  1.0000
  C   C315      1.0  0.08184  0.49539  0.26898  1.0000
  C   C316      1.0  0.03975  0.54744  0.42173  1.0000
  H   H261      1.0  0.14290  0.52085  0.33093  1.0000
  C   C317      1.0  0.15997  0.68690  0.04781  1.0000
  H   H262      1.0  0.05922  0.55752  0.10483  1.0000
  C   C318      1.0  0.04484  0.57903  0.14718  1.0000
  C   C319      1.0  0.10733  0.50497  0.41501  1.0000
  C   C320      1.0  0.00910  0.60689  0.42028  1.0000
  C   C321      1.0  0.05319  0.67804  0.06971  1.0000
  C   C322      1.0  0.07056  0.58584  0.46645  1.0000
  H   H263      1.0  0.03111  0.65763  0.47423  1.0000
  C   C323      1.0  0.04380  0.65878  0.19044  1.0000
  S   S47       1.0  0.23806  0.91538  0.03134  1.0000
  C   C324      1.0  0.24577  0.94132  0.01115  1.0000
  C   C325      1.0  0.05160  0.66183  0.22567  1.0000
  C   C326      1.0  0.02225  0.65034  0.18439  1.0000
  H   H264      1.0  0.03785  0.61102  0.38509  1.0000
  H   H265      1.0  0.02214  0.52308  0.20561  1.0000
  H   H266      1.0  0.12434  0.53229  0.44121  1.0000
  C   C327      1.0  0.06022  0.53394  0.42374  1.0000
  H   H267      1.0  0.32120  0.89961  0.09718  1.0000
  C   C328      1.0  0.29001  0.91992  0.17543  1.0000
  H   H268      1.0  0.04339  0.70533  0.03286  1.0000
  C   C329      1.0  0.30625  0.84355  0.20161  1.0000
  P   P11       1.0  0.01342  0.64329  0.13917  1.0000
  C   C330      1.0  0.28725  0.94353  0.16959  1.0000
  C   C331      1.0  0.22442  0.97828  0.12719  1.0000
  H   H269      1.0  0.00713  0.55597  0.44646  1.0000
  H   H270      1.0  0.30813  0.97112  0.01151  1.0000
  H   H271      1.0  0.03721  0.55987  0.40012  1.0000
  H   H272      1.0  0.29478  0.95475  0.18858  1.0000
  H   H273      1.0  0.29959  0.91318  0.19851  1.0000
  H   H274      1.0  0.17808  0.54119  0.25939  1.0000
  H   H275      1.0  0.21012  0.76596  0.09473  1.0000
  C   C332      1.0  0.28052  0.90486  0.15138  1.0000
  H   H276      1.0  0.31387  0.92427  0.28848  1.0000
  C   C333      1.0  0.03806  0.65641  0.25513  1.0000
  C   C334      1.0  0.02284  0.54530  0.44791  1.0000
  H   H277      1.0  0.07322  0.53632  0.40352  1.0000
  C   C335      1.0  0.00728  0.68003  0.09041  1.0000
  C   C336      1.0  0.03332  0.59993  0.15569  1.0000
  C   C337      1.0  0.24504  0.97960  0.41843  1.0000
  H   H278      1.0  0.06259  0.76351  0.99428  1.0000
  H   H279      1.0  0.26068  0.90169  0.10294  1.0000
  H   H280      1.0  0.28276  0.88659  0.15574  1.0000
  Fe  Fe23      1.0  0.25647  0.88075  0.01952  1.0000
  H   H281      1.0  0.28557  0.95943  0.06314  1.0000
  C   C338      1.0  0.02871  0.61723  0.40896  1.0000
  C   C339      1.0  0.01668  0.64793  0.24940  1.0000
  H   H282      1.0  0.25517  0.94307  0.09289  1.0000
  C   C340      1.0  0.12280  0.52226  0.41691  1.0000
  H   H283      1.0  0.22439  0.96225  0.04696  1.0000
  C   C341      1.0  0.31634  0.95477  0.44363  1.0000
  C   C342      1.0  0.09821  0.76391  0.00819  1.0000
  C   C343      1.0  0.27480  0.95226  0.13967  1.0000
  C   C344      1.0  0.16586  0.67158  0.07567  1.0000
  S   S48       1.0  0.29434  0.87919  0.01556  1.0000
  C   C345      1.0  0.06373  0.51783  0.45167  1.0000
  S   S49       1.0  0.23410  0.79555  0.01187  1.0000
  H   H284      1.0  0.06278  0.51530  0.30876  1.0000
  H   H285      1.0  0.01022  0.51763  0.34975  1.0000
  H   H286      1.0  0.16396  0.68235  0.02009  1.0000
  C   C346      1.0  0.04579  0.66303  0.09597  1.0000
  H   H287      1.0  0.24054  0.97372  0.39180  1.0000
  H   H288      1.0  0.17388  0.65489  0.06946  1.0000
  C   C347      1.0  0.17518  0.52341  0.26475  1.0000
  H   H289      1.0  0.13978  0.52696  0.24929  1.0000
  Fe  Fe24      1.0  0.10451  0.66555  0.00289  1.0000
  H   H290      1.0  0.07092  0.67700  0.06137  1.0000
  C   C348      1.0  0.01472  0.69494  0.06391  1.0000
  C   C349      1.0  0.04299  0.58872  0.08366  1.0000
  C   C350      1.0  0.29372  0.97539  0.06476  1.0000
  C   C351      1.0  0.13331  0.51605  0.35438  1.0000
  C   C352      1.0  0.23401  0.99072  0.47925  1.0000
  C   C353      1.0  0.32305  0.85088  0.14280  1.0000
  C   C354      1.0  0.18903  0.74478  0.00038  1.0000
  C   C355      1.0  0.00101  0.50747  0.36874  1.0000
  P   P12       1.0  0.08963  0.49952  0.45380  1.0000
  C   C356      1.0  0.04659  0.51567  0.47775  1.0000
  C   C357      1.0  0.30661  0.98198  0.03516  1.0000
  H   H291      1.0  0.03005  0.60398  0.18382  1.0000
  H   H292      1.0  0.00641  0.64325  0.27229  1.0000
  C   C358      1.0  0.04981  0.57348  0.11123  1.0000
  H   H293      1.0  0.05036  0.56734  0.16862  1.0000
  C   C359      1.0  0.24066  0.98307  0.00758  1.0000
  C   C360      1.0  0.99835  0.58471  0.29631  1.0000
  H   H294      1.0  0.00388  0.59243  0.40508  1.0000
  C   C361      1.0  0.27363  0.99170  0.46046  1.0000
  C   C362      1.0  0.24281  0.99089  0.11629  1.0000
  C   C363      1.0  0.32214  0.97752  0.44752  1.0000
  H   H295      1.0  0.22044  0.75017  0.02878  1.0000
  C   C364      1.0  0.26762  0.98425  0.42594  1.0000
  C   C365      1.0  0.21007  0.78000  0.99736  1.0000
  H   H296      1.0  0.18772  0.72772  0.01095  1.0000
  H   H297      1.0  0.02997  0.50039  0.40289  1.0000
  C   C366      1.0  0.19284  0.50859  0.27788  1.0000
  C   C367      1.0  0.01215  0.49772  0.39881  1.0000
  C   C368      1.0  0.03767  0.69395  0.05363  1.0000
  H   H298      1.0  0.02654  0.62137  0.07037  1.0000
  C   C369      1.0  0.02482  0.64361  0.45898  1.0000
  C   C370      1.0  0.20225  0.98472  0.11570  1.0000
  C   C371      1.0  0.29069  0.98977  0.09497  1.0000
  C   C372      1.0  0.99677  0.61524  0.45062  1.0000
  C   C373      1.0  0.00492  0.63361  0.46999  1.0000
  C   C374      1.0  0.32441  0.95149  0.25419  1.0000
  H   H299      1.0  0.04861  0.61107  0.00120  1.0000
  H   H300      1.0  0.28035  0.98215  0.40474  1.0000
  C   C375      1.0  0.11785  0.49900  0.35202  1.0000
  C   C376      1.0  0.32596  0.85012  0.21944  1.0000
  C   C377      1.0  0.06828  0.49834  0.29983  1.0000
  H   H301      1.0  0.31376  0.99173  0.16792  1.0000
  H   H302      1.0  0.32716  0.92099  0.42436  1.0000
  C   C378      1.0  0.10637  0.50597  0.49308  1.0000
  S   S50       1.0  0.32761  0.84790  0.26734  1.0000
  H   H303      1.0  0.00265  0.70707  0.05087  1.0000
  H   H304      1.0  0.99612  0.64005  0.49392  1.0000
  Fe  Fe25      1.0  0.29080  0.85479  0.96943  1.0000
  S   S51       1.0  0.25214  0.85803  0.97132  1.0000
  C   C379      1.0  0.03087  0.59200  0.83054  1.0000
  H   H305      1.0  0.06557  0.69715  0.86784  1.0000
  C   C380      1.0  0.19335  0.78914  0.97344  1.0000
  C   C381      1.0  0.10950  0.65005  0.62438  1.0000
  H   H306      1.0  0.11551  0.66732  0.71056  1.0000
  H   H307      1.0  0.26834  0.92559  0.97132  1.0000
  H   H308      1.0  0.16034  0.62644  0.59311  1.0000
  H   H309      1.0  0.29469  0.77028  0.84488  1.0000
  H   H310      1.0  0.28650  0.87373  0.71186  1.0000
  H   H311      1.0  0.29892  0.96243  0.73108  1.0000
  H   H312      1.0  0.04907  0.50351  0.49967  1.0000
  H   H313      1.0  0.01514  0.58521  0.50052  1.0000
  C   C382      1.0  0.11595  0.52350  0.76094  1.0000
  Fe  Fe26      1.0  0.10667  0.66740  0.91963  1.0000
  S   S52       1.0  0.11219  0.64040  0.87481  1.0000
  S   S53       1.0  0.10025  0.70569  0.91897  1.0000
  Fe  Fe27      1.0  0.05478  0.55866  0.66689  1.0000
  S   S54       1.0  0.05598  0.59326  0.64177  1.0000
  S   S55       1.0  0.02311  0.54481  0.69030  1.0000
  Fe  Fe28      1.0  0.10491  0.54775  0.65503  1.0000
  S   S56       1.0  0.11025  0.58220  0.63019  1.0000
  H   H314      1.0  0.24663  0.82781  0.91323  1.0000
  Fe  Fe29      1.0  0.08742  0.59609  0.67560  1.0000
  S   S57       1.0  0.08825  0.62936  0.70756  1.0000
  Fe  Fe30      1.0  0.07830  0.57619  0.59899  1.0000
  S   S58       1.0  0.06786  0.58278  0.54021  1.0000
  S   S59       1.0  0.08503  0.56210  0.70258  1.0000
  S   S60       1.0  0.07431  0.54106  0.62175  1.0000
  C   C383      1.0  0.00987  0.71791  0.96453  1.0000
  H   H315      1.0  0.00277  0.66976  0.66408  1.0000
  H   H316      1.0  0.03243  0.64782  0.80544  1.0000
  H   H317      1.0  0.01782  0.59401  0.68385  1.0000
  C   C384      1.0  0.25473  0.98321  0.97710  1.0000
  C   C385      1.0  0.15142  0.60995  0.68565  1.0000
  H   H318      1.0  0.05209  0.50071  0.64604  1.0000
  C   C386      1.0  0.13317  0.64481  0.62300  1.0000
  C   C387      1.0  0.10345  0.63758  0.82907  1.0000
  C   C388      1.0  0.10636  0.61597  0.81254  1.0000
  C   C389      1.0  0.10100  0.61299  0.77578  1.0000
  C   C390      1.0  0.09307  0.63171  0.75486  1.0000
  C   C391      1.0  0.08943  0.65316  0.77166  1.0000
  C   C392      1.0  0.09455  0.65611  0.80855  1.0000
  H   H319      1.0  0.11316  0.60152  0.82817  1.0000
  H   H320      1.0  0.10366  0.59638  0.76335  1.0000
  H   H321      1.0  0.08286  0.66766  0.75595  1.0000
  H   H322      1.0  0.09220  0.67280  0.82085  1.0000
  S   S61       1.0  0.03963  0.72178  0.96009  1.0000
  H   H323      1.0  0.30821  0.91060  0.56464  1.0000
  C   C393      1.0  0.15649  0.62306  0.75759  1.0000
  C   C394      1.0  0.14911  0.70223  0.66359  1.0000
  C   C395      1.0  0.04100  0.59549  0.76736  1.0000
  C   C396      1.0  0.18218  0.81102  0.85391  1.0000
  H   H324      1.0  0.19883  0.90391  0.89850  1.0000
  H   H325      1.0  0.23319  0.91922  0.92592  1.0000
  H   H326      1.0  0.32501  0.98998  0.61895  1.0000
  H   H327      1.0  0.02390  0.56784  0.55979  1.0000
  H   H328      1.0  0.06103  0.65582  0.87162  1.0000
  C   C397      1.0  0.26476  0.96233  0.96427  1.0000
  C   C398      1.0  0.21068  0.81874  0.79502  1.0000
  C   C399      1.0  0.10690  0.58010  0.49660  1.0000
  H   H329      1.0  0.01100  0.68108  0.96450  1.0000
  C   C400      1.0  0.09185  0.54432  0.80434  1.0000
  C   C401      1.0  0.11399  0.70381  0.71484  1.0000
  H   H330      1.0  0.17147  0.80753  0.87695  1.0000
  H   H331      1.0  0.14729  0.73895  0.66797  1.0000
  H   H332      1.0  0.27152  0.90042  0.91353  1.0000
  H   H333      1.0  0.14967  0.60453  0.65799  1.0000
  C   C402      1.0  0.20198  0.82268  0.85880  1.0000
  C   C403      1.0  0.32056  0.91590  0.78354  1.0000
  C   C404      1.0  0.28258  0.78137  0.89731  1.0000
  C   C405      1.0  0.26906  0.79767  0.91645  1.0000
  P   P13       1.0  0.02102  0.62882  0.87688  1.0000
  H   H334      1.0  0.20756  0.67603  0.56644  1.0000
  H   H335      1.0  0.04567  0.58768  0.74165  1.0000
  C   C406      1.0  0.18321  0.66634  0.60641  1.0000
  C   C407      1.0  0.02298  0.51777  0.77970  1.0000
  C   C408      1.0  0.17649  0.80339  0.81957  1.0000
  C   C409      1.0  0.29777  0.98067  0.72654  1.0000
  C   C410      1.0  0.28436  0.78304  0.85974  1.0000
  C   C411      1.0  0.10024  0.50657  0.75912  1.0000
  C   C412      1.0  0.03692  0.58188  0.79739  1.0000
  C   C413      1.0  0.04866  0.69093  0.86956  1.0000
  H   H336      1.0  0.03186  0.72462  0.87125  1.0000
  C   C414      1.0  0.04140  0.61733  0.91008  1.0000
  C   C415      1.0  0.01898  0.67823  0.71402  1.0000
  H   H337      1.0  0.06886  0.61122  0.87122  1.0000
  H   H338      1.0  0.14482  0.52179  0.57377  1.0000
  C   C416      1.0  0.23490  0.90445  0.90828  1.0000
  C   C417      1.0  0.00178  0.58694  0.67784  1.0000
  H   H339      1.0  0.23593  0.64878  0.66557  1.0000
  C   C418      1.0  0.02872  0.61590  0.83378  1.0000
  C   C419      1.0  0.15270  0.63317  0.69403  1.0000
  C   C420      1.0  0.25863  0.87444  0.87950  1.0000
  H   H340      1.0  0.16124  0.79414  0.81596  1.0000
  H   H341      1.0  0.31438  0.81894  0.89296  1.0000
  H   H342      1.0  0.00268  0.75431  0.96525  1.0000
  H   H343      1.0  0.15803  0.62818  0.78558  1.0000
  C   C421      1.0  0.18003  0.65704  0.64094  1.0000
  H   H344      1.0  0.03848  0.56350  0.79485  1.0000
  H   H345      1.0  0.29086  0.84008  0.81456  1.0000
  C   C422      1.0  0.07620  0.52730  0.80275  1.0000
  C   C423      1.0  0.27270  0.80106  0.84130  1.0000
  H   H346      1.0  0.03073  0.68507  0.76774  1.0000
  C   C424      1.0  0.00119  0.58194  0.51861  1.0000
  H   H347      1.0  0.08783  0.59913  0.98151  1.0000
  C   C425      1.0  0.24361  0.86121  0.76948  1.0000
  C   C426      1.0  0.25652  0.84941  0.79630  1.0000
  C   C427      1.0  0.29111  0.85608  0.76259  1.0000
  C   C428      1.0  0.19920  0.65095  0.66233  1.0000
  H   H348      1.0  0.08867  0.55898  0.82186  1.0000
  C   C429      1.0  0.26062  0.94153  0.98155  1.0000
  H   H349      1.0  0.12372  0.55570  0.78432  1.0000
  C   C430      1.0  0.27810  0.86709  0.73542  1.0000
  H   H350      1.0  0.30230  0.89212  0.81525  1.0000
  C   C431      1.0  0.29670  0.92653  0.83492  1.0000
  C   C432      1.0  0.31509  0.95585  0.80105  1.0000
  H   H351      1.0  0.10183  0.65958  0.64673  1.0000
  H   H352      1.0  0.15077  0.57563  0.70638  1.0000
  H   H353      1.0  0.09356  0.62395  0.54719  1.0000
  C   C433      1.0  0.22422  0.66255  0.61442  1.0000
  H   H354      1.0  0.13136  0.52200  0.74470  1.0000
  H   H355      1.0  0.11679  0.57782  0.52108  1.0000
  C   C434      1.0  0.03597  0.61702  0.94711  1.0000
  C   C435      1.0  0.05257  0.61014  0.97264  1.0000
  C   C436      1.0  0.07470  0.60336  0.96156  1.0000
  C   C437      1.0  0.08022  0.60328  0.92486  1.0000
  C   C438      1.0  0.06373  0.61030  0.89926  1.0000
  H   H356      1.0  0.16268  0.70211  0.64383  1.0000
  P   P14       1.0  0.15153  0.65440  0.65841  1.0000
  H   H357      1.0  0.10329  0.77011  0.98196  1.0000
  C   C439      1.0  0.15228  0.59347  0.71306  1.0000
  H   H358      1.0  0.15514  0.58735  0.77036  1.0000
  H   H359      1.0  0.27541  0.86633  0.87452  1.0000
  H   H360      1.0  0.01930  0.62276  0.95682  1.0000
  C   C440      1.0  0.08307  0.58284  0.49861  1.0000
  C   C441      1.0  0.00491  0.67493  0.87395  1.0000
  H   H361      1.0  0.27378  0.80172  0.81214  1.0000
  C   C442      1.0  0.15563  0.63956  0.73022  1.0000
  S   S62       1.0  0.13354  0.66875  0.96315  1.0000
  C   C443      1.0  0.14032  0.68178  0.67554  1.0000
  H   H362      1.0  0.04269  0.62976  0.74723  1.0000
  C   C444      1.0  0.02407  0.65926  0.87418  1.0000
  H   H363      1.0  0.10047  0.70435  0.73485  1.0000
  H   H364      1.0  0.30165  0.96139  0.58995  1.0000
  H   H365      1.0  0.29146  0.76736  0.91164  1.0000
  H   H366      1.0  0.09764  0.59897  0.91633  1.0000
  S   S63       1.0  0.14834  0.73829  0.96198  1.0000
  H   H367      1.0  0.24128  0.66462  0.60415  1.0000
  C   C445      1.0  0.04596  0.66747  0.87172  1.0000
  C   C446      1.0  0.14041  0.72325  0.67725  1.0000
  H   H368      1.0  0.29153  0.96517  0.52524  1.0000
  H   H369      1.0  0.03239  0.52749  0.76046  1.0000
  S   S64       1.0  0.13480  0.52196  0.66083  1.0000
  C   C447      1.0  0.00629  0.57203  0.55227  1.0000
  C   C448      1.0  0.11167  0.54246  0.78330  1.0000
  C   C449      1.0  0.01655  0.68007  0.75146  1.0000
  C   C450      1.0  0.15479  0.60003  0.74903  1.0000
  H   H370      1.0  0.10737  0.54267  0.56424  1.0000
  H   H371      1.0  0.28095  0.97725  0.67537  1.0000
  C   C451      1.0  0.21767  0.87624  0.87109  1.0000
  C   C452      1.0  0.19075  0.80721  0.79016  1.0000
  H   H372      1.0  0.26717  0.79611  0.94552  1.0000
  H   H373      1.0  0.20248  0.86993  0.85922  1.0000
  H   H374      1.0  0.16864  0.67166  0.58977  1.0000
  C   C453      1.0  0.12289  0.72404  0.70293  1.0000
  C   C454      1.0  0.21619  0.82700  0.82928  1.0000
  H   H375      1.0  0.18658  0.80083  0.76371  1.0000
  C   C455      1.0  0.25962  0.81788  0.86050  1.0000
  C   C456      1.0  0.32258  0.82975  0.87386  1.0000
  H   H376      1.0  0.08287  0.53300  0.51374  1.0000
  C   C457      1.0  0.23925  0.86520  0.86489  1.0000
  C   C458      1.0  0.17480  0.77618  0.96300  1.0000
  H   H377      1.0  0.24433  0.87874  0.71824  1.0000
  P   P15       1.0  0.24279  0.84005  0.83698  1.0000
  C   C459      1.0  0.11290  0.52890  0.54620  1.0000
  H   H378      1.0  0.20641  0.82794  0.88582  1.0000
  C   C460      1.0  0.32522  0.93879  0.77858  1.0000
  C   C461      1.0  0.12259  0.68281  0.70110  1.0000
  H   H379      1.0  0.22528  0.86397  0.77233  1.0000
  C   C462      1.0  0.20522  0.66896  0.59317  1.0000
  C   C463      1.0  0.30610  0.90981  0.81149  1.0000
  C   C464      1.0  0.21553  0.89570  0.89300  1.0000
  C   C465      1.0  0.25647  0.89393  0.90124  1.0000
  H   H380      1.0  0.29376  0.96197  0.84855  1.0000
  C   C466      1.0  0.02962  0.70641  0.87085  1.0000
  C   C467      1.0  0.28041  0.84768  0.79320  1.0000
  S   S65       1.0  0.31305  0.86579  0.92204  1.0000
  C   C468      1.0  0.25436  0.86980  0.73899  1.0000
  S   S66       1.0  0.07827  0.66225  0.95914  1.0000
  Fe  Fe31      1.0  0.07341  0.70026  0.96134  1.0000
  C   C469      1.0  0.25758  0.81579  0.89811  1.0000
  C   C470      1.0  0.09898  0.52326  0.51737  1.0000
  C   C471      1.0  0.10461  0.62981  0.56822  1.0000
  H   H381      1.0  0.11622  0.74032  0.71363  1.0000
  Fe  Fe32      1.0  0.12533  0.70714  0.96525  1.0000
  C   C472      1.0  0.14230  0.63148  0.59425  1.0000
  C   C473      1.0  0.22120  0.65360  0.64900  1.0000
  H   H382      1.0  0.16215  0.78357  0.94450  1.0000
  C   C474      1.0  0.09531  0.64251  0.59716  1.0000
  H   H383      1.0  0.03503  0.68175  0.70126  1.0000
  C   C475      1.0  0.30722  0.97567  0.57433  1.0000
  C   C476      1.0  0.32434  0.85288  0.88184  1.0000
  H   H384      1.0  0.07702  0.64624  0.59876  1.0000
  C   C477      1.0  0.30118  0.94947  0.82983  1.0000
  H   H385      1.0  0.06127  0.52876  0.81995  1.0000
  H   H386      1.0  0.02788  0.58126  0.85369  1.0000
  H   H387      1.0  0.22197  0.82065  0.77223  1.0000
  H   H388      1.0  0.15710  0.65727  0.73749  1.0000
  H   H389      1.0  0.30956  0.85420  0.76009  1.0000
  H   H390      1.0  0.28590  0.92169  0.85705  1.0000
  H   H391      1.0  0.19727  0.64416  0.68930  1.0000
  C   C478      1.0  0.03322  0.62943  0.80357  1.0000
  C   C479      1.0  0.03918  0.61924  0.77048  1.0000
  H   H392      1.0  0.19470  0.80622  0.96294  1.0000
  H   H393      1.0  0.06395  0.51032  0.70748  1.0000
  C   C480      1.0  0.07995  0.50867  0.77919  1.0000
  C   C481      1.0  0.00776  0.69842  0.87297  1.0000
  C   C482      1.0  0.13422  0.51740  0.55114  1.0000
  H   H394      1.0  0.27554  0.96224  0.94054  1.0000
  C   C483      1.0  0.30154  0.97789  0.53771  1.0000
  C   C484      1.0  0.12809  0.62426  0.56680  1.0000
  C   C485      1.0  0.17238  0.75386  0.97632  1.0000
  H   H395      1.0  0.13517  0.61409  0.54459  1.0000
  C   C486      1.0  0.14193  0.50052  0.52664  1.0000
  C   C487      1.0  0.99608  0.67484  0.76804  1.0000
  C   C488      1.0  0.32479  0.91745  0.56116  1.0000
  C   C489      1.0  0.32049  0.99165  0.59073  1.0000
  C   C490      1.0  0.03245  0.49693  0.79315  1.0000
  C   C491      1.0  0.00128  0.52612  0.79055  1.0000
  H   H396      1.0  0.01344  0.52834  0.49685  1.0000
  C   C492      1.0  0.00006  0.69659  0.96597  1.0000
  C   C493      1.0  0.99932  0.56351  0.68176  1.0000
  C   C494      1.0  0.00082  0.67149  0.69309  1.0000
  H   H397      1.0  0.31818  0.92881  0.50690  1.0000
  P   P16       1.0  0.32047  0.98544  0.79255  1.0000
  H   H398      1.0  0.20933  0.50011  0.59188  1.0000
  C   C495      1.0  0.28746  0.98904  0.69471  1.0000
  H   H399      1.0  0.22092  0.99350  0.49973  1.0000
  C   C496      1.0  0.99547  0.73779  0.96636  1.0000
  H   H400      1.0  0.99742  0.49935  0.67752  1.0000
  H   H401      1.0  0.32799  0.90295  0.76540  1.0000
  H   H402      1.0  0.17761  0.49514  0.63497  1.0000
  Fe  Fe33      1.0  0.56416  0.07963  0.28393  1.0000
  S   S67       1.0  0.59835  0.09355  0.29655  1.0000
  S   S68       1.0  0.53039  0.10053  0.28045  1.0000
  Fe  Fe34      1.0  0.58415  0.03158  0.27797  1.0000
  S   S69       1.0  0.61960  0.04099  0.29075  1.0000
  H   H403      1.0  0.58791  0.02452  0.16617  1.0000
  Fe  Fe35      1.0  0.60301  0.06328  0.33409  1.0000
  S   S70       1.0  0.62041  0.06207  0.38926  1.0000
  Fe  Fe36      1.0  0.61236  0.07018  0.25195  1.0000
  S   S71       1.0  0.64188  0.07807  0.21388  1.0000
  S   S72       1.0  0.56807  0.05113  0.32426  1.0000
  S   S73       1.0  0.57772  0.05915  0.23656  1.0000
  Fe  Fe37      1.0  0.35724  0.04526  0.31607  1.0000
  H   H404      1.0  0.43424  0.12195  0.39407  1.0000
  H   H405      1.0  0.34651  0.11560  0.13925  1.0000
  Fe  Fe38      1.0  0.40509  0.06075  0.30304  1.0000
  S   S74       1.0  0.39244  0.09763  0.30179  1.0000
  S   S75       1.0  0.44135  0.04510  0.29885  1.0000
  Fe  Fe39      1.0  0.37124  0.08885  0.35046  1.0000
  S   S76       1.0  0.37102  0.11002  0.40232  1.0000
  Fe  Fe40      1.0  0.36333  0.08585  0.26753  1.0000
  H   H406      1.0  0.38028  0.12588  0.47468  1.0000
  S   S77       1.0  0.38572  0.05268  0.35342  1.0000
  S   S78       1.0  0.37770  0.04960  0.26578  1.0000
  C   C497      1.0  0.36864  0.09704  0.44556  1.0000
  H   H407      1.0  0.53366  0.04671  0.16552  1.0000
  C   C498      1.0  0.50213  0.04974  0.39817  1.0000
  C   C499      1.0  0.43353  0.01066  0.42602  1.0000
  C   C500      1.0  0.36047  0.07532  0.44906  1.0000
  C   C501      1.0  0.65180  0.00542  0.15242  1.0000
  H   H408      1.0  0.54013  0.08892  0.37433  1.0000
  C   C502      1.0  0.38814  0.01262  0.19256  1.0000
  C   C503      1.0  0.50549  0.08503  0.28260  1.0000
  C   C504      1.0  0.50699  0.06119  0.28528  1.0000
  C   C505      1.0  0.48710  0.04927  0.28932  1.0000
  C   C506      1.0  0.46552  0.06098  0.29088  1.0000
  C   C507      1.0  0.46389  0.08478  0.28701  1.0000
  C   C508      1.0  0.48384  0.09675  0.28280  1.0000
  H   H409      1.0  0.52349  0.05192  0.28454  1.0000
  H   H410      1.0  0.48841  0.03085  0.29157  1.0000
  H   H411      1.0  0.44734  0.09397  0.28788  1.0000
  H   H412      1.0  0.48251  0.11518  0.28052  1.0000
  H   H413      1.0  0.34886  0.00094  0.43938  1.0000
  H   H414      1.0  0.63950  0.01186  0.37983  1.0000
  C   C509      1.0  0.52196  0.12236  0.46066  1.0000
  C   C510      1.0  0.60681  0.06894  0.43110  1.0000
  C   C511      1.0  0.58417  0.07778  0.43275  1.0000
  H   H415      1.0  0.49475  0.15767  0.09182  1.0000
  C   C512      1.0  0.62109  0.02078  0.19053  1.0000
  C   C513      1.0  0.61891  0.06499  0.46354  1.0000
  H   H416      1.0  0.57470  0.08077  0.40806  1.0000
  H   H417      1.0  0.63641  0.05800  0.46258  1.0000
  C   C514      1.0  0.64520  0.07699  0.16590  1.0000
  C   C515      1.0  0.62970  0.00626  0.04422  1.0000
  C   C516      1.0  0.62990  0.07535  0.10482  1.0000
  C   C517      1.0  0.62692  0.07386  0.14264  1.0000
  H   H418      1.0  0.45618  0.12967  0.44904  1.0000
  C   C518      1.0  0.44981  0.09743  0.47483  1.0000
  H   H419      1.0  0.61039  0.07093  0.15394  1.0000
  H   H420      1.0  0.57678  0.03320  0.40491  1.0000
  C   C519      1.0  0.45550  0.01276  0.41234  1.0000
  H   H421      1.0  0.51813  0.02377  0.34173  1.0000
  C   C520      1.0  0.35603  0.06641  0.48348  1.0000
  H   H422      1.0  0.61103  0.02146  0.43954  1.0000
  C   C521      1.0  0.57288  0.99979  0.38265  1.0000
  H   H423      1.0  0.34631  0.02684  0.13171  1.0000
  C   C522      1.0  0.58320  0.01552  0.40441  1.0000
  S   S79       1.0  0.35271  0.10296  0.21382  1.0000
  C   C523      1.0  0.42937  0.01314  0.46301  1.0000
  H   H424      1.0  0.46556  0.05482  0.38937  1.0000
  C   C524      1.0  0.43580  0.10934  0.41553  1.0000
  C   C525      1.0  0.63563  0.13397  0.16000  1.0000
  C   C526      1.0  0.60574  0.01927  0.16201  1.0000
  C   C527      1.0  0.62376  0.13339  0.09750  1.0000
  C   C528      1.0  0.52140  0.17999  0.07894  1.0000
  H   H425      1.0  0.41963  0.00771  0.40764  1.0000
  C   C529      1.0  0.50660  0.00012  0.38201  1.0000
  S   S80       1.0  0.57250  0.99689  0.26506  1.0000
  C   C530      1.0  0.62208  0.03714  0.00112  1.0000
  C   C531      1.0  0.52313  0.05965  0.39355  1.0000
  C   C532      1.0  0.54392  0.18519  0.08559  1.0000
  C   C533      1.0  0.55685  0.18392  0.24032  1.0000
  C   C534      1.0  0.61347  0.01121  0.12835  1.0000
  C   C535      1.0  0.51492  0.00623  0.34800  1.0000
  H   H426      1.0  0.57465  0.17645  0.11514  1.0000
  H   H427      1.0  0.55865  0.17862  0.29794  1.0000
  H   H428      1.0  0.48267  0.02388  0.49126  1.0000
  C   C536      1.0  0.55733  0.17197  0.10993  1.0000
  C   C537      1.0  0.35796  0.01614  0.14815  1.0000
  H   H429      1.0  0.62817  0.13199  0.06909  1.0000
  C   C538      1.0  0.64408  0.01393  0.18577  1.0000
  H   H430      1.0  0.61519  0.02722  0.21642  1.0000
  C   C539      1.0  0.48197  0.06211  0.38757  1.0000
  C   C540      1.0  0.52331  0.01843  0.45151  1.0000
  C   C541      1.0  0.63661  0.00434  0.12327  1.0000
  H   H431      1.0  0.49457  0.10082  0.45082  1.0000
  C   C542      1.0  0.53786  0.99854  0.45448  1.0000
  C   C543      1.0  0.44721  0.01760  0.48643  1.0000
  H   H432      1.0  0.41536  0.08578  0.38795  1.0000
  H   H433      1.0  0.64912  0.13294  0.18000  1.0000
  C   C544      1.0  0.52673  0.03696  0.47444  1.0000
  C   C545      1.0  0.37328  0.02629  0.17099  1.0000
  H   H434      1.0  0.57086  0.11855  0.23329  1.0000
  S   S81       1.0  0.34091  0.08091  0.31620  1.0000
  H   H435      1.0  0.40009  0.02047  0.21024  1.0000
  C   C546      1.0  0.60091  0.13406  0.10845  1.0000
  C   C547      1.0  0.56507  0.14718  0.26877  1.0000
  C   C548      1.0  0.56006  0.17070  0.27155  1.0000
  C   C549      1.0  0.60268  0.00877  0.42418  1.0000
  H   H436      1.0  0.46738  0.09318  0.36375  1.0000
  H   H437      1.0  0.53898  0.05032  0.40057  1.0000
  C   C550      1.0  0.56682  0.13681  0.23482  1.0000
  H   H438      1.0  0.56732  0.13685  0.29296  1.0000
  H   H439      1.0  0.55098  0.19953  0.07196  1.0000
  H   H440      1.0  0.41650  0.05794  0.43810  1.0000
  C   C551      1.0  0.47349  0.01756  0.43558  1.0000
  H   H441      1.0  0.55309  0.20218  0.24250  1.0000
  P   P17       1.0  0.50149  0.02128  0.41703  1.0000
  C   C552      1.0  0.55843  0.17358  0.20630  1.0000
  C   C553      1.0  0.56307  0.14985  0.20331  1.0000
  C   C554      1.0  0.57395  0.08312  0.46640  1.0000
  P   P18       1.0  0.56568  0.13643  0.15944  1.0000
  C   C555      1.0  0.59524  0.13505  0.14535  1.0000
  C   C556      1.0  0.55546  0.10799  0.16118  1.0000
  C   C557      1.0  0.53737  0.10311  0.18429  1.0000
  C   C558      1.0  0.52950  0.08112  0.18563  1.0000
  C   C559      1.0  0.53949  0.06385  0.16377  1.0000
  C   C560      1.0  0.55728  0.06862  0.14032  1.0000
  C   C561      1.0  0.56518  0.09062  0.13890  1.0000
  H   H442      1.0  0.51815  0.13427  0.13470  1.0000
  C   C562      1.0  0.54838  0.15326  0.12759  1.0000
  C   C563      1.0  0.37386  0.10906  0.47710  1.0000
  C   C564      1.0  0.55576  0.99746  0.47945  1.0000
  C   C565      1.0  0.61281  0.13464  0.17107  1.0000
  H   H443      1.0  0.51100  0.19028  0.06016  1.0000
  H   H444      1.0  0.37351  0.04479  0.17226  1.0000
  H   H445      1.0  0.41220  0.01211  0.47331  1.0000
  H   H446      1.0  0.45830  0.01135  0.38339  1.0000
  C   C566      1.0  0.51227  0.16159  0.09672  1.0000
  C   C567      1.0  0.42505  0.08893  0.41211  1.0000
  C   C568      1.0  0.50375  0.09390  0.36916  1.0000
  H   H447      1.0  0.55596  0.18417  0.18255  1.0000
  H   H448      1.0  0.35652  0.06583  0.42512  1.0000
  H   H449      1.0  0.52944  0.11618  0.20169  1.0000
  H   H450      1.0  0.51596  0.07739  0.20432  1.0000
  H   H451      1.0  0.54862  0.14314  0.47895  1.0000
  H   H452      1.0  0.56521  0.05523  0.12357  1.0000
  H   H453      1.0  0.57903  0.09390  0.12070  1.0000
  C   C569      1.0  0.44820  0.11358  0.44668  1.0000
  H   H454      1.0  0.58775  0.13349  0.08810  1.0000
  H   H455      1.0  0.51597  0.05261  0.47238  1.0000
  C   C570      1.0  0.33516  0.10217  0.14473  1.0000
  H   H456      1.0  0.60911  0.13440  0.19969  1.0000
  C   C571      1.0  0.48285  0.08410  0.37324  1.0000
  H   H457      1.0  0.61546  0.07360  0.08720  1.0000
  H   H458      1.0  0.50446  0.11058  0.35668  1.0000
  C   C572      1.0  0.42595  0.07310  0.44035  1.0000
  C   C573      1.0  0.52566  0.14829  0.12101  1.0000
  C   C574      1.0  0.65124  0.07976  0.08964  1.0000
  H   H459      1.0  0.65591  0.01548  0.20794  1.0000
  C   C575      1.0  0.52389  0.08162  0.37905  1.0000
  H   H460      1.0  0.55651  0.08999  0.46742  1.0000
  C   C576      1.0  0.63591  0.02654  0.02771  1.0000
  C   C577      1.0  0.59556  0.00741  0.00687  1.0000
  C   C578      1.0  0.50166  0.11248  0.46975  1.0000
  H   H461      1.0  0.55860  0.00531  0.36584  1.0000
  H   H462      1.0  0.38536  0.00865  0.30951  1.0000
  C   C579      1.0  0.46921  0.01993  0.47278  1.0000
  C   C580      1.0  0.60932  0.99682  0.03367  1.0000
  H   H463      1.0  0.53009  0.11861  0.43486  1.0000
  S   S82       1.0  0.33704  0.01450  0.32460  1.0000
  C   C581      1.0  0.65635  0.00337  0.38211  1.0000
  S   S83       1.0  0.65321  0.08424  0.04202  1.0000
  C   C582      1.0  0.64109  0.13352  0.12326  1.0000
  H   H464      1.0  0.34830  0.05030  0.48519  1.0000
  H   H465      1.0  0.65881  0.13232  0.11474  1.0000
  H   H466      1.0  0.65131  0.03447  0.03520  1.0000
  C   C583      1.0  0.43827  0.07731  0.47170  1.0000
  C   C584      1.0  0.33523  0.09206  0.17930  1.0000
  C   C585      1.0  0.64273  0.99636  0.48168  1.0000
  H   H467      1.0  0.60139  0.01032  0.10649  1.0000
  H   H468      1.0  0.57989  0.00006  0.99893  1.0000
  C   C586      1.0  0.53237  0.13629  0.48542  1.0000
  H   H469      1.0  0.43832  0.06512  0.49356  1.0000
  Fe  Fe41      1.0  0.58305  0.07446  0.59559  1.0000
  S   S84       1.0  0.56979  0.04009  0.60560  1.0000
  S   S85       1.0  0.57297  0.08859  0.54006  1.0000
  Fe  Fe42      1.0  0.60075  0.07763  0.67452  1.0000
  S   S86       1.0  0.58780  0.04377  0.68949  1.0000
  S   S87       1.0  0.62183  0.09742  0.71463  1.0000
  Fe  Fe43      1.0  0.60215  0.03262  0.63600  1.0000
  H   H470      1.0  0.47892  0.01914  0.92689  1.0000
  Fe  Fe44      1.0  0.55629  0.05461  0.65784  1.0000
  S   S88       1.0  0.52213  0.04190  0.67425  1.0000
  S   S89       1.0  0.61708  0.06564  0.62190  1.0000
  S   S90       1.0  0.56761  0.08987  0.64681  1.0000
  Fe  Fe45      1.0  0.39943  0.08606  0.67142  1.0000
  S   S91       1.0  0.36370  0.09993  0.65730  1.0000
  S   S92       1.0  0.43083  0.10577  0.67828  1.0000
  Fe  Fe46      1.0  0.38723  0.03716  0.66949  1.0000
  S   S93       1.0  0.35079  0.04687  0.65579  1.0000
  C   C587      1.0  0.63391  0.06201  0.80901  1.0000
  Fe  Fe47      1.0  0.36484  0.07152  0.61575  1.0000
  H   H471      1.0  0.39692  0.15524  0.54147  1.0000
  Fe  Fe48      1.0  0.35278  0.07404  0.69866  1.0000
  C   C588      1.0  0.39620  0.02105  0.55502  1.0000
  S   S94       1.0  0.40113  0.05995  0.62761  1.0000
  S   S95       1.0  0.38848  0.06231  0.71479  1.0000
  C   C589      1.0  0.50464  0.06883  0.91414  1.0000
  H   H472      1.0  0.35580  0.08946  0.79493  1.0000
  H   H473      1.0  0.43870  0.07511  0.56238  1.0000
  H   H474      1.0  0.61821  0.06740  0.52193  1.0000
  H   H475      1.0  0.35108  0.09654  0.86088  1.0000
  C   C590      1.0  0.49711  0.06016  0.67387  1.0000
  C   C591      1.0  0.47605  0.05053  0.67861  1.0000
  C   C592      1.0  0.45569  0.06440  0.67912  1.0000
  C   C593      1.0  0.45626  0.08812  0.67574  1.0000
  C   C594      1.0  0.47735  0.09781  0.67123  1.0000
  C   C595      1.0  0.49775  0.08383  0.66993  1.0000
  H   H476      1.0  0.47548  0.03226  0.68165  1.0000
  H   H477      1.0  0.43958  0.05676  0.68297  1.0000
  H   H478      1.0  0.47792  0.11615  0.66872  1.0000
  H   H479      1.0  0.51395  0.09139  0.66639  1.0000
  S   S96       1.0  0.35211  0.06720  0.55757  1.0000
  H   H480      1.0  0.59123  0.03605  0.97026  1.0000
  S   S97       1.0  0.40489  0.00210  0.67472  1.0000
  C   C596      1.0  0.63298  0.08788  0.75740  1.0000
  H   H481      1.0  0.65374  0.11668  0.76360  1.0000
  H   H482      1.0  0.63247  0.00670  0.83084  1.0000
  C   C597      1.0  0.41072  0.00718  0.57674  1.0000
  C   C598      1.0  0.62645  0.01164  0.53773  1.0000
  H   H483      1.0  0.37026  0.02202  0.51438  1.0000
  C   C599      1.0  0.33688  0.09094  0.84538  1.0000
  C   C600      1.0  0.60768  0.99925  0.90478  1.0000
  H   H484      1.0  0.42149  0.01479  0.59648  1.0000
  C   C601      1.0  0.33965  0.08685  0.80790  1.0000
  C   C602      1.0  0.64832  0.10121  0.77603  1.0000
  C   C603      1.0  0.45907  0.09079  0.77024  1.0000
  C   C604      1.0  0.44093  0.07700  0.76430  1.0000
  C   C605      1.0  0.44341  0.05361  0.77176  1.0000
  C   C606      1.0  0.46415  0.04398  0.78509  1.0000
  C   C607      1.0  0.48263  0.05766  0.79043  1.0000
  C   C608      1.0  0.47974  0.08126  0.78382  1.0000
  P   P19       1.0  0.50875  0.04550  0.81009  1.0000
  C   C609      1.0  0.51498  0.01673  0.79399  1.0000
  C   C610      1.0  0.53280  0.06100  0.79568  1.0000
  C   C611      1.0  0.53312  0.07055  0.76090  1.0000
  C   C612      1.0  0.55134  0.08314  0.74994  1.0000
  C   C613      1.0  0.56961  0.08586  0.77325  1.0000
  C   C614      1.0  0.56999  0.07550  0.80728  1.0000
  C   C615      1.0  0.55172  0.06294  0.81842  1.0000
  C   C616      1.0  0.41256  0.14706  0.55217  1.0000
  H   H485      1.0  0.64874  0.05461  0.68653  1.0000
  H   H486      1.0  0.57345  0.99987  0.64929  1.0000
  C   C617      1.0  0.62478  0.99814  0.50687  1.0000
  C   C618      1.0  0.37022  0.09970  0.51178  1.0000
  C   C619      1.0  0.50406  0.04726  0.85818  1.0000
  C   C620      1.0  0.50943  0.06690  0.87722  1.0000
  C   C621      1.0  0.65258  0.02458  0.72007  1.0000
  H   H487      1.0  0.62938  0.02691  0.91577  1.0000
  C   C622      1.0  0.52217  0.14083  0.51897  1.0000
  C   C623      1.0  0.49277  0.03016  0.87617  1.0000
  H   H488      1.0  0.45712  0.10885  0.76379  1.0000
  H   H489      1.0  0.42507  0.08454  0.75336  1.0000
  H   H490      1.0  0.42183  0.13120  0.50199  1.0000
  H   H491      1.0  0.46576  0.02594  0.79126  1.0000
  H   H492      1.0  0.49341  0.09238  0.78888  1.0000
  H   H493      1.0  0.51926  0.06845  0.74222  1.0000
  H   H494      1.0  0.55132  0.09078  0.72328  1.0000
  H   H495      1.0  0.58361  0.09582  0.76470  1.0000
  H   H496      1.0  0.58453  0.07728  0.82486  1.0000
  H   H497      1.0  0.55241  0.05487  0.84472  1.0000
  C   C624      1.0  0.64927  0.07516  0.82761  1.0000
  H   H498      1.0  0.37378  0.10936  0.53575  1.0000
  H   H499      1.0  0.42927  0.04302  0.76689  1.0000
  H   H500      1.0  0.61264  0.01312  0.55717  1.0000
  H   H501      1.0  0.44388  0.01985  0.51505  1.0000
  H   H502      1.0  0.56476  0.01698  0.78827  1.0000
  H   H503      1.0  0.62707  0.05294  0.98893  1.0000
  H   H504      1.0  0.35567  0.00089  0.66911  1.0000
  H   H505      1.0  0.50887  0.08403  0.92868  1.0000
  H   H506      1.0  0.48734  0.01553  0.86146  1.0000
  C   C625      1.0  0.59765  0.01205  0.81381  1.0000
  H   H507      1.0  0.44985  0.04300  0.60313  1.0000
  H   H508      1.0  0.50373  0.02468  0.73954  1.0000
  C   C626      1.0  0.62857  0.00870  0.91108  1.0000
  H   H509      1.0  0.63445  0.02250  0.72001  1.0000
  H   H510      1.0  0.57332  0.01562  0.52059  1.0000
  H   H511      1.0  0.46735  0.11626  0.59194  1.0000
  C   C627      1.0  0.50150  0.13153  0.52779  1.0000
  C   C628      1.0  0.62042  0.00386  0.80952  1.0000
  H   H512      1.0  0.57661  0.99605  0.73295  1.0000
  C   C629      1.0  0.52587  0.99996  0.81628  1.0000
  H   H513      1.0  0.54753  0.05037  0.51632  1.0000
  C   C630      1.0  0.42686  0.13332  0.52979  1.0000
  H   H514      1.0  0.52962  0.00365  0.84417  1.0000
  H   H515      1.0  0.49417  0.13506  0.55411  1.0000
  H   H516      1.0  0.62781  0.04727  0.82220  1.0000
  H   H517      1.0  0.61427  0.05755  0.76039  1.0000
  C   C631      1.0  0.48524  0.04146  0.58763  1.0000
  C   C632      1.0  0.36065  0.07850  0.51516  1.0000
  C   C633      1.0  0.62610  0.06800  0.77404  1.0000
  H   H518      1.0  0.40708  0.16048  0.60588  1.0000
  C   C634      1.0  0.45628  0.06821  0.56258  1.0000
  C   C635      1.0  0.41825  0.15003  0.58839  1.0000
  H   H519      1.0  0.48994  0.05316  0.96063  1.0000
  C   C636      1.0  0.47289  0.07827  0.54150  1.0000
  H   H520      1.0  0.50914  0.07757  0.52904  1.0000
  C   C637      1.0  0.44692  0.12218  0.54365  1.0000
  P   P20       1.0  0.46526  0.10373  0.51543  1.0000
  C   C638      1.0  0.50184  0.05135  0.56678  1.0000
  C   C639      1.0  0.51148  0.01180  0.75745  1.0000
  H   H521      1.0  0.51691  0.08096  0.86349  1.0000
  C   C640      1.0  0.38155  0.01116  0.53091  1.0000
  H   H522      1.0  0.45754  0.00872  0.72938  1.0000
  H   H523      1.0  0.49025  0.02797  0.60661  1.0000
  H   H524      1.0  0.51962  0.04544  0.56970  1.0000
  C   C641      1.0  0.48785  0.03221  0.91308  1.0000
  C   C642      1.0  0.49393  0.05146  0.93211  1.0000
  H   H525      1.0  0.44251  0.14133  0.63048  1.0000
  H   H526      1.0  0.39599  0.03950  0.55706  1.0000
  C   C643      1.0  0.43822  0.13920  0.60228  1.0000
  C   C644      1.0  0.49575  0.06967  0.54379  1.0000
  C   C645      1.0  0.46248  0.04989  0.58554  1.0000
  C   C646      1.0  0.58197  0.00946  0.78606  1.0000
  C   C647      1.0  0.45236  0.12511  0.58021  1.0000
  H   H527      1.0  0.53056  0.15120  0.53846  1.0000
  H   H528      1.0  0.34324  0.01501  0.84456  1.0000
  H   H529      1.0  0.64728  0.03368  0.56792  1.0000
  H   H530      1.0  0.59250  0.02146  0.83787  1.0000
  C   C648      1.0  0.64604  0.02336  0.54381  1.0000
  H   H531      1.0  0.59211  0.01016  0.90502  1.0000
  C   C649      1.0  0.65659  0.09481  0.81076  1.0000
  S   S98       1.0  0.62173  0.99893  0.63292  1.0000
  C   C650      1.0  0.58615  0.07965  0.49878  1.0000
  C   C651      1.0  0.49100  0.11735  0.50317  1.0000
  H   H532      1.0  0.32891  0.02605  0.51911  1.0000
  C   C652      1.0  0.60859  0.07013  0.49726  1.0000
  H   H533      1.0  0.39211  0.01488  0.74576  1.0000
  H   H534      1.0  0.35067  0.01180  0.74593  1.0000
  C   C653      1.0  0.36095  0.00164  0.76493  1.0000
  C   C654      1.0  0.38457  0.00351  0.76479  1.0000
  C   C655      1.0  0.54459  0.03578  0.49939  1.0000
  C   C656      1.0  0.55917  0.01611  0.50180  1.0000
  C   C657      1.0  0.60191  0.02763  0.99072  1.0000
  S   S99       1.0  0.65793  0.06611  0.87193  1.0000
  C   C658      1.0  0.58874  0.99787  0.75462  1.0000
  H   H535      1.0  0.33858  0.02212  0.58324  1.0000
  C   C659      1.0  0.66065  0.04289  0.70067  1.0000
  Fe  Fe49      1.0  0.60943  0.88206  0.33180  1.0000
  S   S100      1.0  0.62655  0.84720  0.33990  1.0000
  S   S101      1.0  0.62874  0.91379  0.33712  1.0000
  Fe  Fe50      1.0  0.56312  0.86387  0.31747  1.0000
  S   S102      1.0  0.57665  0.82732  0.32333  1.0000
  S   S103      1.0  0.52689  0.87883  0.30905  1.0000
  Fe  Fe51      1.0  0.59527  0.84001  0.37199  1.0000
  S   S104      1.0  0.59539  0.82088  0.42553  1.0000
  Fe  Fe52      1.0  0.60688  0.83783  0.29032  1.0000
  C   C660      1.0  0.63453  0.82680  0.20419  1.0000
  S   S105      1.0  0.57990  0.87573  0.36788  1.0000
  S   S106      1.0  0.59168  0.87336  0.28055  1.0000
  Fe  Fe53      1.0  0.40620  0.84367  0.32916  1.0000
  S   S107      1.0  0.37184  0.83226  0.34705  1.0000
  S   S108      1.0  0.43897  0.82161  0.32360  1.0000
  Fe  Fe54      1.0  0.38950  0.89303  0.32408  1.0000
  S   S109      1.0  0.35397  0.88602  0.34086  1.0000
  S   S110      1.0  0.40456  0.92666  0.31358  1.0000
  Fe  Fe55      1.0  0.37061  0.86315  0.38352  1.0000
  S   S111      1.0  0.35703  0.87114  0.44039  1.0000
  Fe  Fe56      1.0  0.35790  0.85608  0.30292  1.0000
  H   H536      1.0  0.32999  0.96694  0.33538  1.0000
  S   S112      1.0  0.40592  0.87235  0.36870  1.0000
  S   S113      1.0  0.39238  0.86506  0.28287  1.0000
  C   C661      1.0  0.36450  0.85796  0.48236  1.0000
  H   H537      1.0  0.62695  0.87261  0.14770  1.0000
  H   H538      1.0  0.52858  0.78009  0.49022  1.0000
  H   H539      1.0  0.63476  0.89758  0.07346  1.0000
  H   H540      1.0  0.33880  0.97508  0.21792  1.0000
  C   C662      1.0  0.40227  0.91082  0.44560  1.0000
  H   H541      1.0  0.37896  0.82639  0.46052  1.0000
  C   C663      1.0  0.50738  0.96047  0.36249  1.0000
  C   C664      1.0  0.44338  0.91662  0.18951  1.0000
  H   H542      1.0  0.40394  0.78859  0.45986  1.0000
  C   C665      1.0  0.34252  0.85790  0.16073  1.0000
  C   C666      1.0  0.34401  0.85755  0.19872  1.0000
  C   C667      1.0  0.60950  0.97723  0.30147  1.0000
  H   H543      1.0  0.35672  0.86334  0.14515  1.0000
  H   H544      1.0  0.35941  0.86231  0.21194  1.0000
  H   H545      1.0  0.59122  0.92871  0.01242  1.0000
  C   C668      1.0  0.34775  0.96853  0.32859  1.0000
  C   C669      1.0  0.36262  0.94893  0.32580  1.0000
  C   C670      1.0  0.38560  0.95087  0.31717  1.0000
  C   C671      1.0  0.39373  0.97249  0.31145  1.0000
  P   P21       1.0  0.63999  0.97944  0.44130  1.0000
  C   C672      1.0  0.43532  0.91986  0.15426  1.0000
  C   C673      1.0  0.65048  0.91017  0.43013  1.0000
  H   H546      1.0  0.41152  0.97413  0.30481  1.0000
  C   C674      1.0  0.64379  0.94925  0.45133  1.0000
  C   C675      1.0  0.50298  0.86236  0.31486  1.0000
  C   C676      1.0  0.48114  0.87344  0.31306  1.0000
  C   C677      1.0  0.46155  0.86101  0.31629  1.0000
  C   C678      1.0  0.46359  0.83733  0.32085  1.0000
  C   C679      1.0  0.48544  0.82618  0.32290  1.0000
  C   C680      1.0  0.50512  0.83868  0.32012  1.0000
  H   H547      1.0  0.47935  0.89172  0.30878  1.0000
  H   H548      1.0  0.44481  0.86976  0.31447  1.0000
  H   H549      1.0  0.48717  0.80784  0.32645  1.0000
  H   H550      1.0  0.52190  0.82996  0.32142  1.0000
  C   C681      1.0  0.59922  0.83454  0.46757  1.0000
  C   C682      1.0  0.38734  0.98886  0.19201  1.0000
  C   C683      1.0  0.41333  0.95274  0.47407  1.0000
  H   H551      1.0  0.56152  0.95096  0.27894  1.0000
  C   C684      1.0  0.60552  0.91980  0.20839  1.0000
  H   H552      1.0  0.60328  0.86798  0.44535  1.0000
  H   H553      1.0  0.43532  0.92017  0.24626  1.0000
  H   H554      1.0  0.61349  0.85801  0.20661  1.0000
  C   C685      1.0  0.57834  0.95318  0.28974  1.0000
  C   C686      1.0  0.59072  0.93465  0.30577  1.0000
  C   C687      1.0  0.61273  0.93722  0.31883  1.0000
  C   C688      1.0  0.54120  0.81068  0.46774  1.0000
  H   H555      1.0  0.63360  0.95945  0.13501  1.0000
  H   H556      1.0  0.58320  0.91838  0.30782  1.0000
  H   H557      1.0  0.33151  0.91698  0.03898  1.0000
  C   C689      1.0  0.36449  0.94693  0.09521  1.0000
  H   H558      1.0  0.35621  0.93238  0.33022  1.0000
  C   C690      1.0  0.33162  0.93857  0.42747  1.0000
  H   H559      1.0  0.63203  0.89305  0.20835  1.0000
  C   C691      1.0  0.64357  0.96272  0.07883  1.0000
  C   C692      1.0  0.62199  0.95862  0.31719  1.0000
  H   H560      1.0  0.37140  0.87382  0.06048  1.0000
  C   C693      1.0  0.40168  0.81321  0.20112  1.0000
  P   P22       1.0  0.46679  0.84040  0.47558  1.0000
  C   C694      1.0  0.45110  0.81944  0.45206  1.0000
  C   C695      1.0  0.46404  0.86799  0.45360  1.0000
  H   H561      1.0  0.60395  0.98140  0.04640  1.0000
  C   C696      1.0  0.51606  0.96666  0.32895  1.0000
  C   C697      1.0  0.46258  0.91103  0.41994  1.0000
  C   C698      1.0  0.45977  0.89144  0.39958  1.0000
  C   C699      1.0  0.46052  0.86996  0.41619  1.0000
  C   C700      1.0  0.45969  0.81013  0.41946  1.0000
  C   C701      1.0  0.44822  0.79331  0.40161  1.0000
  C   C702      1.0  0.42802  0.78571  0.41593  1.0000
  C   C703      1.0  0.41955  0.79458  0.44863  1.0000
  C   C704      1.0  0.43110  0.81127  0.46676  1.0000
  C   C705      1.0  0.49622  0.82944  0.47392  1.0000
  H   H562      1.0  0.50949  0.85972  0.45006  1.0000
  C   C706      1.0  0.60296  0.85781  0.46974  1.0000
  C   C707      1.0  0.33914  0.92266  0.06380  1.0000
  C   C708      1.0  0.53577  0.83315  0.45664  1.0000
  C   C709      1.0  0.51336  0.84254  0.45969  1.0000
  H   H563      1.0  0.42713  0.81084  0.24376  1.0000
  C   C710      1.0  0.35275  0.91784  0.22045  1.0000
  C   C711      1.0  0.64875  0.90212  0.46549  1.0000
  H   H564      1.0  0.34526  0.98486  0.12933  1.0000
  H   H565      1.0  0.42865  0.77332  0.19279  1.0000
  H   H566      1.0  0.59953  0.88693  0.01969  1.0000
  H   H567      1.0  0.49608  0.97205  0.41491  1.0000
  H   H568      1.0  0.46196  0.92757  0.40674  1.0000
  H   H569      1.0  0.45673  0.89300  0.37084  1.0000
  H   H570      1.0  0.45840  0.85507  0.39960  1.0000
  H   H571      1.0  0.47523  0.81589  0.40759  1.0000
  H   H572      1.0  0.45474  0.78656  0.37610  1.0000
  C   C712      1.0  0.55925  0.92689  0.42504  1.0000
  C   C713      1.0  0.34378  0.98361  0.43613  1.0000
  C   C714      1.0  0.61227  0.98633  0.42182  1.0000
  H   H573      1.0  0.58261  0.95002  0.20978  1.0000
  H   H574      1.0  0.59195  0.90811  0.20760  1.0000
  H   H575      1.0  0.42352  0.96085  0.41962  1.0000
  H   H576      1.0  0.54897  0.84308  0.44502  1.0000
  C   C715      1.0  0.46543  0.90930  0.45727  1.0000
  C   C716      1.0  0.37863  0.81052  0.19302  1.0000
  H   H577      1.0  0.51992  0.95375  0.30851  1.0000
  H   H578      1.0  0.44615  0.73831  0.16515  1.0000
  H   H579      1.0  0.41805  0.96888  0.48477  1.0000
  H   H580      1.0  0.53611  0.98412  0.43680  1.0000
  H   H581      1.0  0.39801  0.89451  0.43487  1.0000
  P   P23       1.0  0.42149  0.82058  0.16613  1.0000
  C   C717      1.0  0.39421  0.80321  0.26364  1.0000
  C   C718      1.0  0.43379  0.79464  0.14589  1.0000
  H   H582      1.0  0.61351  0.97652  0.21370  1.0000
  C   C719      1.0  0.63292  0.92752  0.10730  1.0000
  C   C720      1.0  0.45393  0.75463  0.11479  1.0000
  C   C721      1.0  0.45279  0.77509  0.09525  1.0000
  C   C722      1.0  0.44282  0.79505  0.11074  1.0000
  H   H583      1.0  0.44647  0.91551  0.13162  1.0000
  C   C723      1.0  0.64191  0.94102  0.48683  1.0000
  C   C724      1.0  0.40675  0.83769  0.13158  1.0000
  C   C725      1.0  0.44402  0.83590  0.18630  1.0000
  C   C726      1.0  0.46713  0.82963  0.17930  1.0000
  C   C727      1.0  0.48431  0.84086  0.19678  1.0000
  C   C728      1.0  0.47860  0.85843  0.22120  1.0000
  C   C729      1.0  0.45568  0.86486  0.22801  1.0000
  C   C730      1.0  0.43846  0.85364  0.21075  1.0000
  C   C731      1.0  0.63648  0.95085  0.10947  1.0000
  H   H584      1.0  0.61687  0.99356  0.29981  1.0000
  H   H585      1.0  0.65043  0.88390  0.47088  1.0000
  C   C732      1.0  0.34284  0.92017  0.12884  1.0000
  C   C733      1.0  0.63682  0.91580  0.07483  1.0000
  C   C734      1.0  0.64820  0.93362  0.42310  1.0000
  C   C735      1.0  0.62611  0.84804  0.19106  1.0000
  H   H586      1.0  0.55848  0.80328  0.46471  1.0000
  H   H587      1.0  0.45973  0.77550  0.06813  1.0000
  H   H588      1.0  0.44231  0.81084  0.09543  1.0000
  C   C736      1.0  0.35825  0.93759  0.12855  1.0000
  C   C737      1.0  0.41306  0.92906  0.14825  1.0000
  C   C738      1.0  0.41073  0.92737  0.42292  1.0000
  H   H589      1.0  0.47205  0.81583  0.16102  1.0000
  H   H590      1.0  0.50212  0.83567  0.19202  1.0000
  H   H591      1.0  0.49194  0.86676  0.23536  1.0000
  H   H592      1.0  0.45122  0.87823  0.24735  1.0000
  H   H593      1.0  0.42079  0.85855  0.21695  1.0000
  H   H594      1.0  0.46073  0.90983  0.19420  1.0000
  C   C739      1.0  0.52418  0.90771  0.46321  1.0000
  C   C740      1.0  0.61777  0.95834  0.21163  1.0000
  C   C741      1.0  0.44514  0.75413  0.14988  1.0000
  C   C742      1.0  0.39870  0.91536  0.48218  1.0000
  C   C743      1.0  0.38115  0.84005  0.07993  1.0000
  C   C744      1.0  0.62829  0.91127  0.20921  1.0000
  S   S114      1.0  0.62542  0.81607  0.24655  1.0000
  C   C745      1.0  0.41662  0.94821  0.43726  1.0000
  H   H595      1.0  0.39492  0.89300  0.10527  1.0000
  C   C746      1.0  0.35250  0.94051  0.20807  1.0000
  C   C747      1.0  0.58780  0.97443  0.28726  1.0000
  S   S115      1.0  0.65866  0.85499  0.09482  1.0000
  C   C748      1.0  0.64699  0.95088  0.04618  1.0000
  C   C749      1.0  0.37123  0.80105  0.25549  1.0000
  C   C750      1.0  0.42913  0.92239  0.21879  1.0000
  C   C751      1.0  0.52430  0.79757  0.48201  1.0000
  C   C752      1.0  0.40685  0.93141  0.21287  1.0000
  H   H596      1.0  0.39846  0.97876  0.21001  1.0000
  C   C753      1.0  0.50263  0.97712  0.38895  1.0000
  H   H597      1.0  0.46172  0.73918  0.10284  1.0000
  H   H598      1.0  0.54405  0.91314  0.37743  1.0000
  C   C754      1.0  0.54284  0.91525  0.40653  1.0000
  H   H599      1.0  0.36375  0.90461  0.20786  1.0000
  H   H600      1.0  0.51328  0.89566  0.41121  1.0000
  H   H601      1.0  0.37657  0.96013  0.09412  1.0000
  H   H602      1.0  0.39630  0.93618  0.23606  1.0000
  H   H603      1.0  0.37202  0.81340  0.16607  1.0000
  H   H604      1.0  0.57345  0.93320  0.41025  1.0000
  C   C755      1.0  0.39859  0.93475  0.17754  1.0000
  H   H605      1.0  0.40735  0.93195  0.12081  1.0000
  H   H606      1.0  0.42434  0.81757  0.49220  1.0000
  C   C756      1.0  0.35883  0.96747  0.41933  1.0000
  C   C757      1.0  0.46651  0.88785  0.47396  1.0000
  C   C758      1.0  0.64401  0.92746  0.04438  1.0000
  C   C759      1.0  0.35482  0.93961  0.06305  1.0000
  H   H607      1.0  0.40023  0.80048  0.29106  1.0000
  P   P24       1.0  0.37023  0.94774  0.17024  1.0000
  C   C760      1.0  0.40940  0.80924  0.23664  1.0000
  C   C761      1.0  0.39496  0.87457  0.10509  1.0000
  C   C762      1.0  0.63373  0.85621  0.15758  1.0000
  C   C763      1.0  0.52542  0.90546  0.42564  1.0000
  C   C764      1.0  0.55780  0.92959  0.46256  1.0000
  C   C765      1.0  0.58159  0.97713  0.38154  1.0000
  H   H608      1.0  0.57088  0.93845  0.47627  1.0000
  H   H609      1.0  0.46688  0.92454  0.47320  1.0000
  H   H610      1.0  0.65959  0.84732  0.28425  1.0000
  C   C766      1.0  0.39355  0.82704  0.10572  1.0000
  H   H611      1.0  0.50442  0.94272  0.36784  1.0000
  C   C767      1.0  0.38180  0.86379  0.07964  1.0000
  H   H612      1.0  0.37019  0.83182  0.06106  1.0000
  H   H613      1.0  0.65331  0.89821  0.40800  1.0000
  H   H614      1.0  0.39228  0.80869  0.10606  1.0000
  H   H615      1.0  0.41891  0.77306  0.40156  1.0000
  H   H616      1.0  0.60863  0.95312  0.39755  1.0000
  H   H617      1.0  0.37500  0.97249  0.40877  1.0000
  H   H618      1.0  0.36423  0.93249  0.40164  1.0000
  C   C768      1.0  0.60140  0.97041  0.40072  1.0000
  C   C769      1.0  0.43515  0.77406  0.16545  1.0000
  C   C770      1.0  0.36353  0.80445  0.22013  1.0000
  C   C771      1.0  0.37490  0.83590  0.48492  1.0000
  H   H619      1.0  0.62764  0.91834  0.13099  1.0000
  C   C772      1.0  0.40733  0.86163  0.13110  1.0000
  C   C773      1.0  0.33327  0.91289  0.09665  1.0000
  H   H620      1.0  0.57366  0.96507  0.36424  1.0000
  C   C774      1.0  0.60027  0.94335  0.20949  1.0000
  C   C775      1.0  0.35274  0.94498  0.41505  1.0000
  H   H621      1.0  0.33790  0.91214  0.15366  1.0000
  H   H622      1.0  0.34562  0.80304  0.21396  1.0000
  H   H623      1.0  0.35929  0.79708  0.27662  1.0000
  H   H624      1.0  0.41697  0.87043  0.15094  1.0000
  H   H625      1.0  0.63881  0.96082  0.32796  1.0000
  H   H626      1.0  0.35933  0.94719  0.03751  1.0000
  H   H627      1.0  0.41294  0.92391  0.39427  1.0000
  H   H628      1.0  0.49964  0.94583  0.48850  1.0000
  C   C776      1.0  0.37207  0.97845  0.16905  1.0000
  C   C777      1.0  0.65049  0.81370  0.18308  1.0000
  H   H629      1.0  0.64954  0.93951  0.39544  1.0000
  C   C778      1.0  0.64057  0.94985  0.21242  1.0000
  C   C779      1.0  0.33856  0.95736  0.22568  1.0000
  C   C780      1.0  0.33877  0.91206  0.24921  1.0000
  H   H630      1.0  0.65393  0.96170  0.21425  1.0000
  H   H631      1.0  0.65494  0.88823  0.26842  1.0000
  C   C781      1.0  0.60421  0.89543  0.99497  1.0000
  C   C782      1.0  0.64990  0.84332  0.13669  1.0000
  H   H632      1.0  0.65700  0.79718  0.19286  1.0000
  C   C783      1.0  0.64596  0.92619  0.21147  1.0000
  H   H633      1.0  0.33907  0.89456  0.25869  1.0000
  C   C784      1.0  0.65827  0.82196  0.14960  1.0000
  C   C785      1.0  0.54000  0.92021  0.48189  1.0000
  H   H634      1.0  0.51110  0.89945  0.47793  1.0000
  H   H635      1.0  0.56745  0.98244  0.48063  1.0000
  C   C786      1.0  0.37888  0.99207  0.31407  1.0000
  C   C787      1.0  0.35582  0.99010  0.32233  1.0000
  C   C788      1.0  0.51971  0.98953  0.32168  1.0000
  C   C789      1.0  0.50185  0.80684  0.48489  1.0000
  C   C790      1.0  0.35746  0.99231  0.14693  1.0000
  H   H636      1.0  0.66100  0.93546  0.28123  1.0000
  H   H637      1.0  0.64760  0.91827  0.01941  1.0000
  H   H638      1.0  0.65223  0.95970  0.02219  1.0000
  C   C791      1.0  0.66143  0.98682  0.40892  1.0000
  H   H639      1.0  0.52642  0.99434  0.29560  1.0000
  P   P25       1.0  0.64670  0.99320  0.08034  1.0000
  C   C792      1.0  0.64454  0.91754  0.49383  1.0000
  Fe  Fe57      1.0  0.57776  0.89035  0.69046  1.0000
  S   S116      1.0  0.61445  0.88173  0.67679  1.0000
  S   S117      1.0  0.56125  0.92532  0.70230  1.0000
  Fe  Fe58      1.0  0.56555  0.84178  0.68084  1.0000
  S   S118      1.0  0.60171  0.82896  0.66719  1.0000
  S   S119      1.0  0.53450  0.82084  0.67931  1.0000
  Fe  Fe59      1.0  0.61173  0.85153  0.71358  1.0000
  H   H640      1.0  0.42258  0.97328  0.59075  1.0000
  Fe  Fe60      1.0  0.60155  0.86035  0.63191  1.0000
  S   S120      1.0  0.61610  0.86716  0.57617  1.0000
  S   S121      1.0  0.57548  0.86151  0.72989  1.0000
  S   S122      1.0  0.56507  0.87155  0.64292  1.0000
  Fe  Fe61      1.0  0.37658  0.84526  0.64628  1.0000
  S   S123      1.0  0.38930  0.88039  0.64922  1.0000
  S   S124      1.0  0.37940  0.82497  0.59381  1.0000
  Fe  Fe62      1.0  0.36652  0.84381  0.72846  1.0000
  S   S125      1.0  0.37909  0.87859  0.73712  1.0000
  C   C793      1.0  0.56339  0.93405  0.54807  1.0000
  Fe  Fe63      1.0  0.35983  0.88790  0.68675  1.0000
  C   C794      1.0  0.50298  0.95415  0.87641  1.0000
  Fe  Fe64      1.0  0.40773  0.86808  0.69912  1.0000
  S   S126      1.0  0.44280  0.88076  0.70800  1.0000
  C   C795      1.0  0.60481  0.97873  0.65243  1.0000
  S   S127      1.0  0.39711  0.83231  0.69443  1.0000
  C   C796      1.0  0.46386  0.95719  0.68782  1.0000
  H   H641      1.0  0.50838  0.92776  0.75681  1.0000
  H   H642      1.0  0.46570  0.92464  0.71450  1.0000
  C   C797      1.0  0.43541  0.85440  0.52904  1.0000
  C   C798      1.0  0.61742  0.91736  0.93138  1.0000
  C   C799      1.0  0.45859  0.96336  0.85076  1.0000
  C   C800      1.0  0.36366  0.86018  0.54846  1.0000
  C   C801      1.0  0.58519  0.96624  0.56511  1.0000
  C   C802      1.0  0.37365  0.83799  0.55113  1.0000
  C   C803      1.0  0.45185  0.90603  0.61631  1.0000
  C   C804      1.0  0.53321  0.97863  0.80197  1.0000
  H   H643      1.0  0.61947  0.86466  0.97095  1.0000
  C   C805      1.0  0.43374  0.91925  0.63158  1.0000
  C   C806      1.0  0.34841  0.96588  0.67742  1.0000
  C   C807      1.0  0.35744  0.94372  0.68427  1.0000
  C   C808      1.0  0.38095  0.93971  0.68959  1.0000
  C   C809      1.0  0.39533  0.95791  0.68764  1.0000
  H   H644      1.0  0.40392  0.94135  0.62158  1.0000
  P   P26       1.0  0.39713  0.94272  0.54331  1.0000
  H   H645      1.0  0.38811  0.92263  0.69503  1.0000
  H   H646      1.0  0.41350  0.95483  0.69147  1.0000
  C   C810      1.0  0.50862  0.83751  0.68371  1.0000
  C   C811      1.0  0.48764  0.82726  0.68306  1.0000
  C   C812      1.0  0.46705  0.84047  0.68864  1.0000
  C   C813      1.0  0.46749  0.86389  0.69559  1.0000
  C   C814      1.0  0.48834  0.87419  0.69436  1.0000
  C   C815      1.0  0.50880  0.86109  0.68853  1.0000
  H   H647      1.0  0.48741  0.80904  0.67878  1.0000
  H   H648      1.0  0.45096  0.83246  0.68850  1.0000
  H   H649      1.0  0.48887  0.89231  0.69886  1.0000
  H   H650      1.0  0.52481  0.86922  0.68880  1.0000
  H   H651      1.0  0.60814  0.84264  0.80738  1.0000
  S   S128      1.0  0.35225  0.82260  0.77419  1.0000
  C   C816      1.0  0.41747  0.93063  0.60943  1.0000
  H   H652      1.0  0.53625  0.95782  0.75391  1.0000
  C   C817      1.0  0.62466  0.84305  0.82013  1.0000
  C   C818      1.0  0.56794  0.96724  0.67312  1.0000
  C   C819      1.0  0.57806  0.94615  0.68408  1.0000
  C   C820      1.0  0.60159  0.94172  0.68017  1.0000
  C   C821      1.0  0.61489  0.95773  0.66362  1.0000
  H   H653      1.0  0.35192  0.86855  0.80485  1.0000
  H   H654      1.0  0.60971  0.92621  0.69061  1.0000
  H   H655      1.0  0.35066  0.88679  0.51246  1.0000
  C   C822      1.0  0.51931  0.89240  0.76224  1.0000
  C   C823      1.0  0.51378  0.87084  0.77423  1.0000
  C   C824      1.0  0.49262  0.86813  0.79049  1.0000
  C   C825      1.0  0.47711  0.88700  0.79522  1.0000
  C   C826      1.0  0.48261  0.90875  0.78336  1.0000
  C   C827      1.0  0.50382  0.91127  0.76666  1.0000
  P   P27       1.0  0.46378  0.93372  0.79210  1.0000
  C   C828      1.0  0.46351  0.95235  0.75308  1.0000
  C   C829      1.0  0.43504  0.92566  0.80119  1.0000
  C   C830      1.0  0.41778  0.92884  0.77513  1.0000
  C   C831      1.0  0.39538  0.92374  0.78328  1.0000
  C   C832      1.0  0.39010  0.91488  0.81710  1.0000
  C   C833      1.0  0.40720  0.91139  0.84307  1.0000
  C   C834      1.0  0.42956  0.91683  0.83524  1.0000
  H   H656      1.0  0.43528  0.85107  0.62089  1.0000
  C   C835      1.0  0.49362  0.96649  0.58767  1.0000
  C   C836      1.0  0.64412  0.84515  0.79881  1.0000
  C   C837      1.0  0.58370  0.89839  0.82253  1.0000
  C   C838      1.0  0.51391  0.94297  0.54238  1.0000
  C   C839      1.0  0.59953  0.91894  0.99078  1.0000
  C   C840      1.0  0.60582  0.92546  0.85484  1.0000
  H   H657      1.0  0.43215  0.92044  0.66070  1.0000
  H   H658      1.0  0.54976  0.97085  0.67625  1.0000
  C   C841      1.0  0.64800  0.97123  0.90474  1.0000
  C   C842      1.0  0.35206  0.93603  0.52386  1.0000
  H   H659      1.0  0.55267  0.83925  0.53616  1.0000
  H   H660      1.0  0.52556  0.85614  0.76961  1.0000
  H   H661      1.0  0.48808  0.85133  0.79890  1.0000
  H   H662      1.0  0.46083  0.88441  0.80769  1.0000
  S   S129      1.0  0.33915  0.92124  0.68567  1.0000
  H   H663      1.0  0.42143  0.93533  0.74854  1.0000
  H   H664      1.0  0.38205  0.92667  0.76330  1.0000
  H   H665      1.0  0.37274  0.91068  0.82307  1.0000
  H   H666      1.0  0.37446  0.92098  0.60600  1.0000
  H   H667      1.0  0.44261  0.91409  0.85572  1.0000
  C   C843      1.0  0.38634  0.97998  0.67964  1.0000
  H   H668      1.0  0.60290  0.82141  0.55769  1.0000
  C   C844      1.0  0.62673  0.84049  0.85792  1.0000
  H   H669      1.0  0.61680  0.98212  0.72484  1.0000
  H   H670      1.0  0.50802  0.93213  0.83081  1.0000
  H   H671      1.0  0.64429  0.91127  0.82140  1.0000
  H   H672      1.0  0.41080  0.86485  0.57007  1.0000
  C   C845      1.0  0.38133  0.98743  0.52835  1.0000
  C   C846      1.0  0.60610  0.92991  0.95914  1.0000
  C   C847      1.0  0.46465  0.94297  0.71821  1.0000
  H   H673      1.0  0.55095  0.96966  0.54521  1.0000
  C   C848      1.0  0.65342  0.91805  0.87699  1.0000
  C   C849      1.0  0.33536  0.86661  0.85691  1.0000
  C   C850      1.0  0.60726  0.85473  0.53537  1.0000
  C   C851      1.0  0.34194  0.83456  0.81571  1.0000
  H   H674      1.0  0.41674  0.99203  0.78810  1.0000
  H   H675      1.0  0.50895  0.90601  0.58971  1.0000
  C   C852      1.0  0.45992  0.99036  0.72651  1.0000
  C   C853      1.0  0.60254  0.83170  0.53340  1.0000
  C   C854      1.0  0.46323  0.83911  0.58651  1.0000
  C   C855      1.0  0.39688  0.77775  0.65905  1.0000
  H   H676      1.0  0.36872  0.77191  0.69453  1.0000
  C   C856      1.0  0.43703  0.91510  0.55660  1.0000
  C   C857      1.0  0.59725  0.90370  0.85193  1.0000
  H   H677      1.0  0.42742  0.78564  0.63072  1.0000
  H   H678      1.0  0.49316  0.97668  0.92034  1.0000
  S   S130      1.0  0.64980  0.83515  0.92226  1.0000
  H   H679      1.0  0.52014  0.95040  0.88648  1.0000
  C   C858      1.0  0.45365  0.90417  0.57882  1.0000
  C   C859      1.0  0.44147  0.84922  0.59335  1.0000
  H   H680      1.0  0.46970  0.88669  0.50266  1.0000
  C   C860      1.0  0.34386  0.85763  0.82390  1.0000
  H   H681      1.0  0.53528  0.89435  0.74822  1.0000
  C   C861      1.0  0.47365  0.94818  0.83169  1.0000
  C   C862      1.0  0.41094  0.98343  0.57380  1.0000
  C   C863      1.0  0.36854  0.93363  0.55141  1.0000
  C   C864      1.0  0.36256  0.92334  0.58411  1.0000
  H   H682      1.0  0.33661  0.90681  0.61375  1.0000
  H   H683      1.0  0.47400  0.83318  0.60879  1.0000
  C   C865      1.0  0.60076  0.94171  0.82755  1.0000
  H   H684      1.0  0.61166  0.83815  0.87403  1.0000
  C   C866      1.0  0.58721  0.93630  0.79813  1.0000
  C   C867      1.0  0.46128  0.98087  0.69197  1.0000
  H   H685      1.0  0.63305  0.95406  0.66028  1.0000
  H   H686      1.0  0.43293  0.70500  0.85450  1.0000
  C   C868      1.0  0.50561  0.80013  0.76767  1.0000
  C   C869      1.0  0.51651  0.78450  0.74391  1.0000
  C   C870      1.0  0.50400  0.76826  0.72662  1.0000
  C   C871      1.0  0.48051  0.76783  0.73269  1.0000
  C   C872      1.0  0.46924  0.78409  0.75536  1.0000
  C   C873      1.0  0.48211  0.79975  0.77381  1.0000
  P   P28       1.0  0.43900  0.78282  0.76359  1.0000
  C   C874      1.0  0.42298  0.78021  0.72233  1.0000
  C   C875      1.0  0.43653  0.75820  0.79225  1.0000
  C   C876      1.0  0.42889  0.73775  0.77843  1.0000
  H   H687      1.0  0.48799  0.82862  0.54653  1.0000
  H   H688      1.0  0.45375  0.98509  0.89735  1.0000
  C   C877      1.0  0.44203  0.73997  0.85088  1.0000
  C   C878      1.0  0.44343  0.75906  0.82848  1.0000
  C   C879      1.0  0.43293  0.78369  0.68833  1.0000
  C   C880      1.0  0.41992  0.78232  0.65685  1.0000
  H   H689      1.0  0.63158  0.88374  0.91570  1.0000
  C   C881      1.0  0.46129  0.97620  0.75702  1.0000
  C   C882      1.0  0.39972  0.77594  0.72430  1.0000
  C   C883      1.0  0.42667  0.80822  0.78560  1.0000
  C   C884      1.0  0.43229  0.82996  0.77392  1.0000
  C   C885      1.0  0.42210  0.84965  0.78991  1.0000
  C   C886      1.0  0.40601  0.84778  0.81743  1.0000
  C   C887      1.0  0.40012  0.82625  0.82899  1.0000
  C   C888      1.0  0.41016  0.80654  0.81285  1.0000
  H   H690      1.0  0.51545  0.81264  0.78101  1.0000
  H   H691      1.0  0.53463  0.78518  0.73851  1.0000
  H   H692      1.0  0.51255  0.75619  0.70820  1.0000
  H   H693      1.0  0.47111  0.75495  0.71938  1.0000
  H   H694      1.0  0.47416  0.81163  0.79297  1.0000
  H   H695      1.0  0.42415  0.73639  0.75032  1.0000
  H   H696      1.0  0.33010  0.80271  0.83520  1.0000
  H   H697      1.0  0.60259  0.94814  0.95684  1.0000
  H   H698      1.0  0.44725  0.74078  0.87889  1.0000
  H   H699      1.0  0.44989  0.77453  0.83937  1.0000
  H   H700      1.0  0.45041  0.78824  0.68590  1.0000
  H   H701      1.0  0.56879  0.91022  0.77250  1.0000
  H   H702      1.0  0.35920  0.86964  0.57274  1.0000
  H   H703      1.0  0.38666  0.77758  0.63467  1.0000
  H   H704      1.0  0.39140  0.77427  0.75026  1.0000
  H   H705      1.0  0.44428  0.83176  0.75209  1.0000
  H   H706      1.0  0.42617  0.86635  0.78013  1.0000
  H   H707      1.0  0.39753  0.86297  0.82906  1.0000
  H   H708      1.0  0.38702  0.82484  0.84942  1.0000
  H   H709      1.0  0.40446  0.79012  0.82105  1.0000
  H   H710      1.0  0.44130  0.96700  0.84128  1.0000
  H   H711      1.0  0.46753  0.89360  0.56713  1.0000
  H   H712      1.0  0.64105  0.90640  0.74891  1.0000
  C   C889      1.0  0.51166  0.95093  0.57809  1.0000
  C   C890      1.0  0.36281  0.98397  0.67498  1.0000
  H   H713      1.0  0.58620  0.98439  0.56948  1.0000
  H   H714      1.0  0.64312  0.91115  0.52122  1.0000
  H   H715      1.0  0.60804  0.95819  0.82807  1.0000
  C   C891      1.0  0.53347  0.89488  0.54838  1.0000
  C   C892      1.0  0.58136  0.98361  0.65757  1.0000
  H   H716      1.0  0.49225  0.97274  0.61518  1.0000
  C   C893      1.0  0.52793  0.85092  0.57618  1.0000
  C   C894      1.0  0.51551  0.86980  0.59080  1.0000
  C   C895      1.0  0.51833  0.89171  0.57717  1.0000
  C   C896      1.0  0.57870  0.91466  0.79570  1.0000
  H   H717      1.0  0.40309  0.90443  0.86927  1.0000
  C   C897      1.0  0.41864  0.92830  0.57179  1.0000
  C   C898      1.0  0.60216  0.92776  0.57038  1.0000
  C   C899      1.0  0.58204  0.91915  0.55755  1.0000
  C   C900      1.0  0.60695  0.97582  0.89803  1.0000
  H   H718      1.0  0.60165  0.89042  0.87146  1.0000
  C   C901      1.0  0.35888  0.86991  0.51430  1.0000
  C   C902      1.0  0.52985  0.97399  0.76541  1.0000
  C   C903      1.0  0.60382  0.95128  0.57383  1.0000
  C   C904      1.0  0.38678  0.77459  0.69277  1.0000
  C   C905      1.0  0.62232  0.89379  0.93614  1.0000
  H   H719      1.0  0.57772  0.88135  0.81991  1.0000
  H   H720      1.0  0.42429  0.86026  0.50709  1.0000
  H   H721      1.0  0.52405  0.94525  0.59847  1.0000
  H   H722      1.0  0.42149  0.70297  0.79017  1.0000
  H   H723      1.0  0.33704  0.88446  0.86302  1.0000
  P   P29       1.0  0.62594  0.93115  0.89013  1.0000
  H   H724      1.0  0.52644  0.83407  0.58781  1.0000
  H   H725      1.0  0.50422  0.86748  0.61350  1.0000
  C   C906      1.0  0.42765  0.85699  0.56464  1.0000
  H   H726      1.0  0.36981  0.98019  0.50940  1.0000
  S   S131      1.0  0.64285  0.84615  0.75079  1.0000
  H   H727      1.0  0.61937  0.95789  0.58416  1.0000
  H   H728      1.0  0.61637  0.91612  0.57826  1.0000
  H   H729      1.0  0.58112  0.90086  0.55537  1.0000
  H   H730      1.0  0.46475  0.94985  0.66103  1.0000
  C   C907      1.0  0.34083  0.91530  0.58884  1.0000
  C   C908      1.0  0.45712  0.84386  0.52187  1.0000
  H   H731      1.0  0.39168  0.90242  0.49910  1.0000
  S   S132      1.0  0.34506  0.85382  0.67982  1.0000
  H   H732      1.0  0.43848  0.91296  0.52774  1.0000
  C   C909      1.0  0.39619  0.97331  0.54956  1.0000
  C   C910      1.0  0.47975  0.96638  0.52617  1.0000
  C   C911      1.0  0.42751  0.71868  0.80091  1.0000
  C   C912      1.0  0.56512  0.95773  0.55194  1.0000
  H   H733      1.0  0.46427  0.89698  0.63359  1.0000
  C   C913      1.0  0.47107  0.83646  0.55096  1.0000
  H   H734      1.0  0.63855  0.95254  0.50922  1.0000
  C   C914      1.0  0.43400  0.71980  0.83714  1.0000
  H   H735      1.0  0.59064  0.96872  0.89335  1.0000
  C   C915      1.0  0.61549  0.88287  0.96757  1.0000
  H   H736      1.0  0.54219  0.96592  0.81885  1.0000
  C   C916      1.0  0.49598  0.94377  0.84468  1.0000
  H   H737      1.0  0.61038  0.88565  0.50485  1.0000
  H   H738      1.0  0.63771  0.94368  0.78046  1.0000
  C   C917      1.0  0.46561  0.97367  0.88254  1.0000
  H   H739      1.0  0.55744  0.87756  0.51128  1.0000
  C   C918      1.0  0.62716  0.96160  0.89766  1.0000
  C   C919      1.0  0.47762  0.97415  0.56176  1.0000
  C   C920      1.0  0.65037  0.92061  0.73917  1.0000
  C   C921      1.0  0.54280  0.85385  0.54728  1.0000
  C   C922      1.0  0.39846  0.99066  0.78881  1.0000
  C   C923      1.0  0.40357  0.93661  0.49649  1.0000
  H   H740      1.0  0.58391  0.94855  0.77644  1.0000
  H   H741      1.0  0.33635  0.94329  0.75665  1.0000
  C   C924      1.0  0.64849  0.94168  0.75690  1.0000
  C   C925      1.0  0.36509  0.97422  0.81389  1.0000
  H   H742      1.0  0.33031  0.96892  0.67328  1.0000
  P   P30       1.0  0.53758  0.92309  0.53041  1.0000
  C   C926      1.0  0.54551  0.87569  0.53333  1.0000
  C   C927      1.0  0.62766  0.99353  0.77702  1.0000
  C   C928      1.0  0.37921  0.82587  0.51920  1.0000
  H   H743      1.0  0.46033  0.98393  0.78343  1.0000
  H   H744      1.0  0.35775  0.96305  0.83349  1.0000
  C   C929      1.0  0.64816  0.84040  0.87495  1.0000
  C   C930      1.0  0.35104  0.98690  0.78949  1.0000
  C   C931      1.0  0.48778  0.96898  0.89544  1.0000
  C   C932      1.0  0.33039  0.92786  0.52872  1.0000
  H   H745      1.0  0.51662  0.98719  0.71471  1.0000
  H   H746      1.0  0.38675  0.80860  0.52103  1.0000
  C   C933      1.0  0.60707  0.86779  0.50349  1.0000
  C   C934      1.0  0.61149  0.98989  0.75015  1.0000
  C   C935      1.0  0.49794  0.95104  0.51639  1.0000
  C   C936      1.0  0.33155  0.82061  0.84111  1.0000
  C   C937      1.0  0.38870  0.97614  0.81357  1.0000
  P   P31       1.0  0.65759  0.98717  0.76763  1.0000
  C   C938      1.0  0.65754  0.91010  0.84163  1.0000
  H   H747      1.0  0.39936  0.96621  0.83239  1.0000
  C   C939      1.0  0.51886  0.99053  0.74325  1.0000
  C   C940      1.0  0.59869  0.82164  0.49960  1.0000
  H   H748      1.0  0.46745  0.97243  0.50602  1.0000
  H   H749      1.0  0.59595  0.80360  0.49820  1.0000
  H   H750      1.0  0.45982  0.99191  0.66846  1.0000
  C   C941      1.0  0.66031  0.96015  0.74410  1.0000
  H   H751      1.0  0.48880  0.79630  0.49525  1.0000
  H   H752      1.0  0.60952  0.98909  0.50255  1.0000
  H   H753      1.0  0.46373  0.98629  0.56923  1.0000
  H   H754      1.0  0.35614  0.94348  0.49808  1.0000
  C   C942      1.0  0.64863  0.99465  0.91140  1.0000
  H   H755      1.0  0.78953  0.43475  0.47558  1.0000
  S   S133      1.0  0.88148  0.29029  0.05310  1.0000
  C   C943      1.0  0.98740  0.43552  0.29317  1.0000
  C   C944      1.0  0.92170  0.48659  0.30644  1.0000
  C   C945      1.0  0.81133  0.47559  0.16241  1.0000
  C   C946      1.0  0.97485  0.33991  0.32603  1.0000
  Fe  Fe65      1.0  0.86505  0.34154  0.24641  1.0000
  S   S134      1.0  0.88340  0.36643  0.21362  1.0000
  S   S135      1.0  0.84712  0.31511  0.21334  1.0000
  Fe  Fe66      1.0  0.87966  0.36277  0.31839  1.0000
  S   S136      1.0  0.89962  0.38859  0.28870  1.0000
  S   S137      1.0  0.88584  0.37046  0.37820  1.0000
  Fe  Fe67      1.0  0.86964  0.39311  0.25205  1.0000
  S   S138      1.0  0.86129  0.42674  0.22406  1.0000
  Fe  Fe68      1.0  0.91170  0.35998  0.25278  1.0000
  S   S139      1.0  0.94707  0.35767  0.22957  1.0000
  S   S140      1.0  0.84840  0.36909  0.28283  1.0000
  S   S141      1.0  0.89456  0.33329  0.28443  1.0000
  C   C947      1.0  0.85546  0.45161  0.24979  1.0000
  C   C948      1.0  0.86550  0.47168  0.23956  1.0000
  H   H756      1.0  0.85376  0.47901  0.05282  1.0000
  C   C949      1.0  0.83993  0.45214  0.27854  1.0000
  H   H757      1.0  0.87779  0.47114  0.21779  1.0000
  H   H758      1.0  0.83196  0.43673  0.28631  1.0000
  C   C950      1.0  0.87626  0.36050  0.42068  1.0000
  C   C951      1.0  0.85796  0.34649  0.42428  1.0000
  H   H759      1.0  0.92887  0.27953  0.05344  1.0000
  C   C952      1.0  0.92498  0.35195  0.07482  1.0000
  C   C953      1.0  0.88706  0.36784  0.45205  1.0000
  H   H760      1.0  0.84945  0.34070  0.40042  1.0000
  H   H761      1.0  0.90127  0.37852  0.44948  1.0000
  C   C954      1.0  0.95906  0.34570  0.29868  1.0000
  C   C955      1.0  0.96666  0.34994  0.26363  1.0000
  C   C956      1.0  0.85154  0.36896  0.03454  1.0000
  H   H762      1.0  0.94102  0.34703  0.30487  1.0000
  C   C957      1.0  0.88877  0.37279  0.08828  1.0000
  C   C958      1.0  0.87140  0.29614  0.09769  1.0000
  C   C959      1.0  0.85124  0.28796  0.11148  1.0000
  C   C960      1.0  0.84409  0.29363  0.14704  1.0000
  C   C961      1.0  0.85687  0.30769  0.16899  1.0000
  C   C962      1.0  0.87702  0.31575  0.15501  1.0000
  C   C963      1.0  0.88414  0.31008  0.11967  1.0000
  H   H763      1.0  0.84110  0.27746  0.09474  1.0000
  H   H764      1.0  0.82846  0.28732  0.15750  1.0000
  H   H765      1.0  0.88726  0.32623  0.17151  1.0000
  H   H766      1.0  0.89965  0.31659  0.10929  1.0000
  C   C964      1.0  0.70502  0.02797  0.07824  1.0000
  H   H767      1.0  0.67016  0.03465  0.09432  1.0000
  H   H768      1.0  0.67626  0.00777  0.46870  1.0000
  C   C965      1.0  0.99032  0.35242  0.44435  1.0000
  H   H769      1.0  0.98324  0.21402  0.06191  1.0000
  C   C966      1.0  0.97105  0.34108  0.45502  1.0000
  C   C967      1.0  0.98837  0.47180  0.23812  1.0000
  C   C968      1.0  0.80186  0.11956  0.01424  1.0000
  C   C969      1.0  0.91810  0.36774  0.13438  1.0000
  C   C970      1.0  0.93212  0.35507  0.11036  1.0000
  C   C971      1.0  0.85832  0.41334  0.06948  1.0000
  C   C972      1.0  0.84374  0.49309  0.28536  1.0000
  C   C973      1.0  0.84160  0.37583  0.11312  1.0000
  P   P32       1.0  0.85999  0.38275  0.07578  1.0000
  H   H770      1.0  0.93541  0.41309  0.15165  1.0000
  C   C974      1.0  0.83544  0.44926  0.06496  1.0000
  C   C975      1.0  0.82277  0.12827  0.02304  1.0000
  C   C976      1.0  0.97699  0.48172  0.41854  1.0000
  C   C977      1.0  0.99366  0.24162  0.09598  1.0000
  H   H771      1.0  0.80964  0.33342  0.14482  1.0000
  P   P33       1.0  0.97453  0.31599  0.48332  1.0000
  C   C978      1.0  0.93725  0.45463  0.42866  1.0000
  H   H772      1.0  0.88401  0.47163  0.39804  1.0000
  C   C979      1.0  0.90138  0.43896  0.38722  1.0000
  H   H773      1.0  0.89834  0.35824  0.03606  1.0000
  H   H774      1.0  0.72053  0.46390  0.48034  1.0000
  H   H775      1.0  0.80720  0.35881  0.19803  1.0000
  H   H776      1.0  0.94999  0.30669  0.22689  1.0000
  C   C980      1.0  0.95143  0.48455  0.48793  1.0000
  H   H777      1.0  0.92362  0.37008  0.16201  1.0000
  C   C981      1.0  0.90412  0.47170  0.30833  1.0000
  H   H778      1.0  0.74636  0.16331  0.99805  1.0000
  C   C982      1.0  0.78376  0.14077  0.06360  1.0000
  H   H779      1.0  0.76610  0.11935  0.02703  1.0000
  H   H780      1.0  0.74782  0.43014  0.47305  1.0000
  C   C983      1.0  0.90279  0.42177  0.48812  1.0000
  C   C984      1.0  0.82426  0.14363  0.05192  1.0000
  C   C985      1.0  0.80463  0.14965  0.07239  1.0000
  P   P34       1.0  0.85138  0.15480  0.06324  1.0000
  C   C986      1.0  0.86840  0.13433  0.09004  1.0000
  C   C987      1.0  0.86631  0.16127  0.02199  1.0000
  C   C988      1.0  0.89029  0.16021  0.02044  1.0000
  H   H781      1.0  0.91556  0.48569  0.43421  1.0000
  C   C989      1.0  0.66672  0.08060  0.15068  1.0000
  C   C990      1.0  0.99069  0.35857  0.07775  1.0000
  H   H782      1.0  0.94809  0.48936  0.38287  1.0000
  C   C991      1.0  0.88720  0.14132  0.10968  1.0000
  C   C992      1.0  0.90046  0.12554  0.13036  1.0000
  C   C993      1.0  0.89506  0.10268  0.13161  1.0000
  C   C994      1.0  0.87641  0.09559  0.11216  1.0000
  C   C995      1.0  0.86311  0.11132  0.09144  1.0000
  C   C996      1.0  0.84628  0.18131  0.08773  1.0000
  C   C997      1.0  0.84124  0.20179  0.06888  1.0000
  C   C998      1.0  0.83813  0.22248  0.08741  1.0000
  C   C999      1.0  0.83963  0.22290  0.12504  1.0000
  C   C1000     1.0  0.87955  0.36164  0.48667  1.0000
  C   C1001     1.0  0.84698  0.18174  0.12567  1.0000
  C   C1002     1.0  0.94986  0.34721  0.43888  1.0000
  H   H783      1.0  0.83768  0.12327  0.00695  1.0000
  C   C1003     1.0  0.95071  0.41325  0.16791  1.0000
  H   H784      1.0  0.82119  0.47354  0.31730  1.0000
  H   H785      1.0  0.80525  0.16139  0.09480  1.0000
  H   H786      1.0  0.90051  0.15486  0.04349  1.0000
  C   C1004     1.0  0.98876  0.39760  0.18244  1.0000
  H   H787      1.0  0.68100  0.08304  0.16836  1.0000
  Fe  Fe69      1.0  0.68228  0.08264  0.99979  1.0000
  C   C1005     1.0  0.98849  0.36924  0.41755  1.0000
  H   H788      1.0  0.89164  0.15897  0.10898  1.0000
  H   H789      1.0  0.91494  0.13104  0.14542  1.0000
  H   H790      1.0  0.90534  0.09045  0.14763  1.0000
  H   H791      1.0  0.87221  0.07786  0.11313  1.0000
  H   H792      1.0  0.84875  0.10538  0.07666  1.0000
  H   H793      1.0  0.83964  0.20189  0.03982  1.0000
  H   H794      1.0  0.83444  0.23819  0.07242  1.0000
  H   H795      1.0  0.84117  0.47986  0.45296  1.0000
  C   C1006     1.0  0.85639  0.48227  0.14237  1.0000
  H   H796      1.0  0.84982  0.16611  0.14104  1.0000
  C   C1007     1.0  0.83554  0.46028  0.40554  1.0000
  C   C1008     1.0  0.83678  0.43864  0.38972  1.0000
  C   C1009     1.0  0.84521  0.41969  0.40957  1.0000
  C   C1010     1.0  0.85287  0.42244  0.44492  1.0000
  C   C1011     1.0  0.85274  0.44426  0.46056  1.0000
  C   C1012     1.0  0.84312  0.46307  0.44101  1.0000
  H   H797      1.0  0.94834  0.34750  0.11971  1.0000
  P   P35       1.0  0.96129  0.46595  0.45145  1.0000
  H   H798      1.0  0.88802  0.47715  0.32097  1.0000
  H   H799      1.0  0.96892  0.33676  0.35313  1.0000
  H   H800      1.0  0.93483  0.33810  0.44494  1.0000
  H   H801      1.0  0.96613  0.38745  0.37976  1.0000
  H   H802      1.0  0.82860  0.47487  0.39023  1.0000
  H   H803      1.0  0.83100  0.43646  0.36221  1.0000
  H   H804      1.0  0.84586  0.40278  0.39758  1.0000
  H   H805      1.0  0.97419  0.36621  0.06977  1.0000
  C   C1013     1.0  0.72136  0.01188  0.06463  1.0000
  H   H806      1.0  0.68625  0.08537  0.10175  1.0000
  H   H807      1.0  0.89718  0.42246  0.46041  1.0000
  C   C1014     1.0  0.78239  0.12576  0.03454  1.0000
  C   C1015     1.0  0.92779  0.44290  0.27652  1.0000
  C   C1016     1.0  0.98602  0.28396  0.04163  1.0000
  C   C1017     1.0  0.85506  0.46071  0.05732  1.0000
  H   H808      1.0  0.83724  0.23901  0.13934  1.0000
  C   C1018     1.0  0.96725  0.27730  0.20169  1.0000
  H   H809      1.0  0.76852  0.14582  0.07889  1.0000
  P   P36       1.0  0.96632  0.25779  0.09537  1.0000
  C   C1019     1.0  0.96176  0.27371  0.13686  1.0000
  C   C1020     1.0  0.96571  0.27705  0.05718  1.0000
  C   C1021     1.0  0.94472  0.28483  0.04211  1.0000
  C   C1022     1.0  0.97115  0.42861  0.21837  1.0000
  C   C1023     1.0  0.98525  0.29837  0.01142  1.0000
  H   H810      1.0  0.93321  0.40072  0.47522  1.0000
  C   C1024     1.0  0.68261  0.02198  0.08376  1.0000
  C   C1025     1.0  0.94744  0.29383  0.13737  1.0000
  C   C1026     1.0  0.94321  0.30561  0.16979  1.0000
  C   C1027     1.0  0.95327  0.29747  0.20183  1.0000
  C   C1028     1.0  0.93991  0.28544  0.49136  1.0000
  C   C1029     1.0  0.97125  0.26528  0.16946  1.0000
  C   C1030     1.0  0.94317  0.23908  0.09009  1.0000
  C   C1031     1.0  0.93952  0.22895  0.05646  1.0000
  C   C1032     1.0  0.92135  0.21504  0.05151  1.0000
  C   C1033     1.0  0.90619  0.21161  0.07984  1.0000
  C   C1034     1.0  0.90943  0.22185  0.11333  1.0000
  C   C1035     1.0  0.92792  0.23544  0.11858  1.0000
  H   H811      1.0  0.93190  0.36825  0.39932  1.0000
  C   C1036     1.0  0.84384  0.20251  0.14419  1.0000
  C   C1037     1.0  0.96739  0.37523  0.40172  1.0000
  C   C1038     1.0  0.97929  0.44282  0.47101  1.0000
  C   C1039     1.0  0.66977  0.08188  0.11285  1.0000
  H   H812      1.0  0.93730  0.44088  0.20118  1.0000
  C   C1040     1.0  0.87633  0.44856  0.05588  1.0000
  C   C1041     1.0  0.94807  0.36436  0.41265  1.0000
  H   H813      1.0  0.97481  0.27091  0.22671  1.0000
  C   C1042     1.0  0.95174  0.42886  0.19629  1.0000
  C   C1043     1.0  0.98901  0.29340  0.45724  1.0000
  H   H814      1.0  0.98158  0.24933  0.17017  1.0000
  H   H815      1.0  0.93190  0.32095  0.17043  1.0000
  H   H816      1.0  0.93911  0.30018  0.11301  1.0000
  H   H817      1.0  0.91874  0.20746  0.02527  1.0000
  H   H818      1.0  0.89168  0.20145  0.07554  1.0000
  H   H819      1.0  0.89737  0.21963  0.13505  1.0000
  H   H820      1.0  0.92988  0.24338  0.14464  1.0000
  H   H821      1.0  0.70960  0.04521  0.08394  1.0000
  C   C1044     1.0  0.82728  0.45695  0.16004  1.0000
  C   C1045     1.0  0.84972  0.46027  0.14961  1.0000
  H   H822      1.0  0.86318  0.33522  0.05246  1.0000
  C   C1046     1.0  0.86121  0.34766  0.49041  1.0000
  H   H823      1.0  0.85422  0.31627  0.99546  1.0000
  H   H824      1.0  0.95481  0.42218  0.41528  1.0000
  C   C1047     1.0  0.85564  0.34529  0.03058  1.0000
  H   H825      1.0  0.66965  0.99989  0.14939  1.0000
  H   H826      1.0  0.82237  0.43996  0.16690  1.0000
  C   C1048     1.0  0.94530  0.45803  0.27373  1.0000
  H   H827      1.0  0.89355  0.43830  0.29509  1.0000
  H   H828      1.0  0.92760  0.30457  0.00010  1.0000
  C   C1049     1.0  0.91715  0.46853  0.42333  1.0000
  H   H829      1.0  0.88759  0.43279  0.37118  1.0000
  H   H830      1.0  0.86210  0.44580  0.14810  1.0000
  H   H831      1.0  0.97881  0.40082  0.28113  1.0000
  H   H832      1.0  0.93577  0.34195  0.05619  1.0000
  C   C1050     1.0  0.94228  0.47971  0.28958  1.0000
  H   H833      1.0  0.84453  0.20282  0.17344  1.0000
  C   C1051     1.0  0.92138  0.42513  0.39202  1.0000
  C   C1052     1.0  0.93933  0.43298  0.41243  1.0000
  C   C1053     1.0  0.73873  0.46594  0.48163  1.0000
  C   C1054     1.0  0.90350  0.36101  0.06363  1.0000
  C   C1055     1.0  0.87797  0.42492  0.06180  1.0000
  C   C1056     1.0  0.89666  0.37680  0.12330  1.0000
  H   H834      1.0  0.88611  0.38646  0.14250  1.0000
  C   C1057     1.0  0.81619  0.36393  0.17402  1.0000
  H   H835      1.0  0.92287  0.40836  0.37960  1.0000
  C   C1058     1.0  0.90722  0.44982  0.29358  1.0000
  C   C1059     1.0  0.83704  0.42568  0.07109  1.0000
  C   C1060     1.0  0.99002  0.34813  0.25581  1.0000
  H   H836      1.0  0.83637  0.32924  0.46150  1.0000
  H   H837      1.0  0.89453  0.41573  0.06020  1.0000
  H   H838      1.0  0.89154  0.45746  0.05007  1.0000
  C   C1061     1.0  0.77038  0.49027  0.48914  1.0000
  C   C1062     1.0  0.89931  0.46071  0.40266  1.0000
  P   P37       1.0  0.97267  0.44853  0.25518  1.0000
  H   H839      1.0  0.82641  0.39527  0.19728  1.0000
  C   C1063     1.0  0.97684  0.49110  0.22259  1.0000
  C   C1064     1.0  0.85053  0.34010  0.45899  1.0000
  H   H840      1.0  0.95060  0.23201  0.03384  1.0000
  H   H841      1.0  0.79395  0.47299  0.17056  1.0000
  C   C1065     1.0  0.84181  0.38168  0.00556  1.0000
  H   H842      1.0  0.82166  0.41701  0.07688  1.0000
  H   H843      1.0  0.96807  0.38498  0.13999  1.0000
  C   C1066     1.0  0.83967  0.39036  0.14330  1.0000
  C   C1067     1.0  0.82708  0.38440  0.17359  1.0000
  C   C1068     1.0  0.83033  0.35538  0.11370  1.0000
  H   H844      1.0  0.83169  0.34346  0.09154  1.0000
  C   C1069     1.0  0.81761  0.34958  0.14396  1.0000
  C   C1070     1.0  0.83382  0.47296  0.29596  1.0000
  C   C1071     1.0  0.75410  0.44690  0.47746  1.0000
  H   H845      1.0  0.84857  0.40594  0.14416  1.0000
  H   H846      1.0  0.81898  0.45871  0.06648  1.0000
  H   H847      1.0  0.93007  0.42571  0.26586  1.0000
  H   H848      1.0  0.98418  0.31021  0.40512  1.0000
  H   H849      1.0  0.87983  0.48628  0.46873  1.0000
  C   C1072     1.0  0.67325  0.00956  0.35800  1.0000
  C   C1073     1.0  0.94398  0.29912  0.01183  1.0000
  S   S142      1.0  0.87324  0.23082  0.00306  1.0000
  C   C1074     1.0  0.77758  0.44950  0.47884  1.0000
  H   H850      1.0  0.95097  0.27283  0.47756  1.0000
  H   H851      1.0  0.73861  0.01663  0.05933  1.0000
  H   H852      1.0  0.85890  0.40744  0.45998  1.0000
  C   C1075     1.0  0.99139  0.29541  0.41960  1.0000
  C   C1076     1.0  0.78567  0.47110  0.48449  1.0000
  C   C1077     1.0  0.96913  0.39751  0.16120  1.0000
  H   H853      1.0  0.97850  0.32496  0.08616  1.0000
  H   H854      1.0  0.83837  0.39995  0.00755  1.0000
  C   C1078     1.0  0.67614  0.00005  0.07473  1.0000
  C   C1079     1.0  0.85058  0.33452  0.99823  1.0000
  C   C1080     1.0  0.98741  0.41188  0.29935  1.0000
  C   C1081     1.0  0.85997  0.49228  0.25774  1.0000
  Fe  Fe70      1.0  0.87006  0.26914  0.00537  1.0000
  H   H855      1.0  0.77006  0.19604  0.01091  1.0000
  H   H856      1.0  0.87385  0.48445  0.13432  1.0000
  S   S143      1.0  0.72081  0.07838  0.00391  1.0000
  C   C1082     1.0  0.98986  0.41323  0.21074  1.0000
  C   C1083     1.0  0.96596  0.49140  0.38789  1.0000
  C   C1084     1.0  0.69538  0.99944  0.36057  1.0000
  H   H857      1.0  0.95582  0.49139  0.28905  1.0000
  C   C1085     1.0  0.99307  0.33539  0.08697  1.0000
  H   H858      1.0  0.66914  0.02252  0.33767  1.0000
  H   H859      1.0  0.70846  0.00449  0.34204  1.0000
  H   H860      1.0  0.95841  0.49225  0.22037  1.0000
  C   C1086     1.0  0.96425  0.30584  0.99639  1.0000
  C   C1087     1.0  0.74681  0.48759  0.48741  1.0000
  H   H861      1.0  0.80389  0.47288  0.48552  1.0000
  C   C1088     1.0  0.66230  0.00843  0.48781  1.0000
  H   H862      1.0  0.96316  0.34300  0.72568  1.0000
  H   H863      1.0  0.67897  0.03118  0.52337  1.0000
  C   C1089     1.0  0.88733  0.48473  0.65680  1.0000
  C   C1090     1.0  0.94052  0.26915  0.88326  1.0000
  C   C1091     1.0  0.90332  0.29548  0.51942  1.0000
  H   H864      1.0  0.69000  0.06091  0.68556  1.0000
  Fe  Fe71      1.0  0.86177  0.27307  0.92260  1.0000
  S   S144      1.0  0.85567  0.30188  0.88081  1.0000
  S   S145      1.0  0.86444  0.23479  0.91540  1.0000
  H   H865      1.0  0.74563  0.16629  0.75899  1.0000
  S   S146      1.0  0.72118  0.07206  0.91519  1.0000
  H   H866      1.0  0.97689  0.26556  0.89071  1.0000
  C   C1092     1.0  0.87748  0.45030  0.73994  1.0000
  H   H867      1.0  0.93659  0.47850  0.83526  1.0000
  C   C1093     1.0  0.93114  0.40826  0.53200  1.0000
  C   C1094     1.0  0.96299  0.27421  0.87579  1.0000
  H   H868      1.0  0.85629  0.47186  0.57641  1.0000
  C   C1095     1.0  0.69925  0.03156  0.71888  1.0000
  Fe  Fe72      1.0  0.87457  0.33860  0.66921  1.0000
  S   S147      1.0  0.89165  0.37143  0.67840  1.0000
  S   S148      1.0  0.87397  0.30905  0.71023  1.0000
  Fe  Fe73      1.0  0.86611  0.34994  0.58759  1.0000
  S   S149      1.0  0.88231  0.38318  0.59200  1.0000
  S   S150      1.0  0.85120  0.33918  0.53361  1.0000
  Fe  Fe74      1.0  0.90903  0.36423  0.62519  1.0000
  S   S151      1.0  0.94523  0.36954  0.60850  1.0000
  Fe  Fe75      1.0  0.86343  0.38777  0.64416  1.0000
  S   S152      1.0  0.84467  0.42200  0.65490  1.0000
  S   S153      1.0  0.89422  0.33028  0.61773  1.0000
  S   S154      1.0  0.84488  0.35548  0.63820  1.0000
  C   C1096     1.0  0.86116  0.44609  0.65341  1.0000
  C   C1097     1.0  0.85052  0.46799  0.65838  1.0000
  H   H869      1.0  0.66832  0.10525  0.82466  1.0000
  C   C1098     1.0  0.88486  0.44365  0.64910  1.0000
  H   H870      1.0  0.83222  0.46992  0.66201  1.0000
  H   H871      1.0  0.89322  0.42683  0.64550  1.0000
  C   C1099     1.0  0.92951  0.28915  0.70956  1.0000
  H   H872      1.0  0.85612  0.39930  0.52477  1.0000
  C   C1100     1.0  0.86186  0.48358  0.55605  1.0000
  C   C1101     1.0  0.95587  0.38458  0.67660  1.0000
  C   C1102     1.0  0.96342  0.37993  0.64133  1.0000
  C   C1103     1.0  0.93619  0.49038  0.77977  1.0000
  H   H873      1.0  0.93837  0.38232  0.68397  1.0000
  C   C1104     1.0  0.91862  0.42477  0.75150  1.0000
  C   C1105     1.0  0.86123  0.30341  0.83343  1.0000
  C   C1106     1.0  0.86951  0.28445  0.81333  1.0000
  C   C1107     1.0  0.87365  0.28663  0.77590  1.0000
  C   C1108     1.0  0.86935  0.30765  0.75786  1.0000
  C   C1109     1.0  0.86103  0.32657  0.77794  1.0000
  C   C1110     1.0  0.85707  0.32445  0.81543  1.0000
  H   H874      1.0  0.87270  0.26813  0.82658  1.0000
  H   H875      1.0  0.88002  0.27183  0.76069  1.0000
  H   H876      1.0  0.85732  0.34274  0.76444  1.0000
  H   H877      1.0  0.85054  0.33922  0.83057  1.0000
  H   H878      1.0  0.98498  0.29440  0.84484  1.0000
  C   C1111     1.0  0.98241  0.47079  0.65227  1.0000
  Fe  Fe76      1.0  0.84258  0.23305  0.96578  1.0000
  C   C1112     1.0  0.66391  0.02183  0.51881  1.0000
  H   H879      1.0  0.92602  0.38360  0.88053  1.0000
  C   C1113     1.0  0.92693  0.29653  0.83799  1.0000
  C   C1114     1.0  0.99487  0.19804  0.96436  1.0000
  H   H880      1.0  0.98980  0.33431  0.61165  1.0000
  H   H881      1.0  0.99351  0.44911  0.76068  1.0000
  H   H882      1.0  0.86272  0.41793  0.73272  1.0000
  Fe  Fe77      1.0  0.89466  0.23572  0.95350  1.0000
  H   H883      1.0  0.92469  0.46311  0.50482  1.0000
  C   C1115     1.0  0.99247  0.32135  0.52179  1.0000
  C   C1116     1.0  0.90284  0.38018  0.83621  1.0000
  C   C1117     1.0  0.89861  0.36854  0.80430  1.0000
  H   H884      1.0  0.91619  0.46090  0.64793  1.0000
  Fe  Fe78      1.0  0.71814  0.04960  0.96394  1.0000
  C   C1118     1.0  0.93909  0.35839  0.84224  1.0000
  H   H885      1.0  0.93420  0.43701  0.82558  1.0000
  S   S155      1.0  0.92820  0.21467  0.94430  1.0000
  H   H886      1.0  0.73508  0.20331  0.78872  1.0000
  H   H887      1.0  0.92952  0.28480  0.76688  1.0000
  C   C1119     1.0  0.79388  0.18902  0.96737  1.0000
  C   C1120     1.0  0.91817  0.44870  0.75252  1.0000
  H   H888      1.0  0.89872  0.32981  0.53940  1.0000
  C   C1121     1.0  0.96749  0.29045  0.84933  1.0000
  C   C1122     1.0  0.87809  0.42648  0.73901  1.0000
  C   C1123     1.0  0.89785  0.43158  0.55125  1.0000
  C   C1124     1.0  0.91861  0.41967  0.55930  1.0000
  C   C1125     1.0  0.94730  0.31462  0.75107  1.0000
  C   C1126     1.0  0.75883  0.17653  0.76956  1.0000
  H   H889      1.0  0.79311  0.44555  0.58394  1.0000
  C   C1127     1.0  0.80677  0.43561  0.57055  1.0000
  C   C1128     1.0  0.80858  0.41190  0.57489  1.0000
  C   C1129     1.0  0.82625  0.39894  0.55791  1.0000
  C   C1130     1.0  0.84246  0.40971  0.53739  1.0000
  H   H890      1.0  0.88790  0.43952  0.57302  1.0000
  H   H891      1.0  0.92446  0.41834  0.58705  1.0000
  H   H892      1.0  0.94663  0.39807  0.53868  1.0000
  S   S156      1.0  0.81068  0.21274  0.97872  1.0000
  H   H893      1.0  0.95428  0.35390  0.85793  1.0000
  H   H894      1.0  0.79648  0.40353  0.59170  1.0000
  H   H895      1.0  0.82760  0.38053  0.56114  1.0000
  C   C1131     1.0  0.78585  0.15539  0.93143  1.0000
  C   C1132     1.0  0.99412  0.39398  0.69355  1.0000
  C   C1133     1.0  0.98377  0.33075  0.79422  1.0000
  C   C1134     1.0  0.92343  0.40960  0.49635  1.0000
  P   P38       1.0  0.94420  0.46282  0.76012  1.0000
  C   C1135     1.0  0.82284  0.44637  0.54962  1.0000
  C   C1136     1.0  0.95906  0.46601  0.71780  1.0000
  C   C1137     1.0  0.98557  0.44171  0.78399  1.0000
  H   H896      1.0  0.98757  0.48228  0.84506  1.0000
  C   C1138     1.0  0.98618  0.38287  0.63206  1.0000
  C   C1139     1.0  0.69340  0.00719  0.85556  1.0000
  P   P39       1.0  0.95436  0.32324  0.79624  1.0000
  H   H897      1.0  0.67164  0.02338  0.81540  1.0000
  C   C1140     1.0  0.88955  0.43239  0.51570  1.0000
  H   H898      1.0  0.78638  0.15288  0.75291  1.0000
  H   H899      1.0  0.91267  0.30521  0.82398  1.0000
  C   C1141     1.0  0.76660  0.15108  0.95280  1.0000
  C   C1142     1.0  0.99107  0.41868  0.52218  1.0000
  C   C1143     1.0  0.78180  0.16896  0.76624  1.0000
  H   H900      1.0  0.93440  0.41457  0.75541  1.0000
  C   C1144     1.0  0.89748  0.46143  0.74603  1.0000
  C   C1145     1.0  0.97164  0.19757  0.95599  1.0000
  C   C1146     1.0  0.93509  0.29519  0.74482  1.0000
  H   H901      1.0  0.96478  0.18148  0.94888  1.0000
  H   H902      1.0  0.81396  0.17701  0.92186  1.0000
  H   H903      1.0  0.89015  0.39273  0.84657  1.0000
  H   H904      1.0  0.88635  0.29110  0.52746  1.0000
  S   S157      1.0  0.83837  0.27166  0.97113  1.0000
  C   C1147     1.0  0.93516  0.34695  0.80977  1.0000
  C   C1148     1.0  0.87935  0.19547  0.84464  1.0000
  C   C1149     1.0  0.87570  0.17414  0.85976  1.0000
  C   C1150     1.0  0.85358  0.16669  0.86191  1.0000
  C   C1151     1.0  0.83515  0.18042  0.84853  1.0000
  C   C1152     1.0  0.83879  0.20147  0.83201  1.0000
  C   C1153     1.0  0.86095  0.20918  0.83106  1.0000
  P   P40       1.0  0.81485  0.21959  0.81631  1.0000
  C   C1154     1.0  0.79293  0.20270  0.79808  1.0000
  C   C1155     1.0  0.80460  0.23555  0.85529  1.0000
  C   C1156     1.0  0.78937  0.22592  0.87940  1.0000
  C   C1157     1.0  0.78141  0.23814  0.90974  1.0000
  C   C1158     1.0  0.78898  0.25979  0.91671  1.0000
  C   C1159     1.0  0.80460  0.26922  0.89336  1.0000
  C   C1160     1.0  0.81270  0.25701  0.86308  1.0000
  C   C1161     1.0  0.76987  0.21054  0.80032  1.0000
  C   C1162     1.0  0.75288  0.19738  0.78639  1.0000
  C   C1163     1.0  0.79882  0.18207  0.78017  1.0000
  C   C1164     1.0  0.82276  0.23761  0.77930  1.0000
  C   C1165     1.0  0.83903  0.22940  0.75382  1.0000
  C   C1166     1.0  0.84483  0.24312  0.72466  1.0000
  C   C1167     1.0  0.83423  0.26497  0.72049  1.0000
  C   C1168     1.0  0.81768  0.27306  0.74526  1.0000
  C   C1169     1.0  0.81170  0.25933  0.77428  1.0000
  H   H905      1.0  0.89641  0.20157  0.84411  1.0000
  H   H906      1.0  0.88996  0.16359  0.87041  1.0000
  H   H907      1.0  0.85064  0.15043  0.87450  1.0000
  H   H908      1.0  0.81804  0.17468  0.85137  1.0000
  H   H909      1.0  0.86398  0.22594  0.82040  1.0000
  H   H910      1.0  0.78383  0.20885  0.87519  1.0000
  H   H911      1.0  0.77000  0.23044  0.92864  1.0000
  H   H912      1.0  0.78323  0.26894  0.94077  1.0000
  H   H913      1.0  0.81082  0.28583  0.89915  1.0000
  H   H914      1.0  0.82543  0.26432  0.84611  1.0000
  H   H915      1.0  0.76495  0.22677  0.81292  1.0000
  P   P41       1.0  0.86216  0.44718  0.50685  1.0000
  H   H916      1.0  0.81654  0.17606  0.77704  1.0000
  H   H917      1.0  0.84720  0.21241  0.75636  1.0000
  H   H918      1.0  0.85764  0.23694  0.70534  1.0000
  H   H919      1.0  0.83901  0.27576  0.69824  1.0000
  H   H920      1.0  0.80962  0.29008  0.74201  1.0000
  H   H921      1.0  0.79846  0.26574  0.79269  1.0000
  C   C1170     1.0  0.95382  0.32786  0.72156  1.0000
  H   H922      1.0  0.82909  0.38063  0.95092  1.0000
  C   C1171     1.0  0.69124  0.01326  0.73846  1.0000
  S   S158      1.0  0.68289  0.10762  0.95281  1.0000
  C   C1172     1.0  0.83656  0.37081  0.97323  1.0000
  C   C1173     1.0  0.77456  0.18482  0.98852  1.0000
  C   C1174     1.0  0.84116  0.43358  0.53371  1.0000
  H   H923      1.0  0.89739  0.17925  0.93447  1.0000
  C   C1175     1.0  0.96664  0.23828  0.96573  1.0000
  H   H924      1.0  0.83730  0.33877  0.94433  1.0000
  C   C1176     1.0  0.92308  0.37510  0.85520  1.0000
  C   C1177     1.0  0.89786  0.46293  0.65072  1.0000
  C   C1178     1.0  0.93167  0.32357  0.51496  1.0000
  H   H925      1.0  0.93702  0.25655  0.90368  1.0000
  H   H926      1.0  0.71730  0.03441  0.71866  1.0000
  C   C1179     1.0  0.97126  0.39163  0.70270  1.0000
  C   C1180     1.0  0.79931  0.17415  0.93855  1.0000
  H   H927      1.0  0.79043  0.14400  0.90928  1.0000
  C   C1181     1.0  0.98578  0.48583  0.68073  1.0000
  H   H928      1.0  0.96555  0.44103  0.63505  1.0000
  C   C1182     1.0  0.94948  0.30147  0.82968  1.0000
  C   C1183     1.0  0.96787  0.45302  0.65677  1.0000
  H   H929      1.0  0.97648  0.36730  0.80055  1.0000
  H   H930      1.0  0.96485  0.44544  0.52513  1.0000
  H   H931      1.0  0.88257  0.37192  0.79022  1.0000
  C   C1184     1.0  0.88875  0.17391  0.95863  1.0000
  C   C1185     1.0  0.86496  0.17503  0.95998  1.0000
  H   H932      1.0  0.96368  0.31650  0.97244  1.0000
  C   C1186     1.0  0.84108  0.34724  0.96948  1.0000
  H   H933      1.0  0.93129  0.29793  0.65316  1.0000
  C   C1187     1.0  0.93348  0.47836  0.51034  1.0000
  C   C1188     1.0  0.98933  0.41682  0.83624  1.0000
  S   S159      1.0  0.75060  0.12646  0.94326  1.0000
  C   C1189     1.0  0.66778  0.00975  0.73958  1.0000
  C   C1190     1.0  0.94820  0.32175  0.68636  1.0000
  C   C1191     1.0  0.86595  0.47643  0.52022  1.0000
  H   H934      1.0  0.93631  0.34093  0.51957  1.0000
  H   H935      1.0  0.95305  0.33216  0.66372  1.0000
  H   H936      1.0  0.69258  0.00281  0.96686  1.0000
  C   C1192     1.0  0.95724  0.21750  0.95670  1.0000
  H   H937      1.0  0.89667  0.47989  0.74487  1.0000
  H   H938      1.0  0.89933  0.39537  0.74302  1.0000
  C   C1193     1.0  0.91472  0.35209  0.79091  1.0000
  H   H939      1.0  0.95836  0.41206  0.86573  1.0000
  H   H940      1.0  0.96572  0.39456  0.73021  1.0000
  C   C1194     1.0  0.91020  0.31741  0.52605  1.0000
  H   H941      1.0  0.69681  0.02324  0.86848  1.0000
  C   C1195     1.0  0.89868  0.41377  0.74468  1.0000
  H   H942      1.0  0.90504  0.27684  0.87091  1.0000
  H   H943      1.0  0.91273  0.26253  0.49655  1.0000
  C   C1196     1.0  0.76102  0.16617  0.98127  1.0000
  H   H944      1.0  0.70333  0.00207  0.75320  1.0000
  C   C1197     1.0  0.96209  0.44555  0.79068  1.0000
  H   H945      1.0  0.91943  0.27460  0.70490  1.0000
  C   C1198     1.0  0.95622  0.45064  0.68939  1.0000
  C   C1199     1.0  0.99033  0.23878  0.97368  1.0000
  H   H946      1.0  0.88802  0.36763  0.51042  1.0000
  H   H947      1.0  0.94497  0.43683  0.69214  1.0000
  Fe  Fe79      1.0  0.68279  0.07672  0.91621  1.0000
  H   H948      1.0  0.86162  0.46017  0.73444  1.0000
  C   C1200     1.0  0.93300  0.49276  0.81724  1.0000
  Fe  Fe80      1.0  0.72169  0.10161  0.95478  1.0000
  S   S160      1.0  0.89305  0.27369  0.95739  1.0000
  C   C1201     1.0  0.95238  0.43477  0.82041  1.0000
  H   H949      1.0  0.91069  0.34287  0.76661  1.0000
  C   C1202     1.0  0.68393  0.04646  0.70019  1.0000
  C   C1203     1.0  0.92750  0.49122  0.54108  1.0000
  C   C1204     1.0  0.96598  0.42053  0.84314  1.0000
  C   C1205     1.0  0.93602  0.30242  0.68037  1.0000
  C   C1206     1.0  0.92250  0.28045  0.86460  1.0000
  S   S161      1.0  0.68008  0.05243  0.96303  1.0000
  C   C1207     1.0  0.91817  0.27948  0.50203  1.0000
  H   H950      1.0  0.96488  0.32796  0.56056  1.0000
  H   H951      1.0  0.85505  0.18147  0.93707  1.0000
  C   C1208     1.0  0.67900  0.00718  0.82554  1.0000
  H   H952      1.0  0.95579  0.25387  0.96637  1.0000
  H   H953      1.0  0.82116  0.46464  0.54617  1.0000
  C   C1209     1.0  0.97720  0.43667  0.50759  1.0000
  C   C1210     1.0  0.97429  0.48337  0.71348  1.0000
  H   H954      1.0  0.99211  0.37933  0.60483  1.0000
  C   C1211     1.0  0.86357  0.48728  0.66016  1.0000
  C   C1212     1.0  0.98948  0.35360  0.79694  1.0000
  C   C1213     1.0  0.87532  0.49168  0.49581  1.0000
  C   C1214     1.0  0.98306  0.32664  0.55598  1.0000
  H   H955      1.0  0.80050  0.10835  0.99117  1.0000
  H   H956      1.0  0.91991  0.16610  0.98774  1.0000
  H   H957      1.0  0.98919  0.41385  0.55031  1.0000
  H   H958      1.0  0.91406  0.48602  0.55891  1.0000
  S   S162      1.0  0.73959  0.01583  0.96742  1.0000
  H   H959      1.0  0.79962  0.48644  0.61896  1.0000
  C   C1215     1.0  0.90142  0.16648  0.98880  1.0000
  H   H960      1.0  0.66475  0.00202  0.91685  1.0000
  C   C1216     1.0  0.94688  0.30755  0.49797  1.0000
  C   C1217     1.0  0.85383  0.16859  0.99139  1.0000
  H   H961      1.0  0.99119  0.47279  0.62684  1.0000
  H   H962      1.0  0.83539  0.16989  0.99210  1.0000
  H   H963      1.0  0.78393  0.48466  0.55750  1.0000
  C   C1218     1.0  0.77987  0.70533  0.04373  1.0000
  S   S163      1.0  0.87859  0.63137  0.05901  1.0000
  C   C1219     1.0  0.68169  0.90588  0.13889  1.0000
  H   H964      1.0  0.72127  0.75067  0.15748  1.0000
  S   S164      1.0  0.71704  0.86106  0.04079  1.0000
  H   H965      1.0  0.79712  0.65503  0.00338  1.0000
  Fe  Fe81      1.0  0.87057  0.59352  0.26548  1.0000
  S   S165      1.0  0.87705  0.55720  0.24665  1.0000
  S   S166      1.0  0.85937  0.62376  0.22878  1.0000
  Fe  Fe82      1.0  0.88329  0.58119  0.34489  1.0000
  S   S167      1.0  0.89083  0.54442  0.33095  1.0000
  S   S168      1.0  0.89472  0.59149  0.40090  1.0000
  Fe  Fe83      1.0  0.90824  0.55698  0.28163  1.0000
  S   S169      1.0  0.94194  0.53860  0.26670  1.0000
  Fe  Fe84      1.0  0.85910  0.54767  0.29776  1.0000
  S   S170      1.0  0.83533  0.51921  0.30620  1.0000
  S   S171      1.0  0.90308  0.59382  0.29756  1.0000
  S   S172      1.0  0.84996  0.58402  0.31466  1.0000
  C   C1220     1.0  0.88082  0.58686  0.44249  1.0000
  C   C1221     1.0  0.91234  0.65543  0.49079  1.0000
  C   C1222     1.0  0.67917  0.93722  0.27816  1.0000
  S   S173      1.0  0.87334  0.69716  0.01656  1.0000
  C   C1223     1.0  0.85721  0.58514  0.44474  1.0000
  C   C1224     1.0  0.71475  0.94838  0.30361  1.0000
  H   H966      1.0  0.84701  0.58602  0.42040  1.0000
  C   C1225     1.0  0.96042  0.57992  0.27316  1.0000
  C   C1226     1.0  0.96442  0.55623  0.27454  1.0000
  H   H967      1.0  0.82738  0.74523  0.15897  1.0000
  H   H968      1.0  0.94432  0.58736  0.26348  1.0000
  H   H969      1.0  0.70844  0.83592  0.19907  1.0000
  H   H970      1.0  0.83091  0.52495  0.21251  1.0000
  Fe  Fe85      1.0  0.68231  0.84723  0.04639  1.0000
  C   C1227     1.0  0.81808  0.55839  0.22842  1.0000
  C   C1228     1.0  0.97204  0.62667  0.11668  1.0000
  C   C1229     1.0  0.84668  0.58289  0.47872  1.0000
  C   C1230     1.0  0.87390  0.63053  0.10652  1.0000
  C   C1231     1.0  0.88163  0.61077  0.12553  1.0000
  C   C1232     1.0  0.87774  0.60856  0.16297  1.0000
  C   C1233     1.0  0.86599  0.62624  0.18198  1.0000
  C   C1234     1.0  0.85870  0.64629  0.16313  1.0000
  C   C1235     1.0  0.86276  0.64850  0.12567  1.0000
  H   H971      1.0  0.89089  0.59723  0.11103  1.0000
  H   H972      1.0  0.88361  0.59313  0.17707  1.0000
  H   H973      1.0  0.84985  0.66019  0.17759  1.0000
  H   H974      1.0  0.85728  0.66401  0.11163  1.0000
  H   H975      1.0  0.80847  0.59389  0.23851  1.0000
  H   H976      1.0  0.76783  0.68716  0.99777  1.0000
  H   H977      1.0  0.80860  0.55129  0.10419  1.0000
  C   C1236     1.0  0.81538  0.58149  0.21908  1.0000
  C   C1237     1.0  0.81462  0.77234  0.09558  1.0000
  C   C1238     1.0  0.81797  0.49764  0.15527  1.0000
  Fe  Fe86      1.0  0.87475  0.65867  0.01440  1.0000
  H   H978      1.0  0.97988  0.52485  0.20073  1.0000
  H   H979      1.0  0.72797  0.97734  0.04626  1.0000
  H   H980      1.0  0.86604  0.53359  0.00804  1.0000
  H   H981      1.0  0.86799  0.50765  0.25023  1.0000
  H   H982      1.0  0.84067  0.72797  0.21652  1.0000
  H   H983      1.0  0.86239  0.79091  0.05563  1.0000
  H   H984      1.0  0.71006  0.93080  0.07069  1.0000
  H   H985      1.0  0.78524  0.68847  0.14181  1.0000
  P   P42       1.0  0.67543  0.91540  0.21200  1.0000
  C   C1239     1.0  0.98264  0.64311  0.13719  1.0000
  P   P43       1.0  0.97158  0.60195  0.46652  1.0000
  H   H986      1.0  0.77192  0.55674  0.44674  1.0000
  C   C1240     1.0  0.69272  0.98395  0.06137  1.0000
  C   C1241     1.0  0.89378  0.58604  0.47439  1.0000
  H   H987      1.0  0.98936  0.68102  0.09745  1.0000
  H   H988      1.0  0.81312  0.55284  0.25510  1.0000
  H   H989      1.0  0.91639  0.64463  0.13069  1.0000
  H   H990      1.0  0.68575  0.82111  0.24968  1.0000
  C   C1242     1.0  0.81303  0.66909  0.04997  1.0000
  H   H991      1.0  0.83890  0.57924  0.13523  1.0000
  H   H992      1.0  0.74481  0.94073  0.27124  1.0000
  C   C1243     1.0  0.95995  0.58683  0.39771  1.0000
  C   C1244     1.0  0.79661  0.66887  0.02275  1.0000
  C   C1245     1.0  0.98601  0.54673  0.28445  1.0000
  H   H993      1.0  0.80652  0.51827  0.36985  1.0000
  H   H994      1.0  0.74259  0.58850  0.44715  1.0000
  H   H995      1.0  0.91201  0.58750  0.47292  1.0000
  C   C1246     1.0  0.71529  0.98977  0.05695  1.0000
  C   C1247     1.0  0.95401  0.56044  0.44673  1.0000
  H   H996      1.0  0.95419  0.55612  0.47506  1.0000
  C   C1248     1.0  0.70060  0.98301  0.38722  1.0000
  H   H997      1.0  0.88332  0.55955  0.11001  1.0000
  C   C1249     1.0  0.71451  0.93022  0.24489  1.0000
  C   C1250     1.0  0.70701  0.94373  0.12529  1.0000
  H   H998      1.0  0.82812  0.80549  0.08992  1.0000
  H   H999      1.0  0.82622  0.65531  0.05194  1.0000
  C   C1251     1.0  0.94383  0.55068  0.38560  1.0000
  C   C1252     1.0  0.94907  0.62389  0.47499  1.0000
  C   C1253     1.0  0.97715  0.59414  0.28485  1.0000
  H   H1000     1.0  0.87496  0.52272  0.07125  1.0000
  H   H1001     1.0  0.97677  0.50938  0.47955  1.0000
  C   C1254     1.0  0.75928  0.55745  0.46806  1.0000
  H   H1002     1.0  0.97358  0.61247  0.28518  1.0000
  H   H1003     1.0  0.80000  0.56193  0.04093  1.0000
  H   H1004     1.0  0.72405  0.95566  0.32553  1.0000
  C   C1255     1.0  0.83247  0.54840  0.02051  1.0000
  C   C1256     1.0  0.78001  0.68693  0.01971  1.0000
  C   C1257     1.0  0.94518  0.54515  0.42228  1.0000
  H   H1005     1.0  0.79988  0.77902  0.11072  1.0000
  C   C1258     1.0  0.82132  0.54737  0.08351  1.0000
  S   S174      1.0  0.69000  0.81762  0.00830  1.0000
  H   H1006     1.0  0.68205  0.95276  0.33036  1.0000
  H   H1007     1.0  0.73461  0.50208  0.49034  1.0000
  H   H1008     1.0  0.68803  0.96405  0.43196  1.0000
  H   H1009     1.0  0.77942  0.51191  0.41936  1.0000
  C   C1259     1.0  0.96905  0.66015  0.15513  1.0000
  C   C1260     1.0  0.68369  0.97664  0.41123  1.0000
  H   H1010     1.0  0.71673  0.95847  0.11994  1.0000
  H   H1011     1.0  0.93146  0.61972  0.42409  1.0000
  H   H1012     1.0  0.96480  0.60322  0.38770  1.0000
  H   H1013     1.0  0.89946  0.64678  0.43838  1.0000
  H   H1014     1.0  0.80543  0.51194  0.15745  1.0000
  C   C1261     1.0  0.66662  0.87703  0.25285  1.0000
  Fe  Fe87      1.0  0.72429  0.83257  0.99971  1.0000
  C   C1262     1.0  0.79626  0.51729  0.42579  1.0000
  H   H1015     1.0  0.94939  0.57610  0.34520  1.0000
  C   C1263     1.0  0.83506  0.54974  0.16966  1.0000
  C   C1264     1.0  0.87932  0.53231  0.14841  1.0000
  C   C1265     1.0  0.69071  0.92927  0.24696  1.0000
  C   C1266     1.0  0.83323  0.52805  0.40518  1.0000
  H   H1016     1.0  0.93652  0.53920  0.36663  1.0000
  C   C1267     1.0  0.91379  0.55280  0.14127  1.0000
  C   C1268     1.0  0.89144  0.54897  0.13085  1.0000
  C   C1269     1.0  0.83255  0.57304  0.16069  1.0000
  C   C1270     1.0  0.82251  0.58877  0.18518  1.0000
  H   H1017     1.0  0.82687  0.69088  0.23665  1.0000
  H   H1018     1.0  0.72386  0.92312  0.22185  1.0000
  H   H1019     1.0  0.83963  0.72306  0.06109  1.0000
  H   H1020     1.0  0.82114  0.60681  0.17850  1.0000
  H   H1021     1.0  0.97685  0.67325  0.17055  1.0000
  C   C1271     1.0  0.80243  0.52126  0.46179  1.0000
  S   S175      1.0  0.66846  0.86926  0.00120  1.0000
  H   H1022     1.0  0.82600  0.68758  0.09447  1.0000
  C   C1272     1.0  0.69694  0.84745  0.21427  1.0000
  C   C1273     1.0  0.72644  0.94000  0.27298  1.0000
  H   H1023     1.0  0.92278  0.56624  0.12844  1.0000
  C   C1274     1.0  0.68614  0.92081  0.16722  1.0000
  C   C1275     1.0  0.81154  0.52085  0.39765  1.0000
  H   H1024     1.0  0.98931  0.52839  0.28498  1.0000
  H   H1025     1.0  0.79906  0.67137  0.19940  1.0000
  H   H1026     1.0  0.96923  0.51221  0.34021  1.0000
  H   H1027     1.0  0.93994  0.61477  0.09825  1.0000
  C   C1276     1.0  0.82806  0.54257  0.20397  1.0000
  C   C1277     1.0  0.70327  0.92823  0.09758  1.0000
  C   C1278     1.0  0.96168  0.58137  0.43463  1.0000
  C   C1279     1.0  0.74072  0.77176  0.07835  1.0000
  C   C1280     1.0  0.72605  0.76852  0.10742  1.0000
  C   C1281     1.0  0.73269  0.75317  0.13498  1.0000
  C   C1282     1.0  0.75407  0.74114  0.13361  1.0000
  C   C1283     1.0  0.76899  0.74453  0.10465  1.0000
  C   C1284     1.0  0.76203  0.75974  0.07692  1.0000
  P   P44       1.0  0.79677  0.72942  0.10220  1.0000
  C   C1285     1.0  0.80531  0.71811  0.14596  1.0000
  C   C1286     1.0  0.79632  0.70570  0.07114  1.0000
  C   C1287     1.0  0.81290  0.68743  0.07401  1.0000
  C   C1288     1.0  0.69114  0.94687  0.30628  1.0000
  H   H1028     1.0  0.99287  0.63675  0.21070  1.0000
  P   P45       1.0  0.84944  0.52978  0.13887  1.0000
  C   C1289     1.0  0.84270  0.53682  0.09251  1.0000
  C   C1290     1.0  0.79720  0.69736  0.15800  1.0000
  C   C1291     1.0  0.80492  0.68765  0.19064  1.0000
  C   C1292     1.0  0.82060  0.69866  0.21167  1.0000
  C   C1293     1.0  0.82844  0.71951  0.20023  1.0000
  C   C1294     1.0  0.82083  0.72924  0.16751  1.0000
  C   C1295     1.0  0.81751  0.74896  0.08724  1.0000
  C   C1296     1.0  0.83699  0.74090  0.06799  1.0000
  H   H1029     1.0  0.84493  0.53119  0.38324  1.0000
  H   H1030     1.0  0.86807  0.74960  0.04169  1.0000
  H   H1031     1.0  0.82836  0.58188  0.48029  1.0000
  H   H1032     1.0  0.76727  0.71939  0.04009  1.0000
  H   H1033     1.0  0.73569  0.78370  0.05693  1.0000
  H   H1034     1.0  0.71780  0.97530  0.38949  1.0000
  H   H1035     1.0  0.98210  0.61358  0.10218  1.0000
  H   H1036     1.0  0.75889  0.72942  0.15527  1.0000
  H   H1037     1.0  0.77322  0.76242  0.05426  1.0000
  C   C1297     1.0  0.69441  0.87057  0.20487  1.0000
  C   C1298     1.0  0.66942  0.85395  0.26235  1.0000
  H   H1038     1.0  0.70956  0.77795  0.10858  1.0000
  C   C1299     1.0  0.79809  0.78301  0.99558  1.0000
  C   C1300     1.0  0.69823  0.94021  0.15991  1.0000
  C   C1301     1.0  0.69043  0.90945  0.10434  1.0000
  C   C1302     1.0  0.91324  0.64405  0.45768  1.0000
  C   C1303     1.0  0.83965  0.53164  0.44090  1.0000
  C   C1304     1.0  0.98898  0.50953  0.21098  1.0000
  H   H1039     1.0  0.70097  0.95259  0.18083  1.0000
  H   H1040     1.0  0.68703  0.89770  0.08269  1.0000
  C   C1305     1.0  0.82433  0.52838  0.46922  1.0000
  C   C1306     1.0  0.83072  0.78741  0.08410  1.0000
  C   C1307     1.0  0.68434  0.83913  0.24288  1.0000
  C   C1308     1.0  0.95122  0.57148  0.37338  1.0000
  H   H1041     1.0  0.94104  0.54367  0.17863  1.0000
  H   H1042     1.0  0.91940  0.50357  0.31770  1.0000
  C   C1309     1.0  0.85321  0.75595  0.05697  1.0000
  C   C1310     1.0  0.93484  0.64413  0.13260  1.0000
  H   H1043     1.0  0.88648  0.52576  0.48758  1.0000
  C   C1311     1.0  0.85352  0.53726  0.02913  1.0000
  C   C1312     1.0  0.97793  0.50432  0.36331  1.0000
  C   C1313     1.0  0.85856  0.53129  0.06497  1.0000
  C   C1314     1.0  0.92413  0.54006  0.16940  1.0000
  H   H1044     1.0  0.85632  0.53766  0.44645  1.0000
  C   C1315     1.0  0.74268  0.57565  0.46827  1.0000
  H   H1045     1.0  0.67062  0.81179  0.13381  1.0000
  H   H1046     1.0  0.70477  0.87665  0.18315  1.0000
  H   H1047     1.0  0.67152  0.89134  0.14347  1.0000
  C   C1316     1.0  0.67857  0.88539  0.22324  1.0000
  C   C1317     1.0  0.81632  0.55329  0.04765  1.0000
  H   H1048     1.0  0.93875  0.52936  0.43187  1.0000
  C   C1318     1.0  0.85000  0.77923  0.06479  1.0000
  H   H1049     1.0  0.93480  0.67366  0.16692  1.0000
  H   H1050     1.0  0.68839  0.96700  0.05387  1.0000
  C   C1319     1.0  0.94820  0.62724  0.11439  1.0000
  C   C1320     1.0  0.94525  0.66054  0.15299  1.0000
  C   C1321     1.0  0.84077  0.50120  0.14657  1.0000
  H   H1051     1.0  0.91991  0.51391  0.20936  1.0000
  H   H1052     1.0  0.80725  0.79698  0.00612  1.0000
  C   C1322     1.0  0.91224  0.52328  0.18674  1.0000
  H   H1053     1.0  0.88057  0.50740  0.19137  1.0000
  C   C1323     1.0  0.88989  0.51956  0.17647  1.0000
  S   S176      1.0  0.75994  0.81308  0.00218  1.0000
  C   C1324     1.0  0.93157  0.62850  0.44968  1.0000
  H   H1054     1.0  0.98543  0.61943  0.66226  1.0000
  C   C1325     1.0  0.92205  0.52991  0.77178  1.0000
  C   C1326     1.0  0.70367  0.98749  0.96943  1.0000
  H   H1055     1.0  0.94646  0.59437  0.86077  1.0000
  H   H1056     1.0  0.72697  0.78671  0.72513  1.0000
  C   C1327     1.0  0.71796  0.78731  0.75072  1.0000
  Fe  Fe88      1.0  0.87767  0.65802  0.93045  1.0000
  S   S177      1.0  0.88700  0.63144  0.88643  1.0000
  S   S178      1.0  0.87658  0.69648  0.92705  1.0000
  Fe  Fe89      1.0  0.67834  0.84137  0.96252  1.0000
  S   S179      1.0  0.71260  0.85509  0.95213  1.0000
  C   C1328     1.0  0.79884  0.74355  0.97416  1.0000
  H   H1057     1.0  0.68515  0.79091  0.84166  1.0000
  C   C1329     1.0  0.92449  0.51363  0.83178  1.0000
  H   H1058     1.0  0.68150  0.94978  0.80956  1.0000
  C   C1330     1.0  0.93894  0.51073  0.54916  1.0000
  C   C1331     1.0  0.79451  0.72833  0.85362  1.0000
  H   H1059     1.0  0.71246  0.88862  0.85109  1.0000
  Fe  Fe90      1.0  0.86568  0.57806  0.60547  1.0000
  S   S180      1.0  0.90135  0.56228  0.60750  1.0000
  S   S181      1.0  0.84576  0.57933  0.55273  1.0000
  Fe  Fe91      1.0  0.86482  0.58814  0.68763  1.0000
  S   S182      1.0  0.90021  0.57234  0.69523  1.0000
  S   S183      1.0  0.84505  0.60729  0.73270  1.0000
  Fe  Fe92      1.0  0.90813  0.59109  0.64454  1.0000
  S   S184      1.0  0.93989  0.61008  0.64158  1.0000
  Fe  Fe93      1.0  0.88996  0.54464  0.65758  1.0000
  C   C1332     1.0  0.94823  0.63577  0.50799  1.0000
  S   S185      1.0  0.87344  0.60869  0.63854  1.0000
  S   S186      1.0  0.85351  0.55864  0.65391  1.0000
  C   C1333     1.0  0.72731  0.98905  0.96972  1.0000
  H   H1060     1.0  0.95079  0.72386  0.85402  1.0000
  H   H1061     1.0  0.81681  0.55550  0.59993  1.0000
  H   H1062     1.0  0.93422  0.52067  0.57306  1.0000
  C   C1334     1.0  0.75151  0.81614  0.90334  1.0000
  C   C1335     1.0  0.79187  0.49992  0.56576  1.0000
  H   H1063     1.0  0.71451  0.56293  0.54538  1.0000
  C   C1336     1.0  0.91896  0.53220  0.80903  1.0000
  H   H1064     1.0  0.95931  0.70481  0.79560  1.0000
  C   C1337     1.0  0.69209  0.90481  0.89335  1.0000
  H   H1065     1.0  0.96836  0.67923  0.97035  1.0000
  H   H1066     1.0  0.80277  0.55358  0.53761  1.0000
  H   H1067     1.0  0.92931  0.61220  0.91588  1.0000
  H   H1068     1.0  0.82965  0.53176  0.49654  1.0000
  H   H1069     1.0  0.66435  0.79664  0.78473  1.0000
  C   C1338     1.0  0.95519  0.62800  0.77190  1.0000
  H   H1070     1.0  0.76864  0.86987  0.88992  1.0000
  C   C1339     1.0  0.92731  0.66560  0.74141  1.0000
  C   C1340     1.0  0.87490  0.62555  0.84365  1.0000
  C   C1341     1.0  0.88426  0.60674  0.82387  1.0000
  C   C1342     1.0  0.87553  0.60128  0.78970  1.0000
  C   C1343     1.0  0.85721  0.61450  0.77487  1.0000
  C   C1344     1.0  0.84764  0.63317  0.79482  1.0000
  C   C1345     1.0  0.85651  0.63878  0.82892  1.0000
  H   H1071     1.0  0.89827  0.59625  0.83521  1.0000
  H   H1072     1.0  0.88245  0.58650  0.77511  1.0000
  H   H1073     1.0  0.83328  0.64334  0.78381  1.0000
  H   H1074     1.0  0.84903  0.65323  0.84386  1.0000
  S   S187      1.0  0.93143  0.71702  0.97645  1.0000
  C   C1346     1.0  0.74151  0.96892  0.97340  1.0000
  C   C1347     1.0  0.76181  0.85358  0.88381  1.0000
  C   C1348     1.0  0.97898  0.60902  0.86782  1.0000
  C   C1349     1.0  0.96227  0.59247  0.65936  1.0000
  H   H1075     1.0  0.91347  0.69367  0.77467  1.0000
  C   C1350     1.0  0.96091  0.58375  0.53375  1.0000
  P   P46       1.0  0.73462  0.78322  0.85814  1.0000
  C   C1351     1.0  0.69978  0.78917  0.90943  1.0000
  H   H1076     1.0  0.75510  0.86181  0.82800  1.0000
  P   P47       1.0  0.95223  0.65881  0.76902  1.0000
  C   C1352     1.0  0.95654  0.60499  0.87756  1.0000
  C   C1353     1.0  0.67408  0.95723  0.71319  1.0000
  H   H1077     1.0  0.99290  0.56114  0.60318  1.0000
  C   C1354     1.0  0.95944  0.56925  0.66542  1.0000
  H   H1078     1.0  0.75042  0.80372  0.92482  1.0000
  C   C1355     1.0  0.73212  0.94755  0.97833  1.0000
  C   C1356     1.0  0.69612  0.89706  0.85812  1.0000
  C   C1357     1.0  0.93280  0.67139  0.87391  1.0000
  Fe  Fe94      1.0  0.90118  0.69436  0.97401  1.0000
  H   H1079     1.0  0.91180  0.54820  0.82014  1.0000
  H   H1080     1.0  0.70533  0.90260  0.91368  1.0000
  C   C1358     1.0  0.76064  0.83707  0.91085  1.0000
  C   C1359     1.0  0.87921  0.51399  0.50635  1.0000
  C   C1360     1.0  0.67589  0.93614  0.69541  1.0000
  H   H1081     1.0  0.87668  0.53859  0.54944  1.0000
  S   S188      1.0  0.90457  0.50806  0.66215  1.0000
  C   C1361     1.0  0.95930  0.62967  0.92938  1.0000
  H   H1082     1.0  0.91715  0.54398  0.75391  1.0000
  C   C1362     1.0  0.93064  0.50917  0.75718  1.0000
  H   H1083     1.0  0.66771  0.92067  0.93023  1.0000
  C   C1363     1.0  0.68443  0.96590  0.82227  1.0000
  C   C1364     1.0  0.96172  0.71580  0.97133  1.0000
  C   C1365     1.0  0.92990  0.65139  0.51585  1.0000
  H   H1084     1.0  0.68175  0.89330  0.80509  1.0000
  C   C1366     1.0  0.68829  0.75952  0.95006  1.0000
  C   C1367     1.0  0.77505  0.74672  0.96854  1.0000
  C   C1368     1.0  0.93772  0.69415  0.87861  1.0000
  C   C1369     1.0  0.88711  0.67346  0.70096  1.0000
  C   C1370     1.0  0.70843  0.94621  0.97928  1.0000
  H   H1085     1.0  0.77936  0.77848  0.89497  1.0000
  H   H1086     1.0  0.92454  0.66246  0.89545  1.0000
  H   H1087     1.0  0.66385  0.96083  0.90543  1.0000
  Fe  Fe95      1.0  0.84868  0.69669  0.96959  1.0000
  H   H1088     1.0  0.95897  0.56182  0.76342  1.0000
  H   H1089     1.0  0.98586  0.60130  0.84337  1.0000
  C   C1371     1.0  0.95244  0.69510  0.81755  1.0000
  H   H1090     1.0  0.73996  0.82477  0.81395  1.0000
  C   C1372     1.0  0.81022  0.53980  0.59025  1.0000
  C   C1373     1.0  0.98163  0.63393  0.91954  1.0000
  H   H1091     1.0  0.74265  0.74122  0.81568  1.0000
  C   C1374     1.0  0.67885  0.89977  0.83225  1.0000
  H   H1092     1.0  0.95148  0.63807  0.95277  1.0000
  H   H1093     1.0  0.93301  0.64296  0.83791  1.0000
  H   H1094     1.0  0.74463  0.76969  0.97245  1.0000
  H   H1095     1.0  0.89346  0.58340  0.53261  1.0000
  C   C1375     1.0  0.75891  0.76273  0.85421  1.0000
  C   C1376     1.0  0.97593  0.69554  0.96913  1.0000
  C   C1377     1.0  0.69433  0.96618  0.97388  1.0000
  C   C1378     1.0  0.75415  0.84903  0.84902  1.0000
  H   H1096     1.0  0.80809  0.71489  0.85404  1.0000
  C   C1379     1.0  0.74345  0.54304  0.52352  1.0000
  S   S189      1.0  0.90398  0.65630  0.97482  1.0000
  C   C1380     1.0  0.90322  0.65608  0.69099  1.0000
  H   H1097     1.0  0.67721  0.75399  0.97136  1.0000
  C   C1381     1.0  0.93729  0.59184  0.77491  1.0000
  C   C1382     1.0  0.91109  0.68320  0.75115  1.0000
  C   C1383     1.0  0.68528  0.78171  0.93640  1.0000
  H   H1098     1.0  0.98774  0.66930  0.87506  1.0000
  C   C1384     1.0  0.93576  0.61565  0.77727  1.0000
  C   C1385     1.0  0.67449  0.98654  0.80849  1.0000
  C   C1386     1.0  0.98332  0.60141  0.66630  1.0000
  C   C1387     1.0  0.87388  0.52125  0.54139  1.0000
  C   C1388     1.0  0.98866  0.51354  0.81457  1.0000
  H   H1099     1.0  0.67163  0.79317  0.94676  1.0000
  H   H1100     1.0  0.96118  0.75249  0.97163  1.0000
  H   H1101     1.0  0.92170  0.51531  0.86061  1.0000
  H   H1102     1.0  0.71379  0.59180  0.49626  1.0000
  H   H1103     1.0  0.67603  0.96531  0.97404  1.0000
  C   C1389     1.0  0.74417  0.81122  0.86835  1.0000
  H   H1104     1.0  0.97582  0.53674  0.68022  1.0000
  C   C1390     1.0  0.72648  0.57755  0.49599  1.0000
  C   C1391     1.0  0.69430  0.79175  0.75136  1.0000
  C   C1392     1.0  0.66552  0.84541  0.81591  1.0000
  C   C1393     1.0  0.74551  0.82790  0.84119  1.0000
  H   H1105     1.0  0.99147  0.62504  0.76019  1.0000
  S   S190      1.0  0.84851  0.65787  0.97004  1.0000
  C   C1394     1.0  0.97628  0.61606  0.76522  1.0000
  C   C1395     1.0  0.98022  0.66654  0.70953  1.0000
  H   H1106     1.0  0.95260  0.57163  0.58681  1.0000
  C   C1396     1.0  0.71850  0.78518  0.81641  1.0000
  H   H1107     1.0  0.68414  0.84328  0.86641  1.0000
  H   H1108     1.0  0.85535  0.50399  0.66519  1.0000
  H   H1109     1.0  0.96665  0.66083  0.69274  1.0000
  H   H1110     1.0  0.68624  0.93405  0.67124  1.0000
  C   C1397     1.0  0.93775  0.66035  0.84112  1.0000
  H   H1111     1.0  0.87839  0.70031  0.73905  1.0000
  H   H1112     1.0  0.92908  0.66001  0.54173  1.0000
  C   C1398     1.0  0.76288  0.76776  0.97656  1.0000
  H   H1113     1.0  0.94330  0.56216  0.65978  1.0000
  C   C1399     1.0  0.79581  0.74729  0.87605  1.0000
  S   S191      1.0  0.81331  0.71649  0.96314  1.0000
  C   C1400     1.0  0.80963  0.52090  0.61316  1.0000
  C   C1401     1.0  0.79338  0.51850  0.54202  1.0000
  H   H1114     1.0  0.76653  0.84055  0.93791  1.0000
  H   H1115     1.0  0.81603  0.52187  0.64053  1.0000
  S   S192      1.0  0.69524  0.92069  0.98981  1.0000
  C   C1402     1.0  0.95815  0.58014  0.76718  1.0000
  C   C1403     1.0  0.94746  0.70604  0.85042  1.0000
  H   H1116     1.0  0.87143  0.67615  0.68570  1.0000
  C   C1404     1.0  0.92310  0.65204  0.71125  1.0000
  H   H1117     1.0  0.86193  0.51162  0.59375  1.0000
  H   H1118     1.0  0.93352  0.70272  0.90386  1.0000
  H   H1119     1.0  0.90020  0.64541  0.66786  1.0000
  C   C1405     1.0  0.94782  0.67207  0.81274  1.0000
  C   C1406     1.0  0.80041  0.50096  0.60094  1.0000
  H   H1120     1.0  0.93198  0.50760  0.72807  1.0000
  C   C1407     1.0  0.94680  0.61511  0.90852  1.0000
  C   C1408     1.0  0.89106  0.68705  0.73100  1.0000
  H   H1121     1.0  0.93497  0.63796  0.70375  1.0000
  H   H1122     1.0  0.68070  0.84689  0.79967  1.0000
  H   H1123     1.0  0.92208  0.58257  0.77764  1.0000
  H   H1124     1.0  0.71465  0.98673  0.89211  1.0000
  H   H1125     1.0  0.70806  0.72739  0.94700  1.0000
  C   C1409     1.0  0.96614  0.57413  0.56752  1.0000
  H   H1126     1.0  0.74378  0.53077  0.54547  1.0000
  H   H1127     1.0  0.94320  0.58834  0.52723  1.0000
  H   H1128     1.0  0.91921  0.62452  0.78161  1.0000
  C   C1410     1.0  0.98881  0.56826  0.57678  1.0000
  C   C1411     1.0  0.70559  0.74456  0.93626  1.0000
  C   C1412     1.0  0.69466  0.78951  0.81670  1.0000
  C   C1413     1.0  0.66754  0.84328  0.85378  1.0000
  H   H1129     1.0  0.96138  0.63257  0.52818  1.0000
  C   C1414     1.0  0.70338  0.98663  0.86893  1.0000
  H   H1130     1.0  0.66523  0.90157  0.69439  1.0000
  C   C1415     1.0  0.97762  0.66825  0.74719  1.0000
  C   C1416     1.0  0.86540  0.50603  0.56629  1.0000
  C   C1417     1.0  0.95656  0.51723  0.52666  1.0000
  H   H1131     1.0  0.69734  0.80659  0.89966  1.0000
  C   C1418     1.0  0.75766  0.74347  0.83192  1.0000
  C   C1419     1.0  0.69880  0.96599  0.85242  1.0000
  C   C1420     1.0  0.88329  0.58367  0.50828  1.0000
  H   H1132     1.0  0.81028  0.74838  0.89404  1.0000
  C   C1421     1.0  0.97770  0.59223  0.76282  1.0000
  H   H1133     1.0  0.77437  0.71154  0.81446  1.0000
  H   H1134     1.0  0.74846  0.78137  0.78211  1.0000
  C   C1422     1.0  0.73005  0.78412  0.78308  1.0000
  H   H1135     1.0  0.68491  0.79474  0.72640  1.0000
  H   H1136     1.0  0.97185  0.52014  0.82292  1.0000
  H   H1137     1.0  0.76596  0.73273  0.95793  1.0000
  H   H1138     1.0  0.96558  0.53221  0.53317  1.0000
  H   H1139     1.0  0.68315  0.97123  0.70237  1.0000
  C   C1423     1.0  0.67080  0.91513  0.90274  1.0000
  C   C1424     1.0  0.85965  0.58222  0.51061  1.0000
  C   C1425     1.0  0.77813  0.76443  0.87640  1.0000
  C   C1426     1.0  0.77549  0.72645  0.83144  1.0000
  H   H1140     1.0  0.70652  0.95008  0.86297  1.0000
  C   C1427     1.0  0.71969  0.75170  0.90849  1.0000
  C   C1428     1.0  0.68267  0.79275  0.78429  1.0000
  C   C1429     1.0  0.97793  0.55479  0.67686  1.0000
  C   C1430     1.0  0.66404  0.91785  0.70838  1.0000
  C   C1431     1.0  0.71682  0.77407  0.89469  1.0000
  H   H1141     1.0  0.73284  0.73968  0.89819  1.0000
  C   C1432     1.0  0.97843  0.58800  0.50914  1.0000
  C   C1433     1.0  0.97181  0.73676  0.96994  1.0000
  C   C1434     1.0  0.80221  0.53863  0.55483  1.0000
  C   C1435     1.0  0.99191  0.62328  0.88909  1.0000
  H   H1142     1.0  0.99061  0.64606  0.93525  1.0000
  H   H1143     1.0  0.99310  0.71050  0.87499  1.0000
  C   C1436     1.0  0.77432  0.78615  0.99022  1.0000
  C   C1437     1.0  0.72688  0.56126  0.52362  1.0000
  C   C1438     1.0  0.96284  0.50420  0.49620  1.0000
  H   H1144     1.0  0.74318  0.93230  0.98244  1.0000
  H   H1145     1.0  0.82849  0.76012  0.99143  1.0000
  H   H1146     1.0  0.75985  0.96997  0.97355  1.0000
  C   C1439     1.0  0.81024  0.76199  0.98756  1.0000
  C   C1440     1.0  0.75966  0.54087  0.49557  1.0000
  P   P48       1.0  0.78155  0.51781  0.49702  1.0000
  H   H1147     1.0  0.89790  0.66717  0.49715  1.0000
  H   H1148     1.0  0.99493  0.67541  0.79719  1.0000
  H   H1149     1.0  0.99378  0.58324  0.75588  1.0000
  H   H1150     1.0  0.99427  0.54221  0.77981  1.0000
  H   H1151     1.0  0.97730  0.49504  0.73532  1.0000
  Fe  Fe96      1.0  0.70320  0.88212  0.99393  1.0000
  H   H1152     1.0  0.82871  0.55339  0.99282  1.0000
