data_image0
_chemical_formula_structural       SCFeSHCHCHCH3CFeSFeS3FeS2FeS2FeSFeS3C6H4C6H4C3HCH3CHC2HCHCH4CHC9H9C3HCHC3H2CHC2HC2SHC2HC2HCFeHC2H2CHC3HCHCH3PC19H12CH5CHC3PCH4SC3HCPCHCHCHC2HCH3CHSC4S2H3C3H2CHC2H4CHC2H6CHCH4C2H2C6HC5HC6H4C2PC2H2CHC4FeH2SC3HPC8PC3SCH3C4H2CHC2H3SFeH3CSHCHC4HC3HSC3HFeCH2CH2C3H3C5H2CH4C2HCHCHCHCPHC2SCFeSHC2HCHFeSFeS2CFeS2FeS2FeSFeS3C6H4C6H4CSCHC5HC6H5PC2H2CH2CH3CHPH2CSC5HC3H2C2FeCH4CHC2H2CFeC2H3CHCHCH2C2HC2HC2SH3CHC2HC5HCHCH3C2H3C2FeCHC6HC2PC5SCHC2H3C2SCSH3CHC4HC2H3C3HC3HC4H3C2H4C2SHSCHC6H2C2H4CHC2HCHC3H2CHCH5CHCH3CH4PCHCH2C2H2SH3C4H2C2H2C5HCHCHCHCHPHCH2C10H2C3H4FeHCH2C6H2SC3SH2C3SCHCHCH2CHCHFeHC2SCHFeS2FeS2FeSFeS3C2HCHCFeSFeS3HFeS3CHCSC13H4C3H2C6H4C6H4CSCHCHC2FeHC3SH5C6HPCH4C9HC2H3C7PC3HSH2C9HCH5C3H9CH2C3H6CHC2H3C4H4C2HPC3HC4HC4H2C4HCH2CHC3H2C3H2C2H2C4H2C4SCHC6H4CPC2HCHC2H2CH2CH3CHC2H2CHC3H4CH3C2HC3HFeCHPCHC2HSC2H2FeH4C2H2CH2C2PHC4H2C2H2C2HCH4CH2CHC3SPCH2C7H2FeH2C2SCH2SH2C3HSHFeSFeS2FeS2CFeH2C2FeS2FeS2FeSFeS3H3CHCH2PHFe2C2HCSC3H3CHCHCH2CSH2C9H4C6H4C6H4SCHFeC3SC2H2C2HSHC3H2CHC4PC19H24FeH3C4HCSC4HC6H3C2H8SH2CSC5HCH2SH4CHCHC6PC2SC9HC2HCFeHC3HC4HC2H3CH3CHCHCSHCPCHC2HC2HCHSCHCHCH2C2H3CH2PC2SH4C3H2CHFeSCHSCHCHC2HC2HFeSFeS2HFeS2FeS2FeSFeS3C6H4C6H4C2SHFeCH2C2H3CHFeHC4H2C8H4C2HCFeHCHCHFeHC3PC16H3SH11CHC2HC4H2C4H2C5FeHCHC4H4C3SHC4H2CH3C7PC8HCHSC6HCHSH6C3PCH3C2H2C2H2C2PCHC2H2CHC5HC4H2CH4PSH2CHC2SH3FeH2C2H4CH4CH3CSC2H4C2H2CS2CH4C2HC3HCFeH2CHCS2CHC2SFeCHSCFeSC2HFeC2FeSFeS2HFeS2FeS2FeSFeS3C6H4C6H4PCHC2HC2H2C6H4C4PC2H2CH4CH2CHC2H2C2HSCHCFeHSC7SC3H2CHCS2H2FeC2H5CHS2H3C2H2CHC4HSHC2HCHCHC3H2C2HC6PC18H20C2H2C3H4CHCH3C5HCHC2H2CFeHC3HCHCH2CHC3H2PH2CHC2H2CHC2PC7HC3HCHCHCH4C2H4C3H2SCHSH3C3H3C5H3CH2SFeH3CHCH2C2HC4FeS2FeS2FeSFeS3HC2HC2FeSFeS3CFeSCSH3CH2C3HSC6H4C2H3C6H4C6H11CHC3H8FeHPC10PC4SHCH2C2HC2H6CHC2H7C2HC2PC2HSC3H2C3HC4HCH3C3HCH2CHCHC2HCHCHC2H2CH2CH2CH2CHCHFeHCH2CH2SCH2CHC3HC2H2C2HC4HCHC3H3C2H2PCHC4PCHC2HC4HC4HFeH2SHC10PC2HC6HC3H2SC3SHC2HC4HC2H2C7SH4CH2C2HC3HCH3CH2C4FeHCHC5SCH5CPHSCFeSFeS2FeS2H4C2FeS2FeS2FeSFeS3PHC3HCH3CHCSH3FeC2H3CH2CFeH2C2FeHCH2C6H4C6H4C6H5C6PC18HCH19C2HCH3C3H2CHC2H4CH2C5PC18H3CH12C3H2C5H2SC4HC3SCHC3FeCHCH2C3HCH2C2H4SHCHCHC2SCH2C3HCHC2FeC8PCHCHCH3C11H4CHC4H7C2HC3H2PC2H3C2HCHCHSCHSCHCHCHCH3Fe2SCS2H2CHC2H2CFeS2FeS2FeSFeS3C2HCH3SFeS3C6H4C6H6C2H2C3H2C3HCH2SHC4HC6H4CHC5H4CHCH3FeC2HCH2CH2CH3C2HC2HCH3CHCHC2HC2H3CHCHCH2CH2CH2CH3C5HC5H2SC3FeC2SHPHC4HC4SHCH2CHC4HC3H2SHPHC2HC2HPCH2CHPCHC2H3C2HC2SHCH4CHC5PC7H2CH2CSH3CHC10HPHC3H2CFeHC2HC6HCHC2HCHFeCHCHCHC2H2C2H2CHC2H2CHCHFeHCH2C3H2CHC2HCHC3SC2HCPCH2CH2SHFeCSC2H2SCH3FeCFeSFeS3FeS2FeS2FeSFeS3C4H5C7H4C6H4C6H8C2H3SCH2C2H2CH2CHC2H4C4HCH4CHC3H2C6HCH4C4HC3HFeH3CH3C4H2C3HCHSH5C3HCH2SHSHCHCFeC3HC6PC2H4C2HSC2HC2H2CH2SCHC2H2CH2PH6C5HC4H3C2H2CHPC15HC5H4CH3C3H2C3H2CHC2HPHC2HPC14H2CH2C3HCHC2HC2H3C2FeCH3S2FeH2CH2C2FeS2FeS2HSC2H2FeS2FeS2FeSFeS4HCHFeSH3C8H4C6H4C6H4C2H3CFeCH2CH3C2HC2H2CHC2HCHCHSC4H2CHSHC2HCH6CHCHCH3CSHSH3FeCH4CH2SHCPC6PC4HC13H7C2H8SH4CH5C3HC6PC4PC2H2C9H4CH5CH8CHC2HC4HCHCHSCH2C4HCHC3H2CHC5HCHCHCH5C3PC8H2CHCH2CH5C8PC11HCHC5H2FeHC3HCFeC2H6C7FeH2CHCHSC2FeCSHCSHFeS2FeS2FeSFeS3FeS2Fe2SHSCHCHC2H3CFeHC3H3CH2PCHC3HC7H4C6H4C6H4C4H2C4HCPHSHC2HCH2CHCH2C3HC2HC2HCH3C8HC2H2C5PC2H4C2H5C2H2CH2C4PC19FeH15CH2C7PC2HCSHC4HCH6C2H2C2HCH3CHCSH2C2HCPSHC2H2C2H2C4PH4CHC6HC8H5CHC2H4C2HFeH2C2H2C3H2C2SC3H2CHCHC2SCHSC2H2C2H3CH3CH2C2HC2H3SCHC2H2C2H3SC3HFeCHCHSCH2FeHSHCSHC3HCFeC2FeS2FeS2FeSFeS3HC2HC2FeSFeS3C6H4C6H7SC5HCHCHC3HCSCHCHC7H4C2FeCHC5HPC13H12C2HCH2C5PC13HCSH3CH7CH5C3PC14HC2HSH10CHPHC2HCHC3HC2H2CSC3HCH3C2HC3H2SH2C2PCHCH3CHC13H2CHCHCHC2H6C9HFeC2FeCH4CHC2H2CH5PH2CH3CHCHC2H2SCHCSH2C9H4C2HC7HCHPHCH2CHPH2CSH2CH7C2HC4HCH2C2H2C2SHCH2C4H2C3HCH3CH6C4FeCHC5FeHSHC2HSH2CH3FeSFeS3FeS2FeS2FeSFeS3C3H2CHSHC7H4C6H4C6H7C3H6C5H2C2H2CHC6PC18HCH18CSH2C2HCPCH4C3PC10HC7HC2H4CSH4CH6C2HCH2C4HPC3HC4HC6H2CH6C4HCHSC7SC2H2SH2C2HSCFeCPHC3H2C3HC2H2C6H4CFeC2HC2H2CHCH3SHCHFeHCSFeH3C2H2C3H3SHCFeS2FeS2HCHCHCFeS2FeS2FeSFeS4CHCFeSCH3C7H4C6H4C6H4C3HCHCHC2HC3HCSHPH3CSCHPCHCH3CH3CH3C3HC4HCHCH3CHC2HCH2CFeH3CHCH2CHC6H2SH2CH3CH2FeHC5SHC4HC3PC18H18C3H3CH4C6HC7SHFeH6CH3C2HCPHC2PC4H2C10H9C4SCH3CH3C3SC5HCHC2HCH3CHSCHC3SHSC3HCFeHCHC5H2Fe3C2HC2S2CSCFeS2FeS2FeSFeS3FeS2FeS2C2H7CFeC3HSC2HCH5PC3HC7H4C6H4C6H4C2HC3H2C2HC4PC19HSH17C6PHC6HC9H8CHCH6CHSCHCH5C2H2C2PCH2CH2C4H2C4HCH2C2HCSH2CH2CSCH3CHC7HSCH3FeH2CH2C4H2CH3CHCPCFeC2HCHCHCH2CHC6HC4HC2HCH2C2PS2CH7CSHC3HFeC5H2CHC2H3C4H2PH3CHCHC5H
_chemical_formula_sum              "S384 C2880 Fe192 H2304 P96"
_cell_length_a       55.1305
_cell_length_b       45.9683
_cell_length_c       75.8611
_cell_angle_alpha    90.1833
_cell_angle_beta     89.9982
_cell_angle_gamma    89.4799

_space_group_name_H-M_alt    "P 1"
_space_group_IT_number       1

loop_
  _space_group_symop_operation_xyz
  'x, y, z'

loop_
  _atom_site_type_symbol
  _atom_site_label
  _atom_site_symmetry_multiplicity
  _atom_site_fract_x
  _atom_site_fract_y
  _atom_site_fract_z
  _atom_site_occupancy
  S   S1        1.0  0.01723  0.28720  0.23642  1.0000
  C   C1        1.0  0.47039  0.25950  0.24491  1.0000
  Fe  Fe1       1.0  0.02538  0.27898  0.20760  1.0000
  S   S2        1.0  0.06536  0.27747  0.19905  1.0000
  H   H1        1.0  0.02839  0.19587  0.22785  1.0000
  C   C2        1.0  0.17233  0.12668  0.03819  1.0000
  H   H2        1.0  0.45194  0.29157  0.22862  1.0000
  C   C3        1.0  0.03883  0.36679  0.21930  1.0000
  H   H3        1.0  0.47596  0.08662  0.16749  1.0000
  C   C4        1.0  0.37571  0.07427  0.20497  1.0000
  H   H4        1.0  0.06813  0.33552  0.22026  1.0000
  H   H5        1.0  0.25801  0.45664  0.05269  1.0000
  H   H6        1.0  0.00552  0.39581  0.15123  1.0000
  C   C5        1.0  0.45516  0.14764  0.22484  1.0000
  Fe  Fe2       1.0  0.28803  0.05442  0.11490  1.0000
  S   S3        1.0  0.25709  0.08251  0.12570  1.0000
  Fe  Fe3       1.0  0.27630  0.49283  0.09908  1.0000
  S   S4        1.0  0.25670  0.45185  0.09029  1.0000
  S   S5        1.0  0.31974  0.06989  0.09915  1.0000
  S   S6        1.0  0.31697  0.49661  0.09770  1.0000
  Fe  Fe4       1.0  0.19736  0.30826  0.11904  1.0000
  S   S7        1.0  0.16136  0.31016  0.10530  1.0000
  S   S8        1.0  0.21332  0.34630  0.13416  1.0000
  Fe  Fe5       1.0  0.20749  0.24518  0.10729  1.0000
  S   S9        1.0  0.17219  0.24259  0.09252  1.0000
  S   S10       1.0  0.24004  0.21477  0.10384  1.0000
  Fe  Fe6       1.0  0.18028  0.28737  0.08287  1.0000
  S   S11       1.0  0.17901  0.30466  0.05502  1.0000
  Fe  Fe7       1.0  0.15572  0.26527  0.11638  1.0000
  S   S12       1.0  0.11778  0.25120  0.12522  1.0000
  S   S13       1.0  0.21650  0.28879  0.09589  1.0000
  S   S14       1.0  0.19075  0.26471  0.13184  1.0000
  C   C6        1.0  0.24386  0.42388  0.10324  1.0000
  C   C7        1.0  0.24724  0.42199  0.12148  1.0000
  C   C8        1.0  0.23764  0.39825  0.13090  1.0000
  C   C9        1.0  0.22469  0.37627  0.12214  1.0000
  C   C10       1.0  0.22106  0.37846  0.10396  1.0000
  C   C11       1.0  0.23031  0.40234  0.09467  1.0000
  H   H7        1.0  0.25747  0.43857  0.12827  1.0000
  H   H8        1.0  0.24047  0.39678  0.14497  1.0000
  H   H9        1.0  0.21097  0.36186  0.09706  1.0000
  H   H10       1.0  0.22691  0.40421  0.08071  1.0000
  C   C12       1.0  0.25194  0.11884  0.11879  1.0000
  C   C13       1.0  0.26933  0.13400  0.10915  1.0000
  C   C14       1.0  0.26519  0.16329  0.10463  1.0000
  C   C15       1.0  0.24357  0.17763  0.10946  1.0000
  C   C16       1.0  0.22590  0.16234  0.11874  1.0000
  C   C17       1.0  0.23016  0.13308  0.12347  1.0000
  H   H11       1.0  0.28616  0.12334  0.10551  1.0000
  H   H12       1.0  0.27897  0.17511  0.09757  1.0000
  H   H13       1.0  0.20923  0.17320  0.12259  1.0000
  H   H14       1.0  0.21663  0.12148  0.13093  1.0000
  C   C18       1.0  0.16516  0.25353  0.03860  1.0000
  C   C19       1.0  0.17483  0.28142  0.03680  1.0000
  C   C20       1.0  0.21649  0.21096  0.02551  1.0000
  H   H15       1.0  0.16070  0.24537  0.05154  1.0000
  C   C21       1.0  0.29147  0.11208  0.03508  1.0000
  H   H16       1.0  0.43378  0.06876  0.22016  1.0000
  H   H17       1.0  0.11684  0.31624  0.12597  1.0000
  H   H18       1.0  0.11942  0.11145  0.16577  1.0000
  C   C22       1.0  0.29849  0.11930  0.05222  1.0000
  H   H19       1.0  0.34517  0.30107  0.03744  1.0000
  C   C23       1.0  0.05753  0.35001  0.21198  1.0000
  C   C24       1.0  0.07557  0.23449  0.24419  1.0000
  H   H20       1.0  0.29445  0.50736  0.04986  1.0000
  C   C25       1.0  0.30481  0.41267  0.04007  1.0000
  H   H21       1.0  0.03776  0.23210  0.25079  1.0000
  C   C26       1.0  0.42850  0.03999  0.16607  1.0000
  H   H22       1.0  0.04035  0.10828  0.19069  1.0000
  H   H23       1.0  0.18755  0.31354  0.01848  1.0000
  H   H24       1.0  0.29950  0.40533  0.13952  1.0000
  H   H25       1.0  0.29899  0.15250  0.07223  1.0000
  C   C27       1.0  0.13159  0.34463  0.14582  1.0000
  H   H26       1.0  0.32032  0.44355  0.12250  1.0000
  C   C28       1.0  0.48427  0.30889  0.24000  1.0000
  C   C29       1.0  0.11191  0.13252  0.16933  1.0000
  C   C30       1.0  0.24632  0.36641  0.05560  1.0000
  C   C31       1.0  0.10331  0.25978  0.14564  1.0000
  C   C32       1.0  0.07843  0.25399  0.14769  1.0000
  C   C33       1.0  0.06642  0.25977  0.16379  1.0000
  C   C34       1.0  0.07918  0.27118  0.17813  1.0000
  C   C35       1.0  0.10406  0.27689  0.17608  1.0000
  C   C36       1.0  0.11605  0.27133  0.15996  1.0000
  H   H27       1.0  0.06838  0.24490  0.13678  1.0000
  H   H28       1.0  0.04738  0.25495  0.16521  1.0000
  H   H29       1.0  0.11419  0.28562  0.18708  1.0000
  H   H30       1.0  0.13520  0.27582  0.15866  1.0000
  H   H31       1.0  0.36523  0.26088  0.22319  1.0000
  H   H32       1.0  0.27396  0.38492  0.07183  1.0000
  H   H33       1.0  0.08158  0.41619  0.14626  1.0000
  H   H34       1.0  0.38681  0.32143  0.08368  1.0000
  H   H35       1.0  0.36182  0.09057  0.20251  1.0000
  C   C37       1.0  0.09299  0.18696  0.17873  1.0000
  C   C38       1.0  0.32566  0.04647  0.22864  1.0000
  C   C39       1.0  0.12126  0.15770  0.16172  1.0000
  H   H36       1.0  0.42930  0.06185  0.10265  1.0000
  C   C40       1.0  0.29547  0.08388  0.16438  1.0000
  H   H37       1.0  0.08625  0.20835  0.18245  1.0000
  C   C41       1.0  0.28204  0.16777  0.04831  1.0000
  C   C42       1.0  0.24207  0.31419  0.05687  1.0000
  C   C43       1.0  0.09297  0.13450  0.18159  1.0000
  H   H38       1.0  0.23998  0.38734  0.05092  1.0000
  H   H39       1.0  0.30412  0.11164  0.14251  1.0000
  C   C44       1.0  0.41179  0.03280  0.21182  1.0000
  H   H40       1.0  0.35226  0.02333  0.04269  1.0000
  C   C45       1.0  0.28855  0.02808  0.24142  1.0000
  C   C46       1.0  0.31131  0.09763  0.15278  1.0000
  H   H41       1.0  0.03493  0.36558  0.23330  1.0000
  C   C47       1.0  0.41427  0.25318  0.19631  1.0000
  C   C48       1.0  0.43158  0.24482  0.20884  1.0000
  S   S15       1.0  0.00069  0.24058  0.20589  1.0000
  H   H42       1.0  0.45026  0.37765  0.25432  1.0000
  C   C49       1.0  0.47470  0.01536  0.11535  1.0000
  C   C50       1.0  0.03641  0.08237  0.21402  1.0000
  H   H43       1.0  0.48056  0.36676  0.19871  1.0000
  C   C51       1.0  0.11182  0.18490  0.16644  1.0000
  C   C52       1.0  0.04773  0.36859  0.18281  1.0000
  H   H44       1.0  0.32277  0.40601  0.04429  1.0000
  C   C53       1.0  0.46302  0.04151  0.11062  1.0000
  Fe  Fe8       1.0  0.34240  0.03849  0.11544  1.0000
  H   H45       1.0  0.40661  0.01581  0.10171  1.0000
  C   C54       1.0  0.30449  0.40129  0.12591  1.0000
  C   C55       1.0  0.38378  0.25645  0.21920  1.0000
  H   H46       1.0  0.07937  0.25092  0.25405  1.0000
  H   H47       1.0  0.41936  0.25506  0.18256  1.0000
  C   C56       1.0  0.03202  0.33984  0.15011  1.0000
  H   H48       1.0  0.05072  0.10392  0.25561  1.0000
  C   C57       1.0  0.05648  0.44883  0.13756  1.0000
  C   C58       1.0  0.23438  0.34114  0.05044  1.0000
  C   C59       1.0  0.34137  0.02532  0.03088  1.0000
  H   H49       1.0  0.12959  0.31670  0.04452  1.0000
  C   C60       1.0  0.46746  0.28683  0.23687  1.0000
  H   H50       1.0  0.41326  0.07680  0.15212  1.0000
  C   C61       1.0  0.08318  0.16176  0.18631  1.0000
  H   H51       1.0  0.40174  0.10576  0.21393  1.0000
  H   H52       1.0  0.27607  0.08736  0.16301  1.0000
  H   H53       1.0  0.30787  0.23950  0.11891  1.0000
  P   P1        1.0  0.18588  0.14725  0.05588  1.0000
  C   C62       1.0  0.16320  0.16399  0.06990  1.0000
  C   C63       1.0  0.20373  0.12085  0.06782  1.0000
  C   C64       1.0  0.19217  0.10103  0.07901  1.0000
  C   C65       1.0  0.20568  0.07972  0.08780  1.0000
  C   C66       1.0  0.23062  0.07733  0.08495  1.0000
  C   C67       1.0  0.24218  0.09648  0.07353  1.0000
  C   C68       1.0  0.22884  0.11831  0.06501  1.0000
  C   C69       1.0  0.16568  0.16373  0.08834  1.0000
  C   C70       1.0  0.14787  0.17664  0.09902  1.0000
  C   C71       1.0  0.12787  0.19059  0.09138  1.0000
  C   C72       1.0  0.12578  0.19189  0.07303  1.0000
  C   C73       1.0  0.14346  0.17886  0.06233  1.0000
  C   C74       1.0  0.20420  0.17701  0.04826  1.0000
  C   C75       1.0  0.38937  0.02404  0.20515  1.0000
  C   C76       1.0  0.16071  0.23650  0.02350  1.0000
  C   C77       1.0  0.22986  0.22662  0.03791  1.0000
  C   C78       1.0  0.23050  0.21751  0.05546  1.0000
  C   C79       1.0  0.21784  0.19272  0.06058  1.0000
  C   C80       1.0  0.04678  0.20368  0.22910  1.0000
  H   H54       1.0  0.23232  0.29472  0.05320  1.0000
  H   H55       1.0  0.39538  0.24589  0.24535  1.0000
  H   H56       1.0  0.17275  0.10219  0.08106  1.0000
  H   H57       1.0  0.19695  0.06504  0.09693  1.0000
  H   H58       1.0  0.24107  0.06087  0.09183  1.0000
  H   H59       1.0  0.26158  0.09449  0.07158  1.0000
  H   H60       1.0  0.23812  0.13300  0.05623  1.0000
  H   H61       1.0  0.18154  0.15418  0.09454  1.0000
  H   H62       1.0  0.14999  0.17679  0.11323  1.0000
  H   H63       1.0  0.11446  0.20125  0.09971  1.0000
  H   H64       1.0  0.07068  0.46369  0.13372  1.0000
  H   H65       1.0  0.21885  0.34243  0.04169  1.0000
  C   C81       1.0  0.04345  0.10721  0.20478  1.0000
  H   H66       1.0  0.02745  0.47777  0.12983  1.0000
  H   H67       1.0  0.23918  0.24621  0.03401  1.0000
  H   H68       1.0  0.24037  0.22993  0.06526  1.0000
  H   H69       1.0  0.21814  0.18622  0.07429  1.0000
  H   H70       1.0  0.34920  0.33447  0.09966  1.0000
  C   C82       1.0  0.02885  0.38528  0.19030  1.0000
  H   H71       1.0  0.14089  0.37386  0.16689  1.0000
  C   C83       1.0  0.12624  0.36407  0.15950  1.0000
  C   C84       1.0  0.13002  0.35203  0.01665  1.0000
  C   C85       1.0  0.10208  0.37072  0.16364  1.0000
  P   P2        1.0  0.44783  0.23147  0.24252  1.0000
  C   C86       1.0  0.08917  0.20247  0.22073  1.0000
  H   H72       1.0  0.26690  0.29146  0.07379  1.0000
  H   H73       1.0  0.27031  0.24524  0.13654  1.0000
  H   H74       1.0  0.10406  0.19372  0.21306  1.0000
  H   H75       1.0  0.47148  0.04602  0.14665  1.0000
  S   S16       1.0  0.46488  0.43359  0.24159  1.0000
  C   C87       1.0  0.05338  0.13107  0.21379  1.0000
  C   C88       1.0  0.36838  0.31034  0.05956  1.0000
  C   C89       1.0  0.00538  0.32265  0.12681  1.0000
  H   H76       1.0  0.34851  0.10240  0.14472  1.0000
  C   C90       1.0  0.27337  0.33791  0.07416  1.0000
  P   P3        1.0  0.34141  0.03352  0.19434  1.0000
  C   C91       1.0  0.31616  0.42289  0.11629  1.0000
  H   H77       1.0  0.11066  0.20341  0.06710  1.0000
  C   C92       1.0  0.28370  0.01299  0.22581  1.0000
  H   H78       1.0  0.26615  0.17707  0.02321  1.0000
  C   C93       1.0  0.29375  0.14711  0.05886  1.0000
  H   H79       1.0  0.13697  0.12305  0.05051  1.0000
  C   C94       1.0  0.32218  0.41794  0.09864  1.0000
  C   C95       1.0  0.03079  0.17438  0.19063  1.0000
  H   H80       1.0  0.33113  0.43476  0.09116  1.0000
  C   C96       1.0  0.29867  0.37480  0.11791  1.0000
  H   H81       1.0  0.00431  0.27677  0.16187  1.0000
  H   H82       1.0  0.02820  0.06433  0.20709  1.0000
  H   H83       1.0  0.44081  0.18063  0.26605  1.0000
  C   C97       1.0  0.32102  0.03118  0.21296  1.0000
  H   H84       1.0  0.24574  0.29055  0.13425  1.0000
  S   S17       1.0  0.48944  0.48224  0.20188  1.0000
  C   C98       1.0  0.04929  0.10462  0.24135  1.0000
  C   C99       1.0  0.03107  0.19253  0.17575  1.0000
  C   C100      1.0  0.09418  0.22356  0.23352  1.0000
  C   C101      1.0  0.29132  0.43225  0.05034  1.0000
  S   S18       1.0  0.49338  0.05373  0.20248  1.0000
  S   S19       1.0  0.27943  0.01759  0.09649  1.0000
  H   H85       1.0  0.06667  0.26455  0.03336  1.0000
  H   H86       1.0  0.28956  0.35871  0.12575  1.0000
  H   H87       1.0  0.20763  0.02673  0.06848  1.0000
  C   C102      1.0  0.25886  0.43100  0.02886  1.0000
  C   C103      1.0  0.48905  0.11485  0.26126  1.0000
  C   C104      1.0  0.06524  0.19304  0.21802  1.0000
  H   H88       1.0  0.29175  0.05400  0.18567  1.0000
  H   H89       1.0  0.25771  0.32911  0.11367  1.0000
  C   C105      1.0  0.46079  0.19778  0.23425  1.0000
  H   H90       1.0  0.32088  0.27848  0.09889  1.0000
  C   C106      1.0  0.40104  0.24806  0.23177  1.0000
  C   C107      1.0  0.32461  0.31570  0.06000  1.0000
  H   H91       1.0  0.32113  0.38811  0.07689  1.0000
  H   H92       1.0  0.05587  0.32381  0.04126  1.0000
  H   H93       1.0  0.44048  0.05299  0.17408  1.0000
  H   H94       1.0  0.03276  0.06251  0.23964  1.0000
  C   C108      1.0  0.26569  0.36489  0.06748  1.0000
  H   H95       1.0  0.36466  0.06895  0.16720  1.0000
  C   C109      1.0  0.31640  0.39151  0.09059  1.0000
  C   C110      1.0  0.29982  0.01457  0.21162  1.0000
  H   H96       1.0  0.22095  0.04644  0.02841  1.0000
  H   H97       1.0  0.11915  0.20449  0.16063  1.0000
  H   H98       1.0  0.12116  0.35962  0.02857  1.0000
  H   H99       1.0  0.20579  0.12273  0.02359  1.0000
  H   H100      1.0  0.38492  0.30466  0.05257  1.0000
  H   H101      1.0  0.99733  0.32540  0.11389  1.0000
  C   C111      1.0  0.03911  0.08121  0.23232  1.0000
  H   H102      1.0  0.15035  0.33935  0.14267  1.0000
  C   C112      1.0  0.24348  0.07953  0.01705  1.0000
  H   H103      1.0  0.08627  0.11472  0.18741  1.0000
  H   H104      1.0  0.30752  0.31408  0.05309  1.0000
  H   H105      1.0  0.44359  0.12891  0.22320  1.0000
  H   H106      1.0  0.04775  0.20141  0.17083  1.0000
  C   C113      1.0  0.39040  0.25906  0.20149  1.0000
  C   C114      1.0  0.05652  0.12940  0.23217  1.0000
  H   H107      1.0  0.13595  0.15621  0.15225  1.0000
  H   H108      1.0  0.42581  0.01667  0.21428  1.0000
  C   C115      1.0  0.09772  0.29262  0.03666  1.0000
  C   C116      1.0  0.08112  0.27136  0.04207  1.0000
  C   C117      1.0  0.08283  0.25904  0.05889  1.0000
  C   C118      1.0  0.10122  0.26769  0.07041  1.0000
  C   C119      1.0  0.11790  0.28851  0.06504  1.0000
  C   C120      1.0  0.11619  0.30094  0.04828  1.0000
  H   H109      1.0  0.09822  0.38588  0.17426  1.0000
  C   C121      1.0  0.41295  0.05343  0.15366  1.0000
  C   C122      1.0  0.32957  0.05945  0.17855  1.0000
  C   C123      1.0  0.03214  0.45674  0.13535  1.0000
  C   C124      1.0  0.47920  0.40869  0.25640  1.0000
  C   C125      1.0  0.06260  0.42174  0.14474  1.0000
  H   H110      1.0  0.00977  0.21468  0.15599  1.0000
  C   C126      1.0  0.36945  0.31976  0.07708  1.0000
  C   C127      1.0  0.05202  0.22414  0.24219  1.0000
  C   C128      1.0  0.26834  0.44124  0.04477  1.0000
  C   C129      1.0  0.26152  0.31252  0.06865  1.0000
  C   C130      1.0  0.34598  0.30832  0.05103  1.0000
  C   C131      1.0  0.31653  0.03137  0.03227  1.0000
  H   H111      1.0  0.06988  0.24287  0.06305  1.0000
  H   H112      1.0  0.10268  0.25827  0.08348  1.0000
  H   H113      1.0  0.13238  0.29494  0.07382  1.0000
  H   H114      1.0  0.37699  0.26557  0.19178  1.0000
  C   C132      1.0  0.06194  0.35083  0.19383  1.0000
  C   C133      1.0  0.30450  0.06484  0.17719  1.0000
  P   P4        1.0  0.05190  0.36718  0.15914  1.0000
  C   C134      1.0  0.08307  0.35791  0.15410  1.0000
  C   C135      1.0  0.27229  0.41139  0.01838  1.0000
  H   H115      1.0  0.34679  0.01408  0.15767  1.0000
  H   H116      1.0  0.30731  0.10304  0.06042  1.0000
  C   C136      1.0  0.18689  0.11669  0.02422  1.0000
  H   H117      1.0  0.49210  0.23437  0.26320  1.0000
  C   C137      1.0  0.02457  0.38449  0.20847  1.0000
  C   C138      1.0  0.08862  0.33825  0.14047  1.0000
  C   C139      1.0  0.11277  0.33179  0.13633  1.0000
  C   C140      1.0  0.04435  0.40231  0.14979  1.0000
  Fe  Fe9       1.0  0.49252  0.04918  0.23209  1.0000
  H   H118      1.0  0.07596  0.33681  0.18840  1.0000
  H   H119      1.0  0.19212  0.17580  0.02101  1.0000
  S   S20       1.0  0.99693  0.31119  0.19870  1.0000
  C   C141      1.0  0.13856  0.09923  0.02623  1.0000
  C   C142      1.0  0.27531  0.16072  0.03102  1.0000
  C   C143      1.0  0.18036  0.29186  0.01995  1.0000
  H   H120      1.0  0.07444  0.32758  0.13309  1.0000
  P   P5        1.0  0.05860  0.16480  0.20214  1.0000
  C   C144      1.0  0.01992  0.41044  0.14745  1.0000
  C   C145      1.0  0.44556  0.17396  0.23113  1.0000
  C   C146      1.0  0.26237  0.28815  0.12673  1.0000
  C   C147      1.0  0.27631  0.26276  0.12811  1.0000
  C   C148      1.0  0.29745  0.25954  0.11810  1.0000
  C   C149      1.0  0.30471  0.28175  0.10672  1.0000
  C   C150      1.0  0.29067  0.30731  0.10521  1.0000
  C   C151      1.0  0.26930  0.31011  0.11513  1.0000
  P   P6        1.0  0.29832  0.33524  0.08949  1.0000
  C   C152      1.0  0.30451  0.36971  0.10012  1.0000
  C   C153      1.0  0.32555  0.32514  0.07763  1.0000
  C   C154      1.0  0.34812  0.32713  0.08609  1.0000
  S   S21       1.0  0.47648  0.08318  0.25121  1.0000
  C   C155      1.0  0.33625  0.09247  0.15406  1.0000
  H   H121      1.0  0.15288  0.21517  0.02485  1.0000
  H   H122      1.0  0.48157  0.33027  0.23429  1.0000
  H   H123      1.0  0.34171  0.05961  0.23005  1.0000
  C   C156      1.0  0.29532  0.40220  0.02418  1.0000
  C   C157      1.0  0.99880  0.29896  0.13723  1.0000
  C   C158      1.0  0.00941  0.29514  0.15377  1.0000
  C   C159      1.0  0.42513  0.24242  0.22667  1.0000
  H   H124      1.0  0.29857  0.44067  0.06261  1.0000
  H   H125      1.0  0.06376  0.14746  0.23961  1.0000
  C   C160      1.0  0.20345  0.18642  0.03067  1.0000
  H   H126      1.0  0.27812  0.18922  0.05360  1.0000
  C   C161      1.0  0.03696  0.36088  0.03093  1.0000
  C   C162      1.0  0.39688  0.03690  0.14333  1.0000
  H   H127      1.0  0.00743  0.15027  0.20824  1.0000
  H   H128      1.0  0.42633  0.17557  0.23393  1.0000
  H   H129      1.0  0.45003  0.24026  0.20465  1.0000
  S   S22       1.0  0.37802  0.05481  0.12756  1.0000
  Fe  Fe10      1.0  0.47675  0.47758  0.23013  1.0000
  H   H130      1.0  0.11248  0.23148  0.23512  1.0000
  H   H131      1.0  0.02692  0.36119  0.12494  1.0000
  H   H132      1.0  0.47263  0.06194  0.11120  1.0000
  C   C163      1.0  0.37105  0.04469  0.20181  1.0000
  S   S23       1.0  0.30176  0.03778  0.05267  1.0000
  H   H133      1.0  0.24123  0.43889  0.02479  1.0000
  C   C164      1.0  0.43859  0.04157  0.10565  1.0000
  H   H134      1.0  0.14183  0.18049  0.04814  1.0000
  C   C165      1.0  0.34536  0.07343  0.16685  1.0000
  C   C166      1.0  0.46759  0.38230  0.26034  1.0000
  C   C167      1.0  0.05478  0.33902  0.03043  1.0000
  C   C168      1.0  0.14824  0.11715  0.03936  1.0000
  H   H135      1.0  0.02458  0.36224  0.04201  1.0000
  C   C169      1.0  0.30950  0.04482  0.24282  1.0000
  C   C170      1.0  0.39826  0.08295  0.21151  1.0000
  C   C171      1.0  0.00839  0.16386  0.19666  1.0000
  H   H136      1.0  0.31322  0.05659  0.25491  1.0000
  S   S24       1.0  0.31082  0.02588  0.13244  1.0000
  C   C172      1.0  0.41629  0.06219  0.21501  1.0000
  C   C173      1.0  0.30270  0.03404  0.01683  1.0000
  C   C174      1.0  0.02203  0.34297  0.13317  1.0000
  H   H137      1.0  0.03455  0.31171  0.17281  1.0000
  Fe  Fe11      1.0  0.31247  0.03155  0.08139  1.0000
  C   C175      1.0  0.43491  0.22728  0.26426  1.0000
  H   H138      1.0  0.27602  0.02688  0.25240  1.0000
  H   H139      1.0  0.01703  0.39849  0.18224  1.0000
  C   C176      1.0  0.00945  0.20005  0.16716  1.0000
  H   H140      1.0  0.24322  0.09265  0.02891  1.0000
  H   H141      1.0  0.29466  0.09013  0.03044  1.0000
  C   C177      1.0  0.28025  0.13282  0.02417  1.0000
  C   C178      1.0  0.02623  0.31526  0.16007  1.0000
  C   C179      1.0  0.48907  0.05600  0.14811  1.0000
  H   H142      1.0  0.26134  0.29811  0.02044  1.0000
  H   H143      1.0  0.00967  0.39689  0.21417  1.0000
  H   H144      1.0  0.27453  0.34909  0.01994  1.0000
  C   C180      1.0  0.47989  0.14511  0.22116  1.0000
  C   C181      1.0  0.01387  0.43754  0.14029  1.0000
  C   C182      1.0  0.29524  0.50208  0.02161  1.0000
  C   C183      1.0  0.48562  0.19516  0.23028  1.0000
  C   C184      1.0  0.49007  0.25487  0.25631  1.0000
  H   H145      1.0  0.48538  0.41774  0.20827  1.0000
  H   H146      1.0  0.15685  0.38582  0.01744  1.0000
  C   C185      1.0  0.49156  0.07897  0.16006  1.0000
  H   H147      1.0  0.28348  0.03840  0.01777  1.0000
  H   H148      1.0  0.24894  0.03191  0.05584  1.0000
  H   H149      1.0  0.28147  0.48555  0.02155  1.0000
  H   H150      1.0  0.48739  0.12443  0.21677  1.0000
  C   C186      1.0  0.42573  0.01556  0.10511  1.0000
  C   C187      1.0  0.23992  0.01105  0.05550  1.0000
  H   H151      1.0  0.11991  0.09213  0.02715  1.0000
  C   C188      1.0  0.49508  0.16890  0.22377  1.0000
  H   H152      1.0  0.35679  0.50954  0.18156  1.0000
  C   C189      1.0  0.03521  0.38107  0.01724  1.0000
  H   H153      1.0  0.02147  0.39807  0.01769  1.0000
  C   C190      1.0  0.23083  0.05329  0.01683  1.0000
  H   H154      1.0  0.23917  0.03901  0.47856  1.0000
  C   C191      1.0  0.47460  0.30217  0.38005  1.0000
  P   P7        1.0  0.14494  0.12967  0.37892  1.0000
  H   H155      1.0  0.12645  0.45980  0.36318  1.0000
  C   C192      1.0  0.20565  0.19643  0.36991  1.0000
  C   C193      1.0  0.35644  0.46150  0.37943  1.0000
  S   S25       1.0  0.47694  0.26664  0.30015  1.0000
  C   C194      1.0  0.40779  0.33490  0.31663  1.0000
  Fe  Fe12      1.0  0.46700  0.26429  0.32913  1.0000
  S   S26       1.0  0.42645  0.26744  0.33608  1.0000
  H   H156      1.0  0.23654  0.46241  0.36469  1.0000
  C   C195      1.0  0.19964  0.12461  0.49797  1.0000
  C   C196      1.0  0.27136  0.01657  0.46971  1.0000
  H   H157      1.0  0.26952  0.14840  0.45848  1.0000
  C   C197      1.0  0.45010  0.34833  0.31618  1.0000
  H   H158      1.0  0.26348  0.41885  0.36504  1.0000
  Fe  Fe13      1.0  0.20702  0.04266  0.41914  1.0000
  S   S27       1.0  0.23361  0.07347  0.40586  1.0000
  Fe  Fe14      1.0  0.21500  0.48915  0.43732  1.0000
  S   S28       1.0  0.23315  0.44733  0.44683  1.0000
  S   S29       1.0  0.17389  0.06005  0.43276  1.0000
  C   C198      1.0  0.11469  0.03084  0.37570  1.0000
  Fe  Fe15      1.0  0.28089  0.23547  0.43103  1.0000
  S   S30       1.0  0.31835  0.23368  0.44286  1.0000
  S   S31       1.0  0.25254  0.20070  0.43686  1.0000
  Fe  Fe16      1.0  0.28786  0.29788  0.41813  1.0000
  S   S32       1.0  0.32582  0.30004  0.42866  1.0000
  S   S33       1.0  0.27175  0.33710  0.40391  1.0000
  Fe  Fe17      1.0  0.33082  0.25505  0.41761  1.0000
  S   S34       1.0  0.36790  0.24003  0.40712  1.0000
  Fe  Fe18      1.0  0.31067  0.27882  0.45281  1.0000
  S   S35       1.0  0.32201  0.29856  0.47900  1.0000
  S   S36       1.0  0.29362  0.25391  0.40510  1.0000
  S   S37       1.0  0.27234  0.27956  0.44297  1.0000
  C   C199      1.0  0.24216  0.41639  0.43444  1.0000
  C   C200      1.0  0.25075  0.39182  0.44354  1.0000
  C   C201      1.0  0.25937  0.36715  0.43439  1.0000
  C   C202      1.0  0.25927  0.36673  0.41596  1.0000
  C   C203      1.0  0.25001  0.39098  0.40684  1.0000
  C   C204      1.0  0.24172  0.41589  0.41602  1.0000
  H   H159      1.0  0.25088  0.39198  0.45778  1.0000
  H   H160      1.0  0.26632  0.34860  0.44160  1.0000
  H   H161      1.0  0.24960  0.39057  0.39261  1.0000
  H   H162      1.0  0.23524  0.43475  0.40887  1.0000
  C   C205      1.0  0.24742  0.16583  0.42742  1.0000
  C   C206      1.0  0.25953  0.15581  0.41235  1.0000
  C   C207      1.0  0.25488  0.12766  0.40570  1.0000
  C   C208      1.0  0.23839  0.10914  0.41418  1.0000
  C   C209      1.0  0.22620  0.11931  0.42917  1.0000
  C   C210      1.0  0.23056  0.14752  0.43561  1.0000
  H   H163      1.0  0.27239  0.16974  0.40581  1.0000
  H   H164      1.0  0.26427  0.12008  0.39402  1.0000
  H   H165      1.0  0.21352  0.10537  0.43587  1.0000
  H   H166      1.0  0.22120  0.15501  0.44725  1.0000
  C   C211      1.0  0.17898  0.03222  0.50144  1.0000
  S   S38       1.0  0.99589  0.06488  0.32216  1.0000
  C   C212      1.0  0.29862  0.23786  0.51356  1.0000
  H   H167      1.0  0.13425  0.03153  0.37654  1.0000
  C   C213      1.0  0.29696  0.40574  0.47305  1.0000
  C   C214      1.0  0.33644  0.10369  0.48003  1.0000
  C   C215      1.0  0.31557  0.27942  0.49852  1.0000
  C   C216      1.0  0.30283  0.25333  0.49796  1.0000
  C   C217      1.0  0.02410  0.50529  0.41012  1.0000
  H   H168      1.0  0.29666  0.24477  0.48545  1.0000
  C   C218      1.0  0.41064  0.25994  0.35605  1.0000
  C   C219      1.0  0.38592  0.26764  0.35741  1.0000
  C   C220      1.0  0.37258  0.26194  0.37291  1.0000
  C   C221      1.0  0.38383  0.24841  0.38730  1.0000
  C   C222      1.0  0.40858  0.24084  0.38595  1.0000
  C   C223      1.0  0.42193  0.24664  0.37048  1.0000
  H   H169      1.0  0.37698  0.27800  0.34637  1.0000
  H   H170      1.0  0.35357  0.26784  0.37367  1.0000
  H   H171      1.0  0.41749  0.23034  0.39695  1.0000
  H   H172      1.0  0.44090  0.24057  0.36968  1.0000
  H   H173      1.0  0.41124  0.26858  0.29771  1.0000
  P   P8        1.0  0.32223  0.46259  0.40644  1.0000
  C   C224      1.0  0.34342  0.47898  0.39143  1.0000
  C   C225      1.0  0.13977  0.47808  0.33869  1.0000
  H   H174      1.0  0.11364  0.03787  0.34756  1.0000
  H   H175      1.0  0.42408  0.17646  0.29592  1.0000
  C   C226      1.0  0.37396  0.50446  0.36634  1.0000
  H   H176      1.0  0.41661  0.40313  0.39602  1.0000
  H   H177      1.0  0.43971  0.41265  0.34194  1.0000
  C   C227      1.0  0.18859  0.05823  0.37205  1.0000
  H   H178      1.0  0.19637  0.42348  0.34922  1.0000
  H   H179      1.0  0.37677  0.38950  0.36243  1.0000
  H   H180      1.0  0.38924  0.34023  0.34120  1.0000
  C   C228      1.0  0.12315  0.12139  0.43729  1.0000
  H   H181      1.0  0.47333  0.16763  0.29146  1.0000
  P   P9        1.0  0.30731  0.10684  0.46909  1.0000
  H   H182      1.0  0.38168  0.46062  0.35773  1.0000
  H   H183      1.0  0.00956  0.43380  0.38467  1.0000
  C   C229      1.0  0.48848  0.34725  0.39290  1.0000
  S   S39       1.0  0.11461  0.02227  0.41217  1.0000
  C   C230      1.0  0.31772  0.48296  0.42653  1.0000
  C   C231      1.0  0.16893  0.46486  0.38096  1.0000
  C   C232      1.0  0.34047  0.08175  0.49262  1.0000
  C   C233      1.0  0.42973  0.33742  0.30755  1.0000
  C   C234      1.0  0.27910  0.48613  0.39371  1.0000
  H   H184      1.0  0.30415  0.12148  0.50667  1.0000
  C   C235      1.0  0.09129  0.47397  0.32751  1.0000
  C   C236      1.0  0.36289  0.07929  0.50114  1.0000
  C   C237      1.0  0.23852  0.50252  0.50499  1.0000
  H   H185      1.0  0.01812  0.38061  0.29478  1.0000
  H   H186      1.0  0.12124  0.18424  0.36710  1.0000
  C   C238      1.0  0.19304  0.18412  0.49221  1.0000
  C   C239      1.0  0.44859  0.35670  0.33387  1.0000
  Fe  Fe19      1.0  0.15444  0.02161  0.42096  1.0000
  C   C240      1.0  0.16189  0.43192  0.50451  1.0000
  H   H187      1.0  0.46611  0.38484  0.38857  1.0000
  H   H188      1.0  0.30026  0.41813  0.38357  1.0000
  H   H189      1.0  0.44147  0.30462  0.36534  1.0000
  H   H190      1.0  0.19460  0.11967  0.46997  1.0000
  C   C241      1.0  0.35752  0.42172  0.41594  1.0000
  H   H191      1.0  0.42779  0.27341  0.26757  1.0000
  C   C242      1.0  0.19715  0.17382  0.50930  1.0000
  C   C243      1.0  0.18759  0.37539  0.48882  1.0000
  H   H192      1.0  0.18926  0.20346  0.34449  1.0000
  H   H193      1.0  0.99751  0.12993  0.29325  1.0000
  C   C244      1.0  0.48406  0.15610  0.28172  1.0000
  Fe  Fe20      1.0  0.00409  0.48781  0.31324  1.0000
  C   C245      1.0  0.31753  0.14801  0.44304  1.0000
  C   C246      1.0  0.47819  0.36183  0.27195  1.0000
  H   H194      1.0  0.15902  0.48507  0.38283  1.0000
  H   H195      1.0  0.08197  0.19378  0.35243  1.0000
  H   H196      1.0  0.43475  0.48728  0.37572  1.0000
  C   C247      1.0  0.11782  0.43055  0.50580  1.0000
  H   H197      1.0  0.07246  0.47311  0.32337  1.0000
  C   C248      1.0  0.41609  0.22217  0.29850  1.0000
  H   H198      1.0  0.28336  0.50542  0.40133  1.0000
  C   C249      1.0  0.07747  0.03370  0.35792  1.0000
  H   H199      1.0  0.39221  0.32558  0.31010  1.0000
  H   H200      1.0  0.29700  0.41095  0.45912  1.0000
  C   C250      1.0  0.29413  0.46130  0.39433  1.0000
  C   C251      1.0  0.18177  0.04787  0.35547  1.0000
  H   H201      1.0  0.40930  0.22037  0.31188  1.0000
  C   C252      1.0  0.43388  0.19998  0.27248  1.0000
  C   C253      1.0  0.18342  0.44753  0.31596  1.0000
  H   H202      1.0  0.44404  0.46518  0.34657  1.0000
  C   C254      1.0  0.31110  0.11905  0.44653  1.0000
  C   C255      1.0  0.16969  0.17164  0.35957  1.0000
  S   S40       1.0  0.49266  0.30011  0.33645  1.0000
  H   H203      1.0  0.32709  0.17930  0.42307  1.0000
  H   H204      1.0  0.21980  0.44208  0.48329  1.0000
  H   H205      1.0  0.19053  0.20721  0.48993  1.0000
  C   C256      1.0  0.17679  0.08240  0.37944  1.0000
  H   H206      1.0  0.14618  0.49643  0.31283  1.0000
  C   C257      1.0  0.25268  0.46218  0.37283  1.0000
  C   C258      1.0  0.37564  0.37134  0.37145  1.0000
  H   H207      1.0  0.18859  0.17268  0.46485  1.0000
  C   C259      1.0  0.35496  0.12373  0.47668  1.0000
  C   C260      1.0  0.06385  0.02910  0.37319  1.0000
  C   C261      1.0  0.26787  0.43766  0.37303  1.0000
  C   C262      1.0  0.29230  0.49556  0.45160  1.0000
  C   C263      1.0  0.45417  0.31658  0.37336  1.0000
  H   H208      1.0  0.27665  0.44406  0.48031  1.0000
  C   C264      1.0  0.27188  0.15015  0.47258  1.0000
  H   H209      1.0  0.30962  0.09406  0.40410  1.0000
  C   C265      1.0  0.34269  0.18219  0.50749  1.0000
  H   H210      1.0  0.41016  0.31810  0.39063  1.0000
  H   H211      1.0  0.11770  0.11936  0.45095  1.0000
  H   H212      1.0  0.15679  0.16759  0.34910  1.0000
  C   C266      1.0  0.30773  0.37330  0.49694  1.0000
  C   C267      1.0  0.19202  0.16467  0.47805  1.0000
  H   H213      1.0  0.31893  0.16376  0.45361  1.0000
  H   H214      1.0  0.30211  0.07769  0.43424  1.0000
  H   H215      1.0  0.20329  0.04770  0.37911  1.0000
  C   C268      1.0  0.16819  0.15653  0.37558  1.0000
  C   C269      1.0  0.31956  0.13746  0.41176  1.0000
  Fe  Fe21      1.0  0.02577  0.03114  0.32559  1.0000
  C   C270      1.0  0.23721  0.36228  0.48966  1.0000
  H   H216      1.0  0.33342  0.31047  0.51543  1.0000
  C   C271      1.0  0.30801  0.38014  0.47900  1.0000
  C   C272      1.0  0.19543  0.13491  0.48092  1.0000
  C   C273      1.0  0.16021  0.44919  0.48928  1.0000
  C   C274      1.0  0.13755  0.45741  0.48257  1.0000
  C   C275      1.0  0.11636  0.44825  0.49088  1.0000
  C   C276      1.0  0.42445  0.19748  0.28952  1.0000
  H   H217      1.0  0.32490  0.04861  0.45985  1.0000
  C   C277      1.0  0.25793  0.17044  0.48199  1.0000
  C   C278      1.0  0.26858  0.06871  0.47431  1.0000
  P   P10       1.0  0.17114  0.48047  0.34560  1.0000
  C   C279      1.0  0.28524  0.41772  0.50304  1.0000
  C   C280      1.0  0.22193  0.34683  0.47841  1.0000
  C   C281      1.0  0.32199  0.15702  0.42574  1.0000
  C   C282      1.0  0.37174  0.47422  0.36700  1.0000
  C   C283      1.0  0.27766  0.15566  0.50903  1.0000
  S   S41       1.0  0.18921  0.04972  0.48220  1.0000
  C   C284      1.0  0.00712  0.38981  0.28435  1.0000
  H   H218      1.0  0.16838  0.38023  0.48814  1.0000
  C   C285      1.0  0.12928  0.09957  0.40849  1.0000
  C   C286      1.0  0.31242  0.10892  0.41502  1.0000
  H   H219      1.0  0.17629  0.45662  0.48256  1.0000
  H   H220      1.0  0.13650  0.47107  0.47096  1.0000
  H   H221      1.0  0.09884  0.45481  0.48571  1.0000
  C   C287      1.0  0.18823  0.19174  0.35683  1.0000
  C   C288      1.0  0.30815  0.09973  0.43229  1.0000
  S   S42       1.0  0.06379  0.03975  0.33694  1.0000
  C   C289      1.0  0.35122  0.34012  0.38980  1.0000
  S   S43       1.0  0.20673  0.50705  0.41044  1.0000
  H   H222      1.0  0.05396  0.15306  0.34601  1.0000
  H   H223      1.0  0.23257  0.44570  0.28879  1.0000
  H   H224      1.0  0.32633  0.06654  0.49592  1.0000
  C   C290      1.0  0.01340  0.45346  0.39204  1.0000
  H   H225      1.0  0.13843  0.09791  0.34538  1.0000
  C   C291      1.0  0.23553  0.48240  0.49136  1.0000
  C   C292      1.0  0.14047  0.42221  0.51252  1.0000
  C   C293      1.0  0.41710  0.24940  0.29045  1.0000
  C   C294      1.0  0.15202  0.08673  0.35318  1.0000
  H   H226      1.0  0.16627  0.43660  0.31782  1.0000
  C   C295      1.0  0.03986  0.48116  0.41119  1.0000
  C   C296      1.0  0.03453  0.45541  0.40214  1.0000
  H   H227      1.0  0.25026  0.18930  0.50743  1.0000
  H   H228      1.0  0.27315  0.07021  0.51240  1.0000
  H   H229      1.0  0.05648  0.48218  0.41867  1.0000
  C   C297      1.0  0.10294  0.03440  0.35929  1.0000
  C   C298      1.0  0.33642  0.49985  0.43366  1.0000
  C   C299      1.0  0.29139  0.13507  0.49964  1.0000
  H   H230      1.0  0.12810  0.08069  0.39998  1.0000
  C   C300      1.0  0.22088  0.45240  0.29959  1.0000
  C   C301      1.0  0.29544  0.01934  0.46436  1.0000
  C   C302      1.0  0.28890  0.13256  0.48130  1.0000
  H   H231      1.0  0.38714  0.24134  0.49137  1.0000
  C   C303      1.0  0.16350  0.06215  0.34602  1.0000
  C   C304      1.0  0.42653  0.35470  0.34303  1.0000
  C   C305      1.0  0.26080  0.17321  0.50021  1.0000
  C   C306      1.0  0.19039  0.47014  0.32733  1.0000
  H   H232      1.0  0.04708  0.43715  0.40268  1.0000
  H   H233      1.0  0.46725  0.34976  0.30929  1.0000
  H   H234      1.0  0.42077  0.45620  0.40034  1.0000
  C   C307      1.0  0.12201  0.46667  0.34996  1.0000
  C   C308      1.0  0.30627  0.04673  0.46421  1.0000
  H   H235      1.0  0.33693  0.37611  0.37497  1.0000
  H   H236      1.0  0.43113  0.33041  0.29394  1.0000
  H   H237      1.0  0.19297  0.42156  0.29325  1.0000
  H   H238      1.0  0.18252  0.09022  0.39227  1.0000
  C   C309      1.0  0.33259  0.42743  0.41392  1.0000
  C   C310      1.0  0.37197  0.32415  0.39436  1.0000
  S   S44       1.0  0.00697  0.43953  0.30499  1.0000
  H   H239      1.0  0.28133  0.46681  0.43087  1.0000
  S   S45       1.0  0.02688  0.01993  0.29657  1.0000
  C   C311      1.0  0.45065  0.34643  0.37639  1.0000
  H   H240      1.0  0.39859  0.09724  0.50417  1.0000
  C   C312      1.0  0.22774  0.38432  0.50048  1.0000
  C   C313      1.0  0.36550  0.39522  0.42298  1.0000
  C   C314      1.0  0.34867  0.37455  0.42837  1.0000
  C   C315      1.0  0.32385  0.38025  0.42661  1.0000
  C   C316      1.0  0.31581  0.40668  0.41954  1.0000
  C   C317      1.0  0.00275  0.50290  0.40016  1.0000
  H   H241      1.0  0.15169  0.49326  0.51635  1.0000
  H   H242      1.0  0.24514  0.18430  0.47501  1.0000
  C   C318      1.0  0.19712  0.35328  0.47806  1.0000
  C   C319      1.0  0.09794  0.46446  0.34430  1.0000
  H   H243      1.0  0.22940  0.33011  0.46980  1.0000
  H   H244      1.0  0.35485  0.35406  0.43390  1.0000
  H   H245      1.0  0.31080  0.36415  0.43074  1.0000
  H   H246      1.0  0.29652  0.41106  0.41872  1.0000
  C   C320      1.0  0.18994  0.43043  0.36203  1.0000
  H   H247      1.0  0.11534  0.07671  0.43101  1.0000
  C   C321      1.0  0.32344  0.29035  0.51487  1.0000
  C   C322      1.0  0.39454  0.33137  0.38724  1.0000
  H   H248      1.0  0.31665  0.36533  0.46970  1.0000
  C   C323      1.0  0.22231  0.45705  0.49418  1.0000
  H   H249      1.0  0.21858  0.18389  0.39561  1.0000
  C   C324      1.0  0.17360  0.44710  0.39551  1.0000
  C   C325      1.0  0.18662  0.42113  0.39338  1.0000
  C   C326      1.0  0.19481  0.41281  0.37665  1.0000
  H   H250      1.0  0.06515  0.10269  0.35475  1.0000
  H   H251      1.0  0.33364  0.33402  0.39499  1.0000
  C   C327      1.0  0.13121  0.14803  0.43081  1.0000
  H   H252      1.0  0.25755  0.08752  0.47771  1.0000
  C   C328      1.0  0.13816  0.15050  0.41315  1.0000
  H   H253      1.0  0.37049  0.30558  0.40307  1.0000
  H   H254      1.0  0.39135  0.13711  0.48275  1.0000
  H   H255      1.0  0.16725  0.45372  0.40847  1.0000
  H   H256      1.0  0.19046  0.40753  0.40472  1.0000
  H   H257      1.0  0.20494  0.39264  0.37508  1.0000
  C   C329      1.0  0.12188  0.09731  0.42607  1.0000
  H   H258      1.0  0.08422  0.45619  0.35314  1.0000
  C   C330      1.0  0.47512  0.13053  0.27371  1.0000
  H   H259      1.0  0.46478  0.36439  0.34044  1.0000
  H   H260      1.0  0.18534  0.34143  0.46920  1.0000
  H   H261      1.0  0.10404  0.09298  0.36959  1.0000
  C   C331      1.0  0.25800  0.04119  0.47476  1.0000
  H   H262      1.0  0.24266  0.48689  0.47838  1.0000
  H   H263      1.0  0.31656  0.35342  0.50123  1.0000
  H   H264      1.0  0.36599  0.06210  0.51065  1.0000
  H   H265      1.0  0.19083  0.02896  0.34990  1.0000
  P   P11       1.0  0.19127  0.42122  0.51312  1.0000
  C   C332      1.0  0.43794  0.45163  0.35734  1.0000
  H   H266      1.0  0.00720  0.35000  0.26889  1.0000
  C   C333      1.0  0.43270  0.46406  0.37376  1.0000
  H   H267      1.0  0.14364  0.17151  0.40820  1.0000
  H   H268      1.0  0.35380  0.50123  0.42709  1.0000
  C   C334      1.0  0.35494  0.21718  0.48549  1.0000
  C   C335      1.0  0.15826  0.09671  0.37011  1.0000
  H   H269      1.0  0.06487  0.02288  0.40140  1.0000
  H   H270      1.0  0.04426  0.02856  0.37241  1.0000
  S   S46       1.0  0.01474  0.49593  0.34168  1.0000
  H   H271      1.0  0.35241  0.14122  0.46737  1.0000
  H   H272      1.0  0.35444  0.43808  0.37946  1.0000
  H   H273      1.0  0.24378  0.11069  0.51062  1.0000
  C   C336      1.0  0.43554  0.42163  0.35479  1.0000
  C   C337      1.0  0.37720  0.12150  0.48545  1.0000
  C   C338      1.0  0.28862  0.43724  0.38367  1.0000
  C   C339      1.0  0.10103  0.02652  0.39100  1.0000
  H   H274      1.0  0.32271  0.19130  0.48366  1.0000
  H   H275      1.0  0.35150  0.22874  0.47330  1.0000
  C   C340      1.0  0.17701  0.45673  0.36412  1.0000
  C   C341      1.0  0.37503  0.22438  0.49575  1.0000
  H   H276      1.0  0.08818  0.49146  0.39663  1.0000
  H   H277      1.0  0.25647  0.35753  0.48967  1.0000
  C   C342      1.0  0.39652  0.35499  0.37567  1.0000
  C   C343      1.0  0.35309  0.36385  0.37847  1.0000
  C   C344      1.0  0.42245  0.41654  0.38512  1.0000
  C   C345      1.0  0.42483  0.44654  0.38762  1.0000
  C   C346      1.0  0.40617  0.34341  0.33432  1.0000
  H   H278      1.0  0.21902  0.50053  0.33363  1.0000
  C   C347      1.0  0.42799  0.40380  0.36872  1.0000
  H   H279      1.0  0.38472  0.39072  0.42442  1.0000
  C   C348      1.0  0.28552  0.42446  0.48505  1.0000
  H   H280      1.0  0.18658  0.14781  0.40037  1.0000
  C   C349      1.0  0.46795  0.36172  0.38630  1.0000
  H   H281      1.0  0.32262  0.14468  0.39836  1.0000
  C   C350      1.0  0.33881  0.19602  0.49132  1.0000
  H   H282      1.0  0.24700  0.50577  0.38281  1.0000
  P   P12       1.0  0.42528  0.36485  0.36605  1.0000
  H   H283      1.0  0.20187  0.10146  0.49994  1.0000
  C   C351      1.0  0.11621  0.13761  0.36847  1.0000
  H   H284      1.0  0.15830  0.05429  0.33310  1.0000
  H   H285      1.0  0.46918  0.34152  0.27461  1.0000
  C   C352      1.0  0.21124  0.45199  0.51053  1.0000
  C   C353      1.0  0.13791  0.12604  0.40200  1.0000
  C   C354      1.0  0.20478  0.18071  0.38561  1.0000
  C   C355      1.0  0.18635  0.16053  0.38836  1.0000
  C   C356      1.0  0.09970  0.11499  0.36557  1.0000
  C   C357      1.0  0.07747  0.12052  0.35734  1.0000
  C   C358      1.0  0.07120  0.14887  0.35243  1.0000
  C   C359      1.0  0.08706  0.17175  0.35598  1.0000
  C   C360      1.0  0.10943  0.16621  0.36412  1.0000
  C   C361      1.0  0.49188  0.31753  0.38968  1.0000
  H   H286      1.0  0.28114  0.33079  0.51141  1.0000
  H   H287      1.0  0.45729  0.12280  0.27721  1.0000
  C   C362      1.0  0.29294  0.07164  0.46924  1.0000
  C   C363      1.0  0.20294  0.39135  0.49996  1.0000
  C   C364      1.0  0.99921  0.41900  0.28571  1.0000
  H   H288      1.0  0.37080  0.43786  0.41239  1.0000
  H   H289      1.0  0.20548  0.50531  0.37082  1.0000
  H   H290      1.0  0.13183  0.16683  0.43943  1.0000
  H   H291      1.0  0.10138  0.42333  0.51219  1.0000
  Fe  Fe22      1.0  0.18495  0.03024  0.45481  1.0000
  H   H292      1.0  0.22009  0.21190  0.36779  1.0000
  C   C365      1.0  0.38125  0.09915  0.49756  1.0000
  H   H293      1.0  0.24546  0.48506  0.30909  1.0000
  H   H294      1.0  0.47751  0.27926  0.37721  1.0000
  C   C366      1.0  0.19856  0.43884  0.30209  1.0000
  C   C367      1.0  0.07559  0.02579  0.38962  1.0000
  C   C368      1.0  0.16137  0.01056  0.50079  1.0000
  C   C369      1.0  0.29611  0.39182  0.50914  1.0000
  C   C370      1.0  0.29581  0.48042  0.43581  1.0000
  C   C371      1.0  0.22813  0.47459  0.31102  1.0000
  H   H295      1.0  0.23975  0.39625  0.50904  1.0000
  H   H296      1.0  0.10341  0.49336  0.30337  1.0000
  S   S47       1.0  0.49384  0.22821  0.33516  1.0000
  C   C372      1.0  0.25842  0.48647  0.38308  1.0000
  C   C373      1.0  0.00096  0.37235  0.26965  1.0000
  C   C374      1.0  0.42657  0.25202  0.27344  1.0000
  S   S48       1.0  0.17863  0.50157  0.44858  1.0000
  H   H297      1.0  0.06436  0.50484  0.36997  1.0000
  H   H298      1.0  0.28942  0.21731  0.51300  1.0000
  C   C375      1.0  0.09500  0.50782  0.38780  1.0000
  C   C376      1.0  0.20058  0.14390  0.51234  1.0000
  C   C377      1.0  0.13293  0.48734  0.32174  1.0000
  S   S49       1.0  0.21923  0.01448  0.44170  1.0000
  C   C378      1.0  0.21301  0.48337  0.32491  1.0000
  H   H299      1.0  0.27625  0.43265  0.51201  1.0000
  C   C379      1.0  0.37906  0.21040  0.51185  1.0000
  H   H300      1.0  0.16465  0.09883  0.51647  1.0000
  C   C380      1.0  0.10877  0.48544  0.31624  1.0000
  H   H301      1.0  0.32947  0.16694  0.51210  1.0000
  H   H302      1.0  0.27519  0.49377  0.45848  1.0000
  C   C381      1.0  0.99746  0.47716  0.39115  1.0000
  H   H303      1.0  0.49114  0.12368  0.31819  1.0000
  C   C382      1.0  0.34516  0.50937  0.39033  1.0000
  H   H304      1.0  0.99557  0.18338  0.28829  1.0000
  Fe  Fe23      1.0  0.99556  0.05149  0.29356  1.0000
  H   H305      1.0  0.33407  0.28260  0.70541  1.0000
  C   C383      1.0  0.04054  0.36402  0.73963  1.0000
  C   C384      1.0  0.43187  0.13116  0.52592  1.0000
  S   S50       1.0  0.18687  0.01836  0.62699  1.0000
  C   C385      1.0  0.17563  0.42956  0.54773  1.0000
  H   H306      1.0  0.24789  0.40764  0.54038  1.0000
  Fe  Fe24      1.0  0.29212  0.29604  0.60161  1.0000
  S   S51       1.0  0.32697  0.27909  0.58952  1.0000
  S   S52       1.0  0.28852  0.34525  0.59804  1.0000
  Fe  Fe25      1.0  0.27473  0.23403  0.60973  1.0000
  S   S53       1.0  0.30835  0.21388  0.59850  1.0000
  S   S54       1.0  0.24276  0.20614  0.61846  1.0000
  Fe  Fe26      1.0  0.32900  0.24896  0.61290  1.0000
  S   S55       1.0  0.36461  0.23291  0.62569  1.0000
  Fe  Fe27      1.0  0.30351  0.24578  0.57642  1.0000
  S   S56       1.0  0.30204  0.22714  0.54876  1.0000
  S   S57       1.0  0.29530  0.26748  0.62586  1.0000
  S   S58       1.0  0.26881  0.26442  0.58691  1.0000
  C   C386      1.0  0.05586  0.01673  0.60343  1.0000
  C   C387      1.0  0.37453  0.19944  0.55536  1.0000
  H   H307      1.0  0.03037  0.35558  0.58775  1.0000
  C   C388      1.0  0.04920  0.28937  0.75499  1.0000
  H   H308      1.0  0.05811  0.45092  0.65023  1.0000
  C   C389      1.0  0.38601  0.19179  0.57124  1.0000
  Fe  Fe28      1.0  0.19707  0.48051  0.60976  1.0000
  S   S59       1.0  0.20187  0.43279  0.61752  1.0000
  Fe  Fe29      1.0  0.20012  0.03936  0.60185  1.0000
  S   S60       1.0  0.23122  0.07156  0.59849  1.0000
  S   S61       1.0  0.15871  0.49052  0.60169  1.0000
  S   S62       1.0  0.16268  0.04689  0.59109  1.0000
  H   H309      1.0  0.16602  0.44848  0.54277  1.0000
  Fe  Fe30      1.0  0.47092  0.26826  0.69965  1.0000
  S   S63       1.0  0.43492  0.28118  0.68639  1.0000
  S   S64       1.0  0.99869  0.04323  0.70366  1.0000
  S   S65       1.0  0.47569  0.27802  0.72875  1.0000
  C   C390      1.0  0.00988  0.07477  0.65584  1.0000
  H   H310      1.0  0.14118  0.40821  0.52395  1.0000
  C   C391      1.0  0.36741  0.22852  0.55267  1.0000
  S   S66       1.0  0.03532  0.49610  0.73317  1.0000
  C   C392      1.0  0.24870  0.30250  0.54502  1.0000
  C   C393      1.0  0.30617  0.14645  0.56509  1.0000
  C   C394      1.0  0.33218  0.25507  0.68257  1.0000
  C   C395      1.0  0.41374  0.10362  0.54954  1.0000
  C   C396      1.0  0.07608  0.34987  0.72286  1.0000
  C   C397      1.0  0.18095  0.02715  0.53344  1.0000
  C   C398      1.0  0.41971  0.34703  0.71901  1.0000
  C   C399      1.0  0.38441  0.24739  0.64211  1.0000
  C   C400      1.0  0.38037  0.27448  0.65010  1.0000
  C   C401      1.0  0.39614  0.28445  0.66347  1.0000
  C   C402      1.0  0.41613  0.26757  0.66910  1.0000
  C   C403      1.0  0.42027  0.24055  0.66103  1.0000
  C   C404      1.0  0.40461  0.23066  0.64757  1.0000
  H   H311      1.0  0.36497  0.28764  0.64612  1.0000
  H   H312      1.0  0.39278  0.30544  0.66950  1.0000
  H   H313      1.0  0.43544  0.22720  0.66525  1.0000
  H   H314      1.0  0.40792  0.20964  0.64155  1.0000
  C   C405      1.0  0.30649  0.24862  0.52987  1.0000
  C   C406      1.0  0.31863  0.27517  0.53056  1.0000
  C   C407      1.0  0.27106  0.46130  0.56596  1.0000
  H   H315      1.0  0.32476  0.28366  0.54309  1.0000
  H   H316      1.0  0.39745  0.35463  0.69614  1.0000
  C   C408      1.0  0.23926  0.16905  0.61208  1.0000
  C   C409      1.0  0.25865  0.15277  0.60525  1.0000
  C   C410      1.0  0.25571  0.12312  0.60106  1.0000
  C   C411      1.0  0.23337  0.10925  0.60365  1.0000
  C   C412      1.0  0.21383  0.12553  0.61033  1.0000
  C   C413      1.0  0.21683  0.15524  0.61459  1.0000
  H   H317      1.0  0.27610  0.16287  0.60368  1.0000
  H   H318      1.0  0.27099  0.11072  0.59604  1.0000
  H   H319      1.0  0.19647  0.11528  0.61229  1.0000
  H   H320      1.0  0.20173  0.16756  0.61996  1.0000
  C   C414      1.0  0.26375  0.36887  0.60301  1.0000
  C   C415      1.0  0.26518  0.39834  0.59818  1.0000
  C   C416      1.0  0.24630  0.41813  0.60232  1.0000
  C   C417      1.0  0.22582  0.40865  0.61144  1.0000
  C   C418      1.0  0.22419  0.37907  0.61599  1.0000
  C   C419      1.0  0.24299  0.35922  0.61174  1.0000
  H   H321      1.0  0.28114  0.40601  0.59141  1.0000
  H   H322      1.0  0.24780  0.44081  0.59882  1.0000
  H   H323      1.0  0.20841  0.37152  0.62304  1.0000
  H   H324      1.0  0.24164  0.33664  0.61555  1.0000
  C   C420      1.0  0.00681  0.46951  0.61707  1.0000
  S   S67       1.0  0.05985  0.47754  0.68607  1.0000
  C   C421      1.0  0.20179  0.20088  0.56751  1.0000
  H   H325      1.0  0.03050  0.11451  0.62130  1.0000
  C   C422      1.0  0.09994  0.30811  0.75164  1.0000
  H   H326      1.0  0.09260  0.44100  0.57679  1.0000
  C   C423      1.0  0.10862  0.39961  0.65694  1.0000
  C   C424      1.0  0.01329  0.04475  0.62951  1.0000
  Fe  Fe31      1.0  0.02848  0.49143  0.70420  1.0000
  H   H327      1.0  0.37380  0.31000  0.69973  1.0000
  C   C425      1.0  0.09357  0.39014  0.59484  1.0000
  C   C426      1.0  0.14283  0.31002  0.75891  1.0000
  C   C427      1.0  0.32644  0.16224  0.55977  1.0000
  S   S68       1.0  0.00873  0.43591  0.76072  1.0000
  H   H328      1.0  0.25153  0.15006  0.54795  1.0000
  H   H329      1.0  0.13237  0.49016  0.64925  1.0000
  H   H330      1.0  0.12740  0.07639  0.52718  1.0000
  H   H331      1.0  0.02905  0.36193  0.75110  1.0000
  H   H332      1.0  0.13507  0.01513  0.65931  1.0000
  C   C428      1.0  0.49219  0.17200  0.76022  1.0000
  C   C429      1.0  0.35135  0.27007  0.74117  1.0000
  C   C430      1.0  0.03516  0.38552  0.72719  1.0000
  C   C431      1.0  0.01779  0.24168  0.75773  1.0000
  C   C432      1.0  0.24444  0.04565  0.64099  1.0000
  C   C433      1.0  0.21459  0.47221  0.52425  1.0000
  H   H333      1.0  0.24523  0.04718  0.56335  1.0000
  P   P13       1.0  0.29560  0.38241  0.53235  1.0000
  C   C434      1.0  0.32538  0.37059  0.53951  1.0000
  H   H334      1.0  0.41446  0.08560  0.55873  1.0000
  H   H335      1.0  0.18803  0.21493  0.57328  1.0000
  H   H336      1.0  0.26726  0.36584  0.56339  1.0000
  H   H337      1.0  0.35737  0.23487  0.54103  1.0000
  C   C435      1.0  0.22838  0.49717  0.52151  1.0000
  C   C436      1.0  0.34628  0.37912  0.53034  1.0000
  C   C437      1.0  0.36922  0.36973  0.53594  1.0000
  C   C438      1.0  0.37151  0.35220  0.55088  1.0000
  C   C439      1.0  0.35086  0.34417  0.56029  1.0000
  C   C440      1.0  0.32791  0.35330  0.55465  1.0000
  C   C441      1.0  0.28613  0.41367  0.54526  1.0000
  C   C442      1.0  0.07278  0.40428  0.60148  1.0000
  C   C443      1.0  0.16027  0.10084  0.53029  1.0000
  H   H338      1.0  0.49488  0.33225  0.61716  1.0000
  C   C444      1.0  0.02450  0.29244  0.75078  1.0000
  C   C445      1.0  0.01025  0.10268  0.76354  1.0000
  H   H339      1.0  0.38928  0.34502  0.55528  1.0000
  H   H340      1.0  0.35254  0.33103  0.57207  1.0000
  H   H341      1.0  0.31226  0.34694  0.56230  1.0000
  C   C446      1.0  0.29575  0.45476  0.56419  1.0000
  C   C447      1.0  0.24635  0.15848  0.65565  1.0000
  C   C448      1.0  0.27067  0.15525  0.65082  1.0000
  C   C449      1.0  0.28212  0.12811  0.65226  1.0000
  C   C450      1.0  0.26916  0.10413  0.65836  1.0000
  C   C451      1.0  0.24448  0.10705  0.66273  1.0000
  C   C452      1.0  0.23327  0.13454  0.66160  1.0000
  P   P14       1.0  0.22765  0.07613  0.67062  1.0000
  C   C453      1.0  0.19597  0.08246  0.66542  1.0000
  C   C454      1.0  0.23708  0.04367  0.65867  1.0000
  C   C455      1.0  0.00301  0.47277  0.63517  1.0000
  H   H342      1.0  0.02069  0.11940  0.65312  1.0000
  S   S69       1.0  0.11402  0.04040  0.62721  1.0000
  H   H343      1.0  0.23092  0.01360  0.68016  1.0000
  H   H344      1.0  0.45882  0.30168  0.62121  1.0000
  C   C456      1.0  0.17878  0.08872  0.67864  1.0000
  C   C457      1.0  0.15423  0.09202  0.67432  1.0000
  C   C458      1.0  0.14676  0.09007  0.65677  1.0000
  C   C459      1.0  0.16389  0.08552  0.64348  1.0000
  C   C460      1.0  0.18841  0.08197  0.64776  1.0000
  C   C461      1.0  0.23255  0.07135  0.69404  1.0000
  C   C462      1.0  0.08974  0.49444  0.60807  1.0000
  C   C463      1.0  0.25581  0.08124  0.72062  1.0000
  C   C464      1.0  0.42484  0.32826  0.73299  1.0000
  H   H345      1.0  0.06718  0.33144  0.57555  1.0000
  C   C465      1.0  0.25191  0.08526  0.70256  1.0000
  H   H346      1.0  0.23746  0.17950  0.65426  1.0000
  H   H347      1.0  0.28046  0.17376  0.64568  1.0000
  H   H348      1.0  0.30096  0.12566  0.64844  1.0000
  H   H349      1.0  0.27830  0.08326  0.65945  1.0000
  H   H350      1.0  0.21436  0.13754  0.66504  1.0000
  C   C466      1.0  0.39305  0.14666  0.53820  1.0000
  C   C467      1.0  0.04801  0.36537  0.58960  1.0000
  C   C468      1.0  0.33073  0.25232  0.74108  1.0000
  H   H351      1.0  0.21143  0.37262  0.53450  1.0000
  H   H352      1.0  0.24517  0.06654  0.63449  1.0000
  H   H353      1.0  0.18410  0.09117  0.69226  1.0000
  H   H354      1.0  0.14089  0.09594  0.68458  1.0000
  H   H355      1.0  0.12768  0.09202  0.65343  1.0000
  H   H356      1.0  0.15805  0.08420  0.62985  1.0000
  H   H357      1.0  0.20139  0.07856  0.63724  1.0000
  H   H358      1.0  0.20924  0.03554  0.72951  1.0000
  H   H359      1.0  0.43036  0.36649  0.71722  1.0000
  C   C469      1.0  0.24046  0.06333  0.73032  1.0000
  H   H360      1.0  0.02097  0.08399  0.75952  1.0000
  H   H361      1.0  0.26408  0.09922  0.69536  1.0000
  C   C470      1.0  0.17522  0.42387  0.56580  1.0000
  C   C471      1.0  0.18778  0.39986  0.57251  1.0000
  C   C472      1.0  0.20064  0.38140  0.56113  1.0000
  H   H362      1.0  0.16556  0.43848  0.57467  1.0000
  H   H363      1.0  0.18772  0.39573  0.58658  1.0000
  H   H364      1.0  0.21048  0.36295  0.56648  1.0000
  H   H365      1.0  0.37981  0.11978  0.55952  1.0000
  H   H366      1.0  0.32727  0.50401  0.76442  1.0000
  H   H367      1.0  0.25777  0.28760  0.51887  1.0000
  C   C473      1.0  0.47546  0.29655  0.62819  1.0000
  H   H368      1.0  0.41210  0.16852  0.51708  1.0000
  C   C474      1.0  0.47616  0.27290  0.63971  1.0000
  C   C475      1.0  0.10201  0.03257  0.64837  1.0000
  H   H369      1.0  0.27079  0.09202  0.72710  1.0000
  H   H370      1.0  0.39092  0.16946  0.57398  1.0000
  H   H371      1.0  0.23471  0.44882  0.55916  1.0000
  C   C476      1.0  0.30330  0.43101  0.55390  1.0000
  C   C477      1.0  0.39061  0.21299  0.58405  1.0000
  C   C478      1.0  0.38401  0.24196  0.58105  1.0000
  C   C479      1.0  0.37259  0.24973  0.56530  1.0000
  H   H372      1.0  0.39871  0.20697  0.59656  1.0000
  H   H373      1.0  0.38709  0.25817  0.59122  1.0000
  H   H374      1.0  0.36697  0.27207  0.56310  1.0000
  H   H375      1.0  0.47736  0.35591  0.74212  1.0000
  C   C480      1.0  0.39406  0.12303  0.54991  1.0000
  C   C481      1.0  0.09422  0.50447  0.73729  1.0000
  H   H376      1.0  0.04816  0.03779  0.67082  1.0000
  P   P15       1.0  0.20425  0.13016  0.53456  1.0000
  C   C482      1.0  0.17593  0.11489  0.54213  1.0000
  C   C483      1.0  0.22710  0.10177  0.53588  1.0000
  C   C484      1.0  0.08763  0.46654  0.60068  1.0000
  H   H377      1.0  0.01953  0.39970  0.72908  1.0000
  C   C485      1.0  0.26114  0.05605  0.53795  1.0000
  C   C486      1.0  0.24494  0.06105  0.55181  1.0000
  C   C487      1.0  0.22805  0.08384  0.55081  1.0000
  C   C488      1.0  0.11611  0.01998  0.66169  1.0000
  H   H378      1.0  0.10471  0.46306  0.66907  1.0000
  C   C489      1.0  0.13269  0.08974  0.55414  1.0000
  C   C490      1.0  0.14799  0.10394  0.56599  1.0000
  C   C491      1.0  0.25036  0.02058  0.63135  1.0000
  C   C492      1.0  0.21299  0.15962  0.54900  1.0000
  H   H379      1.0  0.34670  0.11727  0.52716  1.0000
  H   H380      1.0  0.25551  0.02238  0.61761  1.0000
  C   C493      1.0  0.22612  0.20491  0.57185  1.0000
  C   C494      1.0  0.24398  0.18684  0.56454  1.0000
  C   C495      1.0  0.23747  0.16410  0.55323  1.0000
  C   C496      1.0  0.34262  0.23176  0.67338  1.0000
  H   H381      1.0  0.30901  0.46783  0.57107  1.0000
  C   C497      1.0  0.05027  0.38936  0.71264  1.0000
  H   H382      1.0  0.32249  0.42609  0.55292  1.0000
  H   H383      1.0  0.26521  0.47932  0.57424  1.0000
  C   C498      1.0  0.10031  0.48522  0.66547  1.0000
  H   H384      1.0  0.33517  0.22500  0.66079  1.0000
  C   C499      1.0  0.19524  0.17857  0.55595  1.0000
  C   C500      1.0  0.02392  0.09592  0.62856  1.0000
  C   C501      1.0  0.31172  0.25765  0.75290  1.0000
  H   H385      1.0  0.11628  0.07953  0.55882  1.0000
  H   H386      1.0  0.14330  0.10495  0.57985  1.0000
  C   C502      1.0  0.09778  0.42811  0.63111  1.0000
  C   C503      1.0  0.25909  0.30525  0.52833  1.0000
  C   C504      1.0  0.02159  0.46589  0.64701  1.0000
  H   H387      1.0  0.23109  0.22185  0.58108  1.0000
  H   H388      1.0  0.26285  0.19042  0.56784  1.0000
  C   C505      1.0  0.48778  0.15156  0.74693  1.0000
  C   C506      1.0  0.43265  0.10769  0.53757  1.0000
  H   H389      1.0  0.01884  0.46887  0.66107  1.0000
  H   H390      1.0  0.09224  0.33677  0.72099  1.0000
  C   C507      1.0  0.36327  0.21784  0.68007  1.0000
  C   C508      1.0  0.07913  0.49840  0.67223  1.0000
  C   C509      1.0  0.39305  0.29570  0.72310  1.0000
  C   C510      1.0  0.41163  0.30268  0.73503  1.0000
  H   H391      1.0  0.28024  0.15830  0.52312  1.0000
  H   H392      1.0  0.20587  0.46969  0.53687  1.0000
  C   C511      1.0  0.09153  0.36407  0.58543  1.0000
  C   C512      1.0  0.05784  0.26221  0.76096  1.0000
  C   C513      1.0  0.41933  0.23130  0.72843  1.0000
  C   C514      1.0  0.48419  0.12204  0.75127  1.0000
  S   S70       1.0  0.48975  0.22462  0.70151  1.0000
  C   C515      1.0  0.36318  0.25061  0.70528  1.0000
  H   H393      1.0  0.43938  0.17680  0.75516  1.0000
  C   C516      1.0  0.33548  0.12549  0.53777  1.0000
  C   C517      1.0  0.41215  0.15055  0.52619  1.0000
  C   C518      1.0  0.34233  0.26439  0.69850  1.0000
  C   C519      1.0  0.12892  0.27707  0.73617  1.0000
  C   C520      1.0  0.22118  0.04938  0.72197  1.0000
  C   C521      1.0  0.48927  0.36973  0.74963  1.0000
  H   H394      1.0  0.18848  0.03375  0.54599  1.0000
  H   H395      1.0  0.33036  0.18257  0.56637  1.0000
  H   H396      1.0  0.09062  0.27767  0.73093  1.0000
  H   H397      1.0  0.10767  0.35335  0.58034  1.0000
  C   C522      1.0  0.39578  0.23510  0.73519  1.0000
  P   P16       1.0  0.37594  0.26269  0.72599  1.0000
  C   C523      1.0  0.18897  0.41159  0.53619  1.0000
  C   C524      1.0  0.23621  0.01607  0.66659  1.0000
  H   H398      1.0  0.04633  0.40655  0.70325  1.0000
  C   C525      1.0  0.06108  0.34608  0.73767  1.0000
  H   H399      1.0  0.38525  0.37612  0.52871  1.0000
  C   C526      1.0  0.10322  0.48511  0.57298  1.0000
  C   C527      1.0  0.07065  0.37143  0.71043  1.0000
  H   H400      1.0  0.10900  0.48156  0.55947  1.0000
  H   H401      1.0  0.43937  0.33327  0.74205  1.0000
  C   C528      1.0  0.04757  0.45096  0.62265  1.0000
  H   H402      1.0  0.18193  0.12532  0.56974  1.0000
  H   H403      1.0  0.24352  0.06025  0.74431  1.0000
  C   C529      1.0  0.43493  0.21032  0.73562  1.0000
  H   H404      1.0  0.07305  0.40048  0.64540  1.0000
  H   H405      1.0  0.03374  0.40114  0.60457  1.0000
  H   H406      1.0  0.39442  0.21679  0.51982  1.0000
  C   C530      1.0  0.26138  0.42067  0.54691  1.0000
  H   H407      1.0  0.29483  0.15471  0.57565  1.0000
  C   C531      1.0  0.04387  0.45528  0.64079  1.0000
  C   C532      1.0  0.37365  0.22731  0.69588  1.0000
  H   H408      1.0  0.48054  0.10649  0.74089  1.0000
  H   H409      1.0  0.38998  0.21662  0.70050  1.0000
  C   C533      1.0  0.13254  0.40926  0.65573  1.0000
  H   H410      1.0  0.31098  0.08917  0.53688  1.0000
  C   C534      1.0  0.09421  0.46207  0.58297  1.0000
  C   C535      1.0  0.25138  0.32472  0.55745  1.0000
  C   C536      1.0  0.21725  0.05332  0.70392  1.0000
  H   H411      1.0  0.46016  0.39383  0.76213  1.0000
  H   H412      1.0  0.42566  0.24468  0.71765  1.0000
  H   H413      1.0  0.11140  0.39930  0.59698  1.0000
  H   H414      1.0  0.46015  0.25980  0.64160  1.0000
  C   C537      1.0  0.27513  0.35258  0.53649  1.0000
  H   H415      1.0  0.31644  0.26617  0.67717  1.0000
  H   H416      1.0  0.08486  0.49836  0.62172  1.0000
  H   H417      1.0  0.29586  0.24389  0.75276  1.0000
  C   C538      1.0  0.30054  0.12017  0.55683  1.0000
  C   C539      1.0  0.38776  0.31491  0.70924  1.0000
  H   H418      1.0  0.06674  0.05046  0.64209  1.0000
  C   C540      1.0  0.06875  0.35173  0.58276  1.0000
  C   C541      1.0  0.25388  0.44418  0.55738  1.0000
  C   C542      1.0  0.40113  0.34040  0.70718  1.0000
  H   H419      1.0  0.15785  0.43512  0.64098  1.0000
  Fe  Fe32      1.0  0.00299  0.46767  0.73769  1.0000
  C   C543      1.0  0.47962  0.39136  0.76094  1.0000
  H   H420      1.0  0.24419  0.32222  0.57067  1.0000
  P   P17       1.0  0.07613  0.43736  0.61412  1.0000
  C   C544      1.0  0.04999  0.39145  0.59903  1.0000
  H   H421      1.0  0.02550  0.06736  0.60616  1.0000
  C   C545      1.0  0.26447  0.34962  0.55322  1.0000
  C   C546      1.0  0.36293  0.18908  0.51785  1.0000
  H   H422      1.0  0.21561  0.08720  0.56170  1.0000
  S   S71       1.0  0.21315  0.50372  0.58660  1.0000
  C   C547      1.0  0.16979  0.11581  0.56013  1.0000
  C   C548      1.0  0.02906  0.45888  0.61081  1.0000
  H   H423      1.0  0.10347  0.38504  0.66745  1.0000
  H   H424      1.0  0.48682  0.15853  0.73335  1.0000
  Fe  Fe33      1.0  0.14950  0.02332  0.61528  1.0000
  H   H425      1.0  0.28479  0.10803  0.56108  1.0000
  H   H426      1.0  0.09449  0.48230  0.74210  1.0000
  H   H427      1.0  0.14597  0.40228  0.66529  1.0000
  H   H428      1.0  0.12762  0.45127  0.61926  1.0000
  C   C549      1.0  0.12195  0.43715  0.62979  1.0000
  C   C550      1.0  0.09137  0.40866  0.64453  1.0000
  H   H429      1.0  0.08246  0.37465  0.69922  1.0000
  H   H430      1.0  0.37170  0.20029  0.67265  1.0000
  C   C551      1.0  0.11601  0.50048  0.65417  1.0000
  H   H431      1.0  0.00567  0.07687  0.66974  1.0000
  H   H432      1.0  0.32942  0.23423  0.73195  1.0000
  C   C552      1.0  0.13922  0.42785  0.64209  1.0000
  C   C553      1.0  0.00723  0.04790  0.64741  1.0000
  P   P18       1.0  0.36769  0.17193  0.53906  1.0000
  H   H433      1.0  0.45318  0.20766  0.73054  1.0000
  C   C554      1.0  0.00894  0.26865  0.75207  1.0000
  C   C555      1.0  0.34124  0.15193  0.54602  1.0000
  C   C556      1.0  0.01836  0.09872  0.64647  1.0000
  C   C557      1.0  0.02124  0.06909  0.62006  1.0000
  H   H434      1.0  0.23927  0.28276  0.54852  1.0000
  H   H435      1.0  0.27394  0.03809  0.53869  1.0000
  C   C558      1.0  0.20115  0.38709  0.54300  1.0000
  C   C559      1.0  0.26069  0.07415  0.52319  1.0000
  H   H436      1.0  0.17629  0.17590  0.55261  1.0000
  H   H437      1.0  0.41607  0.28824  0.74582  1.0000
  C   C560      1.0  0.38797  0.21717  0.74901  1.0000
  C   C561      1.0  0.10566  0.01384  0.67822  1.0000
  H   H438      1.0  0.36842  0.30697  0.75386  1.0000
  C   C562      1.0  0.31526  0.10962  0.54320  1.0000
  H   H439      1.0  0.03185  0.45673  0.59673  1.0000
  H   H440      1.0  0.20220  0.04238  0.69767  1.0000
  H   H441      1.0  0.16626  0.28111  0.74417  1.0000
  H   H442      1.0  0.10205  0.49215  0.71045  1.0000
  C   C563      1.0  0.13890  0.08808  0.53632  1.0000
  H   H443      1.0  0.44802  0.09281  0.53743  1.0000
  H   H444      1.0  0.01692  0.31323  0.74697  1.0000
  C   C564      1.0  0.06701  0.03269  0.66829  1.0000
  H   H445      1.0  0.20272  0.05663  0.51830  1.0000
  C   C565      1.0  0.09841  0.51001  0.71947  1.0000
  C   C566      1.0  0.10508  0.28677  0.73884  1.0000
  C   C567      1.0  0.35272  0.29306  0.75337  1.0000
  S   S72       1.0  0.99754  0.46020  0.70854  1.0000
  P   P19       1.0  0.06909  0.32056  0.75495  1.0000
  C   C568      1.0  0.07760  0.03959  0.65195  1.0000
  H   H446      1.0  0.00063  0.02962  0.65497  1.0000
  H   H447      1.0  0.13275  0.26052  0.72633  1.0000
  C   C569      1.0  0.14779  0.28867  0.74621  1.0000
  C   C570      1.0  0.24387  0.09707  0.52220  1.0000
  C   C571      1.0  0.27237  0.33005  0.52410  1.0000
  C   C572      1.0  0.42715  0.19287  0.74951  1.0000
  C   C573      1.0  0.08098  0.01976  0.68152  1.0000
  C   C574      1.0  0.40366  0.19621  0.75616  1.0000
  C   C575      1.0  0.07331  0.01321  0.59020  1.0000
  H   H448      1.0  0.36992  0.21937  0.75444  1.0000
  H   H449      1.0  0.07301  0.38190  0.76613  1.0000
  Fe  Fe34      1.0  0.02831  0.01075  0.70972  1.0000
  H   H450      1.0  0.00563  0.22343  0.75923  1.0000
  H   H451      1.0  0.34495  0.39307  0.51891  1.0000
  C   C576      1.0  0.18888  0.04023  0.51777  1.0000
  C   C577      1.0  0.11901  0.31978  0.76161  1.0000
  S   S73       1.0  0.06862  0.01142  0.70247  1.0000
  C   C578      1.0  0.04224  0.23846  0.76214  1.0000
  H   H452      1.0  0.19759  0.18934  0.52003  1.0000
  H   H453      1.0  0.06096  0.02780  0.61542  1.0000
  S   S74       1.0  0.15885  0.50680  0.55275  1.0000
  H   H454      1.0  0.09150  0.02149  0.59217  1.0000
  H   H455      1.0  0.07645  0.25946  0.76521  1.0000
  C   C579      1.0  0.99727  0.40101  0.76629  1.0000
  C   C580      1.0  0.33367  0.29832  0.76517  1.0000
  C   C581      1.0  0.31318  0.28066  0.76493  1.0000
  H   H456      1.0  0.44665  0.13448  0.51673  1.0000
  S   S75       1.0  0.02267  0.26010  0.80398  1.0000
  H   H457      1.0  0.39370  0.47706  0.83677  1.0000
  Fe  Fe35      1.0  0.01909  0.26424  0.83348  1.0000
  S   S76       1.0  0.04805  0.28698  0.85009  1.0000
  Fe  Fe36      1.0  0.28485  0.04710  0.93354  1.0000
  S   S77       1.0  0.32446  0.05826  0.93295  1.0000
  S   S78       1.0  0.25191  0.07626  0.93846  1.0000
  Fe  Fe37      1.0  0.28637  0.47194  0.92352  1.0000
  S   S79       1.0  0.32214  0.47717  0.93754  1.0000
  S   S80       1.0  0.27578  0.42720  0.91297  1.0000
  C   C582      1.0  0.41392  0.49570  0.93749  1.0000
  Fe  Fe38      1.0  0.30079  0.50344  0.95742  1.0000
  H   H458      1.0  0.44229  0.30697  0.77204  1.0000
  H   H459      1.0  0.31632  0.12888  0.94532  1.0000
  C   C583      1.0  0.31353  0.03153  0.00014  1.0000
  C   C584      1.0  0.48929  0.33863  0.79372  1.0000
  Fe  Fe39      1.0  0.15348  0.25183  0.92306  1.0000
  S   S81       1.0  0.18902  0.27186  0.91470  1.0000
  S   S82       1.0  0.12249  0.23335  0.90631  1.0000
  Fe  Fe40      1.0  0.17071  0.24556  0.96159  1.0000
  S   S83       1.0  0.20707  0.26492  0.95606  1.0000
  S   S84       1.0  0.16059  0.22561  0.98787  1.0000
  Fe  Fe41      1.0  0.18656  0.29792  0.93995  1.0000
  S   S85       1.0  0.19336  0.34613  0.94556  1.0000
  Fe  Fe42      1.0  0.20687  0.23730  0.93160  1.0000
  S   S86       1.0  0.24090  0.21208  0.92369  1.0000
  S   S87       1.0  0.14962  0.28011  0.94724  1.0000
  S   S88       1.0  0.17192  0.21577  0.93821  1.0000
  H   H460      1.0  0.00644  0.14315  0.83086  1.0000
  H   H461      1.0  0.17658  0.37019  0.98934  1.0000
  H   H462      1.0  0.00627  0.34833  0.79766  1.0000
  C   C585      1.0  0.46665  0.46030  0.89613  1.0000
  H   H463      1.0  0.20899  0.20877  0.97200  1.0000
  C   C586      1.0  0.06415  0.36575  0.80928  1.0000
  H   H464      1.0  0.11559  0.33636  0.77149  1.0000
  H   H465      1.0  0.27999  0.18232  0.98917  1.0000
  P   P20       1.0  0.48147  0.50811  0.91644  1.0000
  H   H466      1.0  0.33482  0.31610  0.77455  1.0000
  Fe  Fe43      1.0  0.32926  0.02209  0.95275  1.0000
  Fe  Fe44      1.0  0.48746  0.04211  0.79596  1.0000
  C   C587      1.0  0.22093  0.19269  0.97783  1.0000
  C   C588      1.0  0.31731  0.12266  0.95907  1.0000
  H   H467      1.0  0.29226  0.09692  0.87569  1.0000
  C   C589      1.0  0.42062  0.46163  0.79045  1.0000
  S   S89       1.0  0.34645  0.03252  0.88583  1.0000
  C   C590      1.0  0.16645  0.24699  0.00666  1.0000
  C   C591      1.0  0.09990  0.25527  0.99942  1.0000
  C   C592      1.0  0.17648  0.27456  0.00496  1.0000
  H   H468      1.0  0.32329  0.48481  0.85573  1.0000
  H   H469      1.0  0.18080  0.28275  0.99202  1.0000
  H   H470      1.0  0.06105  0.29865  0.79076  1.0000
  C   C593      1.0  0.33827  0.10925  0.96560  1.0000
  H   H471      1.0  0.45333  0.35325  0.78689  1.0000
  C   C594      1.0  0.48596  0.47828  0.90110  1.0000
  H   H472      1.0  0.30613  0.38739  0.01622  1.0000
  C   C595      1.0  0.25178  0.15030  0.99241  1.0000
  H   H473      1.0  0.00815  0.27665  0.87429  1.0000
  H   H474      1.0  0.20896  0.39948  0.00679  1.0000
  C   C596      1.0  0.23107  0.03577  0.00174  1.0000
  S   S90       1.0  0.35243  0.02244  0.97767  1.0000
  H   H475      1.0  0.41673  0.43206  0.83138  1.0000
  H   H476      1.0  0.26583  0.07751  0.97512  1.0000
  C   C597      1.0  0.40480  0.02423  0.85272  1.0000
  C   C598      1.0  0.26091  0.17757  0.98755  1.0000
  C   C599      1.0  0.24364  0.04473  0.98675  1.0000
  C   C600      1.0  0.25304  0.40481  0.92245  1.0000
  C   C601      1.0  0.23768  0.41488  0.93588  1.0000
  C   C602      1.0  0.21963  0.39661  0.94284  1.0000
  C   C603      1.0  0.21682  0.36797  0.93659  1.0000
  C   C604      1.0  0.23243  0.35771  0.92338  1.0000
  C   C605      1.0  0.25032  0.37610  0.91629  1.0000
  H   H477      1.0  0.23953  0.43685  0.94074  1.0000
  H   H478      1.0  0.20769  0.40483  0.95305  1.0000
  H   H479      1.0  0.23052  0.33576  0.91843  1.0000
  H   H480      1.0  0.26210  0.36805  0.90593  1.0000
  C   C606      1.0  0.25029  0.11433  0.93512  1.0000
  C   C607      1.0  0.22962  0.12947  0.94104  1.0000
  C   C608      1.0  0.22670  0.15940  0.93778  1.0000
  C   C609      1.0  0.24451  0.17460  0.92862  1.0000
  C   C610      1.0  0.26546  0.15959  0.92296  1.0000
  C   C611      1.0  0.26838  0.12957  0.92622  1.0000
  H   H481      1.0  0.21566  0.11788  0.94804  1.0000
  H   H482      1.0  0.21057  0.17066  0.94224  1.0000
  H   H483      1.0  0.27933  0.17115  0.91582  1.0000
  H   H484      1.0  0.28435  0.11813  0.92151  1.0000
  C   C612      1.0  0.06886  0.27162  0.86550  1.0000
  C   C613      1.0  0.07076  0.24161  0.86818  1.0000
  C   C614      1.0  0.08724  0.23039  0.88073  1.0000
  C   C615      1.0  0.10238  0.24894  0.89051  1.0000
  C   C616      1.0  0.10071  0.27895  0.88769  1.0000
  C   C617      1.0  0.08396  0.29019  0.87530  1.0000
  H   H485      1.0  0.05952  0.22707  0.86057  1.0000
  H   H486      1.0  0.08840  0.20715  0.88279  1.0000
  H   H487      1.0  0.11219  0.29351  0.89510  1.0000
  H   H488      1.0  0.08275  0.31344  0.87328  1.0000
  S   S91       1.0  0.00491  0.21897  0.83648  1.0000
  C   C618      1.0  0.42360  0.44146  0.80403  1.0000
  H   H489      1.0  0.08144  0.35662  0.99135  1.0000
  Fe  Fe45      1.0  0.47099  0.49627  0.83956  1.0000
  C   C619      1.0  0.07521  0.23685  0.97558  1.0000
  C   C620      1.0  0.06976  0.36866  0.77765  1.0000
  C   C621      1.0  0.40757  0.48742  0.79344  1.0000
  S   S92       1.0  0.28726  0.01359  0.91185  1.0000
  C   C622      1.0  0.37535  0.02190  0.87707  1.0000
  C   C623      1.0  0.47042  0.43752  0.88415  1.0000
  H   H490      1.0  0.22416  0.36637  0.97754  1.0000
  H   H491      1.0  0.39770  0.46007  0.87482  1.0000
  C   C624      1.0  0.41889  0.48797  0.95492  1.0000
  C   C625      1.0  0.08605  0.28099  0.99989  1.0000
  H   H492      1.0  0.36677  0.48015  0.89547  1.0000
  S   S93       1.0  0.48134  0.43646  0.78480  1.0000
  H   H493      1.0  0.06285  0.37627  0.82205  1.0000
  C   C626      1.0  0.25638  0.08852  0.00207  1.0000
  C   C627      1.0  0.09461  0.23338  0.98724  1.0000
  C   C628      1.0  0.07104  0.33729  0.01620  1.0000
  H   H494      1.0  0.35738  0.49170  0.78727  1.0000
  H   H495      1.0  0.29529  0.37410  0.93913  1.0000
  C   C629      1.0  0.26195  0.12343  0.86715  1.0000
  H   H496      1.0  0.21085  0.31586  0.97860  1.0000
  C   C630      1.0  0.25999  0.08816  0.89063  1.0000
  C   C631      1.0  0.23557  0.09527  0.89342  1.0000
  C   C632      1.0  0.22410  0.11668  0.88314  1.0000
  C   C633      1.0  0.23747  0.13047  0.86982  1.0000
  P   P21       1.0  0.19218  0.12527  0.88596  1.0000
  C   C634      1.0  0.18164  0.11674  0.90793  1.0000
  C   C635      1.0  0.18731  0.16367  0.88217  1.0000
  C   C636      1.0  0.20501  0.18370  0.88737  1.0000
  C   C637      1.0  0.20100  0.21353  0.88520  1.0000
  C   C638      1.0  0.17908  0.22365  0.87818  1.0000
  C   C639      1.0  0.16122  0.20390  0.87319  1.0000
  C   C640      1.0  0.16529  0.17401  0.87513  1.0000
  C   C641      1.0  0.17948  0.08759  0.91316  1.0000
  C   C642      1.0  0.17101  0.08079  0.93002  1.0000
  C   C643      1.0  0.16403  0.10301  0.94163  1.0000
  C   C644      1.0  0.16554  0.13203  0.93638  1.0000
  C   C645      1.0  0.17433  0.13891  0.91962  1.0000
  C   C646      1.0  0.17443  0.10437  0.87052  1.0000
  C   C647      1.0  0.14977  0.09929  0.87392  1.0000
  C   C648      1.0  0.13575  0.08367  0.86186  1.0000
  C   C649      1.0  0.14623  0.07293  0.84635  1.0000
  C   C650      1.0  0.17077  0.07777  0.84291  1.0000
  C   C651      1.0  0.18484  0.09345  0.85492  1.0000
  C   C652      1.0  0.27322  0.10228  0.87758  1.0000
  H   H497      1.0  0.22158  0.01523  0.00165  1.0000
  H   H498      1.0  0.26881  0.07214  0.89896  1.0000
  H   H499      1.0  0.22612  0.08437  0.90391  1.0000
  H   H500      1.0  0.22901  0.14681  0.86154  1.0000
  H   H501      1.0  0.22177  0.17641  0.89346  1.0000
  H   H502      1.0  0.21472  0.22879  0.88945  1.0000
  H   H503      1.0  0.17564  0.24682  0.87702  1.0000
  H   H504      1.0  0.14392  0.21191  0.86832  1.0000
  H   H505      1.0  0.15099  0.15925  0.87150  1.0000
  H   H506      1.0  0.18463  0.07011  0.90428  1.0000
  H   H507      1.0  0.17011  0.05828  0.93412  1.0000
  H   H508      1.0  0.15765  0.09776  0.95472  1.0000
  H   H509      1.0  0.16028  0.14935  0.94536  1.0000
  H   H510      1.0  0.17560  0.16158  0.91598  1.0000
  H   H511      1.0  0.14130  0.10775  0.88579  1.0000
  H   H512      1.0  0.11669  0.08009  0.86448  1.0000
  H   H513      1.0  0.13532  0.06099  0.83695  1.0000
  H   H514      1.0  0.17890  0.06950  0.83087  1.0000
  H   H515      1.0  0.20376  0.09704  0.85194  1.0000
  H   H516      1.0  0.40407  0.48362  0.96390  1.0000
  H   H517      1.0  0.01901  0.39841  0.78982  1.0000
  H   H518      1.0  0.21526  0.21861  0.01205  1.0000
  H   H519      1.0  0.24374  0.03140  0.97493  1.0000
  H   H520      1.0  0.40982  0.03252  0.83991  1.0000
  Fe  Fe46      1.0  0.32770  0.02284  0.91225  1.0000
  H   H521      1.0  0.39529  0.49743  0.93293  1.0000
  H   H522      1.0  0.37029  0.04691  0.85334  1.0000
  H   H523      1.0  0.04883  0.21773  0.76711  1.0000
  C   C653      1.0  0.01991  0.26071  0.91858  1.0000
  C   C654      1.0  0.03192  0.28757  0.91850  1.0000
  C   C655      1.0  0.33494  0.50310  0.85295  1.0000
  C   C656      1.0  0.06839  0.38224  0.79415  1.0000
  H   H524      1.0  0.30266  0.03448  0.98846  1.0000
  C   C657      1.0  0.13282  0.31878  0.99189  1.0000
  S   S94       1.0  0.48070  0.07473  0.77335  1.0000
  C   C658      1.0  0.03240  0.23584  0.92458  1.0000
  C   C659      1.0  0.05679  0.23757  0.92953  1.0000
  C   C660      1.0  0.06869  0.26424  0.92910  1.0000
  C   C661      1.0  0.05619  0.28927  0.92378  1.0000
  H   H525      1.0  0.04624  0.26508  0.96686  1.0000
  C   C662      1.0  0.06653  0.28438  0.98815  1.0000
  C   C663      1.0  0.19275  0.43548  0.99301  1.0000
  C   C664      1.0  0.44292  0.48598  0.96073  1.0000
  C   C665      1.0  0.49488  0.40973  0.77074  1.0000
  C   C666      1.0  0.22711  0.14447  0.98973  1.0000
  C   C667      1.0  0.26059  0.34221  0.01087  1.0000
  H   H526      1.0  0.02302  0.30706  0.91370  1.0000
  H   H527      1.0  0.42932  0.45774  0.77784  1.0000
  H   H528      1.0  0.10594  0.21398  0.98666  1.0000
  C   C668      1.0  0.47694  0.28661  0.77683  1.0000
  C   C669      1.0  0.99900  0.35873  0.78600  1.0000
  H   H529      1.0  0.11519  0.25242  0.00823  1.0000
  H   H530      1.0  0.47226  0.26642  0.77024  1.0000
  H   H531      1.0  0.02370  0.21480  0.92444  1.0000
  H   H532      1.0  0.06686  0.21805  0.93299  1.0000
  H   H533      1.0  0.08785  0.26532  0.93235  1.0000
  H   H534      1.0  0.06569  0.30976  0.92299  1.0000
  H   H535      1.0  0.43450  0.42203  0.80189  1.0000
  H   H536      1.0  0.07130  0.21989  0.96609  1.0000
  S   S95       1.0  0.43877  0.48432  0.85733  1.0000
  H   H537      1.0  0.27226  0.13450  0.85709  1.0000
  H   H538      1.0  0.49092  0.12581  0.79574  1.0000
  C   C670      1.0  0.46627  0.33539  0.78626  1.0000
  S   S96       1.0  0.02154  0.17644  0.79253  1.0000
  C   C671      1.0  0.31938  0.10514  0.99428  1.0000
  C   C672      1.0  0.15248  0.33442  0.98534  1.0000
  C   C673      1.0  0.00722  0.14940  0.77931  1.0000
  C   C674      1.0  0.40032  0.47266  0.82360  1.0000
  C   C675      1.0  0.24554  0.19859  0.98013  1.0000
  H   H539      1.0  0.45524  0.42436  0.87998  1.0000
  C   C676      1.0  0.49329  0.16240  0.77783  1.0000
  H   H540      1.0  0.14559  0.07588  0.00206  1.0000
  H   H541      1.0  0.30559  0.43222  0.99373  1.0000
  S   S97       1.0  0.28966  0.01364  0.95464  1.0000
  H   H542      1.0  0.22297  0.48268  0.96668  1.0000
  H   H543      1.0  0.15745  0.31901  0.76670  1.0000
  H   H544      1.0  0.26504  0.37044  0.96273  1.0000
  H   H545      1.0  0.25725  0.45086  0.97499  1.0000
  C   C677      1.0  0.45718  0.49964  0.93159  1.0000
  H   H546      1.0  0.49364  0.35908  0.80004  1.0000
  C   C678      1.0  0.46009  0.30942  0.77782  1.0000
  H   H547      1.0  0.12665  0.30016  0.98445  1.0000
  C   C679      1.0  0.41718  0.50025  0.87205  1.0000
  C   C680      1.0  0.23521  0.30360  0.99961  1.0000
  C   C681      1.0  0.22467  0.32307  0.98771  1.0000
  C   C682      1.0  0.23212  0.35197  0.98728  1.0000
  C   C683      1.0  0.24995  0.36193  0.99899  1.0000
  C   C684      1.0  0.01382  0.21700  0.88646  1.0000
  P   P22       1.0  0.26051  0.39893  0.99742  1.0000
  C   C685      1.0  0.28349  0.40011  0.98046  1.0000
  C   C686      1.0  0.23549  0.42232  0.99114  1.0000
  S   S98       1.0  0.49467  0.04517  0.82531  1.0000
  C   C687      1.0  0.39857  0.48266  0.87877  1.0000
  C   C688      1.0  0.19663  0.45893  0.98171  1.0000
  C   C689      1.0  0.21991  0.46438  0.97534  1.0000
  C   C690      1.0  0.23932  0.44620  0.98004  1.0000
  C   C691      1.0  0.28075  0.38393  0.96485  1.0000
  C   C692      1.0  0.29792  0.38591  0.95137  1.0000
  C   C693      1.0  0.31782  0.40422  0.95325  1.0000
  C   C694      1.0  0.32065  0.42046  0.96870  1.0000
  C   C695      1.0  0.30353  0.41851  0.98222  1.0000
  H   H548      1.0  0.35516  0.08890  0.98801  1.0000
  C   C696      1.0  0.15005  0.36722  0.01024  1.0000
  C   C697      1.0  0.21213  0.41733  0.99782  1.0000
  H   H549      1.0  0.21982  0.12339  0.99269  1.0000
  C   C698      1.0  0.38097  0.49399  0.89051  1.0000
  Fe  Fe47      1.0  0.00521  0.21613  0.80677  1.0000
  H   H550      1.0  0.99707  0.15325  0.86737  1.0000
  C   C699      1.0  0.25622  0.07100  0.98689  1.0000
  C   C700      1.0  0.16121  0.35846  0.99453  1.0000
  C   C701      1.0  0.49006  0.13279  0.78214  1.0000
  H   H551      1.0  0.44672  0.48003  0.97426  1.0000
  C   C702      1.0  0.41351  0.44701  0.82060  1.0000
  C   C703      1.0  0.99644  0.29351  0.87966  1.0000
  C   C704      1.0  0.02090  0.12509  0.77363  1.0000
  C   C705      1.0  0.29727  0.12709  0.97008  1.0000
  H   H552      1.0  0.16113  0.32776  0.97315  1.0000
  C   C706      1.0  0.06676  0.33842  0.77616  1.0000
  C   C707      1.0  0.15303  0.09001  0.01213  1.0000
  H   H553      1.0  0.19265  0.16123  0.98055  1.0000
  H   H554      1.0  0.18165  0.47297  0.97790  1.0000
  H   H555      1.0  0.17472  0.43141  0.99804  1.0000
  C   C708      1.0  0.46203  0.49182  0.94913  1.0000
  H   H556      1.0  0.44853  0.46399  0.90108  1.0000
  H   H557      1.0  0.28091  0.13638  0.96445  1.0000
  H   H558      1.0  0.25271  0.21927  0.97583  1.0000
  C   C709      1.0  0.06114  0.26231  0.97605  1.0000
  H   H559      1.0  0.33559  0.43546  0.96997  1.0000
  C   C710      1.0  0.06152  0.33564  0.80792  1.0000
  H   H560      1.0  0.00471  0.32343  0.85878  1.0000
  C   C711      1.0  0.21170  0.16572  0.98266  1.0000
  S   S99       1.0  0.29674  0.49222  0.98631  1.0000
  H   H561      1.0  0.35351  0.10493  0.95692  1.0000
  C   C712      1.0  0.35222  0.02241  0.01408  1.0000
  P   P23       1.0  0.27175  0.12306  0.00185  1.0000
  C   C713      1.0  0.06909  0.35760  0.00247  1.0000
  H   H562      1.0  0.07019  0.40564  0.79516  1.0000
  C   C714      1.0  0.29821  0.11873  0.98789  1.0000
  C   C715      1.0  0.12148  0.32732  0.00770  1.0000
  H   H563      1.0  0.05832  0.32281  0.81965  1.0000
  C   C716      1.0  0.06292  0.32200  0.79146  1.0000
  C   C717      1.0  0.34880  0.50358  0.83751  1.0000
  H   H564      1.0  0.04996  0.39508  0.99240  1.0000
  C   C718      1.0  0.33924  0.10037  0.98315  1.0000
  H   H565      1.0  0.33057  0.40650  0.94248  1.0000
  S   S100      1.0  0.26518  0.49574  0.94407  1.0000
  C   C719      1.0  0.01584  0.19088  0.87708  1.0000
  H   H566      1.0  0.03985  0.12340  0.77722  1.0000
  C   C720      1.0  0.38234  0.03236  0.86039  1.0000
  H   H567      1.0  0.49002  0.08074  0.94614  1.0000
  C   C721      1.0  0.43296  0.50142  0.92589  1.0000
  H   H568      1.0  0.48046  0.49035  0.95395  1.0000
  H   H569      1.0  0.22942  0.28113  0.99982  1.0000
  C   C722      1.0  0.39706  0.49294  0.80999  1.0000
  C   C723      1.0  0.33833  0.02559  0.99863  1.0000
  H   H570      1.0  0.99989  0.10330  0.80937  1.0000
  H   H571      1.0  0.02972  0.23044  0.88789  1.0000
  H   H572      1.0  0.05555  0.30398  0.98817  1.0000
  C   C724      1.0  0.05125  0.37940  0.00300  1.0000
  H   H573      1.0  0.03310  0.18450  0.87136  1.0000
  H   H574      1.0  0.42878  0.50739  0.91244  1.0000
  P   P24       1.0  0.09427  0.30938  0.01521  1.0000
  C   C725      1.0  0.17724  0.09853  0.01120  1.0000
  C   C726      1.0  0.99554  0.17334  0.87479  1.0000
  S   S101      1.0  0.46702  0.50719  0.81071  1.0000
  H   H575      1.0  0.18859  0.09068  0.00049  1.0000
  H   H576      1.0  0.34747  0.48567  0.82826  1.0000
  H   H577      1.0  0.37146  0.01793  0.01306  1.0000
  H   H578      1.0  0.29846  0.28476  0.77412  1.0000
  C   C727      1.0  0.00622  0.38714  0.78152  1.0000
  C   C728      1.0  0.25318  0.31317  0.01119  1.0000
  C   C729      1.0  0.49340  0.43260  0.87693  1.0000
  H   H579      1.0  0.40624  0.50337  0.78301  1.0000
  H   H580      1.0  0.32057  0.09730  0.00763  1.0000
  C   C730      1.0  0.48534  0.11238  0.76887  1.0000
  H   H581      1.0  0.39770  0.18257  0.76692  1.0000
  Fe  Fe48      1.0  0.49351  0.47025  0.80542  1.0000
  S   S102      1.0  0.01944  0.77306  0.22072  1.0000
  C   C731      1.0  0.31096  0.89686  0.08251  1.0000
  H   H582      1.0  0.01785  0.82777  0.17294  1.0000
  S   S103      1.0  0.02887  0.76550  0.16682  1.0000
  C   C732      1.0  0.33469  0.67652  0.14336  1.0000
  H   H583      1.0  0.20730  0.62199  0.05295  1.0000
  C   C733      1.0  0.36978  0.64301  0.19151  1.0000
  H   H584      1.0  0.29111  0.95895  0.06306  1.0000
  C   C734      1.0  0.14498  0.58902  0.15810  1.0000
  C   C735      1.0  0.30281  0.60094  0.15165  1.0000
  H   H585      1.0  0.18982  0.83937  0.02169  1.0000
  C   C736      1.0  0.11310  0.66808  0.11435  1.0000
  C   C737      1.0  0.32319  0.59864  0.16269  1.0000
  H   H586      1.0  0.25563  0.77820  0.03301  1.0000
  Fe  Fe49      1.0  0.26932  0.55819  0.10727  1.0000
  S   S104      1.0  0.23817  0.59086  0.11054  1.0000
  Fe  Fe50      1.0  0.30490  0.99033  0.11250  1.0000
  S   S105      1.0  0.29881  0.94414  0.12218  1.0000
  S   S106      1.0  0.30938  0.56666  0.10677  1.0000
  H   H587      1.0  0.30980  0.93062  0.03115  1.0000
  Fe  Fe51      1.0  0.19991  0.82197  0.10255  1.0000
  S   S107      1.0  0.16015  0.81162  0.09988  1.0000
  S   S108      1.0  0.21035  0.86794  0.09454  1.0000
  Fe  Fe52      1.0  0.21307  0.75898  0.11242  1.0000
  S   S109      1.0  0.17451  0.74449  0.11072  1.0000
  S   S110      1.0  0.24501  0.72864  0.11855  1.0000
  Fe  Fe53      1.0  0.17298  0.77116  0.08580  1.0000
  S   S111      1.0  0.15451  0.75366  0.06109  1.0000
  Fe  Fe54      1.0  0.16449  0.78615  0.12496  1.0000
  S   S112      1.0  0.14040  0.79139  0.14963  1.0000
  S   S113      1.0  0.21222  0.78317  0.08670  1.0000
  S   S114      1.0  0.20377  0.79899  0.12853  1.0000
  C   C738      1.0  0.27387  0.92329  0.11470  1.0000
  C   C739      1.0  0.25674  0.93476  0.10297  1.0000
  C   C740      1.0  0.23742  0.91748  0.09702  1.0000
  C   C741      1.0  0.23495  0.88860  0.10271  1.0000
  C   C742      1.0  0.25204  0.87707  0.11446  1.0000
  C   C743      1.0  0.27141  0.89438  0.12043  1.0000
  H   H588      1.0  0.25840  0.95688  0.09840  1.0000
  H   H589      1.0  0.22423  0.92662  0.08805  1.0000
  H   H590      1.0  0.25034  0.85486  0.11894  1.0000
  H   H591      1.0  0.28459  0.88531  0.12948  1.0000
  C   C744      1.0  0.24091  0.62921  0.11181  1.0000
  C   C745      1.0  0.26318  0.64272  0.11475  1.0000
  C   C746      1.0  0.26424  0.67322  0.11657  1.0000
  C   C747      1.0  0.24317  0.69052  0.11512  1.0000
  C   C748      1.0  0.22109  0.67705  0.11144  1.0000
  C   C749      1.0  0.21996  0.64656  0.10997  1.0000
  H   H592      1.0  0.27950  0.62966  0.11578  1.0000
  H   H593      1.0  0.28144  0.68344  0.11914  1.0000
  H   H594      1.0  0.20478  0.69007  0.11012  1.0000
  H   H595      1.0  0.20279  0.63633  0.10730  1.0000
  C   C750      1.0  0.18967  0.77533  0.03885  1.0000
  C   C751      1.0  0.16765  0.76075  0.04021  1.0000
  S   S115      1.0  0.44842  0.51326  0.22751  1.0000
  H   H596      1.0  0.19889  0.78257  0.05059  1.0000
  Fe  Fe55      1.0  0.46299  0.51996  0.20012  1.0000
  C   C752      1.0  0.07836  0.93694  0.22143  1.0000
  H   H597      1.0  0.28000  0.67066  0.03105  1.0000
  H   H598      1.0  0.14028  0.85010  0.17087  1.0000
  C   C753      1.0  0.99792  0.86464  0.18323  1.0000
  C   C754      1.0  0.12661  0.85658  0.18046  1.0000
  H   H599      1.0  0.31490  0.60811  0.06467  1.0000
  H   H600      1.0  0.34652  0.67010  0.13266  1.0000
  H   H601      1.0  0.33950  0.57410  0.18410  1.0000
  C   C755      1.0  0.21736  0.95687  0.05524  1.0000
  H   H602      1.0  0.16575  0.55723  0.14333  1.0000
  Fe  Fe56      1.0  0.99603  0.73454  0.22817  1.0000
  H   H603      1.0  0.06222  0.99223  0.24928  1.0000
  C   C756      1.0  0.31571  0.66766  0.17162  1.0000
  C   C757      1.0  0.24081  0.95947  0.04817  1.0000
  C   C758      1.0  0.06384  0.91479  0.22833  1.0000
  C   C759      1.0  0.21675  0.00814  0.06266  1.0000
  H   H604      1.0  0.38444  0.58103  0.16889  1.0000
  H   H605      1.0  0.31298  0.65409  0.18310  1.0000
  C   C760      1.0  0.30456  0.55759  0.17734  1.0000
  C   C761      1.0  0.38661  0.64043  0.20526  1.0000
  C   C762      1.0  0.10937  0.78360  0.15408  1.0000
  C   C763      1.0  0.09255  0.77832  0.14067  1.0000
  C   C764      1.0  0.06808  0.77279  0.14485  1.0000
  C   C765      1.0  0.06000  0.77268  0.16246  1.0000
  C   C766      1.0  0.07681  0.77789  0.17590  1.0000
  C   C767      1.0  0.10132  0.78326  0.17170  1.0000
  H   H606      1.0  0.09830  0.77902  0.12707  1.0000
  H   H607      1.0  0.05527  0.76881  0.13434  1.0000
  H   H608      1.0  0.07096  0.77768  0.18951  1.0000
  H   H609      1.0  0.11416  0.78710  0.18220  1.0000
  C   C768      1.0  0.47952  0.61188  0.26441  1.0000
  C   C769      1.0  0.01784  0.84572  0.18225  1.0000
  H   H610      1.0  0.14031  0.57394  0.16848  1.0000
  C   C770      1.0  0.28445  0.55987  0.16617  1.0000
  Fe  Fe57      1.0  0.00787  0.76413  0.19286  1.0000
  H   H611      1.0  0.35786  0.66179  0.19119  1.0000
  C   C771      1.0  0.30162  0.69290  0.16961  1.0000
  H   H612      1.0  0.09934  0.71452  0.08077  1.0000
  C   C772      1.0  0.40250  0.61655  0.20588  1.0000
  H   H613      1.0  0.34479  0.57781  0.13338  1.0000
  Fe  Fe58      1.0  0.47775  0.54385  0.23674  1.0000
  H   H614      1.0  0.26739  0.00013  0.22465  1.0000
  C   C773      1.0  0.11465  0.72707  0.10569  1.0000
  C   C774      1.0  0.12348  0.68792  0.12624  1.0000
  C   C775      1.0  0.12319  0.71760  0.12209  1.0000
  P   P25       1.0  0.13505  0.67587  0.14732  1.0000
  C   C776      1.0  0.11242  0.68302  0.16411  1.0000
  C   C777      1.0  0.14349  0.63778  0.14580  1.0000
  C   C778      1.0  0.15726  0.62783  0.13135  1.0000
  C   C779      1.0  0.20528  0.69109  0.01663  1.0000
  C   C780      1.0  0.13715  0.61805  0.15909  1.0000
  C   C781      1.0  0.11879  0.68124  0.18201  1.0000
  C   C782      1.0  0.10203  0.68902  0.19509  1.0000
  C   C783      1.0  0.07886  0.69888  0.19041  1.0000
  C   C784      1.0  0.07235  0.70061  0.17265  1.0000
  C   C785      1.0  0.08901  0.69276  0.15953  1.0000
  C   C786      1.0  0.16180  0.69663  0.15297  1.0000
  C   C787      1.0  0.18532  0.68623  0.14917  1.0000
  C   C788      1.0  0.20561  0.70296  0.15329  1.0000
  C   C789      1.0  0.20273  0.73024  0.16114  1.0000
  C   C790      1.0  0.17954  0.74050  0.16533  1.0000
  C   C791      1.0  0.15918  0.72380  0.16131  1.0000
  H   H615      1.0  0.11551  0.74993  0.10227  1.0000
  H   H616      1.0  0.12999  0.73351  0.13136  1.0000
  H   H617      1.0  0.16244  0.64271  0.12099  1.0000
  S   S116      1.0  0.44418  0.53025  0.17385  1.0000
  H   H618      1.0  0.12640  0.62494  0.17028  1.0000
  H   H619      1.0  0.13693  0.67448  0.18581  1.0000
  H   H620      1.0  0.10713  0.68800  0.20888  1.0000
  H   H621      1.0  0.06602  0.70559  0.20051  1.0000
  H   H622      1.0  0.05453  0.70881  0.16903  1.0000
  H   H623      1.0  0.08365  0.69518  0.14589  1.0000
  H   H624      1.0  0.18840  0.66548  0.14289  1.0000
  H   H625      1.0  0.22364  0.69507  0.14999  1.0000
  H   H626      1.0  0.21844  0.74359  0.16371  1.0000
  H   H627      1.0  0.17722  0.76186  0.17122  1.0000
  H   H628      1.0  0.14135  0.73254  0.16435  1.0000
  C   C792      1.0  0.30898  0.92639  0.07847  1.0000
  H   H629      1.0  0.39015  0.65137  0.14478  1.0000
  C   C793      1.0  0.30401  0.70991  0.15449  1.0000
  C   C794      1.0  0.36495  0.61623  0.14058  1.0000
  H   H630      1.0  0.40284  0.59948  0.09842  1.0000
  C   C795      1.0  0.99824  0.86301  0.26507  1.0000
  C   C796      1.0  0.22266  0.67209  0.02389  1.0000
  C   C797      1.0  0.38371  0.52718  0.14287  1.0000
  C   C798      1.0  0.00700  0.63539  0.17708  1.0000
  H   H631      1.0  0.39925  0.51417  0.19227  1.0000
  H   H632      1.0  0.48005  0.63177  0.15772  1.0000
  C   C799      1.0  0.33098  0.54452  0.02188  1.0000
  C   C800      1.0  0.08309  0.83885  0.26547  1.0000
  C   C801      1.0  0.00333  0.66985  0.25864  1.0000
  C   C802      1.0  0.04670  0.83331  0.24002  1.0000
  H   H633      1.0  0.49277  0.94899  0.17283  1.0000
  H   H634      1.0  0.03308  0.79876  0.25630  1.0000
  C   C803      1.0  0.04889  0.92086  0.24294  1.0000
  C   C804      1.0  0.39508  0.51784  0.17852  1.0000
  C   C805      1.0  0.41362  0.52540  0.16685  1.0000
  C   C806      1.0  0.10888  0.87714  0.17598  1.0000
  C   C807      1.0  0.48697  0.91395  0.25697  1.0000
  Fe  Fe59      1.0  0.31351  0.52466  0.12199  1.0000
  H   H635      1.0  0.03207  0.83148  0.23061  1.0000
  C   C808      1.0  0.47612  0.89007  0.26550  1.0000
  H   H636      1.0  0.30561  0.54009  0.18683  1.0000
  C   C809      1.0  0.34446  0.96761  0.15797  1.0000
  C   C810      1.0  0.34299  0.94267  0.16835  1.0000
  C   C811      1.0  0.34242  0.94518  0.18671  1.0000
  C   C812      1.0  0.34267  0.97269  0.19467  1.0000
  H   H637      1.0  0.42190  0.53596  0.13985  1.0000
  H   H638      1.0  0.29567  0.00293  0.19955  1.0000
  H   H639      1.0  0.24364  0.63270  0.01928  1.0000
  H   H640      1.0  0.38523  0.65646  0.02447  1.0000
  C   C813      1.0  0.06271  0.97068  0.24343  1.0000
  C   C814      1.0  0.43726  0.98942  0.10954  1.0000
  C   C815      1.0  0.39682  0.00669  0.14541  1.0000
  S   S117      1.0  0.49035  0.55302  0.20923  1.0000
  H   H641      1.0  0.34198  0.97429  0.20890  1.0000
  C   C816      1.0  0.20312  0.85568  0.02507  1.0000
  C   C817      1.0  0.07774  0.96481  0.22896  1.0000
  C   C818      1.0  0.03787  0.87275  0.20562  1.0000
  C   C819      1.0  0.01771  0.89160  0.20657  1.0000
  H   H642      1.0  0.03754  0.90409  0.24852  1.0000
  H   H643      1.0  0.37963  0.53016  0.12907  1.0000
  C   C820      1.0  0.06473  0.85426  0.23785  1.0000
  H   H644      1.0  0.34480  0.96567  0.14371  1.0000
  H   H645      1.0  0.34223  0.92147  0.16209  1.0000
  H   H646      1.0  0.34150  0.92579  0.19475  1.0000
  C   C821      1.0  0.34511  0.99509  0.16591  1.0000
  C   C822      1.0  0.29972  0.63946  0.04661  1.0000
  C   C823      1.0  0.29895  0.62063  0.06101  1.0000
  C   C824      1.0  0.27770  0.61821  0.07087  1.0000
  C   C825      1.0  0.25720  0.63471  0.06644  1.0000
  C   C826      1.0  0.25760  0.65321  0.05176  1.0000
  C   C827      1.0  0.27913  0.65575  0.04202  1.0000
  P   P26       1.0  0.23214  0.67664  0.04653  1.0000
  C   C828      1.0  0.28353  0.58164  0.15338  1.0000
  C   C829      1.0  0.20583  0.66783  0.05952  1.0000
  C   C830      1.0  0.19763  0.63901  0.06002  1.0000
  C   C831      1.0  0.17714  0.63187  0.06991  1.0000
  C   C832      1.0  0.16424  0.65361  0.07887  1.0000
  C   C833      1.0  0.17180  0.68248  0.07795  1.0000
  C   C834      1.0  0.19258  0.68964  0.06837  1.0000
  C   C835      1.0  0.02240  0.64975  0.18879  1.0000
  H   H647      1.0  0.32284  0.88986  0.09308  1.0000
  C   C836      1.0  0.16535  0.59894  0.13053  1.0000
  H   H648      1.0  0.42707  0.96938  0.10945  1.0000
  S   S118      1.0  0.01377  0.70083  0.24666  1.0000
  C   C837      1.0  0.24284  0.71267  0.05168  1.0000
  C   C838      1.0  0.25153  0.71832  0.06872  1.0000
  C   C839      1.0  0.26164  0.74528  0.07283  1.0000
  C   C840      1.0  0.26307  0.76687  0.05998  1.0000
  C   C841      1.0  0.25462  0.76138  0.04294  1.0000
  C   C842      1.0  0.24454  0.73438  0.03877  1.0000
  H   H649      1.0  0.31633  0.64148  0.03912  1.0000
  C   C843      1.0  0.29953  0.94001  0.02041  1.0000
  H   H650      1.0  0.27714  0.60380  0.08214  1.0000
  S   S119      1.0  0.33780  0.00136  0.09616  1.0000
  H   H651      1.0  0.26807  0.58324  0.14458  1.0000
  H   H652      1.0  0.09026  0.93281  0.21035  1.0000
  H   H653      1.0  0.17130  0.60946  0.07058  1.0000
  H   H654      1.0  0.14830  0.64814  0.08642  1.0000
  H   H655      1.0  0.16143  0.69950  0.08449  1.0000
  H   H656      1.0  0.19795  0.71223  0.06772  1.0000
  C   C844      1.0  0.09009  0.87159  0.20480  1.0000
  C   C845      1.0  0.36869  0.62155  0.17832  1.0000
  C   C846      1.0  0.40166  0.59529  0.19271  1.0000
  P   P27       1.0  0.06441  0.87846  0.21916  1.0000
  C   C847      1.0  0.33247  0.65930  0.15855  1.0000
  H   H657      1.0  0.25054  0.70184  0.07887  1.0000
  H   H658      1.0  0.26791  0.74958  0.08613  1.0000
  H   H659      1.0  0.27036  0.78799  0.06333  1.0000
  C   C848      1.0  0.25179  0.98695  0.04812  1.0000
  C   C849      1.0  0.37267  0.58671  0.11453  1.0000
  H   H660      1.0  0.29257  0.72901  0.15265  1.0000
  H   H661      1.0  0.41552  0.61447  0.21654  1.0000
  C   C850      1.0  0.20706  0.86309  0.04269  1.0000
  C   C851      1.0  0.36512  0.51997  0.15455  1.0000
  H   H662      1.0  0.41237  0.96982  0.15904  1.0000
  H   H663      1.0  0.47614  0.92818  0.24872  1.0000
  C   C852      1.0  0.23670  0.89912  0.03373  1.0000
  C   C853      1.0  0.22383  0.88459  0.04700  1.0000
  P   P28       1.0  0.25729  0.92816  0.03966  1.0000
  C   C854      1.0  0.10804  0.85093  0.20920  1.0000
  H   H664      1.0  0.09655  0.87371  0.24952  1.0000
  C   C855      1.0  0.12630  0.84368  0.19710  1.0000
  C   C856      1.0  0.38505  0.63340  0.13633  1.0000
  H   H665      1.0  0.22668  0.88997  0.06076  1.0000
  H   H666      1.0  0.13982  0.82730  0.20035  1.0000
  C   C857      1.0  0.29706  0.87662  0.07330  1.0000
  H   H667      1.0  0.27080  0.86973  0.05305  1.0000
  C   C858      1.0  0.40774  0.53016  0.14902  1.0000
  C   C859      1.0  0.09069  0.88463  0.18807  1.0000
  C   C860      1.0  0.38487  0.59779  0.17898  1.0000
  C   C861      1.0  0.39235  0.60421  0.11018  1.0000
  C   C862      1.0  0.27833  0.91573  0.05640  1.0000
  H   H668      1.0  0.17684  0.59173  0.11971  1.0000
  C   C863      1.0  0.32055  0.53567  0.03789  1.0000
  C   C864      1.0  0.04711  0.81490  0.25468  1.0000
  C   C865      1.0  0.15923  0.57954  0.14391  1.0000
  C   C866      1.0  0.29259  0.93588  0.06563  1.0000
  H   H669      1.0  0.19711  0.85224  0.05309  1.0000
  H   H670      1.0  0.10768  0.83962  0.22164  1.0000
  C   C867      1.0  0.15590  0.75171  0.02467  1.0000
  H   H671      1.0  0.47005  0.96876  0.11823  1.0000
  H   H672      1.0  0.20818  0.93628  0.05553  1.0000
  H   H673      1.0  0.26884  0.56828  0.02030  1.0000
  H   H674      1.0  0.26986  0.54433  0.16714  1.0000
  P   P29       1.0  0.34758  0.62429  0.16019  1.0000
  S   S120      1.0  0.33059  0.55084  0.05802  1.0000
  H   H675      1.0  0.26978  0.98976  0.04266  1.0000
  H   H676      1.0  0.36601  0.60806  0.02196  1.0000
  C   C868      1.0  0.46166  0.98924  0.11461  1.0000
  H   H677      1.0  0.31950  0.94206  0.08583  1.0000
  C   C869      1.0  0.10434  0.67764  0.09802  1.0000
  C   C870      1.0  0.28109  0.88592  0.06011  1.0000
  S   S121      1.0  0.27292  0.51822  0.12425  1.0000
  H   H678      1.0  0.18760  0.97868  0.06823  1.0000
  H   H679      1.0  0.11183  0.64525  0.11760  1.0000
  H   H680      1.0  0.41402  0.57678  0.19312  1.0000
  Fe  Fe60      1.0  0.30985  0.53783  0.08261  1.0000
  H   H681      1.0  0.32201  0.71471  0.12955  1.0000
  H   H682      1.0  0.41412  0.64076  0.11790  1.0000
  C   C871      1.0  0.10551  0.70707  0.09358  1.0000
  C   C872      1.0  0.32064  0.70182  0.14145  1.0000
  H   H683      1.0  0.08898  0.98186  0.22362  1.0000
  H   H684      1.0  0.19780  0.70884  0.02443  1.0000
  H   H685      1.0  0.02638  0.66749  0.21498  1.0000
  H   H686      1.0  0.28838  0.69892  0.17956  1.0000
  C   C873      1.0  0.32392  0.57685  0.17561  1.0000
  H   H687      1.0  0.30194  0.61749  0.14156  1.0000
  H   H688      1.0  0.38740  0.65695  0.21546  1.0000
  H   H689      1.0  0.09680  0.66224  0.08872  1.0000
  H   H690      1.0  0.36798  0.56837  0.10621  1.0000
  C   C874      1.0  0.99780  0.88745  0.19544  1.0000
  H   H691      1.0  0.01327  0.63006  0.16393  1.0000
  H   H692      1.0  0.07661  0.89988  0.18416  1.0000
  H   H693      1.0  0.29835  0.85377  0.07662  1.0000
  C   C875      1.0  0.35925  0.59240  0.12983  1.0000
  S   S122      1.0  0.44831  0.99134  0.18298  1.0000
  C   C876      1.0  0.03766  0.84958  0.19347  1.0000
  C   C877      1.0  0.27404  0.94111  0.02078  1.0000
  H   H694      1.0  0.04055  0.65548  0.18474  1.0000
  H   H695      1.0  0.23809  0.73076  0.02553  1.0000
  H   H696      1.0  0.24138  0.63322  0.07477  1.0000
  H   H697      1.0  0.05282  0.83447  0.19260  1.0000
  C   C878      1.0  0.39865  0.62745  0.12114  1.0000
  C   C879      1.0  0.08277  0.85719  0.25080  1.0000
  H   H698      1.0  0.10894  0.88667  0.16293  1.0000
  H   H699      1.0  0.03665  0.95315  0.26167  1.0000
  C   C880      1.0  0.01444  0.65647  0.20582  1.0000
  S   S123      1.0  0.46866  0.57660  0.25878  1.0000
  S   S124      1.0  0.26962  0.53223  0.08214  1.0000
  C   C881      1.0  0.49330  0.61621  0.16257  1.0000
  H   H700      1.0  0.47184  0.57885  0.15545  1.0000
  H   H701      1.0  0.01700  0.90916  0.21606  1.0000
  H   H702      1.0  0.13883  0.74043  0.02558  1.0000
  H   H703      1.0  0.34518  0.56053  0.02203  1.0000
  C   C882      1.0  0.19980  0.78094  0.02224  1.0000
  C   C883      1.0  0.34352  0.99791  0.18426  1.0000
  H   H704      1.0  0.38662  0.00115  0.20254  1.0000
  C   C884      1.0  0.37098  0.51528  0.17240  1.0000
  C   C885      1.0  0.04832  0.94869  0.25042  1.0000
  C   C886      1.0  0.20545  0.98109  0.06247  1.0000
  H   H705      1.0  0.21669  0.79259  0.02139  1.0000
  C   C887      1.0  0.30251  0.51454  0.03766  1.0000
  Fe  Fe61      1.0  0.47756  0.00878  0.20158  1.0000
  H   H706      1.0  0.48823  0.99529  0.15709  1.0000
  H   H707      1.0  0.45695  0.88621  0.26370  1.0000
  C   C888      1.0  0.41255  0.99323  0.15765  1.0000
  H   H708      1.0  0.38494  0.99362  0.13734  1.0000
  C   C889      1.0  0.48868  0.58644  0.16119  1.0000
  S   S125      1.0  0.33437  0.51637  0.14769  1.0000
  S   S126      1.0  0.47385  0.00554  0.23119  1.0000
  C   C890      1.0  0.42857  0.00972  0.16801  1.0000
  H   H709      1.0  0.03955  0.65597  0.26556  1.0000
  C   C891      1.0  0.43157  0.93715  0.35064  1.0000
  C   C892      1.0  0.34204  0.94303  0.45830  1.0000
  S   S127      1.0  0.07489  0.54519  0.34084  1.0000
  Fe  Fe62      1.0  0.03649  0.53328  0.33161  1.0000
  C   C893      1.0  0.02992  0.88230  0.38246  1.0000
  H   H710      1.0  0.33427  0.52333  0.39880  1.0000
  S   S128      1.0  0.46417  0.76194  0.30154  1.0000
  C   C894      1.0  0.46954  0.78162  0.44234  1.0000
  Fe  Fe63      1.0  0.46505  0.76059  0.33132  1.0000
  S   S129      1.0  0.42802  0.75285  0.34453  1.0000
  C   C895      1.0  0.06530  0.81761  0.26737  1.0000
  C   C896      1.0  0.39861  0.79332  0.30832  1.0000
  H   H711      1.0  0.38870  0.88765  0.32359  1.0000
  Fe  Fe64      1.0  0.19557  0.54396  0.45610  1.0000
  C   C897      1.0  0.41645  0.81463  0.30915  1.0000
  C   C898      1.0  0.03700  0.56393  0.38717  1.0000
  Fe  Fe65      1.0  0.22144  0.54968  0.42081  1.0000
  S   S130      1.0  0.25165  0.57463  0.40721  1.0000
  Fe  Fe66      1.0  0.19638  0.97941  0.42955  1.0000
  S   S131      1.0  0.20194  0.93004  0.42941  1.0000
  S   S132      1.0  0.18531  0.56627  0.43065  1.0000
  H   H712      1.0  0.06159  0.88457  0.34382  1.0000
  Fe  Fe67      1.0  0.29423  0.74002  0.42473  1.0000
  S   S133      1.0  0.32377  0.72442  0.44280  1.0000
  S   S134      1.0  0.26765  0.71137  0.40975  1.0000
  Fe  Fe68      1.0  0.30418  0.80498  0.43288  1.0000
  S   S135      1.0  0.33425  0.79317  0.45169  1.0000
  S   S136      1.0  0.29938  0.85374  0.42779  1.0000
  Fe  Fe69      1.0  0.34610  0.76069  0.43090  1.0000
  S   S137      1.0  0.38649  0.75731  0.42345  1.0000
  Fe  Fe70      1.0  0.30933  0.75836  0.46168  1.0000
  S   S138      1.0  0.29491  0.74855  0.48918  1.0000
  S   S139      1.0  0.31725  0.77416  0.41166  1.0000
  S   S140      1.0  0.27854  0.77229  0.44404  1.0000
  C   C899      1.0  0.22942  0.90954  0.42963  1.0000
  C   C900      1.0  0.22855  0.87955  0.43324  1.0000
  C   C901      1.0  0.24978  0.86218  0.43296  1.0000
  C   C902      1.0  0.27210  0.87460  0.42879  1.0000
  C   C903      1.0  0.27301  0.90467  0.42536  1.0000
  C   C904      1.0  0.25185  0.92212  0.42594  1.0000
  H   H713      1.0  0.21129  0.86961  0.43611  1.0000
  H   H714      1.0  0.24880  0.83914  0.43570  1.0000
  H   H715      1.0  0.29015  0.91450  0.42207  1.0000
  H   H716      1.0  0.25278  0.94513  0.42309  1.0000
  C   C905      1.0  0.26336  0.67335  0.41247  1.0000
  C   C906      1.0  0.23986  0.66205  0.41073  1.0000
  C   C907      1.0  0.23592  0.63179  0.41050  1.0000
  C   C908      1.0  0.25557  0.61239  0.41138  1.0000
  C   C909      1.0  0.27908  0.62362  0.41337  1.0000
  C   C910      1.0  0.28294  0.65394  0.41423  1.0000
  H   H717      1.0  0.22464  0.67683  0.40916  1.0000
  H   H718      1.0  0.21777  0.62353  0.40871  1.0000
  H   H719      1.0  0.29444  0.60885  0.41383  1.0000
  H   H720      1.0  0.30115  0.66227  0.41532  1.0000
  P   P30       1.0  0.28184  0.91034  0.49527  1.0000
  C   C911      1.0  0.03991  0.96672  0.39718  1.0000
  H   H721      1.0  0.01523  0.89805  0.38213  1.0000
  C   C912      1.0  0.29063  0.85264  0.48605  1.0000
  C   C913      1.0  0.47960  0.65286  0.28532  1.0000
  H   H722      1.0  0.02378  0.54143  0.45915  1.0000
  C   C914      1.0  0.01315  0.62594  0.27584  1.0000
  C   C915      1.0  0.23239  0.97690  0.50186  1.0000
  H   H723      1.0  0.23405  0.88217  0.49082  1.0000
  H   H724      1.0  0.34525  0.76216  0.49810  1.0000
  C   C916      1.0  0.41727  0.75621  0.36665  1.0000
  C   C917      1.0  0.43273  0.75433  0.38123  1.0000
  C   C918      1.0  0.42319  0.75529  0.39852  1.0000
  C   C919      1.0  0.39804  0.75809  0.40148  1.0000
  C   C920      1.0  0.38267  0.76050  0.38691  1.0000
  C   C921      1.0  0.39218  0.75930  0.36965  1.0000
  H   H725      1.0  0.45196  0.75165  0.37913  1.0000
  H   H726      1.0  0.43532  0.75343  0.40964  1.0000
  H   H727      1.0  0.36340  0.76276  0.38899  1.0000
  H   H728      1.0  0.37991  0.76028  0.35858  1.0000
  C   C922      1.0  0.25716  0.93585  0.49212  1.0000
  C   C923      1.0  0.09044  0.53575  0.36071  1.0000
  C   C924      1.0  0.11273  0.54910  0.36451  1.0000
  C   C925      1.0  0.12611  0.54191  0.37980  1.0000
  P   P31       1.0  0.40172  0.85611  0.35583  1.0000
  C   C926      1.0  0.21819  0.97434  0.48670  1.0000
  C   C927      1.0  0.24338  0.93438  0.47658  1.0000
  H   H729      1.0  0.11955  0.56535  0.35557  1.0000
  H   H730      1.0  0.14315  0.55250  0.38250  1.0000
  C   C928      1.0  0.33864  0.95598  0.47484  1.0000
  H   H731      1.0  0.44336  0.81608  0.35258  1.0000
  H   H732      1.0  0.05163  0.53449  0.48424  1.0000
  H   H733      1.0  0.43835  0.75692  0.45034  1.0000
  H   H734      1.0  0.38012  0.82262  0.38468  1.0000
  C   C929      1.0  0.12940  0.95929  0.38196  1.0000
  H   H735      1.0  0.32948  0.91021  0.44009  1.0000
  H   H736      1.0  0.16679  0.51567  0.48867  1.0000
  C   C930      1.0  0.31065  0.51314  0.45835  1.0000
  H   H737      1.0  0.09707  0.84114  0.27540  1.0000
  C   C931      1.0  0.49253  0.78063  0.43452  1.0000
  C   C932      1.0  0.28397  0.82423  0.48186  1.0000
  H   H738      1.0  0.43183  0.84942  0.32413  1.0000
  H   H739      1.0  0.24021  0.61338  0.50583  1.0000
  C   C933      1.0  0.19904  0.77374  0.50387  1.0000
  C   C934      1.0  0.06201  0.90625  0.33837  1.0000
  H   H740      1.0  0.23310  0.75052  0.50602  1.0000
  S   S141      1.0  0.02800  0.52365  0.30293  1.0000
  C   C935      1.0  0.99738  0.91281  0.27712  1.0000
  H   H741      1.0  0.04091  0.58305  0.36146  1.0000
  C   C936      1.0  0.30869  0.91051  0.46406  1.0000
  Fe  Fe71      1.0  0.48736  0.80206  0.30326  1.0000
  H   H742      1.0  0.31769  0.95641  0.49876  1.0000
  S   S142      1.0  0.18689  0.00598  0.40553  1.0000
  C   C937      1.0  0.04623  0.56224  0.40441  1.0000
  C   C938      1.0  0.25819  0.68263  0.49683  1.0000
  C   C939      1.0  0.25519  0.68209  0.47852  1.0000
  C   C940      1.0  0.24705  0.65686  0.47017  1.0000
  C   C941      1.0  0.24169  0.63225  0.48017  1.0000
  C   C942      1.0  0.24501  0.63259  0.49847  1.0000
  C   C943      1.0  0.00352  0.88309  0.27868  1.0000
  S   S143      1.0  0.47497  0.84094  0.28629  1.0000
  C   C944      1.0  0.47135  0.62511  0.28014  1.0000
  C   C945      1.0  0.25204  0.95790  0.50450  1.0000
  C   C946      1.0  0.42272  0.94634  0.33430  1.0000
  H   H743      1.0  0.09094  0.87516  0.37609  1.0000
  H   H744      1.0  0.44372  0.95098  0.35805  1.0000
  C   C947      1.0  0.04765  0.58239  0.37486  1.0000
  H   H745      1.0  0.34106  0.82697  0.40029  1.0000
  C   C948      1.0  0.32030  0.94610  0.48604  1.0000
  S   S144      1.0  0.23234  0.53028  0.44664  1.0000
  S   S145      1.0  0.19645  0.56675  0.48266  1.0000
  H   H746      1.0  0.02660  0.61162  0.28165  1.0000
  H   H747      1.0  0.13971  0.98078  0.51591  1.0000
  Fe  Fe72      1.0  0.99534  0.55332  0.30650  1.0000
  C   C949      1.0  0.07664  0.59810  0.39671  1.0000
  C   C950      1.0  0.06230  0.96174  0.32339  1.0000
  H   H748      1.0  0.25927  0.70128  0.47080  1.0000
  H   H749      1.0  0.24469  0.65645  0.45596  1.0000
  H   H750      1.0  0.23473  0.61289  0.47375  1.0000
  H   H751      1.0  0.43236  0.90324  0.36990  1.0000
  H   H752      1.0  0.47523  0.80084  0.37328  1.0000
  C   C951      1.0  0.16616  0.54119  0.34374  1.0000
  H   H753      1.0  0.35829  0.89299  0.35035  1.0000
  S   S146      1.0  0.16282  0.99326  0.44448  1.0000
  S   S147      1.0  0.13323  0.51113  0.41121  1.0000
  H   H754      1.0  0.16672  0.80033  0.50521  1.0000
  H   H755      1.0  0.07264  0.58044  0.42254  1.0000
  H   H756      1.0  0.05632  0.96473  0.40492  1.0000
  C   C952      1.0  0.17183  0.52467  0.50131  1.0000
  C   C953      1.0  0.46109  0.81571  0.37767  1.0000
  H   H757      1.0  0.00268  0.84024  0.26670  1.0000
  H   H758      1.0  0.35021  0.97365  0.47897  1.0000
  C   C954      1.0  0.06198  0.93716  0.31255  1.0000
  H   H759      1.0  0.21512  0.55574  0.37941  1.0000
  C   C955      1.0  0.04319  0.83241  0.38673  1.0000
  C   C956      1.0  0.01594  0.95551  0.37131  1.0000
  C   C957      1.0  0.06768  0.59909  0.37951  1.0000
  C   C958      1.0  0.25952  0.81676  0.48087  1.0000
  H   H760      1.0  0.30549  0.00029  0.45998  1.0000
  S   S148      1.0  0.00558  0.56547  0.33426  1.0000
  H   H761      1.0  0.01355  0.94429  0.35885  1.0000
  C   C959      1.0  0.34481  0.84100  0.38919  1.0000
  C   C960      1.0  0.22377  0.95328  0.47407  1.0000
  H   H762      1.0  0.15185  0.95407  0.40504  1.0000
  C   C961      1.0  0.44302  0.82456  0.36587  1.0000
  H   H763      1.0  0.30972  0.85786  0.48687  1.0000
  C   C962      1.0  0.24162  0.83782  0.48404  1.0000
  H   H764      1.0  0.29708  0.89320  0.45948  1.0000
  C   C963      1.0  0.18641  0.54938  0.50204  1.0000
  C   C964      1.0  0.18476  0.79662  0.51045  1.0000
  C   C965      1.0  0.33238  0.87993  0.36973  1.0000
  H   H765      1.0  0.29784  0.80788  0.47950  1.0000
  H   H766      1.0  0.40054  0.93542  0.31190  1.0000
  C   C966      1.0  0.40721  0.92843  0.32466  1.0000
  C   C967      1.0  0.38208  0.81045  0.33613  1.0000
  H   H767      1.0  0.09222  0.61102  0.40030  1.0000
  C   C968      1.0  0.31791  0.77010  0.33144  1.0000
  C   C969      1.0  0.31371  0.78851  0.34583  1.0000
  C   C970      1.0  0.31691  0.77808  0.36295  1.0000
  C   C971      1.0  0.32463  0.74937  0.36570  1.0000
  C   C972      1.0  0.32979  0.73107  0.35134  1.0000
  C   C973      1.0  0.32577  0.74143  0.33416  1.0000
  P   P32       1.0  0.33922  0.69376  0.35482  1.0000
  C   C974      1.0  0.31294  0.67122  0.35831  1.0000
  C   C975      1.0  0.35743  0.68251  0.33610  1.0000
  C   C976      1.0  0.37617  0.70056  0.33014  1.0000
  C   C977      1.0  0.39085  0.69199  0.31600  1.0000
  C   C978      1.0  0.38669  0.66555  0.30745  1.0000
  C   C979      1.0  0.36774  0.64774  0.31300  1.0000
  C   C980      1.0  0.35312  0.65616  0.32727  1.0000
  C   C981      1.0  0.31611  0.64232  0.36391  1.0000
  C   C982      1.0  0.29607  0.62563  0.36869  1.0000
  C   C983      1.0  0.27276  0.63773  0.36809  1.0000
  C   C984      1.0  0.26944  0.66647  0.36261  1.0000
  C   C985      1.0  0.28940  0.68317  0.35769  1.0000
  C   C986      1.0  0.35706  0.69079  0.37480  1.0000
  C   C987      1.0  0.38254  0.68908  0.37430  1.0000
  C   C988      1.0  0.39587  0.68649  0.38990  1.0000
  C   C989      1.0  0.38394  0.68524  0.40611  1.0000
  C   C990      1.0  0.35865  0.68633  0.40672  1.0000
  C   C991      1.0  0.34524  0.68926  0.39119  1.0000
  H   H768      1.0  0.31499  0.77803  0.31817  1.0000
  H   H769      1.0  0.30761  0.81072  0.34377  1.0000
  H   H770      1.0  0.31310  0.79216  0.37411  1.0000
  H   H771      1.0  0.32638  0.74144  0.37903  1.0000
  H   H772      1.0  0.32863  0.72738  0.32285  1.0000
  H   H773      1.0  0.37986  0.72104  0.33668  1.0000
  H   H774      1.0  0.40568  0.70578  0.31186  1.0000
  H   H775      1.0  0.39821  0.65885  0.29654  1.0000
  H   H776      1.0  0.36448  0.62732  0.30627  1.0000
  H   H777      1.0  0.33854  0.64209  0.33128  1.0000
  H   H778      1.0  0.33416  0.63305  0.36515  1.0000
  H   H779      1.0  0.29857  0.60364  0.37352  1.0000
  H   H780      1.0  0.25735  0.62512  0.37244  1.0000
  H   H781      1.0  0.25144  0.67615  0.36281  1.0000
  H   H782      1.0  0.28635  0.70566  0.35408  1.0000
  H   H783      1.0  0.39243  0.69041  0.36206  1.0000
  H   H784      1.0  0.41551  0.68639  0.38945  1.0000
  H   H785      1.0  0.39428  0.68422  0.41824  1.0000
  H   H786      1.0  0.34944  0.68539  0.41930  1.0000
  H   H787      1.0  0.32561  0.69056  0.39205  1.0000
  C   C992      1.0  0.30549  0.92293  0.48083  1.0000
  C   C993      1.0  0.06211  0.95866  0.34170  1.0000
  H   H788      1.0  0.42992  0.81609  0.29879  1.0000
  H   H789      1.0  0.25453  0.79457  0.47774  1.0000
  C   C994      1.0  0.06179  0.90943  0.32002  1.0000
  C   C995      1.0  0.06570  0.58020  0.40921  1.0000
  C   C996      1.0  0.07239  0.86935  0.37912  1.0000
  H   H790      1.0  0.31884  0.89573  0.36560  1.0000
  H   H791      1.0  0.36886  0.80815  0.34656  1.0000
  H   H792      1.0  0.19217  0.75983  0.49347  1.0000
  H   H793      1.0  0.08143  0.82418  0.38322  1.0000
  C   C997      1.0  0.08150  0.51525  0.37261  1.0000
  H   H794      1.0  0.39844  0.77808  0.29740  1.0000
  C   C998      1.0  0.13461  0.94913  0.39889  1.0000
  H   H795      1.0  0.24756  0.91839  0.46646  1.0000
  H   H796      1.0  0.22266  0.83200  0.48319  1.0000
  H   H797      1.0  0.36811  0.77416  0.32136  1.0000
  C   C999      1.0  0.40955  0.89178  0.34769  1.0000
  C   C1000     1.0  0.38144  0.79122  0.32180  1.0000
  C   C1001     1.0  0.46047  0.82525  0.39516  1.0000
  C   C1002     1.0  0.37247  0.85801  0.36658  1.0000
  C   C1003     1.0  0.00360  0.55770  0.42725  1.0000
  H   H798      1.0  0.08189  0.91443  0.40761  1.0000
  C   C1004     1.0  0.22208  0.76851  0.51090  1.0000
  H   H799      1.0  0.30149  0.68067  0.51151  1.0000
  C   C1005     1.0  0.42409  0.85335  0.38890  1.0000
  C   C1006     1.0  0.31044  0.75261  0.50941  1.0000
  H   H800      1.0  0.26411  0.70253  0.50309  1.0000
  H   H801      1.0  0.30769  0.52519  0.47048  1.0000
  C   C1007     1.0  0.18948  0.57496  0.36140  1.0000
  Fe  Fe73      1.0  0.99948  0.98531  0.30250  1.0000
  H   H802      1.0  0.46163  0.80227  0.44633  1.0000
  C   C1008     1.0  0.06705  0.84042  0.38307  1.0000
  C   C1009     1.0  0.17797  0.51757  0.35185  1.0000
  C   C1010     1.0  0.24821  0.86632  0.48828  1.0000
  H   H803      1.0  0.31017  0.86292  0.39065  1.0000
  C   C1011     1.0  0.15348  0.99739  0.51645  1.0000
  H   H804      1.0  0.45627  0.70957  0.44134  1.0000
  C   C1012     1.0  0.44191  0.84399  0.40079  1.0000
  H   H805      1.0  0.19365  0.59707  0.36531  1.0000
  H   H806      1.0  0.47332  0.66255  0.29753  1.0000
  C   C1013     1.0  0.17190  0.56974  0.34853  1.0000
  H   H807      1.0  0.21284  0.95173  0.46227  1.0000
  C   C1014     1.0  0.40007  0.83181  0.33710  1.0000
  C   C1015     1.0  0.36708  0.83894  0.38045  1.0000
  C   C1016     1.0  0.42449  0.84362  0.37131  1.0000
  H   H808      1.0  0.19750  0.91964  0.51358  1.0000
  H   H809      1.0  0.02168  0.55099  0.38309  1.0000
  P   P33       1.0  0.03142  0.53961  0.42056  1.0000
  H   H810      1.0  0.35624  0.95056  0.44961  1.0000
  H   H811      1.0  0.06221  0.98328  0.31764  1.0000
  C   C1017     1.0  0.33517  0.75899  0.51017  1.0000
  H   H812      1.0  0.11066  0.51809  0.44840  1.0000
  C   C1018     1.0  0.99740  0.97386  0.37746  1.0000
  C   C1019     1.0  0.10701  0.95325  0.37412  1.0000
  H   H813      1.0  0.40993  0.86805  0.39344  1.0000
  H   H814      1.0  0.10336  0.96176  0.36112  1.0000
  C   C1020     1.0  0.41738  0.83360  0.32355  1.0000
  H   H815      1.0  0.12144  0.92558  0.42129  1.0000
  C   C1021     1.0  0.05390  0.89059  0.37896  1.0000
  C   C1022     1.0  0.27281  0.87404  0.48908  1.0000
  P   P34       1.0  0.06098  0.92761  0.37308  1.0000
  C   C1023     1.0  0.03737  0.95179  0.38112  1.0000
  C   C1024     1.0  0.08970  0.93675  0.38317  1.0000
  C   C1025     1.0  0.09505  0.92682  0.40026  1.0000
  C   C1026     1.0  0.11741  0.93301  0.40806  1.0000
  C   C1027     1.0  0.35482  0.87831  0.36114  1.0000
  C   C1028     1.0  0.32703  0.92035  0.45292  1.0000
  C   C1029     1.0  0.48981  0.87103  0.27619  1.0000
  H   H816      1.0  0.06093  0.89046  0.31155  1.0000
  C   C1030     1.0  0.00012  0.98873  0.39341  1.0000
  C   C1031     1.0  0.42504  0.90999  0.35733  1.0000
  C   C1032     1.0  0.48951  0.72824  0.43175  1.0000
  H   H817      1.0  0.06166  0.97795  0.34990  1.0000
  C   C1033     1.0  0.06217  0.93094  0.34936  1.0000
  H   H818      1.0  0.14256  0.97239  0.37506  1.0000
  C   C1034     1.0  0.40060  0.90131  0.33133  1.0000
  H   H819      1.0  0.45866  0.61369  0.28843  1.0000
  C   C1035     1.0  0.32743  0.86140  0.38381  1.0000
  H   H820      1.0  0.42801  0.96723  0.32903  1.0000
  H   H821      1.0  0.44123  0.85113  0.41440  1.0000
  H   H822      1.0  0.16235  0.58783  0.34246  1.0000
  H   H823      1.0  0.00610  0.84709  0.38910  1.0000
  C   C1036     1.0  0.00048  0.58775  0.42466  1.0000
  C   C1037     1.0  0.46654  0.72934  0.43958  1.0000
  H   H824      1.0  0.48192  0.70878  0.36902  1.0000
  H   H825      1.0  0.01229  0.87547  0.29057  1.0000
  H   H826      1.0  0.08314  0.52486  0.42326  1.0000
  H   H827      1.0  0.06120  0.93965  0.29835  1.0000
  C   C1038     1.0  0.20154  0.55163  0.36937  1.0000
  C   C1039     1.0  0.05835  0.53212  0.47089  1.0000
  C   C1040     1.0  0.33277  0.51515  0.44944  1.0000
  H   H828      1.0  0.34706  0.52861  0.45477  1.0000
  H   H829      1.0  0.15216  0.53780  0.33399  1.0000
  S   S149      1.0  0.48586  0.80237  0.33288  1.0000
  C   C1041     1.0  0.45647  0.75603  0.44474  1.0000
  H   H830      1.0  0.02360  0.99698  0.41552  1.0000
  S   S150      1.0  0.00470  0.93693  0.29487  1.0000
  H   H831      1.0  0.07641  0.61244  0.36966  1.0000
  H   H832      1.0  0.15367  0.00417  0.48826  1.0000
  H   H833      1.0  0.38570  0.51431  0.35660  1.0000
  C   C1042     1.0  0.19591  0.52308  0.36455  1.0000
  C   C1043     1.0  0.02464  0.85333  0.38639  1.0000
  C   C1044     1.0  0.04259  0.53605  0.45658  1.0000
  H   H834      1.0  0.26282  0.99544  0.46947  1.0000
  H   H835      1.0  0.22807  0.99365  0.51149  1.0000
  H   H836      1.0  0.48888  0.74199  0.39404  1.0000
  C   C1045     1.0  0.07591  0.52666  0.43649  1.0000
  C   C1046     1.0  0.25386  0.65764  0.50692  1.0000
  C   C1047     1.0  0.05128  0.53345  0.43923  1.0000
  C   C1048     1.0  0.09160  0.52281  0.45078  1.0000
  C   C1049     1.0  0.08286  0.52559  0.46799  1.0000
  H   H837      1.0  0.32993  0.89921  0.51055  1.0000
  H   H838      1.0  0.06546  0.80337  0.27873  1.0000
  H   H839      1.0  0.36190  0.54551  0.37717  1.0000
  C   C1050     1.0  0.11733  0.52116  0.39157  1.0000
  H   H840      1.0  0.20301  0.98887  0.48446  1.0000
  H   H841      1.0  0.03905  0.80995  0.38973  1.0000
  S   S151      1.0  0.00014  0.99459  0.33183  1.0000
  Fe  Fe74      1.0  0.17102  0.52240  0.42208  1.0000
  H   H842      1.0  0.09516  0.52303  0.47904  1.0000
  H   H843      1.0  0.24795  0.52272  0.50259  1.0000
  H   H844      1.0  0.47423  0.81787  0.40433  1.0000
  C   C1051     1.0  0.02134  0.98514  0.40326  1.0000
  H   H845      1.0  0.01487  0.60071  0.41911  1.0000
  C   C1052     1.0  0.36061  0.52202  0.37795  1.0000
  H   H846      1.0  0.26311  0.96060  0.51614  1.0000
  H   H847      1.0  0.21142  0.86861  0.51641  1.0000
  C   C1053     1.0  0.02045  0.65112  0.26663  1.0000
  C   C1054     1.0  0.38339  0.67244  0.67528  1.0000
  H   H848      1.0  0.45181  0.84096  0.74588  1.0000
  C   C1055     1.0  0.10675  0.95166  0.63879  1.0000
  C   C1056     1.0  0.08727  0.55593  0.74242  1.0000
  C   C1057     1.0  0.14056  0.93967  0.67364  1.0000
  C   C1058     1.0  0.99707  0.62537  0.74733  1.0000
  Fe  Fe75      1.0  0.29883  0.80538  0.60902  1.0000
  S   S152      1.0  0.33873  0.79429  0.60812  1.0000
  S   S153      1.0  0.29107  0.85403  0.60568  1.0000
  Fe  Fe76      1.0  0.28486  0.74031  0.60941  1.0000
  S   S154      1.0  0.32363  0.72515  0.60843  1.0000
  S   S155      1.0  0.25118  0.71165  0.60895  1.0000
  Fe  Fe77      1.0  0.33088  0.76051  0.62858  1.0000
  S   S156      1.0  0.35101  0.75218  0.65463  1.0000
  Fe  Fe78      1.0  0.32825  0.76041  0.58812  1.0000
  S   S157      1.0  0.34989  0.75663  0.56272  1.0000
  S   S158      1.0  0.29134  0.77366  0.63086  1.0000
  S   S159      1.0  0.28911  0.77331  0.58780  1.0000
  H   H849      1.0  0.08657  0.88213  0.64255  1.0000
  C   C1059     1.0  0.23901  0.68806  0.53926  1.0000
  C   C1060     1.0  0.21715  0.69541  0.53078  1.0000
  H   H850      1.0  0.06215  0.95514  0.65984  1.0000
  C   C1061     1.0  0.29990  0.82637  0.52967  1.0000
  C   C1062     1.0  0.04945  0.58909  0.69895  1.0000
  Fe  Fe79      1.0  0.18919  0.97612  0.61178  1.0000
  S   S160      1.0  0.19879  0.93248  0.62416  1.0000
  Fe  Fe80      1.0  0.21210  0.54408  0.60389  1.0000
  S   S161      1.0  0.24588  0.57279  0.60345  1.0000
  S   S162      1.0  0.15088  0.97978  0.60194  1.0000
  S   S163      1.0  0.17467  0.55792  0.59526  1.0000
  C   C1063     1.0  0.40637  0.71138  0.62665  1.0000
  Fe  Fe81      1.0  0.48218  0.75550  0.70266  1.0000
  S   S164      1.0  0.46068  0.77294  0.67898  1.0000
  C   C1064     1.0  0.07374  0.52714  0.66745  1.0000
  S   S165      1.0  0.47065  0.74707  0.73065  1.0000
  H   H851      1.0  0.01531  0.60059  0.63553  1.0000
  H   H852      1.0  0.42683  0.86888  0.67622  1.0000
  H   H853      1.0  0.44321  0.55839  0.61948  1.0000
  C   C1065     1.0  0.23096  0.78635  0.52432  1.0000
  H   H854      1.0  0.06347  0.62175  0.74530  1.0000
  H   H855      1.0  0.10055  0.54220  0.69924  1.0000
  C   C1066     1.0  0.02648  0.99177  0.58530  1.0000
  C   C1067     1.0  0.22963  0.72351  0.56215  1.0000
  C   C1068     1.0  0.44006  0.82266  0.74334  1.0000
  H   H856      1.0  0.28683  0.63367  0.63952  1.0000
  S   S166      1.0  0.12989  0.54907  0.63497  1.0000
  C   C1069     1.0  0.38152  0.75867  0.66115  1.0000
  C   C1070     1.0  0.39792  0.77353  0.65046  1.0000
  C   C1071     1.0  0.42206  0.77762  0.65612  1.0000
  C   C1072     1.0  0.43009  0.76702  0.67253  1.0000
  C   C1073     1.0  0.41351  0.75289  0.68342  1.0000
  C   C1074     1.0  0.38937  0.74890  0.67777  1.0000
  H   H857      1.0  0.39199  0.78178  0.63782  1.0000
  H   H858      1.0  0.43462  0.78902  0.64771  1.0000
  H   H859      1.0  0.41929  0.74515  0.69621  1.0000
  H   H860      1.0  0.37668  0.73801  0.68632  1.0000
  C   C1075     1.0  0.33419  0.75596  0.54237  1.0000
  C   C1076     1.0  0.30935  0.75014  0.54157  1.0000
  H   H861      1.0  0.11300  0.53037  0.57282  1.0000
  H   H862      1.0  0.29936  0.74605  0.55354  1.0000
  H   H863      1.0  0.08521  0.56465  0.65258  1.0000
  C   C1077     1.0  0.25013  0.67311  0.60659  1.0000
  C   C1078     1.0  0.22758  0.65912  0.60774  1.0000
  C   C1079     1.0  0.22590  0.62854  0.60656  1.0000
  C   C1080     1.0  0.24682  0.61153  0.60416  1.0000
  C   C1081     1.0  0.26932  0.62557  0.60257  1.0000
  C   C1082     1.0  0.27100  0.65616  0.60378  1.0000
  H   H864      1.0  0.21130  0.67198  0.60983  1.0000
  H   H865      1.0  0.20847  0.61813  0.60777  1.0000
  H   H866      1.0  0.28560  0.61265  0.60063  1.0000
  H   H867      1.0  0.28846  0.66657  0.60278  1.0000
  C   C1083     1.0  0.26404  0.87419  0.60954  1.0000
  C   C1084     1.0  0.26226  0.90267  0.60291  1.0000
  C   C1085     1.0  0.24194  0.92041  0.60668  1.0000
  C   C1086     1.0  0.22339  0.90996  0.61745  1.0000
  C   C1087     1.0  0.22490  0.88127  0.62377  1.0000
  C   C1088     1.0  0.24501  0.86330  0.61968  1.0000
  H   H868      1.0  0.27697  0.91127  0.59512  1.0000
  H   H869      1.0  0.24102  0.94245  0.60177  1.0000
  H   H870      1.0  0.21072  0.87309  0.63220  1.0000
  H   H871      1.0  0.24621  0.84146  0.62490  1.0000
  H   H872      1.0  0.15865  0.82382  0.68696  1.0000
  H   H873      1.0  0.05758  0.95035  0.70980  1.0000
  H   H874      1.0  0.07259  0.94464  0.60171  1.0000
  H   H875      1.0  0.36052  0.60330  0.63704  1.0000
  H   H876      1.0  0.14370  0.88927  0.63613  1.0000
  H   H877      1.0  0.45279  0.68054  0.68229  1.0000
  H   H878      1.0  0.19843  0.95271  0.53945  1.0000
  C   C1089     1.0  0.09564  0.95898  0.62285  1.0000
  H   H879      1.0  0.11741  0.96792  0.64542  1.0000
  C   C1090     1.0  0.41024  0.60496  0.64516  1.0000
  C   C1091     1.0  0.13883  0.58660  0.70255  1.0000
  C   C1092     1.0  0.20810  0.73100  0.55354  1.0000
  H   H880      1.0  0.30909  0.82186  0.51732  1.0000
  H   H881      1.0  0.12238  0.61212  0.65533  1.0000
  H   H882      1.0  0.36397  0.67072  0.67364  1.0000
  H   H883      1.0  0.21107  0.59638  0.57109  1.0000
  H   H884      1.0  0.27857  0.74289  0.52470  1.0000
  H   H885      1.0  0.38040  0.68111  0.70314  1.0000
  H   H886      1.0  0.05469  0.85889  0.69857  1.0000
  H   H887      1.0  0.08858  0.86367  0.67749  1.0000
  Fe  Fe82      1.0  0.16692  0.00279  0.57875  1.0000
  H   H888      1.0  0.31666  0.59328  0.63681  1.0000
  P   P35       1.0  0.09311  0.59878  0.71651  1.0000
  C   C1093     1.0  0.08373  0.93431  0.69092  1.0000
  C   C1094     1.0  0.08124  0.93877  0.61404  1.0000
  C   C1095     1.0  0.18452  0.54809  0.53422  1.0000
  C   C1096     1.0  0.32532  0.89950  0.53862  1.0000
  C   C1097     1.0  0.22250  0.78823  0.59241  1.0000
  C   C1098     1.0  0.20282  0.80177  0.60075  1.0000
  C   C1099     1.0  0.19054  0.82461  0.59240  1.0000
  C   C1100     1.0  0.19826  0.83430  0.57588  1.0000
  C   C1101     1.0  0.21875  0.82166  0.56779  1.0000
  C   C1102     1.0  0.23017  0.79781  0.57586  1.0000
  P   P36       1.0  0.22965  0.83468  0.54681  1.0000
  C   C1103     1.0  0.22059  0.87234  0.54407  1.0000
  C   C1104     1.0  0.26248  0.83390  0.54613  1.0000
  C   C1105     1.0  0.27606  0.83576  0.56171  1.0000
  C   C1106     1.0  0.30128  0.83205  0.56130  1.0000
  S   S167      1.0  0.19892  0.51963  0.62788  1.0000
  H   H889      1.0  0.23507  0.55216  0.56424  1.0000
  C   C1107     1.0  0.39918  0.66891  0.66088  1.0000
  H   H890      1.0  0.09101  0.95575  0.68861  1.0000
  H   H891      1.0  0.24080  0.96971  0.66289  1.0000
  C   C1108     1.0  0.21413  0.92050  0.55674  1.0000
  C   C1109     1.0  0.22210  0.89166  0.55843  1.0000
  H   H892      1.0  0.19159  0.99215  0.68850  1.0000
  C   C1110     1.0  0.43961  0.79996  0.75555  1.0000
  C   C1111     1.0  0.15483  0.83779  0.67579  1.0000
  H   H893      1.0  0.23194  0.77039  0.59888  1.0000
  H   H894      1.0  0.19710  0.79442  0.61364  1.0000
  H   H895      1.0  0.17517  0.83502  0.59878  1.0000
  H   H896      1.0  0.18835  0.85187  0.56961  1.0000
  H   H897      1.0  0.24524  0.78692  0.56942  1.0000
  H   H898      1.0  0.26716  0.83932  0.57424  1.0000
  C   C1112     1.0  0.43261  0.57742  0.62316  1.0000
  H   H899      1.0  0.18242  0.83224  0.52879  1.0000
  C   C1113     1.0  0.46385  0.86225  0.66872  1.0000
  C   C1114     1.0  0.16978  0.52355  0.53346  1.0000
  H   H900      1.0  0.37939  0.88988  0.71707  1.0000
  H   H901      1.0  0.21460  0.93501  0.56805  1.0000
  H   H902      1.0  0.22906  0.88434  0.57106  1.0000
  H   H903      1.0  0.20378  0.58034  0.51923  1.0000
  H   H904      1.0  0.28372  0.65052  0.56387  1.0000
  H   H905      1.0  0.13015  0.93999  0.70124  1.0000
  H   H906      1.0  0.31164  0.83249  0.57344  1.0000
  C   C1115     1.0  0.12750  0.65507  0.75025  1.0000
  C   C1116     1.0  0.09984  0.62330  0.73452  1.0000
  H   H907      1.0  0.36666  0.66793  0.60463  1.0000
  C   C1117     1.0  0.01376  0.60833  0.75676  1.0000
  C   C1118     1.0  0.48711  0.85415  0.67418  1.0000
  P   P37       1.0  0.25788  0.65896  0.53064  1.0000
  C   C1119     1.0  0.02485  0.94252  0.66239  1.0000
  C   C1120     1.0  0.12711  0.60574  0.66864  1.0000
  H   H908      1.0  0.46073  0.86886  0.65522  1.0000
  S   S168      1.0  0.15240  0.98908  0.55215  1.0000
  C   C1121     1.0  0.00111  0.94758  0.65668  1.0000
  C   C1122     1.0  0.30616  0.67622  0.52505  1.0000
  C   C1123     1.0  0.19265  0.56110  0.51855  1.0000
  H   H909      1.0  0.26138  0.69685  0.56225  1.0000
  H   H910      1.0  0.18925  0.55729  0.54687  1.0000
  C   C1124     1.0  0.36842  0.83372  0.67969  1.0000
  C   C1125     1.0  0.05418  0.90422  0.70566  1.0000
  C   C1126     1.0  0.02818  0.59806  0.69042  1.0000
  H   H911      1.0  0.46330  0.94440  0.73311  1.0000
  C   C1127     1.0  0.42528  0.82184  0.72824  1.0000
  C   C1128     1.0  0.28917  0.66486  0.53694  1.0000
  C   C1129     1.0  0.42741  0.88479  0.72783  1.0000
  C   C1130     1.0  0.00355  0.58876  0.64437  1.0000
  H   H912      1.0  0.16238  0.58958  0.66109  1.0000
  C   C1131     1.0  0.44453  0.86170  0.68065  1.0000
  H   H913      1.0  0.30101  0.68452  0.64235  1.0000
  H   H914      1.0  0.47493  0.83645  0.71669  1.0000
  H   H915      1.0  0.24854  0.78128  0.52994  1.0000
  C   C1132     1.0  0.04403  0.98819  0.57210  1.0000
  C   C1133     1.0  0.21735  0.81045  0.53029  1.0000
  C   C1134     1.0  0.16102  0.85012  0.64514  1.0000
  H   H916      1.0  0.34482  0.69501  0.64270  1.0000
  C   C1135     1.0  0.31977  0.66642  0.56008  1.0000
  H   H917      1.0  0.34424  0.89463  0.54125  1.0000
  H   H918      1.0  0.26844  0.55407  0.54235  1.0000
  C   C1136     1.0  0.31712  0.90220  0.52123  1.0000
  H   H919      1.0  0.13269  0.86745  0.69084  1.0000
  C   C1137     1.0  0.41765  0.68095  0.69463  1.0000
  H   H920      1.0  0.13734  0.63053  0.72725  1.0000
  C   C1138     1.0  0.37865  0.68593  0.60734  1.0000
  C   C1139     1.0  0.09211  0.56181  0.72461  1.0000
  H   H921      1.0  0.36625  0.76485  0.52711  1.0000
  C   C1140     1.0  0.06295  0.87989  0.69648  1.0000
  H   H922      1.0  0.43471  0.59694  0.59743  1.0000
  C   C1141     1.0  0.41421  0.88709  0.74363  1.0000
  H   H923      1.0  0.19617  0.74744  0.55915  1.0000
  C   C1142     1.0  0.41421  0.62378  0.61550  1.0000
  C   C1143     1.0  0.34702  0.76045  0.52661  1.0000
  H   H924      1.0  0.08231  0.57310  0.75152  1.0000
  H   H925      1.0  0.33255  0.82280  0.54517  1.0000
  C   C1144     1.0  0.20183  0.71690  0.53786  1.0000
  H   H926      1.0  0.32483  0.66323  0.57374  1.0000
  H   H927      1.0  0.15768  0.94186  0.64797  1.0000
  C   C1145     1.0  0.40529  0.62685  0.63275  1.0000
  H   H928      1.0  0.02832  0.92763  0.67316  1.0000
  H   H929      1.0  0.08113  0.99597  0.56438  1.0000
  C   C1146     1.0  0.43343  0.67793  0.68033  1.0000
  H   H930      1.0  0.42764  0.56361  0.65003  1.0000
  H   H931      1.0  0.37079  0.70699  0.58259  1.0000
  C   C1147     1.0  0.25778  0.57341  0.54515  1.0000
  H   H932      1.0  0.05441  0.56625  0.69892  1.0000
  C   C1148     1.0  0.03940  0.97770  0.64131  1.0000
  H   H933      1.0  0.06879  0.65545  0.71301  1.0000
  Fe  Fe83      1.0  0.00988  0.53469  0.73277  1.0000
  H   H934      1.0  0.39717  0.74902  0.58854  1.0000
  C   C1149     1.0  0.14973  0.59293  0.67188  1.0000
  H   H935      1.0  0.39938  0.79560  0.71377  1.0000
  H   H936      1.0  0.14333  0.57817  0.71548  1.0000
  C   C1150     1.0  0.15803  0.94921  0.66155  1.0000
  H   H937      1.0  0.05440  0.98991  0.63611  1.0000
  H   H938      1.0  0.11673  0.00442  0.68852  1.0000
  S   S169      1.0  0.00575  0.97285  0.70151  1.0000
  C   C1151     1.0  0.35604  0.65002  0.64012  1.0000
  H   H939      1.0  0.23427  0.73360  0.57459  1.0000
  H   H940      1.0  0.18961  0.97532  0.65736  1.0000
  C   C1152     1.0  0.11594  0.59923  0.69938  1.0000
  H   H941      1.0  0.34037  0.88956  0.70124  1.0000
  C   C1153     1.0  0.29641  0.65938  0.55441  1.0000
  C   C1154     1.0  0.42780  0.59912  0.61074  1.0000
  C   C1155     1.0  0.38102  0.70791  0.59478  1.0000
  H   H942      1.0  0.03050  0.67061  0.69893  1.0000
  C   C1156     1.0  0.08607  0.65036  0.76032  1.0000
  C   C1157     1.0  0.02124  0.62734  0.69049  1.0000
  H   H943      1.0  0.42008  0.75187  0.61671  1.0000
  H   H944      1.0  0.17723  0.81288  0.65787  1.0000
  C   C1158     1.0  0.21215  0.88277  0.52778  1.0000
  C   C1159     1.0  0.47956  0.61241  0.75831  1.0000
  H   H945      1.0  0.41591  0.71367  0.63902  1.0000
  C   C1160     1.0  0.44819  0.85203  0.69803  1.0000
  C   C1161     1.0  0.16064  0.96739  0.69666  1.0000
  C   C1162     1.0  0.28443  0.90726  0.54926  1.0000
  C   C1163     1.0  0.30899  0.90219  0.55263  1.0000
  H   H946      1.0  0.10058  0.53879  0.60387  1.0000
  C   C1164     1.0  0.15567  0.58356  0.68885  1.0000
  H   H947      1.0  0.01708  0.58225  0.68376  1.0000
  C   C1165     1.0  0.03225  0.00602  0.60117  1.0000
  C   C1166     1.0  0.09324  0.90985  0.68209  1.0000
  C   C1167     1.0  0.07797  0.91111  0.62122  1.0000
  H   H948      1.0  0.16980  0.84594  0.63260  1.0000
  H   H949      1.0  0.27177  0.90856  0.56017  1.0000
  H   H950      1.0  0.31520  0.89941  0.56611  1.0000
  C   C1168     1.0  0.08952  0.54245  0.65618  1.0000
  C   C1169     1.0  0.19378  0.81478  0.52373  1.0000
  H   H951      1.0  0.40360  0.60696  0.65857  1.0000
  H   H952      1.0  0.03921  0.90218  0.71488  1.0000
  P   P38       1.0  0.38799  0.65863  0.63934  1.0000
  C   C1170     1.0  0.41876  0.90976  0.75549  1.0000
  H   H953      1.0  0.03947  0.97717  0.55990  1.0000
  C   C1171     1.0  0.16533  0.83163  0.65941  1.0000
  C   C1172     1.0  0.11025  0.60895  0.68231  1.0000
  C   C1173     1.0  0.13491  0.88053  0.66349  1.0000
  C   C1174     1.0  0.14602  0.87459  0.64718  1.0000
  P   P39       1.0  0.11797  0.91388  0.66661  1.0000
  C   C1175     1.0  0.47164  0.84391  0.70340  1.0000
  H   H954      1.0  0.42485  0.68579  0.70762  1.0000
  C   C1176     1.0  0.17746  0.97749  0.68439  1.0000
  C   C1177     1.0  0.34788  0.62126  0.63844  1.0000
  H   H955      1.0  0.45536  0.90484  0.71190  1.0000
  C   C1178     1.0  0.08839  0.52739  0.74872  1.0000
  C   C1179     1.0  0.10390  0.92381  0.64596  1.0000
  C   C1180     1.0  0.09731  0.53849  0.71313  1.0000
  C   C1181     1.0  0.33631  0.67840  0.54826  1.0000
  H   H956      1.0  0.09260  0.61807  0.67929  1.0000
  C   C1182     1.0  0.26318  0.59968  0.53684  1.0000
  C   C1183     1.0  0.08230  0.88269  0.68465  1.0000
  C   C1184     1.0  0.12291  0.63564  0.73642  1.0000
  C   C1185     1.0  0.32298  0.61542  0.63829  1.0000
  H   H957      1.0  0.43682  0.66911  0.65266  1.0000
  Fe  Fe84      1.0  0.16130  0.53086  0.61817  1.0000
  H   H958      1.0  0.25700  0.91285  0.52952  1.0000
  H   H959      1.0  0.06670  0.89546  0.61445  1.0000
  S   S170      1.0  0.02374  0.57321  0.74943  1.0000
  H   H960      1.0  0.35414  0.68483  0.55273  1.0000
  C   C1186     1.0  0.24950  0.62488  0.54058  1.0000
  C   C1187     1.0  0.14246  0.94820  0.69138  1.0000
  C   C1188     1.0  0.17628  0.96818  0.66688  1.0000
  C   C1189     1.0  0.30612  0.63817  0.63982  1.0000
  C   C1190     1.0  0.08145  0.63091  0.74656  1.0000
  C   C1191     1.0  0.44476  0.90604  0.72387  1.0000
  C   C1192     1.0  0.13993  0.86236  0.67790  1.0000
  C   C1193     1.0  0.39592  0.73167  0.59815  1.0000
  C   C1194     1.0  0.11071  0.52917  0.64940  1.0000
  C   C1195     1.0  0.27616  0.90976  0.53189  1.0000
  P   P40       1.0  0.42361  0.85317  0.71383  1.0000
  C   C1196     1.0  0.40871  0.73329  0.61401  1.0000
  C   C1197     1.0  0.08926  0.90363  0.63713  1.0000
  H   H961      1.0  0.09816  0.98051  0.61742  1.0000
  C   C1198     1.0  0.24508  0.70230  0.55505  1.0000
  C   C1199     1.0  0.06454  0.93140  0.70282  1.0000
  C   C1200     1.0  0.31409  0.66679  0.64144  1.0000
  C   C1201     1.0  0.39063  0.83380  0.68857  1.0000
  C   C1202     1.0  0.42383  0.58035  0.64036  1.0000
  C   C1203     1.0  0.39136  0.68744  0.62338  1.0000
  H   H962      1.0  0.40450  0.81811  0.68482  1.0000
  C   C1204     1.0  0.42428  0.67173  0.66355  1.0000
  C   C1205     1.0  0.37662  0.87404  0.70672  1.0000
  C   C1206     1.0  0.33893  0.67269  0.64159  1.0000
  H   H963      1.0  0.41093  0.64037  0.60569  1.0000
  H   H964      1.0  0.00466  0.63410  0.68400  1.0000
  S   S171      1.0  0.00492  0.53162  0.70327  1.0000
  C   C1207     1.0  0.05740  0.63911  0.70701  1.0000
  C   C1208     1.0  0.42467  0.77603  0.75271  1.0000
  C   C1209     1.0  0.22531  0.59725  0.56125  1.0000
  S   S172      1.0  0.20536  0.99633  0.58765  1.0000
  H   H965      1.0  0.14532  0.66452  0.75168  1.0000
  C   C1210     1.0  0.23892  0.57226  0.55741  1.0000
  C   C1211     1.0  0.24890  0.99323  0.63922  1.0000
  H   H966      1.0  0.05733  0.53742  0.67229  1.0000
  C   C1212     1.0  0.01569  0.98252  0.63521  1.0000
  C   C1213     1.0  0.10910  0.66242  0.76219  1.0000
  C   C1214     1.0  0.31314  0.82686  0.54533  1.0000
  C   C1215     1.0  0.23052  0.62350  0.55289  1.0000
  H   H967      1.0  0.17306  0.57315  0.69123  1.0000
  C   C1216     1.0  0.04393  0.95787  0.65485  1.0000
  C   C1217     1.0  0.16331  0.51204  0.51697  1.0000
  H   H968      1.0  0.00013  0.85965  0.74302  1.0000
  H   H969      1.0  0.31231  0.55479  0.76124  1.0000
  C   C1218     1.0  0.20509  0.93049  0.54063  1.0000
  C   C1219     1.0  0.29759  0.74834  0.52516  1.0000
  C   C1220     1.0  0.39265  0.67825  0.69210  1.0000
  C   C1221     1.0  0.06418  0.60955  0.70736  1.0000
  C   C1222     1.0  0.03581  0.64787  0.69885  1.0000
  C   C1223     1.0  0.41069  0.79736  0.72532  1.0000
  C   C1224     1.0  0.27473  0.83039  0.53003  1.0000
  S   S173      1.0  0.48272  0.66222  0.73815  1.0000
  H   H970      1.0  0.33310  0.85359  0.67734  1.0000
  H   H971      1.0  0.46864  0.60424  0.74757  1.0000
  H   H972      1.0  0.21173  0.68426  0.51882  1.0000
  H   H973      1.0  0.16171  0.97427  0.71031  1.0000
  C   C1225     1.0  0.20437  0.91173  0.52610  1.0000
  H   H974      1.0  0.18499  0.72241  0.53127  1.0000
  H   H975      1.0  0.02382  0.54852  0.64185  1.0000
  C   C1226     1.0  0.35032  0.85378  0.68426  1.0000
  C   C1227     1.0  0.43645  0.93037  0.75165  1.0000
  H   H976      1.0  0.36519  0.81793  0.66929  1.0000
  C   C1228     1.0  0.44927  0.92864  0.73580  1.0000
  C   C1229     1.0  0.39487  0.85380  0.70227  1.0000
  C   C1230     1.0  0.10541  0.51275  0.58047  1.0000
  H   H977      1.0  0.39931  0.75569  0.73507  1.0000
  C   C1231     1.0  0.35443  0.87398  0.69773  1.0000
  H   H978      1.0  0.34230  0.69265  0.52162  1.0000
  H   H979      1.0  0.26473  0.82948  0.51783  1.0000
  H   H980      1.0  0.22001  0.64264  0.55641  1.0000
  C   C1232     1.0  0.00033  0.86929  0.75604  1.0000
  H   H981      1.0  0.00853  0.98338  0.58299  1.0000
  H   H982      1.0  0.40096  0.87077  0.74705  1.0000
  C   C1233     1.0  0.06746  0.99883  0.57456  1.0000
  C   C1234     1.0  0.29252  0.90797  0.51775  1.0000
  C   C1235     1.0  0.41043  0.77459  0.73751  1.0000
  C   C1236     1.0  0.00832  0.55941  0.64784  1.0000
  Fe  Fe85      1.0  0.17494  0.51626  0.57966  1.0000
  H   H983      1.0  0.44063  0.94738  0.76110  1.0000
  C   C1237     1.0  0.09852  0.51745  0.59797  1.0000
  H   H984      1.0  0.27814  0.60048  0.52760  1.0000
  C   C1238     1.0  0.49108  0.84546  0.69157  1.0000
  C   C1239     1.0  0.48887  0.64083  0.75733  1.0000
  C   C1240     1.0  0.99819  0.89976  0.75779  1.0000
  C   C1241     1.0  0.32961  0.68287  0.53071  1.0000
  C   C1242     1.0  0.99649  0.96766  0.64326  1.0000
  S   S174      1.0  0.01826  0.00639  0.73851  1.0000
  C   C1243     1.0  0.16308  0.00580  0.53282  1.0000
  H   H985      1.0  0.08408  0.52297  0.76238  1.0000
  H   H986      1.0  0.99678  0.52139  0.66198  1.0000
  H   H987      1.0  0.23009  0.51313  0.53197  1.0000
  H   H988      1.0  0.42474  0.75822  0.76203  1.0000
  H   H989      1.0  0.25286  0.97373  0.63162  1.0000
  C   C1244     1.0  0.24199  0.99101  0.65687  1.0000
  P   P41       1.0  0.00997  0.00998  0.61866  1.0000
  H   H990      1.0  0.48933  0.51601  0.76601  1.0000
  S   S175      1.0  0.03480  0.76063  0.80071  1.0000
  C   C1245     1.0  0.35158  0.56447  0.79535  1.0000
  Fe  Fe86      1.0  0.04093  0.74548  0.82878  1.0000
  S   S176      1.0  0.07934  0.73634  0.83921  1.0000
  Fe  Fe87      1.0  0.27245  0.53663  0.92900  1.0000
  S   S177      1.0  0.30682  0.54581  0.94366  1.0000
  S   S178      1.0  0.23975  0.56735  0.92844  1.0000
  Fe  Fe88      1.0  0.29531  0.98084  0.93314  1.0000
  S   S179      1.0  0.33572  0.98763  0.93205  1.0000
  S   S180      1.0  0.28064  0.93698  0.94175  1.0000
  H   H991      1.0  0.35254  0.56722  0.87107  1.0000
  H   H992      1.0  0.30946  0.97250  0.98086  1.0000
  H   H993      1.0  0.38298  0.92460  0.92599  1.0000
  H   H994      1.0  0.38891  0.95290  0.95340  1.0000
  C   C1246     1.0  0.13940  0.54826  0.89238  1.0000
  C   C1247     1.0  0.40044  0.54077  0.88909  1.0000
  Fe  Fe89      1.0  0.15983  0.75899  0.92588  1.0000
  S   S181      1.0  0.19071  0.76210  0.90679  1.0000
  S   S182      1.0  0.12005  0.75397  0.91756  1.0000
  Fe  Fe90      1.0  0.19240  0.77208  0.95776  1.0000
  S   S183      1.0  0.22539  0.77662  0.94053  1.0000
  S   S184      1.0  0.20179  0.78150  0.98642  1.0000
  Fe  Fe91      1.0  0.20157  0.80187  0.92215  1.0000
  S   S185      1.0  0.21181  0.84239  0.90679  1.0000
  Fe  Fe92      1.0  0.21219  0.73649  0.92680  1.0000
  S   S186      1.0  0.24225  0.70473  0.91904  1.0000
  S   S187      1.0  0.16940  0.80049  0.94021  1.0000
  S   S188      1.0  0.18057  0.73014  0.94511  1.0000
  P   P42       1.0  0.38207  0.52733  0.81410  1.0000
  H   H995      1.0  0.31710  0.88942  0.94766  1.0000
  C   C1248     1.0  0.33432  0.57126  0.78245  1.0000
  C   C1249     1.0  0.39119  0.00305  0.88597  1.0000
  C   C1250     1.0  0.39088  0.83061  0.88741  1.0000
  H   H996      1.0  0.33146  0.83856  0.93845  1.0000
  C   C1251     1.0  0.01688  0.77061  0.92459  1.0000
  H   H997      1.0  0.32368  0.91684  0.97483  1.0000
  H   H998      1.0  0.48753  0.91152  0.83897  1.0000
  H   H999      1.0  0.30284  0.87687  0.89079  1.0000
  C   C1252     1.0  0.47406  0.54080  0.90431  1.0000
  H   H1000     1.0  0.38840  0.86496  0.93417  1.0000
  C   C1253     1.0  0.29832  0.82054  0.92855  1.0000
  S   S189      1.0  0.01261  0.71049  0.82685  1.0000
  H   H1001     1.0  0.12435  0.53424  0.88910  1.0000
  H   H1002     1.0  0.48991  0.57680  0.86683  1.0000
  H   H1003     1.0  0.38610  0.99468  0.89875  1.0000
  Fe  Fe93      1.0  0.00444  0.72785  0.79982  1.0000
  C   C1254     1.0  0.18121  0.55402  0.90137  1.0000
  C   C1255     1.0  0.35149  0.51410  0.78584  1.0000
  H   H1004     1.0  0.40906  0.91099  0.76789  1.0000
  H   H1005     1.0  0.15664  0.75108  0.99606  1.0000
  H   H1006     1.0  0.29674  0.80482  0.93909  1.0000
  C   C1256     1.0  0.00260  0.85107  0.77096  1.0000
  H   H1007     1.0  0.37768  0.90938  0.88728  1.0000
  H   H1008     1.0  0.30576  0.92622  0.90762  1.0000
  C   C1257     1.0  0.05360  0.75218  0.93863  1.0000
  Fe  Fe94      1.0  0.49519  0.97513  0.79520  1.0000
  H   H1009     1.0  0.33124  0.60098  0.00214  1.0000
  H   H1010     1.0  0.43968  0.60274  0.90732  1.0000
  C   C1258     1.0  0.41145  0.57178  0.80094  1.0000
  C   C1259     1.0  0.00134  0.66548  0.76864  1.0000
  Fe  Fe95      1.0  0.47164  0.00481  0.82787  1.0000
  H   H1011     1.0  0.29614  0.69145  0.00430  1.0000
  C   C1260     1.0  0.42166  0.55355  0.82995  1.0000
  H   H1012     1.0  0.07032  0.67370  0.85622  1.0000
  H   H1013     1.0  0.19858  0.54463  0.90519  1.0000
  C   C1261     1.0  0.26096  0.91168  0.93166  1.0000
  C   C1262     1.0  0.25183  0.91544  0.91460  1.0000
  C   C1263     1.0  0.23651  0.89424  0.90718  1.0000
  C   C1264     1.0  0.23016  0.86928  0.91677  1.0000
  C   C1265     1.0  0.23913  0.86574  0.93386  1.0000
  C   C1266     1.0  0.25455  0.88676  0.94121  1.0000
  H   H1014     1.0  0.25665  0.93454  0.90714  1.0000
  H   H1015     1.0  0.22969  0.89708  0.89393  1.0000
  H   H1016     1.0  0.23446  0.84661  0.94135  1.0000
  H   H1017     1.0  0.26157  0.88366  0.95439  1.0000
  C   C1267     1.0  0.24154  0.60566  0.92689  1.0000
  C   C1268     1.0  0.22141  0.62266  0.93200  1.0000
  C   C1269     1.0  0.22127  0.65305  0.92972  1.0000
  C   C1270     1.0  0.24141  0.66667  0.92231  1.0000
  C   C1271     1.0  0.26173  0.64974  0.91753  1.0000
  C   C1272     1.0  0.26192  0.61937  0.91993  1.0000
  H   H1018     1.0  0.20583  0.61215  0.93766  1.0000
  H   H1019     1.0  0.20556  0.66587  0.93352  1.0000
  H   H1020     1.0  0.27732  0.66015  0.91176  1.0000
  H   H1021     1.0  0.27755  0.60653  0.91597  1.0000
  C   C1273     1.0  0.09069  0.74299  0.86085  1.0000
  C   C1274     1.0  0.07633  0.75564  0.87404  1.0000
  C   C1275     1.0  0.08558  0.75903  0.89128  1.0000
  C   C1276     1.0  0.10957  0.75070  0.89541  1.0000
  C   C1277     1.0  0.12421  0.73902  0.88205  1.0000
  C   C1278     1.0  0.11472  0.73493  0.86495  1.0000
  H   H1022     1.0  0.05812  0.76271  0.87089  1.0000
  H   H1023     1.0  0.07412  0.76828  0.90144  1.0000
  H   H1024     1.0  0.14269  0.73254  0.88495  1.0000
  H   H1025     1.0  0.12611  0.72539  0.85483  1.0000
  H   H1026     1.0  0.01672  0.81711  0.91965  1.0000
  C   C1279     1.0  0.05573  0.85673  0.84227  1.0000
  C   C1280     1.0  0.03778  0.84473  0.85291  1.0000
  C   C1281     1.0  0.04336  0.83577  0.87004  1.0000
  C   C1282     1.0  0.06679  0.83950  0.87672  1.0000
  C   C1283     1.0  0.08472  0.85259  0.86632  1.0000
  C   C1284     1.0  0.07916  0.86053  0.84890  1.0000
  P   P43       1.0  0.11499  0.85805  0.87481  1.0000
  C   C1285     1.0  0.11430  0.85850  0.89861  1.0000
  C   C1286     1.0  0.13489  0.82894  0.86753  1.0000
  C   C1287     1.0  0.15746  0.82468  0.87577  1.0000
  C   C1288     1.0  0.17347  0.80317  0.86969  1.0000
  C   C1289     1.0  0.16679  0.78506  0.85572  1.0000
  C   C1290     1.0  0.14416  0.78873  0.84768  1.0000
  C   C1291     1.0  0.12823  0.81053  0.85355  1.0000
  C   C1292     1.0  0.11289  0.88486  0.90801  1.0000
  C   C1293     1.0  0.11272  0.88483  0.92646  1.0000
  C   C1294     1.0  0.11378  0.85853  0.93563  1.0000
  C   C1295     1.0  0.11485  0.83228  0.92635  1.0000
  C   C1296     1.0  0.11519  0.83222  0.90794  1.0000
  C   C1297     1.0  0.12615  0.89285  0.86737  1.0000
  C   C1298     1.0  0.10989  0.91614  0.86459  1.0000
  C   C1299     1.0  0.11843  0.94327  0.85922  1.0000
  C   C1300     1.0  0.14327  0.94750  0.85679  1.0000
  C   C1301     1.0  0.15959  0.92461  0.85974  1.0000
  C   C1302     1.0  0.15111  0.89741  0.86502  1.0000
  H   H1027     1.0  0.05144  0.86275  0.82879  1.0000
  C   C1303     1.0  0.16598  0.75765  0.00794  1.0000
  H   H1028     1.0  0.02962  0.82563  0.87808  1.0000
  H   H1029     1.0  0.07081  0.83202  0.88991  1.0000
  H   H1030     1.0  0.09295  0.86957  0.84040  1.0000
  H   H1031     1.0  0.16289  0.83817  0.88683  1.0000
  H   H1032     1.0  0.19106  0.80059  0.87591  1.0000
  H   H1033     1.0  0.17904  0.76803  0.85125  1.0000
  H   H1034     1.0  0.13870  0.77434  0.83708  1.0000
  H   H1035     1.0  0.11072  0.81256  0.84723  1.0000
  H   H1036     1.0  0.11224  0.90548  0.90121  1.0000
  H   H1037     1.0  0.11214  0.90521  0.93366  1.0000
  H   H1038     1.0  0.11414  0.85847  0.94992  1.0000
  H   H1039     1.0  0.11603  0.81188  0.93341  1.0000
  H   H1040     1.0  0.11639  0.81166  0.90098  1.0000
  H   H1041     1.0  0.09062  0.91345  0.86672  1.0000
  H   H1042     1.0  0.10578  0.96106  0.85702  1.0000
  H   H1043     1.0  0.14992  0.96855  0.85271  1.0000
  H   H1044     1.0  0.17890  0.92792  0.85806  1.0000
  H   H1045     1.0  0.16421  0.88024  0.86737  1.0000
  H   H1046     1.0  0.42442  0.81083  0.89599  1.0000
  C   C1304     1.0  0.35714  0.93606  0.96610  1.0000
  C   C1305     1.0  0.32015  0.93052  0.89827  1.0000
  H   H1047     1.0  0.19359  0.59778  0.90433  1.0000
  C   C1306     1.0  0.36075  0.53599  0.79683  1.0000
  H   H1048     1.0  0.30096  0.96645  0.88636  1.0000
  H   H1049     1.0  0.39153  0.82074  0.87442  1.0000
  H   H1050     1.0  0.24192  0.95576  0.00686  1.0000
  C   C1307     1.0  0.28254  0.60110  0.00274  1.0000
  C   C1308     1.0  0.40840  0.83755  0.91636  1.0000
  C   C1309     1.0  0.45776  0.56153  0.91128  1.0000
  H   H1051     1.0  0.42265  0.83303  0.92583  1.0000
  H   H1052     1.0  0.99711  0.93510  0.77641  1.0000
  C   C1310     1.0  0.31741  0.95341  0.88633  1.0000
  H   H1053     1.0  0.06441  0.73408  0.94346  1.0000
  C   C1311     1.0  0.36537  0.55014  0.84619  1.0000
  C   C1312     1.0  0.06307  0.78023  0.93905  1.0000
  H   H1054     1.0  0.06506  0.65815  0.88733  1.0000
  H   H1055     1.0  0.26526  0.80717  0.91578  1.0000
  H   H1056     1.0  0.02380  0.72534  0.93089  1.0000
  H   H1057     1.0  0.33172  0.53885  0.99347  1.0000
  C   C1313     1.0  0.34066  0.67318  0.99501  1.0000
  H   H1058     1.0  0.32748  0.59335  0.78127  1.0000
  H   H1059     1.0  0.47440  0.86169  0.84667  1.0000
  C   C1314     1.0  0.40939  0.82500  0.89956  1.0000
  C   C1315     1.0  0.99864  0.91177  0.77477  1.0000
  C   C1316     1.0  0.01804  0.64849  0.77805  1.0000
  C   C1317     1.0  0.15590  0.59675  0.89609  1.0000
  C   C1318     1.0  0.13639  0.57853  0.89196  1.0000
  P   P44       1.0  0.15222  0.63588  0.89625  1.0000
  C   C1319     1.0  0.17887  0.65183  0.88649  1.0000
  C   C1320     1.0  0.12610  0.64666  0.88329  1.0000
  C   C1321     1.0  0.12876  0.65503  0.86560  1.0000
  C   C1322     1.0  0.10860  0.66439  0.85588  1.0000
  C   C1323     1.0  0.08570  0.66559  0.86372  1.0000
  C   C1324     1.0  0.08281  0.65697  0.88123  1.0000
  C   C1325     1.0  0.10289  0.64734  0.89096  1.0000
  C   C1326     1.0  0.18632  0.67984  0.89136  1.0000
  C   C1327     1.0  0.20680  0.69205  0.88353  1.0000
  C   C1328     1.0  0.22014  0.67639  0.87101  1.0000
  C   C1329     1.0  0.21267  0.64867  0.86592  1.0000
  C   C1330     1.0  0.19199  0.63654  0.87348  1.0000
  C   C1331     1.0  0.14808  0.64854  0.91869  1.0000
  C   C1332     1.0  0.15516  0.63115  0.93303  1.0000
  C   C1333     1.0  0.15169  0.64098  0.95033  1.0000
  C   C1334     1.0  0.14070  0.66799  0.95346  1.0000
  C   C1335     1.0  0.13324  0.68521  0.93930  1.0000
  C   C1336     1.0  0.13716  0.67575  0.92198  1.0000
  H   H1060     1.0  0.11889  0.58755  0.88838  1.0000
  H   H1061     1.0  0.14636  0.65485  0.85931  1.0000
  H   H1062     1.0  0.11076  0.67166  0.84239  1.0000
  C   C1337     1.0  0.00438  0.68192  0.87926  1.0000
  H   H1063     1.0  0.35776  0.58140  0.80421  1.0000
  H   H1064     1.0  0.10035  0.64087  0.90454  1.0000
  H   H1065     1.0  0.17658  0.69226  0.90126  1.0000
  H   H1066     1.0  0.21283  0.71342  0.88753  1.0000
  H   H1067     1.0  0.23639  0.68569  0.86542  1.0000
  H   H1068     1.0  0.22304  0.63649  0.85622  1.0000
  H   H1069     1.0  0.18637  0.61515  0.86919  1.0000
  H   H1070     1.0  0.16341  0.61001  0.93101  1.0000
  H   H1071     1.0  0.15752  0.62759  0.96130  1.0000
  H   H1072     1.0  0.13806  0.67570  0.96685  1.0000
  H   H1073     1.0  0.12482  0.70624  0.94172  1.0000
  H   H1074     1.0  0.13162  0.68973  0.91119  1.0000
  C   C1338     1.0  0.41356  0.99473  0.87824  1.0000
  C   C1339     1.0  0.33618  0.96008  0.87470  1.0000
  C   C1340     1.0  0.26152  0.95415  0.00669  1.0000
  H   H1075     1.0  0.05714  0.82521  0.93246  1.0000
  H   H1076     1.0  0.29036  0.61355  0.01337  1.0000
  C   C1341     1.0  0.33630  0.52608  0.86498  1.0000
  C   C1342     1.0  0.36966  0.65359  0.01593  1.0000
  C   C1343     1.0  0.38899  0.85585  0.92101  1.0000
  C   C1344     1.0  0.02046  0.70524  0.87937  1.0000
  C   C1345     1.0  0.35776  0.94394  0.87503  1.0000
  H   H1077     1.0  0.33183  0.95158  0.00613  1.0000
  H   H1078     1.0  0.02628  0.65715  0.78987  1.0000
  S   S190      1.0  0.29094  0.51227  0.90680  1.0000
  C   C1346     1.0  0.46410  0.59255  0.88597  1.0000
  C   C1347     1.0  0.35880  0.62635  0.01455  1.0000
  C   C1348     1.0  0.38178  0.52316  0.89576  1.0000
  C   C1349     1.0  0.30573  0.51064  0.00564  1.0000
  H   H1079     1.0  0.22990  0.62651  0.98860  1.0000
  C   C1350     1.0  0.35025  0.90368  0.93507  1.0000
  C   C1351     1.0  0.33875  0.62253  0.00351  1.0000
  C   C1352     1.0  0.36453  0.52681  0.83420  1.0000
  S   S191      1.0  0.44900  0.99352  0.85246  1.0000
  C   C1353     1.0  0.31779  0.83986  0.92823  1.0000
  H   H1080     1.0  0.03740  0.60746  0.77939  1.0000
  C   C1354     1.0  0.28251  0.84201  0.90181  1.0000
  C   C1355     1.0  0.36050  0.92089  0.88687  1.0000
  C   C1356     1.0  0.35135  0.54966  0.86154  1.0000
  Fe  Fe96      1.0  0.32544  0.51902  0.92232  1.0000
  C   C1357     1.0  0.20643  0.66422  0.98910  1.0000
  H   H1081     1.0  0.03650  0.70474  0.87109  1.0000
  C   C1358     1.0  0.19752  0.68744  0.99921  1.0000
  H   H1082     1.0  0.35714  0.85294  0.88251  1.0000
  H   H1083     1.0  0.20056  0.66156  0.97556  1.0000
  C   C1359     1.0  0.42060  0.00528  0.86158  1.0000
  C   C1360     1.0  0.33355  0.90189  0.94896  1.0000
  C   C1361     1.0  0.37038  0.92201  0.93682  1.0000
  H   H1084     1.0  0.45270  0.57299  0.84237  1.0000
  C   C1362     1.0  0.37146  0.84889  0.89201  1.0000
  H   H1085     1.0  0.33433  0.97843  0.86583  1.0000
  H   H1086     1.0  0.40090  0.57091  0.78894  1.0000
  C   C1363     1.0  0.02429  0.62024  0.77207  1.0000
  C   C1364     1.0  0.34144  0.91356  0.89830  1.0000
  H   H1087     1.0  0.43227  0.54320  0.87239  1.0000
  H   H1088     1.0  0.40129  0.56335  0.89306  1.0000
  H   H1089     1.0  0.08112  0.78369  0.94427  1.0000
  H   H1090     1.0  0.25082  0.53880  0.99627  1.0000
  S   S192      1.0  0.01531  0.77838  0.84040  1.0000
  H   H1091     1.0  0.37261  0.94995  0.86644  1.0000
  C   C1365     1.0  0.30184  0.86150  0.90151  1.0000
  H   H1092     1.0  0.01968  0.84189  0.84763  1.0000
  C   C1366     1.0  0.02655  0.79881  0.92511  1.0000
  H   H1093     1.0  0.26893  0.73416  0.00324  1.0000
  C   C1367     1.0  0.17830  0.58422  0.90087  1.0000
  C   C1368     1.0  0.18800  0.77242  0.00672  1.0000
  S   S193      1.0  0.36020  0.53862  0.91068  1.0000
  C   C1369     1.0  0.16179  0.53601  0.89709  1.0000
  H   H1094     1.0  0.30506  0.67968  0.94820  1.0000
  H   H1095     1.0  0.02808  0.74758  0.88980  1.0000
  C   C1370     1.0  0.32890  0.64623  0.99420  1.0000
  C   C1371     1.0  0.00092  0.89354  0.78969  1.0000
  C   C1372     1.0  0.44520  0.59225  0.81708  1.0000
  H   H1096     1.0  0.26855  0.84306  0.89176  1.0000
  C   C1373     1.0  0.22312  0.64463  0.99642  1.0000
  H   H1097     1.0  0.26454  0.97420  0.98111  1.0000
  C   C1374     1.0  0.03060  0.74736  0.93148  1.0000
  C   C1375     1.0  0.45262  0.58713  0.90203  1.0000
  Fe  Fe97      1.0  0.00725  0.79174  0.81224  1.0000
  C   C1376     1.0  0.48434  0.59439  0.77301  1.0000
  C   C1377     1.0  0.04955  0.80354  0.93234  1.0000
  C   C1378     1.0  0.32521  0.65568  0.92886  1.0000
  C   C1379     1.0  0.33788  0.63001  0.92489  1.0000
  C   C1380     1.0  0.34028  0.60833  0.93764  1.0000
  C   C1381     1.0  0.32956  0.61199  0.95421  1.0000
  C   C1382     1.0  0.31614  0.63727  0.95811  1.0000
  C   C1383     1.0  0.31456  0.65948  0.94546  1.0000
  P   P45       1.0  0.30308  0.64153  0.97980  1.0000
  C   C1384     1.0  0.28551  0.60974  0.98513  1.0000
  H   H1098     1.0  0.32339  0.67256  0.91899  1.0000
  C   C1385     1.0  0.43070  0.59136  0.80199  1.0000
  H   H1099     1.0  0.42555  0.98003  0.88524  1.0000
  C   C1386     1.0  0.31218  0.95165  0.00615  1.0000
  H   H1100     1.0  0.35932  0.94944  0.97779  1.0000
  H   H1101     1.0  0.36953  0.69789  0.00677  1.0000
  H   H1102     1.0  0.21389  0.86260  0.99816  1.0000
  C   C1387     1.0  0.44086  0.57312  0.83098  1.0000
  C   C1388     1.0  0.25977  0.55909  0.99325  1.0000
  C   C1389     1.0  0.26161  0.56830  0.97578  1.0000
  C   C1390     1.0  0.27436  0.59358  0.97170  1.0000
  C   C1391     1.0  0.28201  0.67188  0.98039  1.0000
  C   C1392     1.0  0.26399  0.67424  0.96738  1.0000
  C   C1393     1.0  0.24833  0.69832  0.96710  1.0000
  C   C1394     1.0  0.25019  0.71992  0.97999  1.0000
  C   C1395     1.0  0.27424  0.96491  0.99220  1.0000
  C   C1396     1.0  0.28316  0.69317  0.99369  1.0000
  C   C1397     1.0  0.41802  0.52943  0.87731  1.0000
  H   H1103     1.0  0.34583  0.62681  0.91196  1.0000
  H   H1104     1.0  0.35017  0.58844  0.93457  1.0000
  H   H1105     1.0  0.33151  0.59490  0.96393  1.0000
  H   H1106     1.0  0.33435  0.69128  0.98707  1.0000
  C   C1398     1.0  0.31942  0.86094  0.91492  1.0000
  H   H1107     1.0  0.24356  0.90037  0.00551  1.0000
  C   C1399     1.0  0.33423  0.52094  0.77295  1.0000
  C   C1400     1.0  0.37056  0.86196  0.90875  1.0000
  C   C1401     1.0  0.32346  0.53223  0.00573  1.0000
  C   C1402     1.0  0.21652  0.86907  0.01179  1.0000
  H   H1108     1.0  0.46024  0.60723  0.81779  1.0000
  H   H1109     1.0  0.41887  0.53829  0.84057  1.0000
  H   H1110     1.0  0.25363  0.55544  0.96531  1.0000
  H   H1111     1.0  0.27577  0.60010  0.95803  1.0000
  H   H1112     1.0  0.26231  0.65771  0.95724  1.0000
  H   H1113     1.0  0.23476  0.70036  0.95684  1.0000
  H   H1114     1.0  0.23814  0.73866  0.97964  1.0000
  C   C1403     1.0  0.33710  0.91784  0.96445  1.0000
  C   C1404     1.0  0.26752  0.71728  0.99332  1.0000
  H   H1115     1.0  0.44897  0.55807  0.92384  1.0000
  C   C1405     1.0  0.28065  0.82169  0.91538  1.0000
  C   C1406     1.0  0.40642  0.55325  0.81515  1.0000
  C   C1407     1.0  0.48079  0.57240  0.87918  1.0000
  H   H1116     1.0  0.00440  0.82780  0.76928  1.0000
  H   H1117     1.0  0.43474  0.60553  0.79100  1.0000
  P   P46       1.0  0.34513  0.88510  0.91443  1.0000
  C   C1408     1.0  0.29955  0.96376  0.99197  1.0000
  C   C1409     1.0  0.37384  0.93802  0.95232  1.0000
  H   H1118     1.0  0.18468  0.70276  0.99355  1.0000
  H   H1119     1.0  0.37686  0.56866  0.84382  1.0000
  H   H1120     1.0  0.00120  0.90317  0.80271  1.0000
  C   C1410     1.0  0.27001  0.57566  0.00675  1.0000
  C   C1411     1.0  0.36075  0.67693  0.00602  1.0000
  H   H1121     1.0  0.46013  0.61237  0.87879  1.0000
  C   C1412     1.0  0.01554  0.72965  0.88983  1.0000
  H   H1122     1.0  0.16413  0.51258  0.89749  1.0000
  C   C1413     1.0  0.00268  0.86304  0.78795  1.0000
  H   H1123     1.0  0.47693  0.57272  0.77355  1.0000
  S   S194      1.0  0.00460  0.84115  0.80742  1.0000
  C   C1414     1.0  0.48572  0.54658  0.88828  1.0000
  H   H1124     1.0  0.00783  0.66331  0.87081  1.0000
  S   S195      1.0  0.46214  0.00381  0.79886  1.0000
  C   C1415     1.0  0.23114  0.64846  0.01376  1.0000
  H   H1125     1.0  0.32600  0.52548  0.87714  1.0000
  C   C1416     1.0  0.32574  0.54954  0.77119  1.0000
  H   H1126     1.0  0.11262  0.67752  0.77288  1.0000
  C   C1417     1.0  0.23330  0.89066  0.01607  1.0000
  H   H1127     1.0  0.45119  0.80076  0.76709  1.0000
  C   C1418     1.0  0.49236  0.86509  0.84131  1.0000
  H   H1128     1.0  0.07172  0.65609  0.76952  1.0000
  H   H1129     1.0  0.49417  0.89328  0.79761  1.0000
  H   H1130     1.0  0.67249  0.12359  0.05737  1.0000
  Fe  Fe98      1.0  0.97151  0.27309  0.19818  1.0000
  Fe  Fe99      1.0  0.52957  0.03030  0.20383  1.0000
  S   S196      1.0  0.95074  0.26114  0.17288  1.0000
  C   C1419     1.0  0.58091  0.12470  0.24779  1.0000
  S   S197      1.0  0.52962  0.02883  0.23352  1.0000
  S   S198      1.0  0.95948  0.28021  0.22629  1.0000
  H   H1131     1.0  0.71391  0.16271  0.02645  1.0000
  H   H1132     1.0  0.76722  0.01119  0.08445  1.0000
  C   C1420     1.0  0.60939  0.43078  0.21656  1.0000
  H   H1133     1.0  0.58118  0.05786  0.22851  1.0000
  C   C1421     1.0  0.65606  0.42841  0.13825  1.0000
  C   C1422     1.0  0.78432  0.43309  0.03794  1.0000
  H   H1134     1.0  0.51414  0.33110  0.20318  1.0000
  H   H1135     1.0  0.76379  0.44352  0.06156  1.0000
  C   C1423     1.0  0.50917  0.04573  0.13845  1.0000
  Fe  Fe100     1.0  0.82183  0.27902  0.12043  1.0000
  S   S199      1.0  0.78318  0.26300  0.12296  1.0000
  S   S200      1.0  0.84266  0.28994  0.14590  1.0000
  Fe  Fe101     1.0  0.81705  0.28413  0.08010  1.0000
  S   S201      1.0  0.77877  0.26850  0.08001  1.0000
  S   S202      1.0  0.83294  0.30121  0.05458  1.0000
  Fe  Fe102     1.0  0.77354  0.29814  0.10335  1.0000
  S   S203      1.0  0.73890  0.32570  0.10393  1.0000
  Fe  Fe103     1.0  0.79162  0.23472  0.09936  1.0000
  S   S204      1.0  0.78372  0.18685  0.09330  1.0000
  S   S205      1.0  0.81112  0.31594  0.10235  1.0000
  S   S206      1.0  0.83092  0.24858  0.09792  1.0000
  C   C1424     1.0  0.66809  0.36872  0.21297  1.0000
  C   C1425     1.0  0.61041  0.03514  0.14927  1.0000
  H   H1136     1.0  0.87408  0.23333  0.19881  1.0000
  C   C1426     1.0  0.63105  0.36012  0.03436  1.0000
  H   H1137     1.0  0.70745  0.12082  0.07781  1.0000
  H   H1138     1.0  0.58700  0.01438  0.09525  1.0000
  H   H1139     1.0  0.77680  0.23366  0.04362  1.0000
  S   S207      1.0  0.73499  0.46394  0.11149  1.0000
  Fe  Fe104     1.0  0.69456  0.05489  0.11083  1.0000
  S   S208      1.0  0.70445  0.09878  0.12314  1.0000
  S   S209      1.0  0.66548  0.48344  0.09893  1.0000
  S   S210      1.0  0.65828  0.05179  0.09735  1.0000
  C   C1427     1.0  0.76171  0.16292  0.10220  1.0000
  C   C1428     1.0  0.76244  0.13344  0.09716  1.0000
  C   C1429     1.0  0.74510  0.11361  0.10347  1.0000
  C   C1430     1.0  0.72670  0.12305  0.11487  1.0000
  C   C1431     1.0  0.72614  0.15248  0.12011  1.0000
  C   C1432     1.0  0.74347  0.17235  0.11377  1.0000
  H   H1140     1.0  0.77665  0.12588  0.08839  1.0000
  H   H1141     1.0  0.74605  0.09097  0.09961  1.0000
  H   H1142     1.0  0.71214  0.15997  0.12907  1.0000
  H   H1143     1.0  0.74273  0.19492  0.11783  1.0000
  C   C1433     1.0  0.73809  0.36423  0.10533  1.0000
  C   C1434     1.0  0.75927  0.38055  0.10658  1.0000
  C   C1435     1.0  0.75789  0.41105  0.10817  1.0000
  C   C1436     1.0  0.73539  0.42561  0.10869  1.0000
  C   C1437     1.0  0.71415  0.40936  0.10722  1.0000
  C   C1438     1.0  0.71555  0.37883  0.10540  1.0000
  H   H1144     1.0  0.77669  0.36958  0.10666  1.0000
  H   H1145     1.0  0.77431  0.42343  0.10946  1.0000
  H   H1146     1.0  0.69669  0.42026  0.10757  1.0000
  H   H1147     1.0  0.69912  0.36638  0.10418  1.0000
  H   H1148     1.0  0.65503  0.45082  0.14272  1.0000
  H   H1149     1.0  0.52785  0.03900  0.06136  1.0000
  C   C1439     1.0  0.74221  0.19101  0.01676  1.0000
  C   C1440     1.0  0.74778  0.20642  0.05246  1.0000
  H   H1150     1.0  0.69013  0.49188  0.05534  1.0000
  H   H1151     1.0  0.67190  0.10326  0.16256  1.0000
  C   C1441     1.0  0.82883  0.28047  0.03517  1.0000
  C   C1442     1.0  0.82462  0.25058  0.03596  1.0000
  C   C1443     1.0  0.59970  0.32704  0.26379  1.0000
  H   H1152     1.0  0.82366  0.23988  0.04862  1.0000
  H   H1153     1.0  0.97057  0.19592  0.16682  1.0000
  C   C1444     1.0  0.88770  0.23017  0.22546  1.0000
  C   C1445     1.0  0.64355  0.42005  0.12309  1.0000
  C   C1446     1.0  0.61600  0.47899  0.06964  1.0000
  H   H1154     1.0  0.76487  0.14029  0.04563  1.0000
  C   C1447     1.0  0.59745  0.04709  0.16365  1.0000
  H   H1155     1.0  0.75623  0.05688  0.06991  1.0000
  H   H1156     1.0  0.52295  0.43362  0.22275  1.0000
  S   S211      1.0  0.98878  0.21876  0.25751  1.0000
  H   H1157     1.0  0.60261  0.06799  0.16891  1.0000
  C   C1448     1.0  0.58682  0.44020  0.07155  1.0000
  C   C1449     1.0  0.69816  0.35636  0.19080  1.0000
  C   C1450     1.0  0.72054  0.35676  0.15215  1.0000
  C   C1451     1.0  0.99292  0.11897  0.26588  1.0000
  H   H1158     1.0  0.63513  0.38484  0.10546  1.0000
  C   C1452     1.0  0.92077  0.27006  0.16554  1.0000
  C   C1453     1.0  0.90439  0.28614  0.17587  1.0000
  C   C1454     1.0  0.88067  0.29194  0.16963  1.0000
  C   C1455     1.0  0.87292  0.28184  0.15300  1.0000
  C   C1456     1.0  0.88930  0.26573  0.14270  1.0000
  C   C1457     1.0  0.91301  0.25987  0.14895  1.0000
  H   H1159     1.0  0.90996  0.29398  0.18869  1.0000
  H   H1160     1.0  0.86821  0.30439  0.17775  1.0000
  H   H1161     1.0  0.88368  0.25771  0.12993  1.0000
  H   H1162     1.0  0.92541  0.24727  0.14086  1.0000
  C   C1458     1.0  0.59760  0.42643  0.05698  1.0000
  H   H1163     1.0  0.49784  0.21310  0.23223  1.0000
  C   C1459     1.0  0.58130  0.37267  0.24307  1.0000
  C   C1460     1.0  0.83337  0.40397  0.03901  1.0000
  C   C1461     1.0  0.51427  0.09135  0.16290  1.0000
  C   C1462     1.0  0.67261  0.41531  0.05338  1.0000
  C   C1463     1.0  0.91143  0.21959  0.19931  1.0000
  H   H1164     1.0  0.62010  0.48231  0.02234  1.0000
  H   H1165     1.0  0.51433  0.16671  0.22121  1.0000
  H   H1166     1.0  0.62649  0.44867  0.17483  1.0000
  H   H1167     1.0  0.62949  0.31353  0.03715  1.0000
  C   C1464     1.0  0.73004  0.18654  0.04749  1.0000
  H   H1168     1.0  0.91292  0.21835  0.18508  1.0000
  C   C1465     1.0  0.62316  0.44279  0.20294  1.0000
  H   H1169     1.0  0.74849  0.49897  0.07583  1.0000
  H   H1170     1.0  0.77983  0.50815  0.09823  1.0000
  H   H1171     1.0  0.90069  0.40098  0.02365  1.0000
  Fe  Fe105     1.0  0.98693  0.31649  0.22742  1.0000
  C   C1466     1.0  0.57449  0.06614  0.25616  1.0000
  C   C1467     1.0  0.70600  0.40357  0.02650  1.0000
  H   H1172     1.0  0.80629  0.46050  0.06891  1.0000
  C   C1468     1.0  0.56583  0.35670  0.25406  1.0000
  H   H1173     1.0  0.70279  0.40923  0.07110  1.0000
  H   H1174     1.0  0.63179  0.37624  0.20328  1.0000
  C   C1469     1.0  0.68175  0.40964  0.02231  1.0000
  H   H1175     1.0  0.75018  0.21202  0.06626  1.0000
  H   H1176     1.0  0.55997  0.50740  0.24315  1.0000
  C   C1470     1.0  0.88193  0.40182  0.02788  1.0000
  H   H1177     1.0  0.77310  0.31674  0.15105  1.0000
  H   H1178     1.0  0.57128  0.43055  0.07795  1.0000
  H   H1179     1.0  0.71873  0.17676  0.05750  1.0000
  C   C1471     1.0  0.57992  0.07421  0.23884  1.0000
  C   C1472     1.0  0.62078  0.33273  0.03171  1.0000
  H   H1180     1.0  0.67908  0.41487  0.15949  1.0000
  C   C1473     1.0  0.53775  0.36230  0.21548  1.0000
  C   C1474     1.0  0.56315  0.46159  0.23786  1.0000
  H   H1181     1.0  0.63861  0.45630  0.20598  1.0000
  C   C1475     1.0  0.75582  0.38787  0.14957  1.0000
  H   H1182     1.0  0.64762  0.36167  0.04195  1.0000
  H   H1183     1.0  0.66039  0.30591  0.17268  1.0000
  H   H1184     1.0  0.76341  0.40937  0.14800  1.0000
  C   C1476     1.0  0.78446  0.02301  0.03545  1.0000
  H   H1185     1.0  0.65998  0.41927  0.06407  1.0000
  C   C1477     1.0  0.52078  0.15101  0.26468  1.0000
  H   H1186     1.0  0.54186  0.48889  0.17271  1.0000
  C   C1478     1.0  0.59832  0.38226  0.01762  1.0000
  C   C1479     1.0  0.69002  0.11622  0.05259  1.0000
  H   H1187     1.0  0.64248  0.36758  0.17223  1.0000
  C   C1480     1.0  0.60609  0.36560  0.24256  1.0000
  C   C1481     1.0  0.78597  0.43775  0.01967  1.0000
  H   H1188     1.0  0.53826  0.15928  0.26086  1.0000
  H   H1189     1.0  0.84085  0.15689  0.04873  1.0000
  H   H1190     1.0  0.83392  0.44860  0.02992  1.0000
  C   C1482     1.0  0.58221  0.40976  0.19499  1.0000
  H   H1191     1.0  0.83400  0.31703  0.01797  1.0000
  C   C1483     1.0  0.66951  0.08225  0.16878  1.0000
  H   H1192     1.0  0.65129  0.25542  0.16418  1.0000
  C   C1484     1.0  0.65847  0.37068  0.12664  1.0000
  H   H1193     1.0  0.69424  0.01440  0.16845  1.0000
  H   H1194     1.0  0.71932  0.40381  0.15004  1.0000
  C   C1485     1.0  0.66955  0.25794  0.13916  1.0000
  H   H1195     1.0  0.62557  0.04674  0.14370  1.0000
  H   H1196     1.0  0.98805  0.11583  0.23773  1.0000
  C   C1486     1.0  0.97855  0.41291  0.25748  1.0000
  H   H1197     1.0  0.70575  0.35977  0.21858  1.0000
  H   H1198     1.0  0.71674  0.35062  0.18758  1.0000
  C   C1487     1.0  0.61997  0.38507  0.02722  1.0000
  H   H1199     1.0  0.55222  0.08987  0.15624  1.0000
  H   H1200     1.0  0.62305  0.49952  0.07441  1.0000
  H   H1201     1.0  0.86601  0.18841  0.25574  1.0000
  C   C1488     1.0  0.66978  0.40797  0.14764  1.0000
  C   C1489     1.0  0.66485  0.41583  0.03571  1.0000
  C   C1490     1.0  0.68519  0.05931  0.16451  1.0000
  C   C1491     1.0  0.61523  0.34274  0.25284  1.0000
  C   C1492     1.0  0.61786  0.43880  0.04871  1.0000
  H   H1202     1.0  0.73229  0.39868  0.04728  1.0000
  C   C1493     1.0  0.51621  0.35344  0.20744  1.0000
  C   C1494     1.0  0.91433  0.28750  0.25713  1.0000
  C   C1495     1.0  0.69291  0.10799  0.03498  1.0000
  C   C1496     1.0  0.73611  0.33234  0.15260  1.0000
  C   C1497     1.0  0.67125  0.37891  0.14187  1.0000
  H   H1203     1.0  0.63831  0.09564  0.18392  1.0000
  H   H1204     1.0  0.87072  0.23750  0.23113  1.0000
  S   S212      1.0  0.67820  0.04089  0.04775  1.0000
  C   C1498     1.0  0.68492  0.49942  0.04237  1.0000
  C   C1499     1.0  0.52146  0.41119  0.21853  1.0000
  C   C1500     1.0  0.68046  0.35875  0.17755  1.0000
  Fe  Fe106     1.0  0.70130  0.49311  0.11171  1.0000
  C   C1501     1.0  0.98685  0.17113  0.18791  1.0000
  C   C1502     1.0  0.57348  0.48964  0.15572  1.0000
  S   S213      1.0  0.97690  0.36239  0.23766  1.0000
  H   H1205     1.0  0.55234  0.34661  0.21707  1.0000
  P   P47       1.0  0.90637  0.22797  0.25981  1.0000
  H   H1206     1.0  0.83986  0.36005  0.04810  1.0000
  C   C1503     1.0  0.59765  0.49865  0.15359  1.0000
  C   C1504     1.0  0.64724  0.05049  0.18833  1.0000
  C   C1505     1.0  0.54041  0.39117  0.22133  1.0000
  C   C1506     1.0  0.84400  0.42840  0.03120  1.0000
  H   H1207     1.0  0.81840  0.47043  0.09961  1.0000
  C   C1507     1.0  0.84742  0.37873  0.04150  1.0000
  C   C1508     1.0  0.76025  0.21069  0.02197  1.0000
  C   C1509     1.0  0.50691  0.27688  0.25932  1.0000
  C   C1510     1.0  0.75114  0.46813  0.03935  1.0000
  S   S214      1.0  0.71436  0.03197  0.08909  1.0000
  H   H1208     1.0  0.66340  0.37276  0.22663  1.0000
  C   C1511     1.0  0.56526  0.43359  0.24501  1.0000
  H   H1209     1.0  0.65898  0.34853  0.12187  1.0000
  H   H1210     1.0  0.72903  0.31058  0.15385  1.0000
  C   C1512     1.0  0.76637  0.44792  0.04765  1.0000
  H   H1211     1.0  0.67755  0.10887  0.02612  1.0000
  C   C1513     1.0  0.61639  0.43847  0.18538  1.0000
  C   C1514     1.0  0.68268  0.27556  0.12770  1.0000
  C   C1515     1.0  0.65066  0.07792  0.18079  1.0000
  C   C1516     1.0  0.71354  0.40338  0.04407  1.0000
  H   H1212     1.0  0.56275  0.46470  0.22371  1.0000
  C   C1517     1.0  0.90784  0.22360  0.23616  1.0000
  C   C1518     1.0  0.65647  0.36586  0.18223  1.0000
  C   C1519     1.0  0.51209  0.12513  0.25692  1.0000
  H   H1213     1.0  0.94900  0.20904  0.20368  1.0000
  H   H1214     1.0  0.58308  0.14745  0.24451  1.0000
  S   S215      1.0  0.50504  0.50772  0.24088  1.0000
  H   H1215     1.0  0.96727  0.42199  0.24718  1.0000
  P   P48       1.0  0.68808  0.35240  0.15472  1.0000
  H   H1216     1.0  0.63439  0.33738  0.25252  1.0000
  C   C1520     1.0  0.69197  0.36145  0.20843  1.0000
  C   C1521     1.0  0.68771  0.30430  0.13237  1.0000
  H   H1217     1.0  0.59014  0.40610  0.05239  1.0000
  C   C1522     1.0  0.49735  0.37346  0.20487  1.0000
  C   C1523     1.0  0.67996  0.31566  0.14861  1.0000
  H   H1218     1.0  0.73715  0.47931  0.04684  1.0000
  P   P49       1.0  0.63299  0.42058  0.03050  1.0000
  C   C1524     1.0  0.77108  0.36344  0.14970  1.0000
  H   H1219     1.0  0.93737  0.12641  0.26402  1.0000
  H   H1220     1.0  0.66586  0.23556  0.13558  1.0000
  C   C1525     1.0  0.66658  0.29790  0.16004  1.0000
  H   H1221     1.0  0.69793  0.31766  0.12340  1.0000
  P   P50       1.0  0.56906  0.40266  0.23044  1.0000
  C   C1526     1.0  0.65033  0.37077  0.19986  1.0000
  H   H1222     1.0  0.92148  0.33328  0.25367  1.0000
  C   C1527     1.0  0.92998  0.21607  0.22816  1.0000
  C   C1528     1.0  0.59601  0.42186  0.18142  1.0000
  H   H1223     1.0  0.64269  0.47479  0.04929  1.0000
  H   H1224     1.0  0.79828  0.17284  0.05307  1.0000
  H   H1225     1.0  0.94603  0.21229  0.23610  1.0000
  C   C1529     1.0  0.88949  0.22793  0.20710  1.0000
  C   C1530     1.0  0.83049  0.29400  0.01863  1.0000
  H   H1226     1.0  0.84991  0.10712  0.03754  1.0000
  C   C1531     1.0  0.53444  0.08098  0.15361  1.0000
  C   C1532     1.0  0.50008  0.40229  0.21026  1.0000
  S   S216      1.0  0.56320  0.04798  0.18999  1.0000
  H   H1227     1.0  0.68930  0.26691  0.11525  1.0000
  C   C1533     1.0  0.58872  0.41425  0.21271  1.0000
  H   H1228     1.0  0.78987  0.02587  0.02186  1.0000
  H   H1229     1.0  0.69972  0.06271  0.15511  1.0000
  H   H1230     1.0  0.63257  0.01177  0.22495  1.0000
  H   H1231     1.0  0.96970  0.16305  0.19274  1.0000
  C   C1534     1.0  0.64480  0.39124  0.11726  1.0000
  H   H1232     1.0  0.98543  0.28356  0.13259  1.0000
  C   C1535     1.0  0.76283  0.31966  0.04091  1.0000
  C   C1536     1.0  0.75955  0.33590  0.05634  1.0000
  C   C1537     1.0  0.77191  0.36205  0.05869  1.0000
  C   C1538     1.0  0.78799  0.37189  0.04572  1.0000
  C   C1539     1.0  0.79054  0.35599  0.02999  1.0000
  P   P51       1.0  0.80337  0.40610  0.04840  1.0000
  C   C1540     1.0  0.80971  0.41365  0.07129  1.0000
  C   C1541     1.0  0.81070  0.44245  0.07749  1.0000
  C   C1542     1.0  0.81796  0.44823  0.09482  1.0000
  C   C1543     1.0  0.82475  0.42538  0.10595  1.0000
  C   C1544     1.0  0.82428  0.39674  0.09976  1.0000
  C   C1545     1.0  0.81691  0.39088  0.08249  1.0000
  C   C1546     1.0  0.56580  0.43041  0.26344  1.0000
  H   H1233     1.0  0.81973  0.21104  0.02105  1.0000
  H   H1234     1.0  0.63281  0.43596  0.11590  1.0000
  C   C1547     1.0  0.57785  0.03234  0.17126  1.0000
  H   H1235     1.0  0.74767  0.32798  0.06661  1.0000
  H   H1236     1.0  0.76898  0.37438  0.07068  1.0000
  C   C1548     1.0  0.76569  0.04057  0.06232  1.0000
  S   S217      1.0  0.61335  0.48926  0.13379  1.0000
  H   H1237     1.0  0.83032  0.42980  0.11938  1.0000
  H   H1238     1.0  0.82968  0.37898  0.10834  1.0000
  H   H1239     1.0  0.81721  0.36855  0.07781  1.0000
  C   C1549     1.0  0.76123  0.33570  0.15121  1.0000
  H   H1240     1.0  0.56470  0.47783  0.14519  1.0000
  C   C1550     1.0  0.68190  0.03192  0.17204  1.0000
  C   C1551     1.0  0.73066  0.38458  0.15065  1.0000
  C   C1552     1.0  0.93173  0.21402  0.20982  1.0000
  C   C1553     1.0  0.76283  0.21854  0.03969  1.0000
  C   C1554     1.0  0.66140  0.26916  0.15528  1.0000
  C   C1555     1.0  0.58296  0.10348  0.23463  1.0000
  C   C1556     1.0  0.72730  0.17875  0.02976  1.0000
  C   C1557     1.0  0.62702  0.46505  0.05529  1.0000
  C   C1558     1.0  0.55151  0.01446  0.10712  1.0000
  C   C1559     1.0  0.77139  0.04494  0.04448  1.0000
  H   H1241     1.0  0.70189  0.46356  0.02881  1.0000
  P   P52       1.0  0.76375  0.07880  0.03335  1.0000
  H   H1242     1.0  0.58781  0.47711  0.08923  1.0000
  C   C1560     1.0  0.73486  0.09393  0.04071  1.0000
  C   C1561     1.0  0.73199  0.10358  0.05817  1.0000
  C   C1562     1.0  0.70964  0.11433  0.06414  1.0000
  H   H1243     1.0  0.75372  0.29902  0.03932  1.0000
  H   H1244     1.0  0.54803  0.05040  0.13480  1.0000
  C   C1563     1.0  0.71525  0.09717  0.02901  1.0000
  Fe  Fe107     1.0  0.64885  0.50691  0.12245  1.0000
  H   H1245     1.0  0.56601  0.39793  0.19154  1.0000
  C   C1564     1.0  0.92389  0.17051  0.26205  1.0000
  C   C1565     1.0  0.59604  0.46645  0.07789  1.0000
  H   H1246     1.0  0.80241  0.36346  0.01965  1.0000
  C   C1566     1.0  0.78806  0.10400  0.03782  1.0000
  C   C1567     1.0  0.78320  0.13241  0.04389  1.0000
  C   C1568     1.0  0.80219  0.15125  0.04790  1.0000
  C   C1569     1.0  0.82620  0.14219  0.04553  1.0000
  C   C1570     1.0  0.83126  0.11415  0.03926  1.0000
  C   C1571     1.0  0.81229  0.09507  0.03551  1.0000
  H   H1247     1.0  0.61837  0.37789  0.23446  1.0000
  C   C1572     1.0  0.98643  0.38372  0.25615  1.0000
  H   H1248     1.0  0.79053  0.36588  0.14834  1.0000
  C   C1573     1.0  0.75336  0.47331  0.02128  1.0000
  C   C1574     1.0  0.86813  0.42718  0.02547  1.0000
  H   H1249     1.0  0.74713  0.10319  0.06715  1.0000
  C   C1575     1.0  0.59935  0.33009  0.02201  1.0000
  H   H1250     1.0  0.61433  0.43533  0.23011  1.0000
  Fe  Fe108     1.0  0.67803  0.02625  0.07633  1.0000
  C   C1576     1.0  0.69147  0.48331  0.02734  1.0000
  H   H1251     1.0  0.51639  0.10846  0.17261  1.0000
  C   C1577     1.0  0.50402  0.30388  0.25117  1.0000
  H   H1252     1.0  0.59040  0.41935  0.16780  1.0000
  C   C1578     1.0  0.56045  0.49589  0.17133  1.0000
  H   H1253     1.0  0.58664  0.10964  0.22111  1.0000
  C   C1579     1.0  0.82241  0.23430  0.02032  1.0000
  C   C1580     1.0  0.69688  0.40936  0.05749  1.0000
  H   H1254     1.0  0.63211  0.04745  0.19720  1.0000
  H   H1255     1.0  0.52300  0.11351  0.24732  1.0000
  C   C1581     1.0  0.50159  0.41439  0.26432  1.0000
  C   C1582     1.0  0.77808  0.32989  0.02764  1.0000
  H   H1256     1.0  0.88218  0.35794  0.03804  1.0000
  H   H1257     1.0  0.51659  0.32124  0.25402  1.0000
  C   C1583     1.0  0.56162  0.48593  0.24889  1.0000
  H   H1258     1.0  0.92147  0.16881  0.24795  1.0000
  C   C1584     1.0  0.87157  0.37761  0.03593  1.0000
  C   C1585     1.0  0.53195  0.05831  0.14143  1.0000
  H   H1259     1.0  0.54671  0.36222  0.25497  1.0000
  H   H1260     1.0  0.81653  0.07333  0.03085  1.0000
  C   C1586     1.0  0.56775  0.01821  0.09318  1.0000
  H   H1261     1.0  0.51065  0.43465  0.26157  1.0000
  C   C1587     1.0  0.98986  0.13052  0.24881  1.0000
  H   H1262     1.0  0.70445  0.02073  0.20371  1.0000
  Fe  Fe109     1.0  0.99058  0.25031  0.23398  1.0000
  H   H1263     1.0  0.87626  0.44606  0.01943  1.0000
  C   C1588     1.0  0.92719  0.31321  0.25996  1.0000
  H   H1264     1.0  0.57199  0.04332  0.25909  1.0000
  H   H1265     1.0  0.89855  0.28796  0.24863  1.0000
  C   C1589     1.0  0.53445  0.03211  0.07415  1.0000
  C   C1590     1.0  0.66280  0.02722  0.18394  1.0000
  C   C1591     1.0  0.52655  0.01955  0.10476  1.0000
  H   H1266     1.0  0.73159  0.01485  0.22918  1.0000
  H   H1267     1.0  0.49909  0.03261  0.08579  1.0000
  C   C1592     1.0  0.55924  0.02705  0.07669  1.0000
  H   H1268     1.0  0.59147  0.30883  0.01991  1.0000
  C   C1593     1.0  0.98734  0.18941  0.17325  1.0000
  C   C1594     1.0  0.51816  0.02846  0.08811  1.0000
  H   H1269     1.0  0.57191  0.03005  0.06593  1.0000
  C   C1595     1.0  0.57502  0.33408  0.26442  1.0000
  H   H1270     1.0  0.98585  0.16942  0.23288  1.0000
  C   C1596     1.0  0.98881  0.16090  0.24595  1.0000
  C   C1597     1.0  0.67176  0.02007  0.02877  1.0000
  C   C1598     1.0  0.85936  0.20744  0.26278  1.0000
  S   S218      1.0  0.68964  0.01342  0.12638  1.0000
  C   C1599     1.0  0.77205  0.01454  0.07073  1.0000
  C   C1600     1.0  0.57541  0.11671  0.26512  1.0000
  H   H1271     1.0  0.82286  0.19139  0.26436  1.0000
  C   C1601     1.0  0.92235  0.26122  0.26467  1.0000
  P   P53       1.0  0.50577  0.01576  0.12313  1.0000
  C   C1602     1.0  0.99093  0.18022  0.26014  1.0000
  H   H1272     1.0  0.99498  0.44364  0.13861  1.0000
  H   H1273     1.0  0.52017  0.06324  0.27180  1.0000
  C   C1603     1.0  0.80963  0.26846  0.35980  1.0000
  H   H1274     1.0  0.86927  0.26429  0.34785  1.0000
  H   H1275     1.0  0.75888  0.21671  0.42758  1.0000
  S   S219      1.0  0.96809  0.01583  0.29765  1.0000
  H   H1276     1.0  0.74948  0.23882  0.37124  1.0000
  Fe  Fe110     1.0  0.52035  0.26437  0.34102  1.0000
  C   C1604     1.0  0.91855  0.19649  0.27116  1.0000
  S   S220      1.0  0.54211  0.27077  0.36664  1.0000
  C   C1605     1.0  0.90131  0.46090  0.41827  1.0000
  C   C1606     1.0  0.93257  0.14614  0.27115  1.0000
  H   H1277     1.0  0.66205  0.13786  0.35110  1.0000
  H   H1278     1.0  0.95775  0.47120  0.34975  1.0000
  S   S221      1.0  0.53371  0.26682  0.31307  1.0000
  C   C1607     1.0  0.61183  0.06503  0.33234  1.0000
  H   H1279     1.0  0.68830  0.12426  0.45086  1.0000
  H   H1280     1.0  0.82593  0.37636  0.41493  1.0000
  H   H1281     1.0  0.82063  0.22181  0.38022  1.0000
  Fe  Fe111     1.0  0.50550  0.23293  0.30664  1.0000
  C   C1608     1.0  0.82159  0.35507  0.38971  1.0000
  Fe  Fe112     1.0  0.79907  0.47087  0.43714  1.0000
  S   S222      1.0  0.78757  0.42588  0.44645  1.0000
  Fe  Fe113     1.0  0.79129  0.03588  0.41882  1.0000
  S   S223      1.0  0.76831  0.07208  0.40636  1.0000
  S   S224      1.0  0.83889  0.48147  0.43807  1.0000
  S   S225      1.0  0.82142  0.04403  0.43814  1.0000
  Fe  Fe114     1.0  0.68175  0.26984  0.45829  1.0000
  S   S226      1.0  0.72166  0.26451  0.45337  1.0000
  S   S227      1.0  0.67164  0.29310  0.48382  1.0000
  Fe  Fe115     1.0  0.66782  0.24491  0.42172  1.0000
  S   S228      1.0  0.70731  0.23824  0.41475  1.0000
  S   S229      1.0  0.64285  0.22631  0.40016  1.0000
  Fe  Fe116     1.0  0.71183  0.22077  0.44213  1.0000
  S   S230      1.0  0.73332  0.18143  0.45193  1.0000
  Fe  Fe117     1.0  0.71342  0.28266  0.42662  1.0000
  S   S231      1.0  0.73608  0.31592  0.41187  1.0000
  S   S232      1.0  0.67223  0.22488  0.44883  1.0000
  S   S233      1.0  0.67378  0.29054  0.43182  1.0000
  C   C1609     1.0  0.67342  0.27776  0.50518  1.0000
  C   C1610     1.0  0.89410  0.02756  0.36271  1.0000
  C   C1611     1.0  0.95125  0.46000  0.42481  1.0000
  C   C1612     1.0  0.83176  0.01268  0.50376  1.0000
  H   H1282     1.0  0.67433  0.23324  0.49646  1.0000
  H   H1283     1.0  0.72180  0.34100  0.36404  1.0000
  H   H1284     1.0  0.50210  0.35914  0.40018  1.0000
  H   H1285     1.0  0.89426  0.30435  0.41785  1.0000
  H   H1286     1.0  0.85066  0.24846  0.31970  1.0000
  C   C1613     1.0  0.72538  0.40866  0.50941  1.0000
  C   C1614     1.0  0.77153  0.39685  0.43647  1.0000
  C   C1615     1.0  0.76338  0.37408  0.44725  1.0000
  C   C1616     1.0  0.75170  0.34970  0.43997  1.0000
  C   C1617     1.0  0.74844  0.34755  0.42174  1.0000
  C   C1618     1.0  0.75649  0.37037  0.41093  1.0000
  C   C1619     1.0  0.76776  0.39507  0.41826  1.0000
  H   H1287     1.0  0.76619  0.37526  0.46135  1.0000
  H   H1288     1.0  0.74565  0.33231  0.44843  1.0000
  H   H1289     1.0  0.75410  0.36886  0.39682  1.0000
  H   H1290     1.0  0.77390  0.41240  0.40982  1.0000
  C   C1620     1.0  0.75993  0.10346  0.41869  1.0000
  C   C1621     1.0  0.74622  0.12583  0.41073  1.0000
  C   C1622     1.0  0.73784  0.14991  0.42066  1.0000
  C   C1623     1.0  0.74345  0.15200  0.43858  1.0000
  C   C1624     1.0  0.75783  0.13018  0.44629  1.0000
  C   C1625     1.0  0.76612  0.10612  0.43645  1.0000
  H   H1291     1.0  0.74210  0.12454  0.39685  1.0000
  H   H1292     1.0  0.72710  0.16684  0.41451  1.0000
  H   H1293     1.0  0.76270  0.13191  0.45993  1.0000
  H   H1294     1.0  0.77715  0.08949  0.44265  1.0000
  C   C1626     1.0  0.61535  0.23985  0.39058  1.0000
  C   C1627     1.0  0.60593  0.22599  0.37547  1.0000
  C   C1628     1.0  0.58392  0.23548  0.36768  1.0000
  C   C1629     1.0  0.57078  0.25872  0.37509  1.0000
  C   C1630     1.0  0.58019  0.27245  0.39022  1.0000
  C   C1631     1.0  0.60238  0.26329  0.39783  1.0000
  H   H1295     1.0  0.61570  0.20777  0.36977  1.0000
  H   H1296     1.0  0.57692  0.22457  0.35613  1.0000
  H   H1297     1.0  0.57022  0.29035  0.39613  1.0000
  H   H1298     1.0  0.60924  0.27414  0.40946  1.0000
  H   H1299     1.0  0.82865  0.37314  0.38224  1.0000
  H   H1300     1.0  0.83483  0.27531  0.28783  1.0000
  H   H1301     1.0  0.70820  0.10237  0.36142  1.0000
  H   H1302     1.0  0.52175  0.27328  0.26848  1.0000
  C   C1632     1.0  0.52262  0.10318  0.30657  1.0000
  C   C1633     1.0  0.75299  0.21503  0.49605  1.0000
  H   H1303     1.0  0.77973  0.25784  0.34243  1.0000
  H   H1304     1.0  0.79336  0.29246  0.41668  1.0000
  H   H1305     1.0  0.80832  0.33592  0.43184  1.0000
  S   S234      1.0  0.93254  0.03092  0.33963  1.0000
  C   C1634     1.0  0.59130  0.06937  0.30408  1.0000
  H   H1306     1.0  0.87193  0.31954  0.39097  1.0000
  H   H1307     1.0  0.70662  0.24963  0.36384  1.0000
  C   C1635     1.0  0.55247  0.01862  0.29914  1.0000
  C   C1636     1.0  0.70783  0.03961  0.39365  1.0000
  H   H1308     1.0  0.97864  0.45279  0.27289  1.0000
  H   H1309     1.0  0.81376  0.32966  0.36668  1.0000
  C   C1637     1.0  0.80179  0.30925  0.40894  1.0000
  H   H1310     1.0  0.58452  0.13793  0.34673  1.0000
  H   H1311     1.0  0.94295  0.12850  0.29631  1.0000
  C   C1638     1.0  0.81398  0.25252  0.32936  1.0000
  H   H1312     1.0  0.76000  0.25982  0.40842  1.0000
  C   C1639     1.0  0.72692  0.05300  0.44781  1.0000
  C   C1640     1.0  0.70163  0.06908  0.39243  1.0000
  H   H1313     1.0  0.84339  0.27653  0.37346  1.0000
  H   H1314     1.0  0.84043  0.45675  0.35094  1.0000
  H   H1315     1.0  0.56341  0.45206  0.28862  1.0000
  H   H1316     1.0  0.56830  0.01790  0.30753  1.0000
  C   C1641     1.0  0.94833  0.31280  0.27011  1.0000
  C   C1642     1.0  0.92119  0.19721  0.28957  1.0000
  C   C1643     1.0  0.92996  0.17280  0.29862  1.0000
  C   C1644     1.0  0.88271  0.02382  0.37922  1.0000
  H   H1317     1.0  0.93253  0.17363  0.31276  1.0000
  C   C1645     1.0  0.68571  0.06069  0.45774  1.0000
  H   H1318     1.0  0.57935  0.13216  0.30676  1.0000
  H   H1319     1.0  0.74282  0.13066  0.35043  1.0000
  H   H1320     1.0  0.69274  0.30061  0.36034  1.0000
  H   H1321     1.0  0.74432  0.44319  0.47219  1.0000
  C   C1646     1.0  0.67351  0.16145  0.50492  1.0000
  H   H1322     1.0  0.91671  0.21677  0.29690  1.0000
  C   C1647     1.0  0.75229  0.31276  0.36940  1.0000
  C   C1648     1.0  0.76023  0.28395  0.37189  1.0000
  C   C1649     1.0  0.84970  0.26314  0.34669  1.0000
  H   H1323     1.0  0.64173  0.06210  0.38229  1.0000
  H   H1324     1.0  0.55732  0.17144  0.32252  1.0000
  C   C1650     1.0  0.92207  0.01749  0.39266  1.0000
  C   C1651     1.0  0.98497  0.43049  0.27208  1.0000
  C   C1652     1.0  0.63442  0.05806  0.30528  1.0000
  C   C1653     1.0  0.89660  0.01889  0.39435  1.0000
  C   C1654     1.0  0.71406  0.03868  0.51539  1.0000
  C   C1655     1.0  0.51211  0.39395  0.27597  1.0000
  H   H1325     1.0  0.70219  0.03486  0.50429  1.0000
  C   C1656     1.0  0.91095  0.47767  0.43196  1.0000
  H   H1326     1.0  0.97062  0.45983  0.42722  1.0000
  H   H1327     1.0  0.97351  0.28618  0.28474  1.0000
  H   H1328     1.0  0.81796  0.07134  0.49069  1.0000
  H   H1329     1.0  0.61424  0.06223  0.28123  1.0000
  C   C1657     1.0  0.83921  0.25424  0.33082  1.0000
  C   C1658     1.0  0.64387  0.16216  0.42971  1.0000
  C   C1659     1.0  0.59068  0.07005  0.32259  1.0000
  C   C1660     1.0  0.71168  0.29591  0.36306  1.0000
  H   H1330     1.0  0.68143  0.07755  0.48394  1.0000
  C   C1661     1.0  0.95516  0.42581  0.34286  1.0000
  C   C1662     1.0  0.99518  0.13834  0.28005  1.0000
  C   C1663     1.0  0.81314  0.33034  0.38094  1.0000
  H   H1331     1.0  0.57383  0.07453  0.32949  1.0000
  Fe  Fe118     1.0  0.50430  0.30018  0.30804  1.0000
  H   H1332     1.0  0.74861  0.34722  0.50230  1.0000
  H   H1333     1.0  0.80733  0.45033  0.37269  1.0000
  H   H1334     1.0  0.94906  0.38007  0.33915  1.0000
  C   C1664     1.0  0.81617  0.50688  0.50044  1.0000
  H   H1335     1.0  0.63671  0.16063  0.40205  1.0000
  H   H1336     1.0  0.88208  0.46241  0.41571  1.0000
  H   H1337     1.0  0.57345  0.13362  0.27495  1.0000
  C   C1665     1.0  0.76926  0.40853  0.50744  1.0000
  C   C1666     1.0  0.76783  0.42417  0.49171  1.0000
  C   C1667     1.0  0.74525  0.43176  0.48468  1.0000
  C   C1668     1.0  0.72403  0.42399  0.49351  1.0000
  H   H1338     1.0  0.65137  0.05331  0.29857  1.0000
  H   H1339     1.0  0.79137  0.22190  0.49843  1.0000
  C   C1669     1.0  0.77534  0.21306  0.50462  1.0000
  C   C1670     1.0  0.80314  0.30719  0.39048  1.0000
  C   C1671     1.0  0.82018  0.35687  0.40808  1.0000
  H   H1340     1.0  0.55958  0.50142  0.27566  1.0000
  C   C1672     1.0  0.57176  0.08739  0.26940  1.0000
  H   H1341     1.0  0.75506  0.06303  0.46614  1.0000
  S   S235      1.0  0.88307  0.01465  0.41558  1.0000
  H   H1342     1.0  0.69543  0.04494  0.43185  1.0000
  H   H1343     1.0  0.89898  0.49120  0.43992  1.0000
  H   H1344     1.0  0.78425  0.42995  0.48472  1.0000
  H   H1345     1.0  0.63073  0.17949  0.43196  1.0000
  H   H1346     1.0  0.70654  0.42944  0.48785  1.0000
  C   C1673     1.0  0.68753  0.15991  0.48961  1.0000
  C   C1674     1.0  0.94162  0.44292  0.41127  1.0000
  C   C1675     1.0  0.70202  0.05215  0.44458  1.0000
  H   H1347     1.0  0.96713  0.42760  0.33154  1.0000
  C   C1676     1.0  0.78869  0.19496  0.41462  1.0000
  H   H1348     1.0  0.74881  0.18152  0.36051  1.0000
  H   H1349     1.0  0.72632  0.03327  0.39693  1.0000
  S   S236      1.0  0.99334  0.08036  0.26873  1.0000
  H   H1350     1.0  0.73758  0.29684  0.49501  1.0000
  S   S237      1.0  0.79237  0.49629  0.41233  1.0000
  H   H1351     1.0  0.80848  0.49744  0.48869  1.0000
  C   C1677     1.0  0.91952  0.02617  0.36099  1.0000
  H   H1352     1.0  0.61126  0.06582  0.34662  1.0000
  C   C1678     1.0  0.52307  0.14955  0.32181  1.0000
  Fe  Fe119     1.0  0.97022  0.02732  0.32664  1.0000
  C   C1679     1.0  0.65822  0.15190  0.44356  1.0000
  C   C1680     1.0  0.67627  0.13105  0.44034  1.0000
  C   C1681     1.0  0.81035  0.33396  0.41766  1.0000
  H   H1353     1.0  0.75163  0.22505  0.48314  1.0000
  C   C1682     1.0  0.79093  0.13822  0.49085  1.0000
  C   C1683     1.0  0.80933  0.11719  0.48962  1.0000
  C   C1684     1.0  0.80381  0.08782  0.49172  1.0000
  C   C1685     1.0  0.77988  0.07948  0.49472  1.0000
  C   C1686     1.0  0.76116  0.10030  0.49541  1.0000
  C   C1687     1.0  0.76695  0.12990  0.49402  1.0000
  P   P54       1.0  0.73017  0.08822  0.49760  1.0000
  C   C1688     1.0  0.71946  0.07183  0.47732  1.0000
  C   C1689     1.0  0.73886  0.30353  0.50870  1.0000
  H   H1354     1.0  0.77581  0.05663  0.49609  1.0000
  H   H1355     1.0  0.52920  0.39873  0.28224  1.0000
  H   H1356     1.0  0.80704  0.23492  0.28020  1.0000
  H   H1357     1.0  0.95105  0.24099  0.28003  1.0000
  C   C1690     1.0  0.64723  0.15117  0.41269  1.0000
  C   C1691     1.0  0.69436  0.07047  0.47403  1.0000
  H   H1358     1.0  0.78698  0.40211  0.51226  1.0000
  S   S238      1.0  0.51952  0.19852  0.28689  1.0000
  C   C1692     1.0  0.67417  0.24764  0.50775  1.0000
  C   C1693     1.0  0.73566  0.06249  0.46414  1.0000
  H   H1359     1.0  0.56776  0.40929  0.26947  1.0000
  C   C1694     1.0  0.70545  0.13844  0.48788  1.0000
  C   C1695     1.0  0.99409  0.16870  0.27718  1.0000
  H   H1360     1.0  0.71947  0.20417  0.38145  1.0000
  H   H1361     1.0  0.87799  0.27237  0.27972  1.0000
  C   C1696     1.0  0.54584  0.04418  0.29015  1.0000
  H   H1362     1.0  0.79514  0.16094  0.48893  1.0000
  H   H1363     1.0  0.82783  0.12356  0.48688  1.0000
  S   S239      1.0  0.51591  0.34187  0.29364  1.0000
  C   C1697     1.0  0.51161  0.01877  0.27727  1.0000
  H   H1364     1.0  0.75307  0.14658  0.49461  1.0000
  C   C1698     1.0  0.80604  0.19658  0.40125  1.0000
  C   C1699     1.0  0.93587  0.47710  0.43529  1.0000
  H   H1365     1.0  0.94322  0.48988  0.44600  1.0000
  H   H1366     1.0  0.73956  0.04682  0.43749  1.0000
  C   C1700     1.0  0.66650  0.02674  0.38664  1.0000
  H   H1367     1.0  0.98127  0.47602  0.38308  1.0000
  H   H1368     1.0  0.68489  0.17661  0.39242  1.0000
  P   P55       1.0  0.79096  0.27609  0.37887  1.0000
  H   H1369     1.0  0.49590  0.01881  0.26866  1.0000
  H   H1370     1.0  0.92168  0.33899  0.43287  1.0000
  H   H1371     1.0  0.71601  0.13733  0.47583  1.0000
  H   H1372     1.0  0.68485  0.17564  0.47914  1.0000
  H   H1373     1.0  0.60678  0.30962  0.27196  1.0000
  H   H1374     1.0  0.65585  0.16092  0.45665  1.0000
  C   C1701     1.0  0.77304  0.24236  0.40632  1.0000
  C   C1702     1.0  0.63371  0.05910  0.32369  1.0000
  C   C1703     1.0  0.86619  0.25465  0.27612  1.0000
  C   C1704     1.0  0.71954  0.26715  0.36510  1.0000
  C   C1705     1.0  0.74375  0.26115  0.36941  1.0000
  H   H1375     1.0  0.71485  0.20709  0.49774  1.0000
  C   C1706     1.0  0.83499  0.27019  0.36114  1.0000
  C   C1707     1.0  0.79921  0.25957  0.34379  1.0000
  C   C1708     1.0  0.72808  0.31867  0.36506  1.0000
  C   C1709     1.0  0.77228  0.21789  0.41718  1.0000
  H   H1376     1.0  0.78790  0.17590  0.42299  1.0000
  H   H1377     1.0  0.80585  0.24548  0.31709  1.0000
  H   H1378     1.0  0.85381  0.01521  0.31069  1.0000
  C   C1710     1.0  0.79046  0.24430  0.39289  1.0000
  C   C1711     1.0  0.73220  0.20445  0.50422  1.0000
  H   H1379     1.0  0.51223  0.08485  0.30200  1.0000
  H   H1380     1.0  0.62501  0.14770  0.33391  1.0000
  C   C1712     1.0  0.91653  0.44305  0.40797  1.0000
  H   H1381     1.0  0.86318  0.02517  0.38029  1.0000
  P   P56       1.0  0.90437  0.41932  0.39110  1.0000
  C   C1713     1.0  0.90236  0.38249  0.39922  1.0000
  C   C1714     1.0  0.87378  0.42983  0.38515  1.0000
  C   C1715     1.0  0.86838  0.44064  0.36830  1.0000
  C   C1716     1.0  0.84440  0.44750  0.36374  1.0000
  C   C1717     1.0  0.82573  0.44390  0.37600  1.0000
  C   C1718     1.0  0.83095  0.43313  0.39278  1.0000
  C   C1719     1.0  0.85482  0.42577  0.39727  1.0000
  C   C1720     1.0  0.88700  0.36264  0.39072  1.0000
  C   C1721     1.0  0.88411  0.33457  0.39742  1.0000
  C   C1722     1.0  0.89664  0.32604  0.41258  1.0000
  C   C1723     1.0  0.91209  0.34556  0.42104  1.0000
  C   C1724     1.0  0.91492  0.37372  0.41443  1.0000
  C   C1725     1.0  0.92415  0.42138  0.37213  1.0000
  C   C1726     1.0  0.92944  0.39675  0.36176  1.0000
  C   C1727     1.0  0.52540  0.04396  0.27911  1.0000
  H   H1382     1.0  0.61809  0.10735  0.39427  1.0000
  C   C1728     1.0  0.94991  0.45036  0.35311  1.0000
  C   C1729     1.0  0.93450  0.44813  0.36767  1.0000
  C   C1730     1.0  0.56150  0.48255  0.26716  1.0000
  C   C1731     1.0  0.72944  0.06285  0.51574  1.0000
  C   C1732     1.0  0.80704  0.22119  0.39046  1.0000
  H   H1383     1.0  0.95375  0.42950  0.40341  1.0000
  H   H1384     1.0  0.58120  0.11759  0.37682  1.0000
  H   H1385     1.0  0.88259  0.44439  0.35875  1.0000
  H   H1386     1.0  0.95300  0.02012  0.37504  1.0000
  C   C1733     1.0  0.84169  0.25628  0.28091  1.0000
  H   H1387     1.0  0.81656  0.43098  0.40243  1.0000
  H   H1388     1.0  0.85854  0.41745  0.41035  1.0000
  H   H1389     1.0  0.87702  0.36900  0.37903  1.0000
  C   C1734     1.0  0.50065  0.36748  0.27978  1.0000
  C   C1735     1.0  0.54786  0.15198  0.31843  1.0000
  C   C1736     1.0  0.56361  0.45477  0.27444  1.0000
  H   H1390     1.0  0.92665  0.38856  0.42141  1.0000
  H   H1391     1.0  0.92176  0.37584  0.36486  1.0000
  C   C1737     1.0  0.93347  0.02095  0.37609  1.0000
  C   C1738     1.0  0.50696  0.16656  0.27721  1.0000
  C   C1739     1.0  0.54761  0.10532  0.30316  1.0000
  H   H1392     1.0  0.93066  0.46730  0.37551  1.0000
  H   H1393     1.0  0.66638  0.06017  0.45520  1.0000
  C   C1740     1.0  0.56014  0.12989  0.30926  1.0000
  H   H1394     1.0  0.81868  0.17866  0.39928  1.0000
  C   C1741     1.0  0.70952  0.11827  0.50143  1.0000
  C   C1742     1.0  0.94493  0.39903  0.34718  1.0000
  H   H1395     1.0  0.69409  0.10433  0.42113  1.0000
  P   P57       1.0  0.56399  0.07669  0.29164  1.0000
  H   H1396     1.0  0.71551  0.08501  0.39492  1.0000
  C   C1743     1.0  0.66027  0.05627  0.38536  1.0000
  C   C1744     1.0  0.67786  0.07776  0.38810  1.0000
  H   H1397     1.0  0.76433  0.33081  0.37162  1.0000
  P   P58       1.0  0.66982  0.11607  0.38729  1.0000
  C   C1745     1.0  0.69429  0.13704  0.37812  1.0000
  C   C1746     1.0  0.64290  0.12166  0.37400  1.0000
  C   C1747     1.0  0.64461  0.13285  0.35683  1.0000
  C   C1748     1.0  0.62361  0.13847  0.34699  1.0000
  C   C1749     1.0  0.60079  0.13294  0.35419  1.0000
  C   C1750     1.0  0.59893  0.12144  0.37115  1.0000
  C   C1751     1.0  0.61987  0.11573  0.38101  1.0000
  C   C1752     1.0  0.69735  0.16615  0.38327  1.0000
  C   C1753     1.0  0.71694  0.18207  0.37692  1.0000
  C   C1754     1.0  0.73339  0.16929  0.36514  1.0000
  C   C1755     1.0  0.73000  0.14064  0.35948  1.0000
  C   C1756     1.0  0.71043  0.12459  0.36584  1.0000
  C   C1757     1.0  0.66469  0.12934  0.40944  1.0000
  C   C1758     1.0  0.67950  0.11975  0.42337  1.0000
  H   H1398     1.0  0.82552  0.04053  0.33122  1.0000
  H   H1399     1.0  0.65954  0.17809  0.50619  1.0000
  C   C1759     1.0  0.61331  0.06314  0.29548  1.0000
  H   H1400     1.0  0.95872  0.33255  0.27175  1.0000
  H   H1401     1.0  0.65010  0.05522  0.33126  1.0000
  C   C1760     1.0  0.69028  0.01842  0.39076  1.0000
  C   C1761     1.0  0.83376  0.01996  0.33492  1.0000
  C   C1762     1.0  0.51050  0.12513  0.31595  1.0000
  H   H1402     1.0  0.51346  0.16702  0.32851  1.0000
  C   C1763     1.0  0.82605  0.23355  0.27663  1.0000
  H   H1403     1.0  0.88312  0.03168  0.35117  1.0000
  C   C1764     1.0  0.87509  0.23041  0.26674  1.0000
  C   C1765     1.0  0.95658  0.28673  0.27748  1.0000
  H   H1404     1.0  0.84293  0.01469  0.49211  1.0000
  C   C1766     1.0  0.74493  0.33222  0.51292  1.0000
  C   C1767     1.0  0.94367  0.26103  0.27480  1.0000
  H   H1405     1.0  0.56297  0.32240  0.27319  1.0000
  H   H1406     1.0  0.81647  0.01893  0.36041  1.0000
  H   H1407     1.0  0.50815  0.30643  0.39426  1.0000
  C   C1768     1.0  0.93572  0.14731  0.28939  1.0000
  C   C1769     1.0  0.83493  0.20906  0.26767  1.0000
  Fe  Fe120     1.0  0.84253  0.01057  0.42212  1.0000
  C   C1770     1.0  0.74804  0.40090  0.51653  1.0000
  H   H1408     1.0  0.70876  0.40237  0.51586  1.0000
  H   H1409     1.0  0.65289  0.01024  0.38449  1.0000
  H   H1410     1.0  0.93304  0.01385  0.40428  1.0000
  S   S240      1.0  0.78812  0.50843  0.45464  1.0000
  S   S241      1.0  0.85243  0.50847  0.38845  1.0000
  Fe  Fe121     1.0  0.83164  0.50967  0.41443  1.0000
  H   H1411     1.0  0.87793  0.50739  0.35568  1.0000
  H   H1412     1.0  0.79461  0.14712  0.52697  1.0000
  C   C1771     1.0  0.98050  0.38629  0.75576  1.0000
  H   H1413     1.0  0.51800  0.09288  0.71221  1.0000
  H   H1414     1.0  0.95215  0.05584  0.65100  1.0000
  C   C1772     1.0  0.51786  0.28384  0.64694  1.0000
  C   C1773     1.0  0.51435  0.48382  0.75587  1.0000
  Fe  Fe122     1.0  0.77774  0.03640  0.60469  1.0000
  S   S242      1.0  0.81789  0.04335  0.60348  1.0000
  S   S243      1.0  0.74702  0.07010  0.60352  1.0000
  Fe  Fe123     1.0  0.80039  0.48892  0.61618  1.0000
  S   S244      1.0  0.83016  0.47373  0.59822  1.0000
  S   S245      1.0  0.77329  0.45823  0.62898  1.0000
  H   H1415     1.0  0.82619  0.34687  0.56529  1.0000
  S   S246      1.0  0.50480  0.29237  0.69211  1.0000
  C   C1774     1.0  0.67348  0.23626  0.52497  1.0000
  C   C1775     1.0  0.73388  0.29272  0.53968  1.0000
  H   H1416     1.0  0.62557  0.18762  0.67373  1.0000
  H   H1417     1.0  0.54203  0.33972  0.59571  1.0000
  Fe  Fe124     1.0  0.67326  0.27740  0.62397  1.0000
  S   S247      1.0  0.71322  0.28068  0.63034  1.0000
  S   S248      1.0  0.64598  0.29056  0.64543  1.0000
  Fe  Fe125     1.0  0.68345  0.25840  0.58608  1.0000
  S   S249      1.0  0.72356  0.25981  0.58991  1.0000
  S   S250      1.0  0.66819  0.23932  0.56083  1.0000
  Fe  Fe126     1.0  0.71719  0.23803  0.61582  1.0000
  S   S251      1.0  0.74374  0.20378  0.62634  1.0000
  Fe  Fe127     1.0  0.71676  0.30230  0.60395  1.0000
  S   S252      1.0  0.74364  0.33656  0.59493  1.0000
  S   S253      1.0  0.67720  0.23344  0.61122  1.0000
  S   S254      1.0  0.67657  0.30227  0.59834  1.0000
  S   S255      1.0  0.53263  0.25786  0.72406  1.0000
  H   H1418     1.0  0.56840  0.09873  0.69094  1.0000
  C   C1776     1.0  0.68451  0.38289  0.56194  1.0000
  H   H1419     1.0  0.63710  0.14309  0.70114  1.0000
  Fe  Fe128     1.0  0.52415  0.24947  0.69553  1.0000
  S   S256      1.0  0.55078  0.22931  0.67557  1.0000
  H   H1420     1.0  0.87822  0.15789  0.74795  1.0000
  H   H1421     1.0  0.98572  0.48083  0.63999  1.0000
  H   H1422     1.0  0.68145  0.25157  0.67298  1.0000
  C   C1777     1.0  0.52965  0.38521  0.75725  1.0000
  C   C1778     1.0  0.61055  0.14454  0.72200  1.0000
  C   C1779     1.0  0.61992  0.27245  0.65365  1.0000
  C   C1780     1.0  0.60748  0.28473  0.66808  1.0000
  C   C1781     1.0  0.58620  0.27205  0.67478  1.0000
  C   C1782     1.0  0.57733  0.24640  0.66735  1.0000
  C   C1783     1.0  0.59005  0.23365  0.65313  1.0000
  C   C1784     1.0  0.61122  0.24659  0.64631  1.0000
  H   H1423     1.0  0.61439  0.30430  0.67410  1.0000
  H   H1424     1.0  0.57673  0.28208  0.68575  1.0000
  H   H1425     1.0  0.58333  0.21389  0.64722  1.0000
  H   H1426     1.0  0.62069  0.23676  0.63530  1.0000
  C   C1785     1.0  0.76485  0.42462  0.61935  1.0000
  C   C1786     1.0  0.77682  0.41352  0.60453  1.0000
  C   C1787     1.0  0.77024  0.38634  0.59753  1.0000
  C   C1788     1.0  0.75136  0.37014  0.60496  1.0000
  C   C1789     1.0  0.73910  0.38137  0.61967  1.0000
  C   C1790     1.0  0.74589  0.40849  0.62685  1.0000
  H   H1427     1.0  0.79144  0.42560  0.59862  1.0000
  H   H1428     1.0  0.77983  0.37781  0.58625  1.0000
  H   H1429     1.0  0.72454  0.36913  0.62555  1.0000
  H   H1430     1.0  0.73654  0.41692  0.63835  1.0000
  C   C1791     1.0  0.74695  0.10736  0.60974  1.0000
  C   C1792     1.0  0.72611  0.12429  0.60635  1.0000
  C   C1793     1.0  0.72500  0.15389  0.61114  1.0000
  C   C1794     1.0  0.74473  0.16689  0.61948  1.0000
  C   C1795     1.0  0.76564  0.15002  0.62286  1.0000
  C   C1796     1.0  0.76686  0.12047  0.61784  1.0000
  H   H1431     1.0  0.71064  0.11436  0.60010  1.0000
  H   H1432     1.0  0.70873  0.16652  0.60871  1.0000
  H   H1433     1.0  0.78098  0.15991  0.62935  1.0000
  H   H1434     1.0  0.78309  0.10784  0.62030  1.0000
  C   C1797     1.0  0.67268  0.28487  0.53719  1.0000
  C   C1798     1.0  0.67245  0.25477  0.53972  1.0000
  H   H1435     1.0  0.68521  0.12977  0.67147  1.0000
  H   H1436     1.0  0.67178  0.29936  0.54844  1.0000
  H   H1437     1.0  0.60833  0.07338  0.69013  1.0000
  C   C1799     1.0  0.88239  0.10058  0.58584  1.0000
  Fe  Fe129     1.0  0.51065  0.29925  0.72124  1.0000
  C   C1800     1.0  0.92895  0.49250  0.64488  1.0000
  H   H1438     1.0  0.56188  0.14374  0.67346  1.0000
  H   H1439     1.0  0.64169  0.23435  0.68378  1.0000
  C   C1801     1.0  0.52690  0.11359  0.71410  1.0000
  H   H1440     1.0  0.87060  0.04878  0.62508  1.0000
  H   H1441     1.0  0.60299  0.16427  0.58057  1.0000
  H   H1442     1.0  0.64155  0.09247  0.67190  1.0000
  C   C1802     1.0  0.70264  0.37742  0.54943  1.0000
  C   C1803     1.0  0.73986  0.32136  0.54395  1.0000
  H   H1443     1.0  0.75680  0.08544  0.53093  1.0000
  C   C1804     1.0  0.71427  0.01879  0.52933  1.0000
  C   C1805     1.0  0.54353  0.11702  0.72786  1.0000
  H   H1444     1.0  0.66681  0.37316  0.56037  1.0000
  H   H1445     1.0  0.68983  0.17430  0.64179  1.0000
  C   C1806     1.0  0.73208  0.49400  0.59458  1.0000
  H   H1446     1.0  0.59624  0.13660  0.71360  1.0000
  C   C1807     1.0  0.55426  0.14419  0.73099  1.0000
  C   C1808     1.0  0.68297  0.49684  0.62869  1.0000
  H   H1447     1.0  0.79430  0.19945  0.52794  1.0000
  C   C1809     1.0  0.66171  0.45384  0.64972  1.0000
  H   H1448     1.0  0.87320  0.02911  0.59480  1.0000
  C   C1810     1.0  0.71248  0.41195  0.57892  1.0000
  H   H1449     1.0  0.83365  0.05621  0.68874  1.0000
  S   S257      1.0  0.97090  0.07577  0.74714  1.0000
  C   C1811     1.0  0.87971  0.07075  0.58291  1.0000
  C   C1812     1.0  0.70170  0.49313  0.56511  1.0000
  C   C1813     1.0  0.67703  0.50274  0.64635  1.0000
  C   C1814     1.0  0.75621  0.18851  0.52932  1.0000
  H   H1450     1.0  0.53402  0.27900  0.65455  1.0000
  H   H1451     1.0  0.88518  0.11500  0.57477  1.0000
  C   C1815     1.0  0.79345  0.13409  0.53868  1.0000
  H   H1452     1.0  0.58907  0.20907  0.74035  1.0000
  S   S258      1.0  0.52726  0.34091  0.73259  1.0000
  H   H1453     1.0  0.99246  0.47525  0.60791  1.0000
  C   C1816     1.0  0.58611  0.26794  0.60982  1.0000
  C   C1817     1.0  0.54883  0.16744  0.71964  1.0000
  H   H1454     1.0  0.54766  0.09843  0.73607  1.0000
  C   C1818     1.0  0.88977  0.16275  0.75911  1.0000
  H   H1455     1.0  0.76235  0.23767  0.54770  1.0000
  H   H1456     1.0  0.78684  0.33868  0.55088  1.0000
  H   H1457     1.0  0.69861  0.36340  0.53831  1.0000
  H   H1458     1.0  0.68335  0.46354  0.60831  1.0000
  H   H1459     1.0  0.72873  0.27775  0.55001  1.0000
  H   H1460     1.0  0.97340  0.39663  0.74403  1.0000
  C   C1819     1.0  0.93892  0.49413  0.66201  1.0000
  H   H1461     1.0  0.50039  0.46785  0.75344  1.0000
  C   C1820     1.0  0.72596  0.38904  0.55163  1.0000
  H   H1462     1.0  0.51371  0.34521  0.66437  1.0000
  C   C1821     1.0  0.70924  0.50754  0.59551  1.0000
  H   H1463     1.0  0.49792  0.24829  0.65809  1.0000
  H   H1464     1.0  0.57552  0.49117  0.75400  1.0000
  H   H1465     1.0  0.71871  0.20541  0.56945  1.0000
  C   C1822     1.0  0.60623  0.13425  0.60228  1.0000
  S   S259      1.0  0.93598  0.50583  0.69808  1.0000
  H   H1466     1.0  0.75817  0.47164  0.57815  1.0000
  S   S260      1.0  0.89277  0.49753  0.61989  1.0000
  H   H1467     1.0  0.74378  0.49317  0.60597  1.0000
  H   H1468     1.0  0.77786  0.43158  0.54445  1.0000
  H   H1469     1.0  0.55698  0.18854  0.72150  1.0000
  Fe  Fe130     1.0  0.97431  0.50089  0.70936  1.0000
  C   C1823     1.0  0.73061  0.40659  0.56641  1.0000
  H   H1470     1.0  0.57254  0.31449  0.74445  1.0000
  H   H1471     1.0  0.79504  0.05013  0.67246  1.0000
  H   H1472     1.0  0.92940  0.04921  0.60124  1.0000
  H   H1473     1.0  0.73226  0.49271  0.63904  1.0000
  C   C1824     1.0  0.61627  0.12926  0.61896  1.0000
  H   H1474     1.0  0.62830  0.20203  0.59478  1.0000
  H   H1475     1.0  0.86130  0.01983  0.52198  1.0000
  S   S261      1.0  0.97782  0.50647  0.73898  1.0000
  H   H1476     1.0  0.51905  0.43331  0.62425  1.0000
  C   C1825     1.0  0.62491  0.18165  0.60151  1.0000
  P   P59       1.0  0.57572  0.14912  0.74881  1.0000
  C   C1826     1.0  0.92779  0.10878  0.67708  1.0000
  C   C1827     1.0  0.94409  0.08744  0.67118  1.0000
  C   C1828     1.0  0.93969  0.07274  0.65539  1.0000
  C   C1829     1.0  0.91871  0.07877  0.64567  1.0000
  C   C1830     1.0  0.90222  0.10023  0.65146  1.0000
  C   C1831     1.0  0.90696  0.11525  0.66724  1.0000
  P   P60       1.0  0.87434  0.10732  0.63958  1.0000
  C   C1832     1.0  0.86889  0.14618  0.63880  1.0000
  C   C1833     1.0  0.87684  0.09331  0.61734  1.0000
  C   C1834     1.0  0.88105  0.11187  0.60299  1.0000
  C   C1835     1.0  0.63100  0.15032  0.62693  1.0000
  H   H1477     1.0  0.67568  0.40356  0.58669  1.0000
  C   C1836     1.0  0.57353  0.23621  0.76043  1.0000
  C   C1837     1.0  0.52414  0.41287  0.61806  1.0000
  C   C1838     1.0  0.84517  0.15768  0.63930  1.0000
  C   C1839     1.0  0.84121  0.18773  0.63833  1.0000
  C   C1840     1.0  0.86085  0.20656  0.63686  1.0000
  C   C1841     1.0  0.88449  0.19534  0.63631  1.0000
  C   C1842     1.0  0.88852  0.16528  0.63723  1.0000
  C   C1843     1.0  0.84926  0.08942  0.65028  1.0000
  C   C1844     1.0  0.85135  0.07883  0.66758  1.0000
  C   C1845     1.0  0.83170  0.06513  0.67562  1.0000
  C   C1846     1.0  0.80993  0.06168  0.66645  1.0000
  C   C1847     1.0  0.80773  0.07202  0.64923  1.0000
  C   C1848     1.0  0.82732  0.08578  0.64117  1.0000
  H   H1478     1.0  0.93112  0.11988  0.68946  1.0000
  H   H1479     1.0  0.95988  0.08179  0.67903  1.0000
  H   H1480     1.0  0.75644  0.05073  0.55559  1.0000
  H   H1481     1.0  0.65381  0.43710  0.65790  1.0000
  H   H1482     1.0  0.89425  0.13146  0.67215  1.0000
  H   H1483     1.0  0.88299  0.13505  0.60490  1.0000
  H   H1484     1.0  0.74838  0.41548  0.56873  1.0000
  C   C1849     1.0  0.66775  0.44770  0.63220  1.0000
  C   C1850     1.0  0.52983  0.38871  0.62849  1.0000
  H   H1485     1.0  0.86694  0.01170  0.68086  1.0000
  H   H1486     1.0  0.82960  0.14371  0.64043  1.0000
  H   H1487     1.0  0.82285  0.19642  0.63874  1.0000
  H   H1488     1.0  0.85772  0.22985  0.63614  1.0000
  H   H1489     1.0  0.89971  0.20997  0.63514  1.0000
  H   H1490     1.0  0.90695  0.15694  0.63662  1.0000
  H   H1491     1.0  0.86819  0.08034  0.67478  1.0000
  H   H1492     1.0  0.81720  0.43916  0.55902  1.0000
  S   S262      1.0  0.80429  0.50018  0.55294  1.0000
  H   H1493     1.0  0.79105  0.06863  0.64198  1.0000
  H   H1494     1.0  0.82546  0.09340  0.62775  1.0000
  H   H1495     1.0  0.62160  0.27263  0.59826  1.0000
  H   H1496     1.0  0.65924  0.10070  0.62070  1.0000
  C   C1851     1.0  0.56928  0.18358  0.75951  1.0000
  H   H1497     1.0  0.95763  0.48811  0.66432  1.0000
  H   H1498     1.0  0.67045  0.16168  0.71985  1.0000
  H   H1499     1.0  0.84142  0.39708  0.56958  1.0000
  H   H1500     1.0  0.71664  0.42458  0.59062  1.0000
  H   H1501     1.0  0.61272  0.10890  0.62560  1.0000
  C   C1852     1.0  0.72505  0.48111  0.56405  1.0000
  C   C1853     1.0  0.90444  0.49966  0.64176  1.0000
  C   C1854     1.0  0.63374  0.14819  0.71487  1.0000
  H   H1502     1.0  0.72462  0.06476  0.64216  1.0000
  C   C1855     1.0  0.69078  0.17417  0.57415  1.0000
  C   C1856     1.0  0.68332  0.14544  0.57206  1.0000
  C   C1857     1.0  0.69837  0.12544  0.56340  1.0000
  C   C1858     1.0  0.72085  0.13422  0.55685  1.0000
  C   C1859     1.0  0.72877  0.16292  0.55933  1.0000
  C   C1860     1.0  0.71334  0.18300  0.56773  1.0000
  P   P61       1.0  0.75828  0.17383  0.55141  1.0000
  C   C1861     1.0  0.77802  0.14205  0.55267  1.0000
  C   C1862     1.0  0.81570  0.36523  0.56050  1.0000
  C   C1863     1.0  0.61067  0.16038  0.59351  1.0000
  C   C1864     1.0  0.49740  0.26644  0.64899  1.0000
  P   P62       1.0  0.74993  0.37923  0.53634  1.0000
  C   C1865     1.0  0.74015  0.48136  0.57882  1.0000
  C   C1866     1.0  0.52498  0.41068  0.59968  1.0000
  H   H1503     1.0  0.67330  0.21303  0.52697  1.0000
  H   H1504     1.0  0.54346  0.45550  0.74757  1.0000
  C   C1867     1.0  0.80602  0.09066  0.55437  1.0000
  C   C1868     1.0  0.79073  0.09831  0.56831  1.0000
  C   C1869     1.0  0.77681  0.12379  0.56747  1.0000
  C   C1870     1.0  0.76988  0.20210  0.56577  1.0000
  C   C1871     1.0  0.77834  0.19536  0.58275  1.0000
  C   C1872     1.0  0.78672  0.21732  0.59394  1.0000
  C   C1873     1.0  0.78675  0.24622  0.58833  1.0000
  C   C1874     1.0  0.77836  0.25323  0.57150  1.0000
  C   C1875     1.0  0.76970  0.23137  0.56034  1.0000
  H   H1505     1.0  0.89993  0.20496  0.74938  1.0000
  H   H1506     1.0  0.66600  0.13872  0.57733  1.0000
  H   H1507     1.0  0.69284  0.10300  0.56200  1.0000
  H   H1508     1.0  0.73218  0.11841  0.55016  1.0000
  C   C1876     1.0  0.78825  0.41280  0.54882  1.0000
  H   H1509     1.0  0.50850  0.13436  0.69237  1.0000
  H   H1510     1.0  0.93799  0.26815  0.76089  1.0000
  H   H1511     1.0  0.94018  0.48538  0.63398  1.0000
  H   H1512     1.0  0.91536  0.06614  0.63391  1.0000
  H   H1513     1.0  0.54910  0.38313  0.75574  1.0000
  C   C1877     1.0  0.98570  0.10432  0.75891  1.0000
  H   H1514     1.0  0.67916  0.18963  0.58095  1.0000
  H   H1515     1.0  0.81666  0.07076  0.55499  1.0000
  H   H1516     1.0  0.78934  0.08426  0.57971  1.0000
  H   H1517     1.0  0.76457  0.12879  0.57822  1.0000
  H   H1518     1.0  0.77792  0.17339  0.58767  1.0000
  H   H1519     1.0  0.79233  0.21202  0.60725  1.0000
  H   H1520     1.0  0.71724  0.18363  0.52694  1.0000
  H   H1521     1.0  0.79245  0.26333  0.59725  1.0000
  C   C1878     1.0  0.62493  0.16230  0.75019  1.0000
  H   H1522     1.0  0.66200  0.48597  0.67045  1.0000
  C   C1879     1.0  0.81058  0.41723  0.55707  1.0000
  C   C1880     1.0  0.77934  0.38448  0.54644  1.0000
  H   H1523     1.0  0.66469  0.42614  0.62686  1.0000
  C   C1881     1.0  0.80738  0.10852  0.53956  1.0000
  C   C1882     1.0  0.67290  0.29629  0.51997  1.0000
  C   C1883     1.0  0.74465  0.06709  0.53037  1.0000
  C   C1884     1.0  0.97214  0.12896  0.76430  1.0000
  H   H1524     1.0  0.69769  0.10413  0.52719  1.0000
  C   C1885     1.0  0.82780  0.01280  0.53595  1.0000
  H   H1525     1.0  0.77759  0.27581  0.56742  1.0000
  C   C1886     1.0  0.82428  0.39348  0.56296  1.0000
  H   H1526     1.0  0.90686  0.27133  0.73727  1.0000
  S   S263      1.0  0.84127  0.01649  0.55709  1.0000
  C   C1887     1.0  0.56716  0.28183  0.61891  1.0000
  H   H1527     1.0  0.64528  0.19362  0.62435  1.0000
  H   H1528     1.0  0.66267  0.17400  0.75123  1.0000
  C   C1888     1.0  0.52149  0.13692  0.70297  1.0000
  C   C1889     1.0  0.64813  0.16571  0.74307  1.0000
  C   C1890     1.0  0.68947  0.40002  0.57674  1.0000
  C   C1891     1.0  0.79329  0.36069  0.55230  1.0000
  H   H1529     1.0  0.73141  0.47123  0.55187  1.0000
  C   C1892     1.0  0.63482  0.17672  0.61821  1.0000
  H   H1530     1.0  0.52901  0.39091  0.64268  1.0000
  C   C1893     1.0  0.87432  0.06338  0.61425  1.0000
  C   C1894     1.0  0.66631  0.48136  0.65678  1.0000
  C   C1895     1.0  0.65252  0.15875  0.72540  1.0000
  H   H1531     1.0  0.58513  0.24489  0.60696  1.0000
  H   H1532     1.0  0.58031  0.25606  0.75467  1.0000
  C   C1896     1.0  0.60547  0.09295  0.68244  1.0000
  H   H1533     1.0  0.81910  0.10226  0.52870  1.0000
  C   C1897     1.0  0.87591  0.05215  0.59713  1.0000
  C   C1898     1.0  0.67832  0.46908  0.62169  1.0000
  C   C1899     1.0  0.77695  0.20004  0.52123  1.0000
  C   C1900     1.0  0.74458  0.04740  0.54436  1.0000
  C   C1901     1.0  0.51738  0.30758  0.63535  1.0000
  H   H1534     1.0  0.53211  0.38257  0.57746  1.0000
  C   C1902     1.0  0.53715  0.36008  0.60209  1.0000
  H   H1535     1.0  0.97093  0.05338  0.61274  1.0000
  C   C1903     1.0  0.60595  0.15163  0.73971  1.0000
  H   H1536     1.0  0.72018  0.09609  0.66870  1.0000
  C   C1904     1.0  0.60666  0.28354  0.60492  1.0000
  H   H1537     1.0  0.55165  0.26910  0.62269  1.0000
  H   H1538     1.0  0.69398  0.06690  0.61853  1.0000
  H   H1539     1.0  0.79168  0.48463  0.51783  1.0000
  H   H1540     1.0  0.88011  0.06200  0.56960  1.0000
  H   H1541     1.0  0.73955  0.32812  0.55765  1.0000
  C   C1905     1.0  0.60813  0.31315  0.60889  1.0000
  C   C1906     1.0  0.58909  0.32720  0.61774  1.0000
  C   C1907     1.0  0.56851  0.31163  0.62296  1.0000
  P   P63       1.0  0.54368  0.33061  0.63376  1.0000
  C   C1908     1.0  0.55126  0.34169  0.65598  1.0000
  C   C1909     1.0  0.53256  0.34751  0.66813  1.0000
  C   C1910     1.0  0.53800  0.35597  0.68539  1.0000
  C   C1911     1.0  0.56210  0.35872  0.69070  1.0000
  C   C1912     1.0  0.58081  0.35340  0.67866  1.0000
  C   C1913     1.0  0.57546  0.34489  0.66136  1.0000
  C   C1914     1.0  0.53645  0.36214  0.62056  1.0000
  C   C1915     1.0  0.51434  0.36654  0.74767  1.0000
  H   H1542     1.0  0.59468  0.16281  0.65489  1.0000
  H   H1543     1.0  0.70569  0.22098  0.65242  1.0000
  C   C1916     1.0  0.62431  0.10392  0.67210  1.0000
  H   H1544     1.0  0.76807  0.50771  0.65599  1.0000
  C   C1917     1.0  0.53273  0.16368  0.70560  1.0000
  H   H1545     1.0  0.62426  0.32509  0.60536  1.0000
  H   H1546     1.0  0.59052  0.35021  0.62061  1.0000
  C   C1918     1.0  0.73332  0.28382  0.52207  1.0000
  H   H1547     1.0  0.52351  0.35981  0.69482  1.0000
  H   H1548     1.0  0.56615  0.36462  0.70423  1.0000
  H   H1549     1.0  0.59953  0.35529  0.68282  1.0000
  H   H1550     1.0  0.59032  0.34023  0.65247  1.0000
  H   H1551     1.0  0.59500  0.11785  0.59615  1.0000
  C   C1919     1.0  0.72953  0.02314  0.54380  1.0000
  C   C1920     1.0  0.84211  0.01561  0.52070  1.0000
  C   C1921     1.0  0.69162  0.08035  0.63019  1.0000
  C   C1922     1.0  0.70899  0.07911  0.64357  1.0000
  C   C1923     1.0  0.70652  0.09686  0.65845  1.0000
  C   C1924     1.0  0.68673  0.11598  0.65992  1.0000
  C   C1925     1.0  0.66943  0.11782  0.64634  1.0000
  C   C1926     1.0  0.67196  0.09969  0.63149  1.0000
  P   P64       1.0  0.64444  0.14346  0.64829  1.0000
  C   C1927     1.0  0.62069  0.12929  0.66213  1.0000
  C   C1928     1.0  0.65652  0.17701  0.65707  1.0000
  C   C1929     1.0  0.64324  0.19410  0.66913  1.0000
  C   C1930     1.0  0.65241  0.22069  0.67502  1.0000
  C   C1931     1.0  0.67482  0.23043  0.66894  1.0000
  C   C1932     1.0  0.68834  0.21334  0.65722  1.0000
  C   C1933     1.0  0.67926  0.18679  0.65125  1.0000
  C   C1934     1.0  0.59794  0.14331  0.66256  1.0000
  C   C1935     1.0  0.57924  0.13245  0.67302  1.0000
  C   C1936     1.0  0.58294  0.10717  0.68287  1.0000
  C   C1937     1.0  0.94083  0.02998  0.60221  1.0000
  H   H1552     1.0  0.66683  0.14309  0.53051  1.0000
  C   C1938     1.0  0.55676  0.49729  0.75610  1.0000
  H   H1553     1.0  0.95328  0.13089  0.76057  1.0000
  C   C1939     1.0  0.53867  0.47691  0.75256  1.0000
  C   C1940     1.0  0.59728  0.33145  0.76383  1.0000
  C   C1941     1.0  0.69380  0.50634  0.58079  1.0000
  C   C1942     1.0  0.96447  0.03222  0.60874  1.0000
  C   C1943     1.0  0.53148  0.38429  0.59171  1.0000
  H   H1554     1.0  0.52887  0.18168  0.69682  1.0000
  H   H1555     1.0  0.68983  0.49236  0.55375  1.0000
  Fe  Fe131     1.0  0.98690  0.03658  0.73187  1.0000
  H   H1556     1.0  0.98979  0.27149  0.74929  1.0000
  C   C1944     1.0  0.92450  0.50321  0.67621  1.0000
  C   C1945     1.0  0.74527  0.34143  0.53061  1.0000
  C   C1946     1.0  0.57840  0.20945  0.75233  1.0000
  H   H1557     1.0  0.95992  0.34692  0.75220  1.0000
  C   C1947     1.0  0.73371  0.19116  0.52077  1.0000
  Fe  Fe132     1.0  0.85332  0.50706  0.61215  1.0000
  C   C1948     1.0  0.97298  0.35802  0.76039  1.0000
  C   C1949     1.0  0.90197  0.18925  0.75991  1.0000
  H   H1558     1.0  0.53469  0.12111  0.76577  1.0000
  H   H1559     1.0  0.62169  0.16817  0.76385  1.0000
  H   H1560     1.0  0.86487  0.28719  0.74459  1.0000
  H   H1561     1.0  0.67238  0.31960  0.51807  1.0000
  H   H1562     1.0  0.92661  0.04375  0.76100  1.0000
  H   H1563     1.0  0.52057  0.42943  0.59163  1.0000
  C   C1950     1.0  0.69538  0.11990  0.51678  1.0000
  C   C1951     1.0  0.91952  0.27463  0.76404  1.0000
  C   C1952     1.0  0.89006  0.50878  0.65598  1.0000
  C   C1953     1.0  0.67758  0.14165  0.51858  1.0000
  C   C1954     1.0  0.90203  0.27654  0.75077  1.0000
  C   C1955     1.0  0.57381  0.11959  0.76452  1.0000
  C   C1956     1.0  0.87842  0.28557  0.75490  1.0000
  Fe  Fe133     1.0  0.49719  0.23596  0.73000  1.0000
  H   H1564     1.0  0.72770  0.26198  0.51876  1.0000
  H   H1565     1.0  0.61177  0.33475  0.75441  1.0000
  C   C1957     1.0  0.57523  0.31992  0.75823  1.0000
  H   H1566     1.0  0.91005  0.01057  0.69055  1.0000
  C   C1958     1.0  0.49600  0.31385  0.62596  1.0000
  H   H1567     1.0  0.53924  0.30771  0.76542  1.0000
  S   S264      1.0  0.49565  0.20981  0.75572  1.0000
  C   C1959     1.0  0.80675  0.49950  0.51703  1.0000
  C   C1960     1.0  0.53576  0.34911  0.81888  1.0000
  Fe  Fe134     1.0  0.96772  0.23933  0.83352  1.0000
  C   C1961     1.0  0.86606  0.14136  0.81634  1.0000
  S   S265      1.0  0.93715  0.21987  0.85012  1.0000
  H   H1568     1.0  0.55541  0.25813  0.78179  1.0000
  C   C1962     1.0  0.54051  0.28494  0.81587  1.0000
  S   S266      1.0  0.96737  0.23373  0.80392  1.0000
  H   H1569     1.0  0.58597  0.23869  0.82860  1.0000
  Fe  Fe135     1.0  0.83138  0.25991  0.92003  1.0000
  S   S267      1.0  0.79409  0.25506  0.90801  1.0000
  S   S268      1.0  0.86375  0.27933  0.90511  1.0000
  Fe  Fe136     1.0  0.81355  0.24107  0.95671  1.0000
  S   S269      1.0  0.77553  0.23480  0.94707  1.0000
  S   S270      1.0  0.82161  0.22601  0.98464  1.0000
  Fe  Fe137     1.0  0.79208  0.21299  0.92348  1.0000
  S   S271      1.0  0.78245  0.16809  0.91219  1.0000
  Fe  Fe138     1.0  0.78042  0.27737  0.93275  1.0000
  S   S272      1.0  0.74911  0.30980  0.93709  1.0000
  S   S273      1.0  0.83029  0.21677  0.93385  1.0000
  S   S274      1.0  0.81764  0.28477  0.94400  1.0000
  Fe  Fe139     1.0  0.70754  0.47396  0.92812  1.0000
  S   S275      1.0  0.67341  0.45989  0.94170  1.0000
  S   S276      1.0  0.73270  0.44219  0.91362  1.0000
  Fe  Fe140     1.0  0.69304  0.02924  0.92903  1.0000
  Fe  Fe141     1.0  0.65695  0.50134  0.93072  1.0000
  S   S277      1.0  0.69877  0.07830  0.93281  1.0000
  H   H1570     1.0  0.88840  0.06912  0.81835  1.0000
  S   S278      1.0  0.69195  0.47029  0.99215  1.0000
  C   C1963     1.0  0.80545  0.44997  0.95136  1.0000
  H   H1571     1.0  0.51660  0.46739  0.93194  1.0000
  C   C1964     1.0  0.55945  0.23742  0.77570  1.0000
  H   H1572     1.0  0.51254  0.04797  0.92632  1.0000
  C   C1965     1.0  0.92354  0.25132  0.93192  1.0000
  C   C1966     1.0  0.78794  0.16083  0.99780  1.0000
  H   H1573     1.0  0.63371  0.43095  0.96557  1.0000
  H   H1574     1.0  0.78661  0.08680  0.97023  1.0000
  H   H1575     1.0  0.68185  0.02172  0.98426  1.0000
  C   C1967     1.0  0.56005  0.08648  0.94289  1.0000
  Fe  Fe142     1.0  0.68702  0.48726  0.96429  1.0000
  H   H1576     1.0  0.67001  0.09250  0.97919  1.0000
  C   C1968     1.0  0.82642  0.35134  0.91548  1.0000
  C   C1969     1.0  0.60044  0.47244  0.87322  1.0000
  C   C1970     1.0  0.82269  0.46777  0.95962  1.0000
  H   H1577     1.0  0.77305  0.44976  0.93532  1.0000
  H   H1578     1.0  0.85888  0.41100  0.94755  1.0000
  H   H1579     1.0  0.53039  0.44735  0.87575  1.0000
  C   C1971     1.0  0.91347  0.28184  0.78142  1.0000
  H   H1580     1.0  0.83227  0.32877  0.91509  1.0000
  H   H1581     1.0  0.81029  0.38472  0.98909  1.0000
  P   P65       1.0  0.91157  0.12206  0.80455  1.0000
  C   C1972     1.0  0.81153  0.40960  0.91643  1.0000
  H   H1582     1.0  0.96204  0.36406  0.83795  1.0000
  C   C1973     1.0  0.82368  0.24786  0.00378  1.0000
  C   C1974     1.0  0.82749  0.27788  0.00296  1.0000
  C   C1975     1.0  0.68339  0.10878  0.98253  1.0000
  H   H1583     1.0  0.82875  0.28844  0.99027  1.0000
  C   C1976     1.0  0.74450  0.04052  0.98665  1.0000
  C   C1977     1.0  0.75954  0.14319  0.91883  1.0000
  C   C1978     1.0  0.76183  0.11363  0.91408  1.0000
  C   C1979     1.0  0.74369  0.09334  0.91846  1.0000
  C   C1980     1.0  0.72284  0.10245  0.92752  1.0000
  C   C1981     1.0  0.72061  0.13197  0.93236  1.0000
  C   C1982     1.0  0.73877  0.15222  0.92800  1.0000
  H   H1584     1.0  0.77768  0.10640  0.90683  1.0000
  H   H1585     1.0  0.74566  0.07079  0.91456  1.0000
  H   H1586     1.0  0.70450  0.13929  0.93926  1.0000
  H   H1587     1.0  0.73642  0.17496  0.93131  1.0000
  C   C1983     1.0  0.73659  0.40517  0.91995  1.0000
  C   C1984     1.0  0.72219  0.39242  0.93292  1.0000
  C   C1985     1.0  0.72585  0.36300  0.93755  1.0000
  C   C1986     1.0  0.74457  0.34627  0.92984  1.0000
  C   C1987     1.0  0.75889  0.35896  0.91679  1.0000
  C   C1988     1.0  0.75461  0.38809  0.91169  1.0000
  H   H1588     1.0  0.70809  0.40511  0.93929  1.0000
  H   H1589     1.0  0.71438  0.35332  0.94744  1.0000
  H   H1590     1.0  0.77300  0.34623  0.91046  1.0000
  H   H1591     1.0  0.76531  0.39749  0.90127  1.0000
  C   C1989     1.0  0.91803  0.23665  0.86616  1.0000
  C   C1990     1.0  0.90126  0.21945  0.87535  1.0000
  C   C1991     1.0  0.88457  0.23207  0.88732  1.0000
  C   C1992     1.0  0.88459  0.26211  0.89036  1.0000
  C   C1993     1.0  0.90191  0.27917  0.88159  1.0000
  C   C1994     1.0  0.91863  0.26650  0.86965  1.0000
  H   H1592     1.0  0.90080  0.19627  0.87290  1.0000
  H   H1593     1.0  0.87155  0.21860  0.89407  1.0000
  H   H1594     1.0  0.90234  0.30236  0.88401  1.0000
  H   H1595     1.0  0.93185  0.27980  0.86301  1.0000
  C   C1995     1.0  0.52000  0.40658  0.76880  1.0000
  C   C1996     1.0  0.91694  0.19542  0.77426  1.0000
  C   C1997     1.0  0.90578  0.02825  0.78309  1.0000
  C   C1998     1.0  0.98413  0.28926  0.89561  1.0000
  H   H1596     1.0  0.82235  0.35183  0.94347  1.0000
  H   H1597     1.0  0.71903  0.39950  0.01609  1.0000
  C   C1999     1.0  0.55511  0.18509  0.77489  1.0000
  C   C2000     1.0  0.82043  0.36448  0.93156  1.0000
  C   C2001     1.0  0.92918  0.24354  0.94923  1.0000
  C   C2002     1.0  0.56406  0.27358  0.81801  1.0000
  H   H1598     1.0  0.82925  0.35678  0.88743  1.0000
  C   C2003     1.0  0.89262  0.14237  0.77264  1.0000
  P   P66       1.0  0.99030  0.25701  0.90846  1.0000
  H   H1599     1.0  0.81610  0.40862  0.88823  1.0000
  S   S279      1.0  0.56236  0.47429  0.84954  1.0000
  H   H1600     1.0  0.73178  0.02411  0.98234  1.0000
  C   C2004     1.0  0.54910  0.08846  0.78304  1.0000
  C   C2005     1.0  0.56997  0.07480  0.78951  1.0000
  H   H1601     1.0  0.90972  0.11131  0.84265  1.0000
  C   C2006     1.0  0.72649  0.26169  0.97349  1.0000
  H   H1602     1.0  0.80594  0.43213  0.91624  1.0000
  H   H1603     1.0  0.67648  0.40999  0.00859  1.0000
  C   C2007     1.0  0.56810  0.50581  0.88096  1.0000
  H   H1604     1.0  0.49654  0.17801  0.78824  1.0000
  C   C2008     1.0  0.85568  0.40137  0.96036  1.0000
  H   H1605     1.0  0.58936  0.40129  0.01216  1.0000
  H   H1606     1.0  0.70864  0.27297  0.94916  1.0000
  C   C2009     1.0  0.74596  0.04806  0.00449  1.0000
  C   C2010     1.0  0.78672  0.46305  0.94158  1.0000
  C   C2011     1.0  0.58811  0.35485  0.01500  1.0000
  H   H1607     1.0  0.87838  0.12114  0.86519  1.0000
  C   C2012     1.0  0.87525  0.38968  0.96979  1.0000
  C   C2013     1.0  0.67527  0.01405  0.99684  1.0000
  H   H1608     1.0  0.96095  0.30996  0.91519  1.0000
  C   C2014     1.0  0.60228  0.02201  0.85449  1.0000
  C   C2015     1.0  0.70759  0.10434  0.97778  1.0000
  H   H1609     1.0  0.71272  0.08493  0.97049  1.0000
  C   C2016     1.0  0.94210  0.25547  0.91967  1.0000
  H   H1610     1.0  0.76285  0.44011  0.96832  1.0000
  H   H1611     1.0  0.53136  0.08178  0.78764  1.0000
  H   H1612     1.0  0.56842  0.05759  0.79919  1.0000
  C   C2017     1.0  0.61308  0.47968  0.88884  1.0000
  C   C2018     1.0  0.72931  0.21001  0.98017  1.0000
  C   C2019     1.0  0.88850  0.12889  0.82105  1.0000
  C   C2020     1.0  0.51262  0.45064  0.88158  1.0000
  C   C2021     1.0  0.59278  0.08338  0.78353  1.0000
  C   C2022     1.0  0.82828  0.38651  0.98357  1.0000
  C   C2023     1.0  0.53379  0.34523  0.83718  1.0000
  C   C2024     1.0  0.67984  0.03001  0.01230  1.0000
  H   H1613     1.0  0.74333  0.12182  0.97730  1.0000
  C   C2025     1.0  0.82483  0.36719  0.89987  1.0000
  C   C2026     1.0  0.72494  0.12537  0.98174  1.0000
  H   H1614     1.0  0.79884  0.42550  0.01175  1.0000
  H   H1615     1.0  0.59696  0.50161  0.82338  1.0000
  C   C2027     1.0  0.73763  0.37661  0.98082  1.0000
  C   C2028     1.0  0.75514  0.35715  0.97442  1.0000
  C   C2029     1.0  0.77545  0.36745  0.96544  1.0000
  C   C2030     1.0  0.77879  0.39747  0.96309  1.0000
  C   C2031     1.0  0.76115  0.41689  0.96980  1.0000
  P   P67       1.0  0.80673  0.41071  0.95346  1.0000
  C   C2032     1.0  0.97994  0.34242  0.87763  1.0000
  C   C2033     1.0  0.83200  0.39957  0.96709  1.0000
  H   H1616     1.0  0.58442  0.34125  0.80723  1.0000
  H   H1617     1.0  0.71681  0.09111  0.01532  1.0000
  H   H1618     1.0  0.55764  0.47420  0.94434  1.0000
  H   H1619     1.0  0.69974  0.22182  0.94123  1.0000
  C   C2034     1.0  0.84831  0.14660  0.82919  1.0000
  C   C2035     1.0  0.53907  0.37723  0.81217  1.0000
  H   H1620     1.0  0.72145  0.36849  0.98715  1.0000
  H   H1621     1.0  0.97119  0.17205  0.84192  1.0000
  H   H1622     1.0  0.75253  0.33391  0.97567  1.0000
  H   H1623     1.0  0.78837  0.35177  0.96034  1.0000
  H   H1624     1.0  0.60819  0.04138  0.84773  1.0000
  C   C2036     1.0  0.81257  0.39367  0.93223  1.0000
  C   C2037     1.0  0.95342  0.23997  0.95429  1.0000
  H   H1625     1.0  0.60825  0.45661  0.86424  1.0000
  H   H1626     1.0  0.77274  0.21950  0.01236  1.0000
  C   C2038     1.0  0.52468  0.24432  0.83268  1.0000
  H   H1627     1.0  0.88300  0.12197  0.77182  1.0000
  H   H1628     1.0  0.52849  0.04040  0.85847  1.0000
  C   C2039     1.0  0.98226  0.34402  0.77547  1.0000
  C   C2040     1.0  0.68438  0.49235  0.01046  1.0000
  C   C2041     1.0  0.89003  0.29180  0.78560  1.0000
  C   C2042     1.0  0.77072  0.45805  0.01144  1.0000
  P   P68       1.0  0.88282  0.30228  0.80800  1.0000
  C   C2043     1.0  0.85660  0.32621  0.80793  1.0000
  C   C2044     1.0  0.87648  0.27039  0.82104  1.0000
  C   C2045     1.0  0.86189  0.27274  0.83619  1.0000
  C   C2046     1.0  0.85678  0.24814  0.84625  1.0000
  C   C2047     1.0  0.86635  0.22106  0.84137  1.0000
  C   C2048     1.0  0.88133  0.21862  0.82658  1.0000
  C   C2049     1.0  0.88641  0.24316  0.81644  1.0000
  C   C2050     1.0  0.85940  0.35656  0.80765  1.0000
  C   C2051     1.0  0.83903  0.37492  0.80762  1.0000
  C   C2052     1.0  0.81574  0.36316  0.80780  1.0000
  C   C2053     1.0  0.81279  0.33300  0.80789  1.0000
  C   C2054     1.0  0.83312  0.31457  0.80786  1.0000
  C   C2055     1.0  0.90802  0.32175  0.81750  1.0000
  C   C2056     1.0  0.92313  0.33874  0.80682  1.0000
  C   C2057     1.0  0.94244  0.35402  0.81424  1.0000
  C   C2058     1.0  0.94679  0.35258  0.83235  1.0000
  C   C2059     1.0  0.93164  0.33609  0.84310  1.0000
  C   C2060     1.0  0.91228  0.32081  0.83573  1.0000
  C   C2061     1.0  0.55628  0.31610  0.77024  1.0000
  Fe  Fe143     1.0  0.98474  0.27814  0.80279  1.0000
  H   H1629     1.0  0.61750  0.34826  0.78585  1.0000
  H   H1630     1.0  0.92730  0.28033  0.79154  1.0000
  H   H1631     1.0  0.75769  0.04899  0.96042  1.0000
  H   H1632     1.0  0.85475  0.29365  0.84043  1.0000
  H   H1633     1.0  0.84597  0.25018  0.85816  1.0000
  H   H1634     1.0  0.86297  0.20222  0.84952  1.0000
  H   H1635     1.0  0.88972  0.19790  0.82335  1.0000
  H   H1636     1.0  0.89845  0.24079  0.80528  1.0000
  H   H1637     1.0  0.87724  0.36618  0.80744  1.0000
  H   H1638     1.0  0.84132  0.39831  0.80747  1.0000
  H   H1639     1.0  0.79998  0.37744  0.80785  1.0000
  H   H1640     1.0  0.79472  0.32390  0.80800  1.0000
  H   H1641     1.0  0.83050  0.29124  0.80780  1.0000
  H   H1642     1.0  0.92024  0.34012  0.79272  1.0000
  H   H1643     1.0  0.95424  0.36665  0.80584  1.0000
  C   C2062     1.0  0.60047  0.33908  0.78151  1.0000
  H   H1644     1.0  0.93501  0.33483  0.85714  1.0000
  H   H1645     1.0  0.90079  0.30822  0.84431  1.0000
  C   C2063     1.0  0.73418  0.23912  0.98456  1.0000
  C   C2064     1.0  0.63168  0.06572  0.89994  1.0000
  C   C2065     1.0  0.62799  0.09472  0.89514  1.0000
  C   C2066     1.0  0.60493  0.10737  0.89674  1.0000
  C   C2067     1.0  0.58567  0.09116  0.90345  1.0000
  C   C2068     1.0  0.58941  0.06218  0.90870  1.0000
  C   C2069     1.0  0.61240  0.04940  0.90647  1.0000
  P   P69       1.0  0.56485  0.04166  0.91817  1.0000
  C   C2070     1.0  0.59475  0.10567  0.77108  1.0000
  C   C2071     1.0  0.54789  0.06555  0.93274  1.0000
  H   H1646     1.0  0.54084  0.41553  0.85053  1.0000
  C   C2072     1.0  0.96118  0.10983  0.80821  1.0000
  S   S280      1.0  0.56378  0.02368  0.83127  1.0000
  H   H1647     1.0  0.83305  0.14464  0.96864  1.0000
  C   C2073     1.0  0.52252  0.06366  0.93401  1.0000
  C   C2074     1.0  0.94516  0.14870  0.82658  1.0000
  C   C2075     1.0  0.62018  0.48557  0.99430  1.0000
  C   C2076     1.0  0.52089  0.27038  0.82357  1.0000
  H   H1648     1.0  0.92664  0.21578  0.77487  1.0000
  C   C2077     1.0  0.91918  0.07792  0.77975  1.0000
  H   H1649     1.0  0.95630  0.35574  0.89881  1.0000
  H   H1650     1.0  0.53117  0.32385  0.84274  1.0000
  H   H1651     1.0  0.54058  0.38067  0.79812  1.0000
  H   H1652     1.0  0.64303  0.10727  0.89014  1.0000
  H   H1653     1.0  0.60203  0.12977  0.89282  1.0000
  H   H1654     1.0  0.56790  0.10123  0.90463  1.0000
  C   C2078     1.0  0.76193  0.06986  0.01013  1.0000
  C   C2079     1.0  0.57780  0.01224  0.93101  1.0000
  H   H1655     1.0  0.76031  0.17297  0.95835  1.0000
  H   H1656     1.0  0.62240  0.48318  0.96593  1.0000
  C   C2080     1.0  0.96847  0.15428  0.83279  1.0000
  C   C2081     1.0  0.85276  0.13935  0.84678  1.0000
  H   H1657     1.0  0.93737  0.26130  0.90627  1.0000
  C   C2082     1.0  0.76953  0.16895  0.98594  1.0000
  H   H1658     1.0  0.64952  0.05580  0.89861  1.0000
  H   H1659     1.0  0.61558  0.50853  0.99444  1.0000
  H   H1660     1.0  0.88585  0.01908  0.80682  1.0000
  C   C2083     1.0  0.90847  0.08554  0.79594  1.0000
  H   H1661     1.0  0.97857  0.36297  0.87074  1.0000
  C   C2084     1.0  0.81523  0.15070  0.97349  1.0000
  S   S281      1.0  0.98173  0.28509  0.83213  1.0000
  H   H1662     1.0  0.89339  0.39055  0.96433  1.0000
  H   H1663     1.0  0.57149  0.35281  0.00748  1.0000
  C   C2085     1.0  0.90782  0.14833  0.78704  1.0000
  C   C2086     1.0  0.71390  0.25547  0.95797  1.0000
  H   H1664     1.0  0.97207  0.16990  0.77861  1.0000
  C   C2087     1.0  0.50625  0.31567  0.79297  1.0000
  P   P70       1.0  0.53530  0.31843  0.80393  1.0000
  S   S282      1.0  0.97188  0.30855  0.78076  1.0000
  H   H1665     1.0  0.68974  0.05010  0.01148  1.0000
  C   C2088     1.0  0.94132  0.12661  0.81409  1.0000
  C   C2089     1.0  0.55021  0.21193  0.78291  1.0000
  H   H1666     1.0  0.88630  0.36603  0.99297  1.0000
  H   H1667     1.0  0.84472  0.36326  0.00509  1.0000
  C   C2090     1.0  0.96988  0.31209  0.90257  1.0000
  C   C2091     1.0  0.60310  0.49965  0.90086  1.0000
  H   H1668     1.0  0.95907  0.09316  0.79826  1.0000
  H   H1669     1.0  0.53428  0.36615  0.86270  1.0000
  C   C2092     1.0  0.75916  0.05447  0.97431  1.0000
  C   C2093     1.0  0.79684  0.15795  0.96160  1.0000
  C   C2094     1.0  0.89652  0.06406  0.80571  1.0000
  C   C2095     1.0  0.82130  0.49808  0.95785  1.0000
  P   P71       1.0  0.73984  0.18008  0.99379  1.0000
  H   H1670     1.0  0.93034  0.16250  0.83105  1.0000
  H   H1671     1.0  0.73095  0.28402  0.97657  1.0000
  H   H1672     1.0  0.86220  0.14712  0.80281  1.0000
  H   H1673     1.0  0.57961  0.08839  0.94214  1.0000
  C   C2096     1.0  0.98277  0.15130  0.77445  1.0000
  H   H1674     1.0  0.55751  0.05723  0.88072  1.0000
  C   C2097     1.0  0.89271  0.12135  0.83873  1.0000
  C   C2098     1.0  0.57781  0.48527  0.86919  1.0000
  C   C2099     1.0  0.54517  0.02774  0.90108  1.0000
  C   C2100     1.0  0.63314  0.42671  0.99388  1.0000
  C   C2101     1.0  0.71658  0.20407  0.96451  1.0000
  C   C2102     1.0  0.87128  0.37592  0.98591  1.0000
  H   H1675     1.0  0.63329  0.02102  0.87203  1.0000
  C   C2103     1.0  0.97311  0.18220  0.88161  1.0000
  C   C2104     1.0  0.81749  0.39634  0.90036  1.0000
  C   C2105     1.0  0.97113  0.20807  0.89127  1.0000
  C   C2106     1.0  0.54500  0.04022  0.88420  1.0000
  C   C2107     1.0  0.56779  0.24752  0.82714  1.0000
  C   C2108     1.0  0.54810  0.23283  0.83441  1.0000
  C   C2109     1.0  0.81077  0.15211  0.99160  1.0000
  C   C2110     1.0  0.96653  0.25190  0.92459  1.0000
  H   H1676     1.0  0.71298  0.18190  0.96051  1.0000
  H   H1677     1.0  0.60890  0.07272  0.78865  1.0000
  H   H1678     1.0  0.85410  0.30044  0.77509  1.0000
  H   H1679     1.0  0.78495  0.16165  0.01184  1.0000
  H   H1680     1.0  0.78942  0.10005  0.00169  1.0000
  C   C2111     1.0  0.87496  0.12674  0.85154  1.0000
  H   H1681     1.0  0.80033  0.15713  0.94754  1.0000
  C   C2112     1.0  0.52854  0.03068  0.87146  1.0000
  C   C2113     1.0  0.63044  0.44188  0.97804  1.0000
  H   H1682     1.0  0.93154  0.18056  0.79871  1.0000
  H   H1683     1.0  0.55661  0.12112  0.96195  1.0000
  H   H1684     1.0  0.77202  0.46171  0.99738  1.0000
  H   H1685     1.0  0.91470  0.24021  0.95868  1.0000
  C   C2114     1.0  0.96747  0.33835  0.89344  1.0000
  C   C2115     1.0  0.71822  0.15112  0.99053  1.0000
  H   H1686     1.0  0.92899  0.09382  0.77214  1.0000
  Fe  Fe144     1.0  0.52670  0.48917  0.83643  1.0000
  H   H1687     1.0  0.54739  0.16584  0.78065  1.0000
  H   H1688     1.0  0.65754  0.13821  0.99439  1.0000
  C   C2116     1.0  0.84783  0.37442  0.99279  1.0000
  C   C2117     1.0  0.58162  0.33514  0.79358  1.0000
  H   H1689     1.0  0.90473  0.25403  0.92794  1.0000
  H   H1690     1.0  0.63034  0.46940  0.89174  1.0000
  C   C2118     1.0  0.97206  0.24413  0.94203  1.0000
  C   C2119     1.0  0.91786  0.04942  0.77338  1.0000
  C   C2120     1.0  0.54708  0.10509  0.95415  1.0000
  H   H1691     1.0  0.95353  0.21428  0.89632  1.0000
  H   H1692     1.0  0.83107  0.15636  0.82553  1.0000
  C   C2121     1.0  0.70895  0.22667  0.95349  1.0000
  C   C2122     1.0  0.53916  0.39701  0.84176  1.0000
  S   S283      1.0  0.72209  0.49883  0.95135  1.0000
  C   C2123     1.0  0.74061  0.40648  0.97846  1.0000
  C   C2124     1.0  0.91977  0.17517  0.78781  1.0000
  C   C2125     1.0  0.54076  0.40106  0.82357  1.0000
  H   H1693     1.0  0.83719  0.45844  0.96741  1.0000
  H   H1694     1.0  0.53874  0.21297  0.79450  1.0000
  C   C2126     1.0  0.77413  0.16709  0.96778  1.0000
  H   H1695     1.0  0.83901  0.14351  0.85674  1.0000
  C   C2127     1.0  0.53552  0.36916  0.84857  1.0000
  H   H1696     1.0  0.82516  0.14712  0.00085  1.0000
  C   C2128     1.0  0.54665  0.49296  0.94079  1.0000
  C   C2129     1.0  0.77541  0.07581  0.97985  1.0000
  S   S284      1.0  0.51994  0.01332  0.79132  1.0000
  C   C2130     1.0  0.77680  0.08349  0.99769  1.0000
  H   H1697     1.0  0.77102  0.50298  0.93192  1.0000
  S   S285      1.0  0.65455  0.01563  0.93501  1.0000
  C   C2131     1.0  0.50889  0.47350  0.89347  1.0000
  C   C2132     1.0  0.67642  0.13452  0.99105  1.0000
  H   H1698     1.0  0.63825  0.40393  0.99339  1.0000
  H   H1699     1.0  0.95772  0.23385  0.96772  1.0000
  C   C2133     1.0  0.62405  0.47133  0.97823  1.0000
  C   C2134     1.0  0.52346  0.48922  0.93369  1.0000
  H   H1700     1.0  0.95710  0.16928  0.87920  1.0000
  H   H1701     1.0  0.54343  0.42276  0.81836  1.0000
  H   H1702     1.0  0.68791  0.17604  0.00091  1.0000
  C   C2135     1.0  0.55936  0.32353  0.78805  1.0000
  H   H1703     1.0  0.99067  0.24119  0.94621  1.0000
  H   H1704     1.0  0.51252  0.27155  0.78359  1.0000
  H   H1705     1.0  0.74430  0.24470  0.99621  1.0000
  C   C2136     1.0  0.98450  0.11545  0.81454  1.0000
  H   H1706     1.0  0.57960  0.28453  0.81253  1.0000
  H   H1707     1.0  0.55100  0.21261  0.84145  1.0000
  C   C2137     1.0  0.78546  0.49326  0.93973  1.0000
  C   C2138     1.0  0.69370  0.15575  0.99487  1.0000
  H   H1708     1.0  0.51180  0.11742  0.96406  1.0000
  C   C2139     1.0  0.98820  0.13789  0.82667  1.0000
  C   C2140     1.0  0.89508  0.03557  0.79924  1.0000
  H   H1709     1.0  0.72677  0.42164  0.98307  1.0000
  H   H1710     1.0  0.50941  0.23302  0.83840  1.0000
  H   H1711     1.0  0.74119  0.48859  0.01480  1.0000
  S   S286      1.0  0.52632  0.49910  0.80723  1.0000
  C   C2141     1.0  0.50960  0.08232  0.94527  1.0000
  H   H1712     1.0  0.52398  0.48746  0.89662  1.0000
  C   C2142     1.0  0.52186  0.10300  0.95534  1.0000
  C   C2143     1.0  0.87239  0.29315  0.77225  1.0000
  H   H1713     1.0  0.58440  0.03828  0.95440  1.0000
  H   H1714     1.0  0.53197  0.42077  0.77606  1.0000
  C   C2144     1.0  0.55103  0.11073  0.77065  1.0000
  C   C2145     1.0  0.62957  0.44089  0.01015  1.0000
  H   H1715     1.0  0.50260  0.27905  0.82249  1.0000
  H   H1716     1.0  0.61555  0.02682  0.90977  1.0000
  H   H1717     1.0  0.59502  0.50690  0.79097  1.0000
  S   S287      1.0  0.61735  0.50794  0.92149  1.0000
  C   C2146     1.0  0.62292  0.47049  0.01019  1.0000
  C   C2147     1.0  0.58631  0.01720  0.94823  1.0000
  C   C2148     1.0  0.49989  0.28966  0.78439  1.0000
  H   H1718     1.0  0.73441  0.03720  0.01392  1.0000
  Fe  Fe145     1.0  0.52566  0.01358  0.82071  1.0000
  C   C2149     1.0  0.99163  0.22542  0.89413  1.0000
  H   H1719     1.0  0.78068  0.31719  0.01571  1.0000
  C   C2150     1.0  0.99452  0.32009  0.87082  1.0000
  H   H1720     1.0  0.49612  0.41534  0.86737  1.0000
  S   S288      1.0  0.49562  0.45789  0.83399  1.0000
  C   C2151     1.0  0.61652  0.01061  0.86837  1.0000
  H   H1721     1.0  0.61261  0.11177  0.76666  1.0000
  H   H1722     1.0  0.96794  0.60341  0.23986  1.0000
  Fe  Fe146     1.0  0.95467  0.75405  0.20356  1.0000
  H   H1723     1.0  0.90799  0.90529  0.19038  1.0000
  S   S289      1.0  0.91627  0.74215  0.19436  1.0000
  H   H1724     1.0  0.92921  0.94961  0.20006  1.0000
  C   C2152     1.0  0.64668  0.92800  0.05449  1.0000
  S   S290      1.0  0.96243  0.76223  0.23249  1.0000
  H   H1725     1.0  0.92260  0.71894  0.23050  1.0000
  C   C2153     1.0  0.59704  0.99320  0.22361  1.0000
  C   C2154     1.0  0.94873  0.56177  0.20540  1.0000
  C   C2155     1.0  0.51117  0.98247  0.13515  1.0000
  H   H1726     1.0  0.98525  0.65429  0.22438  1.0000
  C   C2156     1.0  0.88745  0.60600  0.17531  1.0000
  Fe  Fe147     1.0  0.98514  0.80011  0.22353  1.0000
  C   C2157     1.0  0.70043  0.92774  0.03677  1.0000
  C   C2158     1.0  0.71348  0.82943  0.07448  1.0000
  Fe  Fe148     1.0  0.82705  0.77130  0.11101  1.0000
  S   S291      1.0  0.79474  0.75803  0.12710  1.0000
  S   S292      1.0  0.86555  0.77883  0.12153  1.0000
  Fe  Fe149     1.0  0.79773  0.77117  0.07631  1.0000
  S   S293      1.0  0.76390  0.75764  0.09027  1.0000
  S   S294      1.0  0.78919  0.77821  0.04744  1.0000
  Fe  Fe150     1.0  0.77402  0.79108  0.11057  1.0000
  S   S295      1.0  0.74314  0.82143  0.11920  1.0000
  Fe  Fe151     1.0  0.78736  0.72615  0.10500  1.0000
  S   S296      1.0  0.78213  0.67698  0.10481  1.0000
  S   S297      1.0  0.80675  0.80637  0.09587  1.0000
  S   S298      1.0  0.82090  0.73773  0.08972  1.0000
  H   H1727     1.0  0.60216  0.71581  0.23281  1.0000
  C   C2159     1.0  0.51676  0.92982  0.15346  1.0000
  C   C2160     1.0  0.91185  0.68459  0.24800  1.0000
  H   H1728     1.0  0.95156  0.81980  0.16716  1.0000
  C   C2161     1.0  0.92199  0.63565  0.23840  1.0000
  C   C2162     1.0  0.58902  0.67345  0.23925  1.0000
  Fe  Fe152     1.0  0.70665  0.98998  0.10320  1.0000
  S   S299      1.0  0.73882  0.95807  0.10360  1.0000
  Fe  Fe153     1.0  0.68640  0.55577  0.12084  1.0000
  S   S300      1.0  0.69397  0.60078  0.13192  1.0000
  S   S301      1.0  0.67136  0.98291  0.08905  1.0000
  S   S302      1.0  0.64943  0.55027  0.10897  1.0000
  C   C2163     1.0  0.75646  0.65686  0.11139  1.0000
  C   C2164     1.0  0.73665  0.66979  0.11997  1.0000
  C   C2165     1.0  0.71737  0.65244  0.12593  1.0000
  C   C2166     1.0  0.71742  0.62224  0.12291  1.0000
  C   C2167     1.0  0.73694  0.60949  0.11391  1.0000
  C   C2168     1.0  0.75650  0.62668  0.10843  1.0000
  H   H1729     1.0  0.73639  0.69300  0.12230  1.0000
  H   H1730     1.0  0.70240  0.66244  0.13298  1.0000
  H   H1731     1.0  0.73739  0.58624  0.11171  1.0000
  H   H1732     1.0  0.77192  0.61647  0.10210  1.0000
  C   C2169     1.0  0.74191  0.85906  0.11370  1.0000
  C   C2170     1.0  0.76289  0.87466  0.10979  1.0000
  C   C2171     1.0  0.76152  0.90490  0.10679  1.0000
  C   C2172     1.0  0.73915  0.91984  0.10718  1.0000
  C   C2173     1.0  0.71804  0.90414  0.11058  1.0000
  C   C2174     1.0  0.71947  0.87398  0.11404  1.0000
  H   H1733     1.0  0.78029  0.86361  0.10964  1.0000
  H   H1734     1.0  0.77797  0.91689  0.10438  1.0000
  H   H1735     1.0  0.70069  0.91531  0.11076  1.0000
  H   H1736     1.0  0.70312  0.86213  0.11701  1.0000
  H   H1737     1.0  0.62732  0.52084  0.16602  1.0000
  H   H1738     1.0  0.87580  0.62876  0.15191  1.0000
  H   H1739     1.0  0.95194  0.83908  0.10299  1.0000
  S   S303      1.0  0.51395  0.98561  0.20127  1.0000
  C   C2175     1.0  0.93351  0.64675  0.22336  1.0000
  C   C2176     1.0  0.70584  0.94431  0.02176  1.0000
  C   C2177     1.0  0.80596  0.76291  0.02981  1.0000
  C   C2178     1.0  0.83031  0.75454  0.03151  1.0000
  C   C2179     1.0  0.60331  0.92094  0.05235  1.0000
  H   H1740     1.0  0.83917  0.75605  0.04420  1.0000
  C   C2180     1.0  0.67233  0.62536  0.01719  1.0000
  H   H1741     1.0  0.75902  0.64339  0.15655  1.0000
  C   C2181     1.0  0.62797  0.98660  0.20100  1.0000
  H   H1742     1.0  0.73745  0.59704  0.15442  1.0000
  C   C2182     1.0  0.86906  0.67476  0.19567  1.0000
  C   C2183     1.0  0.64617  0.79101  0.22606  1.0000
  C   C2184     1.0  0.63077  0.89099  0.03498  1.0000
  H   H1743     1.0  0.73355  0.74430  0.05878  1.0000
  C   C2185     1.0  0.92452  0.62345  0.18894  1.0000
  S   S304      1.0  0.97509  0.79331  0.19498  1.0000
  C   C2186     1.0  0.92261  0.69569  0.23280  1.0000
  H   H1744     1.0  0.80110  0.85356  0.06491  1.0000
  C   C2187     1.0  0.63326  0.77265  0.25444  1.0000
  H   H1745     1.0  0.64278  0.59389  0.14524  1.0000
  C   C2188     1.0  0.60716  0.89863  0.04008  1.0000
  C   C2189     1.0  0.90247  0.75255  0.17404  1.0000
  C   C2190     1.0  0.91592  0.76385  0.16006  1.0000
  C   C2191     1.0  0.90435  0.77168  0.14414  1.0000
  C   C2192     1.0  0.87916  0.76834  0.14193  1.0000
  C   C2193     1.0  0.86564  0.75734  0.15599  1.0000
  C   C2194     1.0  0.87727  0.74923  0.17186  1.0000
  H   H1746     1.0  0.93532  0.76623  0.16147  1.0000
  H   H1747     1.0  0.91504  0.78027  0.13342  1.0000
  H   H1748     1.0  0.84619  0.75559  0.15473  1.0000
  H   H1749     1.0  0.86659  0.74093  0.18265  1.0000
  C   C2195     1.0  0.59212  0.70324  0.24231  1.0000
  C   C2196     1.0  0.93490  0.93853  0.18809  1.0000
  Fe  Fe154     1.0  0.66892  0.52775  0.08676  1.0000
  C   C2197     1.0  0.72563  0.98032  0.03995  1.0000
  H   H1750     1.0  0.98201  0.90146  0.19665  1.0000
  C   C2198     1.0  0.52515  0.95965  0.12793  1.0000
  C   C2199     1.0  0.95430  0.94924  0.17828  1.0000
  C   C2200     1.0  0.76935  0.72089  0.18846  1.0000
  C   C2201     1.0  0.78582  0.69806  0.18543  1.0000
  C   C2202     1.0  0.78952  0.68736  0.16826  1.0000
  H   H1751     1.0  0.76437  0.68713  0.02021  1.0000
  P   P72       1.0  0.81028  0.65746  0.16414  1.0000
  C   C2203     1.0  0.79389  0.62361  0.16286  1.0000
  C   C2204     1.0  0.82582  0.66372  0.14351  1.0000
  C   C2205     1.0  0.82970  0.64099  0.13136  1.0000
  C   C2206     1.0  0.84218  0.64612  0.11562  1.0000
  C   C2207     1.0  0.85095  0.67386  0.11194  1.0000
  C   C2208     1.0  0.84703  0.69655  0.12390  1.0000
  C   C2209     1.0  0.83415  0.69164  0.13945  1.0000
  C   C2210     1.0  0.80625  0.59700  0.16513  1.0000
  C   C2211     1.0  0.79384  0.57068  0.16365  1.0000
  C   C2212     1.0  0.76904  0.57072  0.15983  1.0000
  C   C2213     1.0  0.74889  0.69954  0.02472  1.0000
  C   C2214     1.0  0.76901  0.62340  0.15887  1.0000
  C   C2215     1.0  0.83226  0.65658  0.18190  1.0000
  H   H1752     1.0  0.51884  0.90955  0.16056  1.0000
  H   H1753     1.0  0.79962  0.83670  0.03406  1.0000
  H   H1754     1.0  0.57561  0.95203  0.18986  1.0000
  H   H1755     1.0  0.76679  0.72933  0.20168  1.0000
  H   H1756     1.0  0.79565  0.68901  0.19649  1.0000
  H   H1757     1.0  0.82273  0.61948  0.13372  1.0000
  H   H1758     1.0  0.84461  0.62876  0.10610  1.0000
  H   H1759     1.0  0.86035  0.67801  0.09967  1.0000
  H   H1760     1.0  0.85361  0.71813  0.12096  1.0000
  H   H1761     1.0  0.83064  0.70969  0.14829  1.0000
  H   H1762     1.0  0.82553  0.59663  0.16783  1.0000
  H   H1763     1.0  0.80344  0.55021  0.16534  1.0000
  C   C2216     1.0  0.57077  0.00577  0.16391  1.0000
  C   C2217     1.0  0.98696  0.87239  0.24955  1.0000
  H   H1764     1.0  0.76323  0.91679  0.01949  1.0000
  C   C2218     1.0  0.68928  0.96453  0.24003  1.0000
  H   H1765     1.0  0.98048  0.79359  0.14798  1.0000
  H   H1766     1.0  0.63337  0.87357  0.02551  1.0000
  C   C2219     1.0  0.77628  0.52432  0.08815  1.0000
  C   C2220     1.0  0.56082  0.70652  0.18314  1.0000
  C   C2221     1.0  0.56360  0.67671  0.17978  1.0000
  C   C2222     1.0  0.55680  0.65622  0.19252  1.0000
  C   C2223     1.0  0.54623  0.66609  0.20835  1.0000
  P   P73       1.0  0.55930  0.61767  0.18775  1.0000
  C   C2224     1.0  0.58558  0.61033  0.17397  1.0000
  C   C2225     1.0  0.56287  0.59843  0.20838  1.0000
  C   C2226     1.0  0.58586  0.58938  0.21431  1.0000
  C   C2227     1.0  0.58835  0.57542  0.23059  1.0000
  C   C2228     1.0  0.56795  0.57042  0.24106  1.0000
  C   C2229     1.0  0.54502  0.57917  0.23521  1.0000
  C   C2230     1.0  0.54249  0.59311  0.21894  1.0000
  C   C2231     1.0  0.60697  0.62631  0.17637  1.0000
  C   C2232     1.0  0.62746  0.62047  0.16599  1.0000
  C   C2233     1.0  0.62685  0.59853  0.15322  1.0000
  C   C2234     1.0  0.60577  0.58238  0.15083  1.0000
  C   C2235     1.0  0.58524  0.58816  0.16115  1.0000
  C   C2236     1.0  0.53177  0.60568  0.17705  1.0000
  H   H1767     1.0  0.77582  0.63928  0.07228  1.0000
  C   C2237     1.0  0.52691  0.57586  0.17561  1.0000
  S   S305      1.0  0.55635  0.51852  0.20539  1.0000
  H   H1768     1.0  0.54846  0.73918  0.20165  1.0000
  H   H1769     1.0  0.56611  0.72219  0.17325  1.0000
  H   H1770     1.0  0.57080  0.66965  0.16717  1.0000
  C   C2238     1.0  0.72109  0.96357  0.05487  1.0000
  H   H1771     1.0  0.60186  0.59258  0.20636  1.0000
  H   H1772     1.0  0.55851  0.00755  0.11975  1.0000
  H   H1773     1.0  0.56980  0.55933  0.25357  1.0000
  H   H1774     1.0  0.52911  0.57475  0.24316  1.0000
  H   H1775     1.0  0.52460  0.59982  0.21460  1.0000
  H   H1776     1.0  0.60791  0.64308  0.18639  1.0000
  H   H1777     1.0  0.67737  0.82604  0.08491  1.0000
  C   C2239     1.0  0.69986  0.00507  0.21376  1.0000
  H   H1778     1.0  0.60543  0.56502  0.14109  1.0000
  H   H1779     1.0  0.56940  0.57493  0.15910  1.0000
  H   H1780     1.0  0.72657  0.97141  0.06774  1.0000
  H   H1781     1.0  0.53948  0.55995  0.18087  1.0000
  H   H1782     1.0  0.90328  0.64592  0.26261  1.0000
  C   C2240     1.0  0.93570  0.85027  0.12800  1.0000
  C   C2241     1.0  0.93525  0.84474  0.14621  1.0000
  C   C2242     1.0  0.95160  0.82438  0.15326  1.0000
  P   P74       1.0  0.91546  0.86551  0.16061  1.0000
  C   C2243     1.0  0.88727  0.87342  0.14933  1.0000
  C   C2244     1.0  0.90894  0.84443  0.18013  1.0000
  C   C2245     1.0  0.88797  0.82737  0.18110  1.0000
  C   C2246     1.0  0.88304  0.81132  0.19630  1.0000
  C   C2247     1.0  0.89913  0.81177  0.21051  1.0000
  C   C2248     1.0  0.92005  0.82856  0.20964  1.0000
  C   C2249     1.0  0.92501  0.84478  0.19454  1.0000
  C   C2250     1.0  0.87707  0.85252  0.13809  1.0000
  C   C2251     1.0  0.85485  0.85788  0.12979  1.0000
  C   C2252     1.0  0.84260  0.88422  0.13259  1.0000
  C   C2253     1.0  0.85266  0.90526  0.14369  1.0000
  C   C2254     1.0  0.87489  0.89990  0.15207  1.0000
  C   C2255     1.0  0.93040  0.89865  0.16722  1.0000
  C   C2256     1.0  0.92294  0.91339  0.18258  1.0000
  H   H1783     1.0  0.69898  0.65503  0.02678  1.0000
  C   C2257     1.0  0.94987  0.90961  0.15740  1.0000
  C   C2258     1.0  0.51178  0.91916  0.25897  1.0000
  H   H1784     1.0  0.92355  0.86626  0.12226  1.0000
  S   S306      1.0  0.61919  0.99251  0.12380  1.0000
  H   H1785     1.0  0.87557  0.82583  0.17011  1.0000
  H   H1786     1.0  0.86714  0.79770  0.19681  1.0000
  H   H1787     1.0  0.89572  0.79852  0.22201  1.0000
  H   H1788     1.0  0.93269  0.82859  0.22059  1.0000
  H   H1789     1.0  0.94162  0.85717  0.19410  1.0000
  H   H1790     1.0  0.88612  0.83181  0.13592  1.0000
  H   H1791     1.0  0.84706  0.84137  0.12130  1.0000
  H   H1792     1.0  0.82526  0.88822  0.12625  1.0000
  H   H1793     1.0  0.84309  0.92565  0.14589  1.0000
  H   H1794     1.0  0.88220  0.91637  0.16071  1.0000
  C   C2259     1.0  0.75304  0.54032  0.06283  1.0000
  H   H1795     1.0  0.95607  0.89873  0.14554  1.0000
  P   P75       1.0  0.58590  0.75483  0.26180  1.0000
  H   H1796     1.0  0.55548  0.99434  0.16941  1.0000
  C   C2260     1.0  0.93347  0.67690  0.22054  1.0000
  C   C2261     1.0  0.99100  0.64910  0.21111  1.0000
  H   H1797     1.0  0.53773  0.84427  0.25054  1.0000
  C   C2262     1.0  0.75625  0.73289  0.17444  1.0000
  H   H1798     1.0  0.65239  0.55297  0.02237  1.0000
  C   C2263     1.0  0.50560  0.56629  0.16755  1.0000
  C   C2264     1.0  0.79288  0.86735  0.05495  1.0000
  C   C2265     1.0  0.86504  0.65711  0.21029  1.0000
  H   H1799     1.0  0.60462  0.53132  0.19371  1.0000
  C   C2266     1.0  0.77243  0.91206  0.04670  1.0000
  C   C2267     1.0  0.67885  0.98815  0.21236  1.0000
  H   H1800     1.0  0.93979  0.66178  0.17672  1.0000
  H   H1801     1.0  0.65966  0.95024  0.13345  1.0000
  C   C2268     1.0  0.52821  0.93361  0.13720  1.0000
  S   S307      1.0  0.70583  0.53601  0.09781  1.0000
  C   C2269     1.0  0.80089  0.66436  0.05724  1.0000
  C   C2270     1.0  0.55877  0.80509  0.25483  1.0000
  C   C2271     1.0  0.78432  0.64184  0.05951  1.0000
  H   H1802     1.0  0.90391  0.69929  0.25763  1.0000
  C   C2272     1.0  0.95190  0.83507  0.11706  1.0000
  H   H1803     1.0  0.49699  0.76537  0.25443  1.0000
  H   H1804     1.0  0.92115  0.61247  0.24071  1.0000
  H   H1805     1.0  0.96905  0.51065  0.23451  1.0000
  C   C2273     1.0  0.54345  0.69589  0.21166  1.0000
  C   C2274     1.0  0.60954  0.76944  0.24803  1.0000
  H   H1806     1.0  0.65149  0.98722  0.04217  1.0000
  C   C2275     1.0  0.71537  0.00178  0.22823  1.0000
  C   C2276     1.0  0.62308  0.93554  0.05960  1.0000
  C   C2277     1.0  0.88935  0.62721  0.16222  1.0000
  H   H1807     1.0  0.98060  0.80288  0.11579  1.0000
  H   H1808     1.0  0.94171  0.56327  0.19213  1.0000
  S   S308      1.0  0.68473  0.51366  0.13610  1.0000
  H   H1809     1.0  0.98119  0.94493  0.26015  1.0000
  H   H1810     1.0  0.61854  0.79344  0.20602  1.0000
  C   C2278     1.0  0.76503  0.56723  0.06298  1.0000
  C   C2279     1.0  0.78320  0.57200  0.07563  1.0000
  P   P76       1.0  0.75497  0.59598  0.04828  1.0000
  C   C2280     1.0  0.77803  0.62361  0.04531  1.0000
  H   H1811     1.0  0.57577  0.81666  0.25542  1.0000
  C   C2281     1.0  0.68869  0.83597  0.07497  1.0000
  H   H1812     1.0  0.68497  0.90732  0.14152  1.0000
  H   H1813     1.0  0.66970  0.78611  0.24855  1.0000
  H   H1814     1.0  0.70984  0.59056  0.02767  1.0000
  C   C2282     1.0  0.62039  0.99851  0.21721  1.0000
  H   H1815     1.0  0.76851  0.71636  0.04709  1.0000
  C   C2283     1.0  0.53578  0.76056  0.25657  1.0000
  C   C2284     1.0  0.90475  0.60441  0.18879  1.0000
  C   C2285     1.0  0.72427  0.57962  0.02061  1.0000
  C   C2286     1.0  0.96803  0.81467  0.12424  1.0000
  C   C2287     1.0  0.72827  0.61279  0.05811  1.0000
  C   C2288     1.0  0.72550  0.64324  0.05863  1.0000
  C   C2289     1.0  0.70590  0.65606  0.06752  1.0000
  C   C2290     1.0  0.68859  0.63864  0.07565  1.0000
  C   C2291     1.0  0.69060  0.60840  0.07457  1.0000
  C   C2292     1.0  0.71025  0.59552  0.06578  1.0000
  C   C2293     1.0  0.58222  0.71640  0.25747  1.0000
  C   C2294     1.0  0.49969  0.97840  0.15146  1.0000
  C   C2295     1.0  0.72830  0.84265  0.06198  1.0000
  H   H1816     1.0  0.57826  0.97306  0.14408  1.0000
  H   H1817     1.0  0.73007  0.87286  0.04052  1.0000
  C   C2296     1.0  0.78852  0.62878  0.02871  1.0000
  H   H1818     1.0  0.82400  0.68681  0.03895  1.0000
  C   C2297     1.0  0.50227  0.95209  0.16046  1.0000
  H   H1819     1.0  0.58503  0.92697  0.05625  1.0000
  C   C2298     1.0  0.70701  0.71529  0.02229  1.0000
  H   H1820     1.0  0.64395  0.63277  0.16785  1.0000
  C   C2299     1.0  0.75951  0.72199  0.15740  1.0000
  C   C2300     1.0  0.58104  0.97616  0.21385  1.0000
  H   H1821     1.0  0.85635  0.68864  0.17051  1.0000
  H   H1822     1.0  0.73851  0.65730  0.05242  1.0000
  H   H1823     1.0  0.70438  0.67954  0.06836  1.0000
  H   H1824     1.0  0.67364  0.64847  0.08285  1.0000
  H   H1825     1.0  0.67704  0.59483  0.08073  1.0000
  H   H1826     1.0  0.71120  0.57208  0.06509  1.0000
  C   C2301     1.0  0.66564  0.94728  0.14696  1.0000
  C   C2302     1.0  0.67984  0.92313  0.15150  1.0000
  C   C2303     1.0  0.68754  0.91947  0.16890  1.0000
  C   C2304     1.0  0.68110  0.93999  0.18179  1.0000
  C   C2305     1.0  0.66707  0.96454  0.17727  1.0000
  C   C2306     1.0  0.65929  0.96789  0.15978  1.0000
  C   C2307     1.0  0.57160  0.51082  0.18518  1.0000
  C   C2308     1.0  0.78301  0.89439  0.05959  1.0000
  C   C2309     1.0  0.61160  0.96993  0.19113  1.0000
  H   H1827     1.0  0.53347  0.96163  0.11509  1.0000
  Fe  Fe155     1.0  0.51590  0.51485  0.21241  1.0000
  C   C2310     1.0  0.90828  0.64719  0.16280  1.0000
  C   C2311     1.0  0.78874  0.55065  0.08816  1.0000
  Fe  Fe156     1.0  0.51113  0.98540  0.23094  1.0000
  C   C2312     1.0  0.98365  0.62766  0.18242  1.0000
  H   H1828     1.0  0.73405  0.00136  0.04132  1.0000
  H   H1829     1.0  0.51786  0.64898  0.17137  1.0000
  H   H1830     1.0  0.78390  0.56041  0.02398  1.0000
  H   H1831     1.0  0.66578  0.62001  0.03026  1.0000
  C   C2313     1.0  0.75860  0.51908  0.07541  1.0000
  H   H1832     1.0  0.84138  0.62600  0.22237  1.0000
  C   C2314     1.0  0.60874  0.51382  0.16739  1.0000
  C   C2315     1.0  0.96354  0.58429  0.23218  1.0000
  H   H1833     1.0  0.49826  0.81899  0.25067  1.0000
  H   H1834     1.0  0.73871  0.53609  0.05340  1.0000
  C   C2316     1.0  0.91148  0.65456  0.25077  1.0000
  H   H1835     1.0  0.53467  0.73733  0.25827  1.0000
  H   H1836     1.0  0.69868  0.90079  0.17233  1.0000
  H   H1837     1.0  0.68524  0.94873  0.25016  1.0000
  H   H1838     1.0  0.64845  0.98663  0.15600  1.0000
  H   H1839     1.0  0.79288  0.59225  0.07618  1.0000
  P   P77       1.0  0.65885  0.99166  0.19358  1.0000
  H   H1840     1.0  0.74360  0.75069  0.17673  1.0000
  H   H1841     1.0  0.80228  0.55485  0.09817  1.0000
  C   C2317     1.0  0.76577  0.56230  0.01858  1.0000
  H   H1842     1.0  0.97689  0.94305  0.15538  1.0000
  H   H1843     1.0  0.90256  0.58855  0.19918  1.0000
  H   H1844     1.0  0.53924  0.91622  0.13167  1.0000
  C   C2318     1.0  0.85276  0.67457  0.18155  1.0000
  H   H1845     1.0  0.80524  0.67850  0.06826  1.0000
  C   C2319     1.0  0.82817  0.63926  0.19684  1.0000
  H   H1846     1.0  0.72614  0.78471  0.02571  1.0000
  C   C2320     1.0  0.79191  0.85779  0.03746  1.0000
  C   C2321     1.0  0.77612  0.69938  0.15431  1.0000
  H   H1847     1.0  0.65786  0.95411  0.22463  1.0000
  H   H1848     1.0  0.74938  0.73127  0.14650  1.0000
  S   S309      1.0  0.65928  0.54300  0.05926  1.0000
  C   C2322     1.0  0.78444  0.99271  0.06153  1.0000
  H   H1849     1.0  0.58628  0.77412  0.22518  1.0000
  C   C2323     1.0  0.78070  0.87502  0.02450  1.0000
  S   S310      1.0  0.52663  0.94865  0.24824  1.0000
  H   H1850     1.0  0.70518  0.92482  0.06514  1.0000
  H   H1851     1.0  0.61662  0.96104  0.17841  1.0000
  C   C2324     1.0  0.75666  0.59705  0.15751  1.0000
  C   C2325     1.0  0.69346  0.86918  0.05035  1.0000
  C   C2326     1.0  0.73151  0.73152  0.04686  1.0000
  C   C2327     1.0  0.65826  0.99457  0.02961  1.0000
  C   C2328     1.0  0.60441  0.77676  0.23044  1.0000
  C   C2329     1.0  0.84462  0.63937  0.21089  1.0000
  C   C2330     1.0  0.67375  0.96774  0.22558  1.0000
  C   C2331     1.0  0.59582  0.51970  0.18311  1.0000
  C   C2332     1.0  0.81141  0.66903  0.04077  1.0000
  H   H1852     1.0  0.77854  0.69129  0.14102  1.0000
  H   H1853     1.0  0.59652  0.66338  0.22750  1.0000
  H   H1854     1.0  0.60604  0.56796  0.23494  1.0000
  H   H1855     1.0  0.74756  0.83767  0.06181  1.0000
  C   C2333     1.0  0.66369  0.53378  0.02374  1.0000
  C   C2334     1.0  0.70888  0.93717  0.05330  1.0000
  H   H1856     1.0  0.72132  0.81447  0.08398  1.0000
  C   C2335     1.0  0.75125  0.71575  0.04023  1.0000
  C   C2336     1.0  0.96454  0.53187  0.22915  1.0000
  C   C2337     1.0  0.65147  0.78350  0.24349  1.0000
  C   C2338     1.0  0.62265  0.78761  0.21953  1.0000
  C   C2339     1.0  0.80533  0.65115  0.02655  1.0000
  C   C2340     1.0  0.71836  0.86251  0.04999  1.0000
  C   C2341     1.0  0.70930  0.73102  0.03801  1.0000
  H   H1857     1.0  0.62017  0.95286  0.06914  1.0000
  C   C2342     1.0  0.96177  0.93480  0.16295  1.0000
  H   H1858     1.0  0.68736  0.93671  0.19514  1.0000
  P   P78       1.0  0.94612  0.62272  0.20683  1.0000
  H   H1859     1.0  0.75937  0.55039  0.15852  1.0000
  C   C2343     1.0  0.71851  0.97037  0.02336  1.0000
  H   H1860     1.0  0.81207  0.62604  0.19780  1.0000
  H   H1861     1.0  0.78356  0.90166  0.07317  1.0000
  C   C2344     1.0  0.55816  0.77480  0.25727  1.0000
  H   H1862     1.0  0.53997  0.65103  0.21822  1.0000
  P   P79       1.0  0.68125  0.89603  0.03532  1.0000
  H   H1863     1.0  0.65946  0.86068  0.06372  1.0000
  H   H1864     1.0  0.76491  0.93305  0.05034  1.0000
  C   C2345     1.0  0.67865  0.85571  0.06294  1.0000
  S   S311      1.0  0.98677  0.72401  0.19991  1.0000
  H   H1865     1.0  0.87766  0.65747  0.22121  1.0000
  H   H1866     1.0  0.88484  0.68873  0.19528  1.0000
  C   C2346     1.0  0.58374  0.99376  0.14953  1.0000
  H   H1867     1.0  0.94167  0.68597  0.20882  1.0000
  H   H1868     1.0  0.57295  0.63377  0.24864  1.0000
  H   H1869     1.0  0.69396  0.74315  0.04325  1.0000
  H   H1870     1.0  0.66159  0.93975  0.06024  1.0000
  H   H1871     1.0  0.59182  0.88733  0.03445  1.0000
  H   H1872     1.0  0.53538  0.70323  0.22397  1.0000
  H   H1873     1.0  0.69957  0.84195  0.01815  1.0000
  C   C2347     1.0  0.74781  0.57837  0.02758  1.0000
  C   C2348     1.0  0.58827  0.96468  0.19759  1.0000
  H   H1874     1.0  0.66029  0.79947  0.21761  1.0000
  C   C2349     1.0  0.55084  0.71611  0.19910  1.0000
  C   C2350     1.0  0.96795  0.80941  0.14236  1.0000
  C   C2351     1.0  0.98092  0.90215  0.24795  1.0000
  C   C2352     1.0  0.92567  0.64552  0.17619  1.0000
  H   H1875     1.0  0.96361  0.96867  0.18262  1.0000
  C   C2353     1.0  0.65074  0.90585  0.04201  1.0000
  H   H1876     1.0  0.56297  0.97200  0.21885  1.0000
  H   H1877     1.0  0.90927  0.66439  0.15307  1.0000
  C   C2354     1.0  0.71008  0.98155  0.24136  1.0000
  C   C2355     1.0  0.51480  0.62585  0.17039  1.0000
  H   H1878     1.0  0.72218  0.97897  0.25252  1.0000
  H   H1879     1.0  0.96530  0.67756  0.25446  1.0000
  C   C2356     1.0  0.97870  0.66326  0.26028  1.0000
  C   C2357     1.0  0.95448  0.53432  0.21228  1.0000
  S   S312      1.0  0.97981  0.84819  0.23179  1.0000
  H   H1880     1.0  0.86253  0.73985  0.01772  1.0000
  C   C2358     1.0  0.77138  0.90256  0.02918  1.0000
  H   H1881     1.0  0.59121  0.00224  0.23612  1.0000
  H   H1882     1.0  0.75266  0.82670  0.02853  1.0000
  C   C2359     1.0  0.50418  0.65468  0.25900  1.0000
  C   C2360     1.0  0.53727  0.82085  0.25214  1.0000
  C   C2361     1.0  0.51428  0.77643  0.25417  1.0000
  C   C2362     1.0  0.79073  0.99697  0.04390  1.0000
  H   H1883     1.0  0.78919  0.97259  0.06816  1.0000
  H   H1884     1.0  0.80054  0.98011  0.03679  1.0000
  C   C2363     1.0  0.67047  0.52433  0.04062  1.0000
  C   C2364     1.0  0.96920  0.55688  0.23904  1.0000
  C   C2365     1.0  0.98603  0.92221  0.26162  1.0000
  H   H1885     1.0  0.98242  0.86130  0.17475  1.0000
  C   C2366     1.0  0.57583  0.65670  0.25117  1.0000
  H   H1886     1.0  0.78350  0.61620  0.01725  1.0000
  H   H1887     1.0  0.87235  0.59111  0.17520  1.0000
  H   H1888     1.0  0.51682  0.66610  0.25067  1.0000
  C   C2367     1.0  0.95254  0.58694  0.21555  1.0000
  H   H1889     1.0  0.50177  0.54321  0.16676  1.0000
  H   H1890     1.0  0.50174  0.61756  0.24145  1.0000
  H   H1891     1.0  0.97212  0.90973  0.23606  1.0000
  H   H1892     1.0  0.97219  0.61582  0.17336  1.0000
  H   H1893     1.0  0.97738  0.55515  0.25203  1.0000
  H   H1894     1.0  0.95140  0.51490  0.20451  1.0000
  C   C2368     1.0  0.51500  0.80659  0.25205  1.0000
  C   C2369     1.0  0.97537  0.63488  0.19941  1.0000
  C   C2370     1.0  0.49581  0.62703  0.25377  1.0000
  C   C2371     1.0  0.60364  0.00835  0.14211  1.0000
  Fe  Fe157     1.0  0.65448  0.00907  0.11146  1.0000
  C   C2372     1.0  0.56609  0.66961  0.26631  1.0000
  H   H1895     1.0  0.61738  0.73493  0.42963  1.0000
  C   C2373     1.0  0.51459  0.87642  0.27837  1.0000
  C   C2374     1.0  0.55558  0.73992  0.43031  1.0000
  C   C2375     1.0  0.82869  0.00784  0.35136  1.0000
  C   C2376     1.0  0.67125  0.83514  0.49711  1.0000
  C   C2377     1.0  0.60647  0.76526  0.32052  1.0000
  Fe  Fe158     1.0  0.51946  0.77381  0.33200  1.0000
  H   H1896     1.0  0.80380  0.86002  0.44128  1.0000
  S   S313      1.0  0.54948  0.78996  0.35039  1.0000
  H   H1897     1.0  0.56147  0.70895  0.28126  1.0000
  C   C2378     1.0  0.72848  0.71216  0.49017  1.0000
  C   C2379     1.0  0.65709  0.73044  0.51314  1.0000
  H   H1898     1.0  0.76610  0.57095  0.38228  1.0000
  S   S314      1.0  0.52211  0.77620  0.30237  1.0000
  H   H1899     1.0  0.49686  0.70743  0.42749  1.0000
  H   H1900     1.0  0.71020  0.86439  0.46757  1.0000
  C   C2380     1.0  0.91504  0.51907  0.36100  1.0000
  H   H1901     1.0  0.81597  0.58073  0.48796  1.0000
  H   H1902     1.0  0.95237  0.63320  0.27063  1.0000
  H   H1903     1.0  0.52605  0.83452  0.37470  1.0000
  Fe  Fe159     1.0  0.79912  0.96915  0.41965  1.0000
  S   S315      1.0  0.79015  0.92396  0.40891  1.0000
  Fe  Fe160     1.0  0.78474  0.53499  0.42992  1.0000
  S   S316      1.0  0.75167  0.56424  0.42564  1.0000
  S   S317      1.0  0.82987  0.97303  0.43895  1.0000
  S   S318      1.0  0.82331  0.54990  0.43038  1.0000
  Fe  Fe161     1.0  0.67466  0.74431  0.45201  1.0000
  S   S319      1.0  0.71242  0.76155  0.44966  1.0000
  S   S320      1.0  0.65733  0.72659  0.47691  1.0000
  Fe  Fe162     1.0  0.66559  0.74696  0.41191  1.0000
  S   S321      1.0  0.70341  0.76380  0.40655  1.0000
  S   S322      1.0  0.63803  0.73001  0.39166  1.0000
  Fe  Fe163     1.0  0.71625  0.73073  0.42665  1.0000
  S   S323      1.0  0.75092  0.70307  0.42578  1.0000
  Fe  Fe164     1.0  0.69686  0.79325  0.43003  1.0000
  S   S324      1.0  0.70319  0.84213  0.43347  1.0000
  S   S325      1.0  0.67940  0.71189  0.43017  1.0000
  S   S326      1.0  0.65822  0.77819  0.43421  1.0000
  C   C2381     1.0  0.66710  0.74080  0.49733  1.0000
  C   C2382     1.0  0.59389  0.75920  0.28480  1.0000
  C   C2383     1.0  0.68452  0.76261  0.49801  1.0000
  H   H1904     1.0  0.51516  0.67664  0.35824  1.0000
  H   H1905     1.0  0.69239  0.77070  0.48596  1.0000
  C   C2384     1.0  0.89973  0.52483  0.39619  1.0000
  H   H1906     1.0  0.70452  0.79181  0.51454  1.0000
  S   S327      1.0  0.50838  0.70207  0.28106  1.0000
  H   H1907     1.0  0.99042  0.52123  0.39896  1.0000
  C   C2385     1.0  0.69797  0.96224  0.47119  1.0000
  C   C2386     1.0  0.76608  0.90139  0.41620  1.0000
  C   C2387     1.0  0.74792  0.91164  0.42758  1.0000
  C   C2388     1.0  0.72896  0.89312  0.43279  1.0000
  C   C2389     1.0  0.72802  0.86408  0.42687  1.0000
  C   C2390     1.0  0.74635  0.85371  0.41568  1.0000
  C   C2391     1.0  0.76516  0.87235  0.41029  1.0000
  H   H1908     1.0  0.74841  0.93384  0.43230  1.0000
  H   H1909     1.0  0.71488  0.90140  0.44141  1.0000
  H   H1910     1.0  0.74582  0.83150  0.41097  1.0000
  H   H1911     1.0  0.77908  0.86420  0.40148  1.0000
  C   C2392     1.0  0.75187  0.60282  0.42632  1.0000
  C   C2393     1.0  0.77295  0.61850  0.42991  1.0000
  C   C2394     1.0  0.77232  0.64919  0.42990  1.0000
  C   C2395     1.0  0.75062  0.66448  0.42643  1.0000
  C   C2396     1.0  0.72949  0.64876  0.42315  1.0000
  C   C2397     1.0  0.73016  0.61813  0.42306  1.0000
  H   H1912     1.0  0.78984  0.60698  0.43217  1.0000
  H   H1913     1.0  0.78874  0.66118  0.43239  1.0000
  H   H1914     1.0  0.71269  0.66018  0.42036  1.0000
  H   H1915     1.0  0.71379  0.60622  0.42021  1.0000
  C   C2398     1.0  0.61339  0.74718  0.38045  1.0000
  C   C2399     1.0  0.59867  0.73033  0.36927  1.0000
  C   C2400     1.0  0.57886  0.74288  0.36014  1.0000
  C   C2401     1.0  0.57358  0.77253  0.36203  1.0000
  C   C2402     1.0  0.58830  0.78936  0.37322  1.0000
  C   C2403     1.0  0.60804  0.77681  0.38240  1.0000
  H   H1916     1.0  0.60265  0.70740  0.36763  1.0000
  H   H1917     1.0  0.56785  0.72970  0.35149  1.0000
  H   H1918     1.0  0.58450  0.81235  0.37473  1.0000
  H   H1919     1.0  0.61916  0.79008  0.39092  1.0000
  H   H1920     1.0  0.77701  0.82388  0.45550  1.0000
  H   H1921     1.0  0.67531  0.83147  0.46889  1.0000
  H   H1922     1.0  0.65601  0.82041  0.49769  1.0000
  C   C2404     1.0  0.70215  0.85965  0.48024  1.0000
  C   C2405     1.0  0.71807  0.67130  0.47150  1.0000
  C   C2406     1.0  0.79106  0.89569  0.45731  1.0000
  H   H1923     1.0  0.74902  0.83902  0.47914  1.0000
  H   H1924     1.0  0.92077  0.51683  0.34741  1.0000
  H   H1925     1.0  0.94230  0.59567  0.43914  1.0000
  H   H1926     1.0  0.62730  0.72592  0.31703  1.0000
  H   H1927     1.0  0.51771  0.78481  0.38446  1.0000
  H   H1928     1.0  0.58320  0.75246  0.41157  1.0000
  C   C2407     1.0  0.60933  0.73877  0.29294  1.0000
  C   C2408     1.0  0.68044  0.84736  0.51260  1.0000
  C   C2409     1.0  0.50346  0.72777  0.38970  1.0000
  C   C2410     1.0  0.53881  0.99330  0.29704  1.0000
  C   C2411     1.0  0.97142  0.63811  0.26949  1.0000
  H   H1929     1.0  0.61113  0.76752  0.33435  1.0000
  H   H1930     1.0  0.89395  0.52711  0.40974  1.0000
  C   C2412     1.0  0.98853  0.61909  0.27720  1.0000
  C   C2413     1.0  0.70590  0.67189  0.50219  1.0000
  H   H1931     1.0  0.80300  0.88717  0.31897  1.0000
  H   H1932     1.0  0.55547  0.67768  0.37280  1.0000
  C   C2414     1.0  0.88303  0.51639  0.38333  1.0000
  H   H1933     1.0  0.54417  0.97340  0.30365  1.0000
  C   C2415     1.0  0.80501  0.56648  0.38357  1.0000
  C   C2416     1.0  0.78316  0.58207  0.38421  1.0000
  C   C2417     1.0  0.78323  0.61180  0.38808  1.0000
  C   C2418     1.0  0.80510  0.62586  0.39166  1.0000
  C   C2419     1.0  0.82718  0.61042  0.39072  1.0000
  C   C2420     1.0  0.82690  0.58058  0.38691  1.0000
  P   P80       1.0  0.85522  0.62729  0.39720  1.0000
  C   C2421     1.0  0.85406  0.66596  0.39333  1.0000
  C   C2422     1.0  0.85846  0.61900  0.42032  1.0000
  C   C2423     1.0  0.87226  0.59484  0.42581  1.0000
  C   C2424     1.0  0.87337  0.58749  0.44369  1.0000
  C   C2425     1.0  0.86044  0.60390  0.45613  1.0000
  C   C2426     1.0  0.84637  0.62769  0.45072  1.0000
  C   C2427     1.0  0.84519  0.63506  0.43287  1.0000
  C   C2428     1.0  0.84266  0.67686  0.37814  1.0000
  C   C2429     1.0  0.84155  0.70685  0.37513  1.0000
  C   C2430     1.0  0.85222  0.72609  0.38707  1.0000
  C   C2431     1.0  0.86425  0.71533  0.40194  1.0000
  C   C2432     1.0  0.86534  0.68535  0.40501  1.0000
  C   C2433     1.0  0.88062  0.61407  0.38433  1.0000
  C   C2434     1.0  0.90431  0.61602  0.39105  1.0000
  C   C2435     1.0  0.92408  0.60633  0.38099  1.0000
  C   C2436     1.0  0.92040  0.59525  0.36404  1.0000
  C   C2437     1.0  0.89696  0.59372  0.35715  1.0000
  C   C2438     1.0  0.87713  0.60330  0.36718  1.0000
  H   H1934     1.0  0.75942  0.66157  0.50257  1.0000
  C   C2439     1.0  0.88062  0.93738  0.41180  1.0000
  H   H1935     1.0  0.76620  0.62366  0.38918  1.0000
  H   H1936     1.0  0.80453  0.64848  0.39566  1.0000
  H   H1937     1.0  0.84360  0.56806  0.38695  1.0000
  H   H1938     1.0  0.88136  0.58097  0.41627  1.0000
  H   H1939     1.0  0.88333  0.56828  0.44786  1.0000
  H   H1940     1.0  0.86075  0.59755  0.46988  1.0000
  H   H1941     1.0  0.83593  0.64000  0.46031  1.0000
  H   H1942     1.0  0.83352  0.65291  0.42880  1.0000
  H   H1943     1.0  0.83446  0.66221  0.36869  1.0000
  H   H1944     1.0  0.83233  0.71516  0.36355  1.0000
  H   H1945     1.0  0.85121  0.74933  0.38478  1.0000
  H   H1946     1.0  0.87269  0.73026  0.41111  1.0000
  H   H1947     1.0  0.87497  0.67738  0.41647  1.0000
  H   H1948     1.0  0.90750  0.62491  0.40406  1.0000
  H   H1949     1.0  0.94231  0.60708  0.38630  1.0000
  H   H1950     1.0  0.93573  0.58740  0.35634  1.0000
  H   H1951     1.0  0.89419  0.58480  0.34407  1.0000
  H   H1952     1.0  0.85915  0.60220  0.36150  1.0000
  C   C2440     1.0  0.75159  0.89907  0.51574  1.0000
  S   S328      1.0  0.77474  0.99971  0.43453  1.0000
  H   H1953     1.0  0.80689  0.84025  0.33484  1.0000
  H   H1954     1.0  0.73857  0.70818  0.46281  1.0000
  C   C2441     1.0  0.80418  0.59889  0.49123  1.0000
  C   C2442     1.0  0.73889  0.56630  0.50588  1.0000
  H   H1955     1.0  0.55110  0.86731  0.39310  1.0000
  C   C2443     1.0  0.70561  0.93487  0.47704  1.0000
  P   P81       1.0  0.53073  0.75255  0.41669  1.0000
  C   C2444     1.0  0.71158  0.87201  0.49570  1.0000
  H   H1956     1.0  0.66678  0.57093  0.42849  1.0000
  H   H1957     1.0  0.70939  0.59390  0.51422  1.0000
  H   H1958     1.0  0.57264  0.79864  0.28909  1.0000
  H   H1959     1.0  0.97609  0.62448  0.42673  1.0000
  C   C2445     1.0  0.83980  0.98168  0.35639  1.0000
  C   C2446     1.0  0.85628  0.96756  0.34505  1.0000
  C   C2447     1.0  0.86070  0.97945  0.32832  1.0000
  P   P82       1.0  0.87036  0.93352  0.35145  1.0000
  C   C2448     1.0  0.87483  0.93419  0.37506  1.0000
  C   C2449     1.0  0.85055  0.90383  0.34582  1.0000
  C   C2450     1.0  0.85286  0.87707  0.35457  1.0000
  C   C2451     1.0  0.83716  0.85423  0.35060  1.0000
  C   C2452     1.0  0.81919  0.85788  0.33779  1.0000
  C   C2453     1.0  0.81698  0.88433  0.32887  1.0000
  C   C2454     1.0  0.83261  0.90725  0.33283  1.0000
  C   C2455     1.0  0.89665  0.94415  0.38237  1.0000
  C   C2456     1.0  0.89952  0.94557  0.40067  1.0000
  C   C2457     1.0  0.63186  0.64159  0.51294  1.0000
  H   H1960     1.0  0.80500  0.54327  0.38099  1.0000
  C   C2458     1.0  0.85590  0.92595  0.38639  1.0000
  C   C2459     1.0  0.89928  0.92927  0.34035  1.0000
  C   C2460     1.0  0.91453  0.95333  0.33840  1.0000
  C   C2461     1.0  0.93655  0.95064  0.32939  1.0000
  C   C2462     1.0  0.94363  0.92384  0.32226  1.0000
  C   C2463     1.0  0.92867  0.89967  0.32421  1.0000
  C   C2464     1.0  0.90657  0.90231  0.33323  1.0000
  H   H1961     1.0  0.68539  0.57444  0.45789  1.0000
  C   C2465     1.0  0.66636  0.62000  0.49764  1.0000
  C   C2466     1.0  0.68217  0.84120  0.48094  1.0000
  H   H1962     1.0  0.83573  0.97288  0.36925  1.0000
  H   H1963     1.0  0.87292  0.96873  0.31915  1.0000
  H   H1964     1.0  0.86664  0.87397  0.36459  1.0000
  H   H1965     1.0  0.83879  0.83379  0.35759  1.0000
  C   C2467     1.0  0.58483  0.78271  0.29479  1.0000
  S   S329      1.0  0.79248  0.00373  0.48127  1.0000
  H   H1966     1.0  0.83051  0.92761  0.32585  1.0000
  H   H1967     1.0  0.91124  0.95173  0.37411  1.0000
  H   H1968     1.0  0.91599  0.95439  0.40624  1.0000
  H   H1969     1.0  0.56764  0.84990  0.42168  1.0000
  C   C2468     1.0  0.61559  0.74183  0.31072  1.0000
  H   H1970     1.0  0.83853  0.91914  0.38120  1.0000
  H   H1971     1.0  0.90927  0.97432  0.34369  1.0000
  H   H1972     1.0  0.94799  0.96951  0.32778  1.0000
  H   H1973     1.0  0.96064  0.92190  0.31513  1.0000
  H   H1974     1.0  0.93418  0.87896  0.31857  1.0000
  H   H1975     1.0  0.89525  0.88336  0.33443  1.0000
  C   C2469     1.0  0.59899  0.73300  0.43454  1.0000
  C   C2470     1.0  0.80697  0.00710  0.50201  1.0000
  H   H1976     1.0  0.56266  0.71020  0.39788  1.0000
  C   C2471     1.0  0.78494  0.63003  0.51318  1.0000
  H   H1977     1.0  0.65546  0.66539  0.49586  1.0000
  H   H1978     1.0  0.75579  0.95557  0.50009  1.0000
  C   C2472     1.0  0.59104  0.78559  0.31258  1.0000
  C   C2473     1.0  0.57953  0.74278  0.42428  1.0000
  C   C2474     1.0  0.97845  0.60136  0.42897  1.0000
  C   C2475     1.0  0.71674  0.69901  0.50435  1.0000
  H   H1979     1.0  0.58351  0.80333  0.32037  1.0000
  P   P83       1.0  0.69142  0.62359  0.48253  1.0000
  C   C2476     1.0  0.56940  0.69926  0.26952  1.0000
  C   C2477     1.0  0.71518  0.59696  0.48613  1.0000
  C   C2478     1.0  0.72006  0.58644  0.50313  1.0000
  H   H1980     1.0  0.76774  0.54122  0.49381  1.0000
  C   C2479     1.0  0.75307  0.55674  0.49171  1.0000
  C   C2480     1.0  0.74865  0.56765  0.47484  1.0000
  C   C2481     1.0  0.73008  0.58801  0.47210  1.0000
  C   C2482     1.0  0.77474  0.90467  0.47038  1.0000
  H   H1981     1.0  0.68223  0.96414  0.46271  1.0000
  C   C2483     1.0  0.67814  0.62067  0.46086  1.0000
  C   C2484     1.0  0.67748  0.59376  0.45205  1.0000
  C   C2485     1.0  0.66662  0.59156  0.43544  1.0000
  C   C2486     1.0  0.65578  0.61600  0.42774  1.0000
  C   C2487     1.0  0.65557  0.64257  0.43672  1.0000
  C   C2488     1.0  0.66672  0.64497  0.45322  1.0000
  H   H1982     1.0  0.55547  0.65684  0.27546  1.0000
  H   H1983     1.0  0.74202  0.00357  0.48973  1.0000
  C   C2489     1.0  0.54081  0.69136  0.37769  1.0000
  H   H1984     1.0  0.75987  0.56076  0.46385  1.0000
  H   H1985     1.0  0.72747  0.59677  0.45901  1.0000
  H   H1986     1.0  0.55885  0.80033  0.43199  1.0000
  H   H1987     1.0  0.64751  0.61438  0.41482  1.0000
  H   H1988     1.0  0.64687  0.66141  0.43081  1.0000
  H   H1989     1.0  0.66637  0.66578  0.46001  1.0000
  C   C2490     1.0  0.73156  0.98445  0.48649  1.0000
  C   C2491     1.0  0.77673  0.84631  0.45994  1.0000
  C   C2492     1.0  0.72945  0.69808  0.47383  1.0000
  C   C2493     1.0  0.71096  0.98699  0.47591  1.0000
  H   H1990     1.0  0.71867  0.66094  0.45867  1.0000
  C   C2494     1.0  0.93186  0.52694  0.37390  1.0000
  H   H1991     1.0  0.60998  0.71356  0.45908  1.0000
  S   S330      1.0  0.84781  0.53556  0.47835  1.0000
  C   C2495     1.0  0.54485  0.71004  0.39196  1.0000
  C   C2496     1.0  0.57101  0.71792  0.45723  1.0000
  C   C2497     1.0  0.55143  0.72733  0.44687  1.0000
  C   C2498     1.0  0.53749  0.78876  0.40904  1.0000
  C   C2499     1.0  0.55151  0.80752  0.41948  1.0000
  C   C2500     1.0  0.55635  0.83578  0.41377  1.0000
  C   C2501     1.0  0.54698  0.84564  0.39772  1.0000
  S   S331      1.0  0.81319  0.00466  0.40193  1.0000
  C   C2502     1.0  0.52809  0.79888  0.39299  1.0000
  C   C2503     1.0  0.52617  0.72841  0.39811  1.0000
  H   H1992     1.0  0.52539  0.86209  0.28656  1.0000
  H   H1993     1.0  0.70533  0.00804  0.47111  1.0000
  S   S332      1.0  0.96281  0.53280  0.36886  1.0000
  H   H1994     1.0  0.56783  0.70848  0.47008  1.0000
  H   H1995     1.0  0.53322  0.72495  0.45192  1.0000
  C   C2504     1.0  0.70048  0.86579  0.51192  1.0000
  C   C2505     1.0  0.52547  0.90027  0.26978  1.0000
  H   H1996     1.0  0.98101  0.97681  0.36973  1.0000
  S   S333      1.0  0.97804  0.58645  0.28735  1.0000
  C   C2506     1.0  0.98451  0.54162  0.43452  1.0000
  Fe  Fe165     1.0  0.98318  0.52735  0.34276  1.0000
  C   C2507     1.0  0.79187  0.86661  0.45195  1.0000
  P   P84       1.0  0.73704  0.89654  0.49447  1.0000
  H   H1997     1.0  0.80245  0.91153  0.45083  1.0000
  C   C2508     1.0  0.79239  0.61412  0.47781  1.0000
  C   C2509     1.0  0.77642  0.63685  0.48199  1.0000
  C   C2510     1.0  0.73927  0.95713  0.49239  1.0000
  H   H1998     1.0  0.79508  0.60765  0.46420  1.0000
  H   H1999     1.0  0.76681  0.64807  0.47152  1.0000
  C   C2511     1.0  0.59477  0.72075  0.45106  1.0000
  C   C2512     1.0  0.69136  0.77459  0.51428  1.0000
  C   C2513     1.0  0.53275  0.82725  0.38741  1.0000
  H   H2000     1.0  0.50814  0.97360  0.28416  1.0000
  C   C2514     1.0  0.83578  0.52581  0.49916  1.0000
  C   C2515     1.0  0.80032  0.60654  0.50885  1.0000
  H   H2001     1.0  0.69516  0.99556  0.39176  1.0000
  H   H2002     1.0  0.73637  0.73349  0.49173  1.0000
  C   C2516     1.0  0.89078  0.51373  0.36573  1.0000
  C   C2517     1.0  0.51814  0.69080  0.36948  1.0000
  C   C2518     1.0  0.76060  0.85513  0.47319  1.0000
  C   C2519     1.0  0.92407  0.52992  0.39150  1.0000
  C   C2520     1.0  0.75903  0.88455  0.47822  1.0000
  C   C2521     1.0  0.72631  0.93207  0.48774  1.0000
  H   H2003     1.0  0.69707  0.66205  0.51339  1.0000
  H   H2004     1.0  0.84397  0.92169  0.41326  1.0000
  H   H2005     1.0  0.77981  0.86742  0.50980  1.0000
  H   H2006     1.0  0.77425  0.92744  0.47402  1.0000
  C   C2522     1.0  0.95944  0.58515  0.43596  1.0000
  Fe  Fe166     1.0  0.82734  0.52054  0.45401  1.0000
  C   C2523     1.0  0.77245  0.64458  0.49962  1.0000
  C   C2524     1.0  0.65988  0.59261  0.50416  1.0000
  H   H2007     1.0  0.69553  0.91602  0.47286  1.0000
  C   C2525     1.0  0.51842  0.99338  0.28610  1.0000
  C   C2526     1.0  0.85886  0.92745  0.40466  1.0000
  H   H2008     1.0  0.64360  0.71355  0.51272  1.0000
  H   H2009     1.0  0.88254  0.93972  0.42595  1.0000
  C   C2527     1.0  0.70591  0.65822  0.48560  1.0000
  H   H2010     1.0  0.61649  0.72038  0.28558  1.0000
  C   C2528     1.0  0.49944  0.70894  0.37553  1.0000
  H   H2011     1.0  0.54466  0.90406  0.27149  1.0000
  H   H2012     1.0  0.93696  0.53610  0.40155  1.0000
  H   H2013     1.0  0.98584  0.00323  0.39805  1.0000
  S   S334      1.0  0.97074  0.51661  0.31527  1.0000
  H   H2014     1.0  0.98655  0.51843  0.43661  1.0000
  C   C2529     1.0  0.96250  0.55533  0.43880  1.0000
  H   H2015     1.0  0.63778  0.76699  0.26788  1.0000
  Fe  Fe167     1.0  0.80633  0.00584  0.45303  1.0000
  H   H2016     1.0  0.94767  0.54287  0.44417  1.0000
  C   C2530     1.0  0.50254  0.75394  0.42891  1.0000
  S   S335      1.0  0.49852  0.73173  0.33208  1.0000
  Fe  Fe168     1.0  0.49873  0.73588  0.30236  1.0000
  H   H2017     1.0  0.62089  0.66058  0.51615  1.0000
  H   H2018     1.0  0.86104  0.55203  0.51383  1.0000
  H   H2019     1.0  0.67004  0.57329  0.50040  1.0000
  C   C2531     1.0  0.65166  0.64429  0.50158  1.0000
  C   C2532     1.0  0.84585  0.53738  0.51469  1.0000
  H   H2020     1.0  0.50216  0.80077  0.43261  1.0000
  H   H2021     1.0  0.77346  0.00061  0.51608  1.0000
  C   C2533     1.0  0.63998  0.58993  0.51548  1.0000
  C   C2534     1.0  0.49624  0.66773  0.27484  1.0000
  C   C2535     1.0  0.84968  0.00571  0.32338  1.0000
  H   H2022     1.0  0.59046  0.79810  0.69822  1.0000
  H   H2023     1.0  0.78798  0.69570  0.51845  1.0000
  H   H2024     1.0  0.72985  0.00766  0.55458  1.0000
  S   S336      1.0  0.95545  0.00208  0.67062  1.0000
  H   H2025     1.0  0.93941  0.95711  0.59452  1.0000
  C   C2536     1.0  0.52354  0.79322  0.66034  1.0000
  Fe  Fe169     1.0  0.81362  0.55355  0.61120  1.0000
  S   S337      1.0  0.84403  0.54244  0.59249  1.0000
  S   S338      1.0  0.80718  0.60093  0.61892  1.0000
  Fe  Fe170     1.0  0.78354  0.96951  0.60115  1.0000
  S   S339      1.0  0.82439  0.97165  0.59971  1.0000
  S   S340      1.0  0.75974  0.93133  0.59319  1.0000
  H   H2026     1.0  0.76616  0.54309  0.56249  1.0000
  C   C2537     1.0  0.57434  0.84116  0.69790  1.0000
  H   H2027     1.0  0.67231  0.84194  0.52519  1.0000
  C   C2538     1.0  0.92984  0.89260  0.73652  1.0000
  H   H2028     1.0  0.94654  0.70628  0.65249  1.0000
  C   C2539     1.0  0.98368  0.60282  0.65228  1.0000
  Fe  Fe171     1.0  0.65494  0.75216  0.61150  1.0000
  S   S341      1.0  0.68906  0.73927  0.62593  1.0000
  S   S342      1.0  0.61584  0.75009  0.62186  1.0000
  Fe  Fe172     1.0  0.68316  0.76686  0.57741  1.0000
  S   S343      1.0  0.71892  0.75570  0.58982  1.0000
  S   S344      1.0  0.68707  0.78454  0.54963  1.0000
  Fe  Fe173     1.0  0.70016  0.71650  0.60067  1.0000
  S   S345      1.0  0.71237  0.66993  0.59460  1.0000
  Fe  Fe174     1.0  0.70490  0.77975  0.61353  1.0000
  S   S346      1.0  0.72876  0.81149  0.62861  1.0000
  S   S347      1.0  0.66485  0.72666  0.58698  1.0000
  S   S348      1.0  0.67026  0.79382  0.60050  1.0000
  S   S349      1.0  0.52800  0.73232  0.73921  1.0000
  C   C2540     1.0  0.58124  0.81484  0.70584  1.0000
  H   H2029     1.0  0.98611  0.93696  0.66319  1.0000
  C   C2541     1.0  0.62408  0.53196  0.73044  1.0000
  Fe  Fe175     1.0  0.53560  0.74159  0.71047  1.0000
  S   S350      1.0  0.57492  0.73920  0.70072  1.0000
  C   C2542     1.0  0.73727  0.51544  0.63913  1.0000
  H   H2030     1.0  0.96685  0.69410  0.70669  1.0000
  H   H2031     1.0  0.97464  0.74209  0.74371  1.0000
  H   H2032     1.0  0.83167  0.64425  0.52540  1.0000
  C   C2543     1.0  0.64465  0.58593  0.61610  1.0000
  C   C2544     1.0  0.60502  0.74659  0.64393  1.0000
  C   C2545     1.0  0.57985  0.74513  0.64690  1.0000
  C   C2546     1.0  0.57038  0.74249  0.66411  1.0000
  C   C2547     1.0  0.58594  0.74188  0.67867  1.0000
  C   C2548     1.0  0.61112  0.74342  0.67572  1.0000
  C   C2549     1.0  0.62063  0.74557  0.65848  1.0000
  H   H2033     1.0  0.56757  0.74582  0.63579  1.0000
  H   H2034     1.0  0.55105  0.74073  0.66611  1.0000
  H   H2035     1.0  0.62338  0.74285  0.68684  1.0000
  H   H2036     1.0  0.64002  0.74666  0.65646  1.0000
  C   C2550     1.0  0.75145  0.89845  0.60369  1.0000
  C   C2551     1.0  0.73437  0.88058  0.59532  1.0000
  C   C2552     1.0  0.72710  0.85418  0.60295  1.0000
  C   C2553     1.0  0.73725  0.84496  0.61888  1.0000
  C   C2554     1.0  0.75450  0.86270  0.62724  1.0000
  C   C2555     1.0  0.76152  0.88941  0.61973  1.0000
  H   H2037     1.0  0.72651  0.88731  0.58290  1.0000
  H   H2038     1.0  0.71365  0.84090  0.59648  1.0000
  H   H2039     1.0  0.76239  0.85577  0.63960  1.0000
  H   H2040     1.0  0.77472  0.90292  0.62630  1.0000
  C   C2556     1.0  0.78134  0.62044  0.61145  1.0000
  C   C2557     1.0  0.76449  0.60776  0.60008  1.0000
  C   C2558     1.0  0.74372  0.62351  0.59488  1.0000
  C   C2559     1.0  0.73943  0.65192  0.60107  1.0000
  C   C2560     1.0  0.75646  0.66483  0.61220  1.0000
  C   C2561     1.0  0.77737  0.64913  0.61734  1.0000
  H   H2041     1.0  0.76736  0.58577  0.59541  1.0000
  H   H2042     1.0  0.73079  0.61355  0.58612  1.0000
  H   H2043     1.0  0.75332  0.68667  0.61706  1.0000
  H   H2044     1.0  0.79031  0.65909  0.62616  1.0000
  C   C2562     1.0  0.66389  0.74259  0.52948  1.0000
  C   C2563     1.0  0.68063  0.76526  0.53003  1.0000
  C   C2564     1.0  0.99094  0.65372  0.75324  1.0000
  H   H2045     1.0  0.65547  0.73527  0.54155  1.0000
  C   C2565     1.0  0.55560  0.89887  0.66804  1.0000
  H   H2046     1.0  0.50453  0.85166  0.73751  1.0000
  C   C2566     1.0  0.83072  0.64222  0.53959  1.0000
  H   H2047     1.0  0.79801  0.86922  0.53957  1.0000
  C   C2567     1.0  0.62396  0.54557  0.76641  1.0000
  C   C2568     1.0  0.80302  0.00741  0.53410  1.0000
  H   H2048     1.0  0.82192  0.70417  0.55186  1.0000
  C   C2569     1.0  0.90007  0.51060  0.67306  1.0000
  C   C2570     1.0  0.56518  0.58736  0.76096  1.0000
  C   C2571     1.0  0.83648  0.52985  0.53136  1.0000
  H   H2049     1.0  0.70722  0.87487  0.52411  1.0000
  C   C2572     1.0  0.85229  0.64159  0.54932  1.0000
  S   S351      1.0  0.78047  0.99995  0.62437  1.0000
  H   H2050     1.0  0.61070  0.61243  0.52876  1.0000
  P   P85       1.0  0.69873  0.52384  0.61589  1.0000
  H   H2051     1.0  0.95872  0.64204  0.70419  1.0000
  H   H2052     1.0  0.78008  0.90109  0.56262  1.0000
  H   H2053     1.0  0.80927  0.59395  0.51907  1.0000
  C   C2573     1.0  0.67483  0.60072  0.59486  1.0000
  S   S352      1.0  0.77808  0.00572  0.58164  1.0000
  C   C2574     1.0  0.50105  0.84179  0.76503  1.0000
  H   H2054     1.0  0.88904  0.99705  0.62730  1.0000
  P   P86       1.0  0.78015  0.63963  0.53606  1.0000
  C   C2575     1.0  0.75195  0.91778  0.54574  1.0000
  H   H2055     1.0  0.74421  0.93156  0.55596  1.0000
  C   C2576     1.0  0.65199  0.82500  0.67529  1.0000
  H   H2056     1.0  0.53678  0.93929  0.66303  1.0000
  H   H2057     1.0  0.97814  0.66668  0.74577  1.0000
  H   H2058     1.0  0.72674  0.82348  0.53257  1.0000
  C   C2577     1.0  0.90670  0.90175  0.73134  1.0000
  H   H2059     1.0  0.90472  0.91829  0.72126  1.0000
  H   H2060     1.0  0.86828  0.89655  0.73500  1.0000
  H   H2061     1.0  0.89450  0.55864  0.62665  1.0000
  C   C2578     1.0  0.54248  0.61944  0.74145  1.0000
  H   H2062     1.0  0.75662  0.59624  0.63999  1.0000
  H   H2063     1.0  0.93062  0.56382  0.64538  1.0000
  H   H2064     1.0  0.78059  0.55949  0.65636  1.0000
  C   C2579     1.0  0.65322  0.60619  0.60393  1.0000
  C   C2580     1.0  0.96069  0.68525  0.69421  1.0000
  C   C2581     1.0  0.88114  0.00837  0.67121  1.0000
  H   H2065     1.0  0.54983  0.66516  0.74389  1.0000
  C   C2582     1.0  0.89349  0.00021  0.64105  1.0000
  C   C2583     1.0  0.91098  0.56809  0.71752  1.0000
  C   C2584     1.0  0.97198  0.77441  0.76414  1.0000
  C   C2585     1.0  0.77225  0.90053  0.54953  1.0000
  H   H2066     1.0  0.98935  0.61705  0.73528  1.0000
  C   C2586     1.0  0.73117  0.56519  0.62966  1.0000
  H   H2067     1.0  0.86960  0.64253  0.54260  1.0000
  C   C2587     1.0  0.97017  0.98026  0.60487  1.0000
  H   H2068     1.0  0.61719  0.89053  0.66798  1.0000
  H   H2069     1.0  0.86611  0.70494  0.55806  1.0000
  H   H2070     1.0  0.57454  0.96730  0.65847  1.0000
  C   C2588     1.0  0.87486  0.00463  0.65335  1.0000
  H   H2071     1.0  0.50135  0.90524  0.74183  1.0000
  C   C2589     1.0  0.60210  0.53692  0.73921  1.0000
  C   C2590     1.0  0.62870  0.83402  0.68038  1.0000
  H   H2072     1.0  0.54664  0.79803  0.68274  1.0000
  C   C2591     1.0  0.54786  0.59146  0.74759  1.0000
  H   H2073     1.0  0.68114  0.52372  0.65214  1.0000
  H   H2074     1.0  0.85913  0.62864  0.65424  1.0000
  C   C2592     1.0  0.77196  0.88170  0.51967  1.0000
  Fe  Fe176     1.0  0.50387  0.77242  0.73871  1.0000
  H   H2075     1.0  0.93537  0.75631  0.72986  1.0000
  H   H2076     1.0  0.50387  0.79173  0.63590  1.0000
  H   H2077     1.0  0.98125  0.96076  0.60593  1.0000
  C   C2593     1.0  0.76421  0.80982  0.53413  1.0000
  H   H2078     1.0  0.76654  0.80866  0.51997  1.0000
  C   C2594     1.0  0.93055  0.56480  0.72907  1.0000
  H   H2079     1.0  0.91040  0.79583  0.74294  1.0000
  H   H2080     1.0  0.50917  0.83945  0.69579  1.0000
  C   C2595     1.0  0.57555  0.94433  0.66155  1.0000
  H   H2081     1.0  0.96890  0.57047  0.73279  1.0000
  C   C2596     1.0  0.65605  0.81432  0.65827  1.0000
  C   C2597     1.0  0.95731  0.70354  0.67973  1.0000
  C   C2598     1.0  0.65793  0.56044  0.61947  1.0000
  C   C2599     1.0  0.80827  0.63978  0.54820  1.0000
  C   C2600     1.0  0.55096  0.83706  0.64477  1.0000
  C   C2601     1.0  0.55441  0.64348  0.74850  1.0000
  H   H2082     1.0  0.52859  0.83022  0.62183  1.0000
  H   H2083     1.0  0.95062  0.86457  0.75341  1.0000
  S   S353      1.0  0.51396  0.78322  0.71089  1.0000
  H   H2084     1.0  0.85858  0.59045  0.63116  1.0000
  H   H2085     1.0  0.62797  0.59038  0.62321  1.0000
  C   C2602     1.0  0.94649  0.97810  0.59839  1.0000
  H   H2086     1.0  0.89324  0.56031  0.72128  1.0000
  H   H2087     1.0  0.76917  0.74436  0.52248  1.0000
  H   H2088     1.0  0.93854  0.65374  0.64958  1.0000
  C   C2603     1.0  0.59813  0.93045  0.66298  1.0000
  H   H2089     1.0  0.89915  0.58169  0.69198  1.0000
  H   H2090     1.0  0.86821  0.63820  0.57524  1.0000
  Fe  Fe177     1.0  0.82132  0.00472  0.62169  1.0000
  H   H2091     1.0  0.51296  0.77611  0.66637  1.0000
  C   C2604     1.0  0.95608  0.65548  0.69269  1.0000
  C   C2605     1.0  0.75116  0.57366  0.63974  1.0000
  C   C2606     1.0  0.93515  0.80385  0.76453  1.0000
  C   C2607     1.0  0.85154  0.63924  0.56769  1.0000
  C   C2608     1.0  0.56227  0.86241  0.70809  1.0000
  S   S354      1.0  0.78714  0.52413  0.59802  1.0000
  H   H2092     1.0  0.88874  0.51765  0.68394  1.0000
  C   C2609     1.0  0.57822  0.88477  0.66954  1.0000
  C   C2610     1.0  0.80767  0.63848  0.56667  1.0000
  C   C2611     1.0  0.73875  0.82024  0.55939  1.0000
  C   C2612     1.0  0.74183  0.81837  0.54116  1.0000
  H   H2093     1.0  0.53898  0.88693  0.67005  1.0000
  C   C2613     1.0  0.78361  0.80340  0.54540  1.0000
  C   C2614     1.0  0.78046  0.80480  0.56377  1.0000
  C   C2615     1.0  0.75796  0.81348  0.57067  1.0000
  P   P87       1.0  0.80615  0.80080  0.57817  1.0000
  C   C2616     1.0  0.79656  0.78975  0.59986  1.0000
  C   C2617     1.0  0.82553  0.77147  0.57072  1.0000
  C   C2618     1.0  0.85039  0.77139  0.57471  1.0000
  C   C2619     1.0  0.86502  0.74761  0.56993  1.0000
  C   C2620     1.0  0.85483  0.72352  0.56151  1.0000
  C   C2621     1.0  0.82998  0.72314  0.55792  1.0000
  C   C2622     1.0  0.81535  0.74695  0.56256  1.0000
  C   C2623     1.0  0.80579  0.80312  0.61509  1.0000
  C   C2624     1.0  0.79798  0.79429  0.63177  1.0000
  C   C2625     1.0  0.78137  0.77167  0.63335  1.0000
  C   C2626     1.0  0.77275  0.75764  0.61828  1.0000
  C   C2627     1.0  0.78038  0.76654  0.60159  1.0000
  C   C2628     1.0  0.81958  0.83645  0.57806  1.0000
  C   C2629     1.0  0.80859  0.85908  0.58775  1.0000
  C   C2630     1.0  0.81767  0.88732  0.58688  1.0000
  C   C2631     1.0  0.83728  0.89344  0.57590  1.0000
  C   C2632     1.0  0.84787  0.87124  0.56577  1.0000
  C   C2633     1.0  0.83896  0.84285  0.56675  1.0000
  H   H2094     1.0  0.72132  0.82679  0.56480  1.0000
  H   H2095     1.0  0.72152  0.54869  0.56292  1.0000
  H   H2096     1.0  0.89556  0.63510  0.67292  1.0000
  H   H2097     1.0  0.80112  0.79781  0.53982  1.0000
  H   H2098     1.0  0.75529  0.81538  0.58476  1.0000
  H   H2099     1.0  0.85835  0.78942  0.58181  1.0000
  H   H2100     1.0  0.88420  0.74763  0.57304  1.0000
  H   H2101     1.0  0.79600  0.74588  0.56020  1.0000
  H   H2102     1.0  0.81883  0.82048  0.61421  1.0000
  H   H2103     1.0  0.80440  0.80536  0.64347  1.0000
  H   H2104     1.0  0.77468  0.76546  0.64622  1.0000
  H   H2105     1.0  0.75954  0.74046  0.61953  1.0000
  H   H2106     1.0  0.77333  0.75560  0.59005  1.0000
  H   H2107     1.0  0.79268  0.85507  0.59576  1.0000
  H   H2108     1.0  0.80904  0.90464  0.59443  1.0000
  H   H2109     1.0  0.84394  0.91552  0.57501  1.0000
  H   H2110     1.0  0.86274  0.87620  0.55698  1.0000
  H   H2111     1.0  0.84683  0.82619  0.55836  1.0000
  C   C2634     1.0  0.55684  0.85707  0.72580  1.0000
  C   C2635     1.0  0.56305  0.83039  0.73341  1.0000
  C   C2636     1.0  0.57540  0.80936  0.72345  1.0000
  H   H2112     1.0  0.54743  0.87343  0.73359  1.0000
  H   H2113     1.0  0.55801  0.82587  0.74694  1.0000
  H   H2114     1.0  0.57994  0.78841  0.72918  1.0000
  C   C2637     1.0  0.92419  0.00308  0.66450  1.0000
  H   H2115     1.0  0.82857  0.63615  0.59061  1.0000
  H   H2116     1.0  0.53846  0.57323  0.74180  1.0000
  H   H2117     1.0  0.68180  0.61687  0.58581  1.0000
  H   H2118     1.0  0.70510  0.57164  0.59134  1.0000
  C   C2638     1.0  0.78231  0.88257  0.53651  1.0000
  C   C2639     1.0  0.76140  0.61094  0.54465  1.0000
  C   C2640     1.0  0.76696  0.67547  0.53912  1.0000
  C   C2641     1.0  0.75020  0.68065  0.55272  1.0000
  C   C2642     1.0  0.73942  0.70804  0.55473  1.0000
  C   C2643     1.0  0.74620  0.73103  0.54386  1.0000
  H   H2119     1.0  0.55198  0.92604  0.75961  1.0000
  C   C2644     1.0  0.93254  0.87137  0.74953  1.0000
  C   C2645     1.0  0.77215  0.58523  0.55106  1.0000
  C   C2646     1.0  0.75772  0.56286  0.55755  1.0000
  C   C2647     1.0  0.73252  0.56593  0.55769  1.0000
  C   C2648     1.0  0.72163  0.59116  0.55104  1.0000
  C   C2649     1.0  0.73600  0.61342  0.54426  1.0000
  C   C2650     1.0  0.72421  0.53583  0.62907  1.0000
  S   S355      1.0  0.96154  0.99931  0.72512  1.0000
  H   H2120     1.0  0.79052  0.63740  0.57361  1.0000
  Fe  Fe178     1.0  0.97507  0.00471  0.69734  1.0000
  H   H2121     1.0  0.74522  0.66363  0.56183  1.0000
  H   H2122     1.0  0.72560  0.71122  0.56471  1.0000
  H   H2123     1.0  0.73757  0.75221  0.54547  1.0000
  H   H2124     1.0  0.79168  0.58225  0.55105  1.0000
  H   H2125     1.0  0.61463  0.94263  0.66096  1.0000
  H   H2126     1.0  0.55676  0.88298  0.70248  1.0000
  C   C2651     1.0  0.64598  0.53363  0.73966  1.0000
  H   H2127     1.0  0.65115  0.54537  0.62915  1.0000
  H   H2128     1.0  0.70206  0.59351  0.55113  1.0000
  H   H2129     1.0  0.72724  0.63253  0.53877  1.0000
  C   C2652     1.0  0.82923  0.63799  0.57636  1.0000
  C   C2653     1.0  0.54250  0.80604  0.66971  1.0000
  H   H2130     1.0  0.52867  0.62267  0.73144  1.0000
  C   C2654     1.0  0.59950  0.90080  0.66698  1.0000
  P   P88       1.0  0.57967  0.84639  0.67457  1.0000
  H   H2131     1.0  0.98027  0.62544  0.64929  1.0000
  C   C2655     1.0  0.96860  0.58764  0.66395  1.0000
  C   C2656     1.0  0.97327  0.55806  0.66706  1.0000
  P   P89       1.0  0.94255  0.60510  0.67410  1.0000
  C   C2657     1.0  0.91609  0.60043  0.66032  1.0000
  C   C2658     1.0  0.93768  0.58911  0.69556  1.0000
  C   C2659     1.0  0.95732  0.58525  0.70716  1.0000
  C   C2660     1.0  0.95368  0.57348  0.72391  1.0000
  H   H2132     1.0  0.59881  0.81877  0.64209  1.0000
  H   H2133     1.0  0.72153  0.58181  0.62241  1.0000
  C   C2661     1.0  0.91448  0.58019  0.70082  1.0000
  C   C2662     1.0  0.91550  0.57870  0.64727  1.0000
  C   C2663     1.0  0.89494  0.57551  0.63665  1.0000
  C   C2664     1.0  0.87467  0.59348  0.63918  1.0000
  C   C2665     1.0  0.87502  0.61498  0.65222  1.0000
  C   C2666     1.0  0.89566  0.61854  0.66274  1.0000
  C   C2667     1.0  0.94818  0.64367  0.67657  1.0000
  C   C2668     1.0  0.94471  0.66229  0.66212  1.0000
  C   C2669     1.0  0.94927  0.69207  0.66370  1.0000
  C   C2670     1.0  0.91210  0.85929  0.75763  1.0000
  H   H2134     1.0  0.62414  0.52717  0.71645  1.0000
  H   H2135     1.0  0.67409  0.80733  0.65424  1.0000
  H   H2136     1.0  0.64338  0.62641  0.60176  1.0000
  H   H2137     1.0  0.66303  0.52996  0.73285  1.0000
  H   H2138     1.0  0.56158  0.85380  0.63849  1.0000
  H   H2139     1.0  0.94576  0.90207  0.73049  1.0000
  H   H2140     1.0  0.96172  0.54583  0.67579  1.0000
  H   H2141     1.0  0.97547  0.59132  0.70331  1.0000
  H   H2142     1.0  0.92796  0.55474  0.74182  1.0000
  C   C2671     1.0  0.53225  0.82381  0.63530  1.0000
  C   C2672     1.0  0.88621  0.88953  0.73913  1.0000
  C   C2673     1.0  0.55603  0.82852  0.66217  1.0000
  C   C2674     1.0  0.60920  0.83215  0.66850  1.0000
  S   S356      1.0  0.82420  0.51990  0.63143  1.0000
  C   C2675     1.0  0.96373  0.75963  0.74924  1.0000
  H   H2143     1.0  0.70275  0.99982  0.52886  1.0000
  H   H2144     1.0  0.97782  0.97231  0.63984  1.0000
  H   H2145     1.0  0.63981  0.80365  0.63332  1.0000
  C   C2676     1.0  0.61341  0.82106  0.65150  1.0000
  H   H2146     1.0  0.66696  0.82632  0.68449  1.0000
  H   H2147     1.0  0.84443  0.53865  0.54325  1.0000
  H   H2148     1.0  0.62598  0.84270  0.69352  1.0000
  C   C2677     1.0  0.67991  0.55506  0.61063  1.0000
  C   C2678     1.0  0.75751  0.52393  0.64892  1.0000
  C   C2679     1.0  0.63677  0.81242  0.64641  1.0000
  S   S357      1.0  0.99417  0.92128  0.73834  1.0000
  C   C2680     1.0  0.51842  0.80205  0.64314  1.0000
  C   C2681     1.0  0.93183  0.00294  0.59705  1.0000
  C   C2682     1.0  0.68799  0.57514  0.59805  1.0000
  C   C2683     1.0  0.94158  0.76751  0.74158  1.0000
  C   C2684     1.0  0.55429  0.92854  0.66410  1.0000
  H   H2149     1.0  0.67569  0.51561  0.58143  1.0000
  C   C2685     1.0  0.76457  0.55300  0.64912  1.0000
  H   H2150     1.0  0.79176  0.00519  0.54562  1.0000
  C   C2686     1.0  0.81693  0.51074  0.53255  1.0000
  C   C2687     1.0  0.77433  0.69886  0.52856  1.0000
  H   H2151     1.0  0.96084  0.72662  0.68096  1.0000
  C   C2688     1.0  0.92746  0.78977  0.74907  1.0000
  H   H2152     1.0  0.87272  0.85901  0.75790  1.0000
  H   H2153     1.0  0.50201  0.85431  0.66491  1.0000
  H   H2154     1.0  0.66291  0.54235  0.76471  1.0000
  C   C2689     1.0  0.90560  0.00766  0.67677  1.0000
  H   H2155     1.0  0.58527  0.53619  0.73184  1.0000
  S   S358      1.0  0.84352  0.00550  0.64734  1.0000
  C   C2690     1.0  0.60185  0.54306  0.75734  1.0000
  H   H2156     1.0  0.91345  0.00117  0.59211  1.0000
  C   C2691     1.0  0.57194  0.63956  0.76161  1.0000
  C   C2692     1.0  0.50208  0.86057  0.75059  1.0000
  C   C2693     1.0  0.76388  0.72652  0.53089  1.0000
  S   S359      1.0  0.50465  0.71439  0.70080  1.0000
  H   H2157     1.0  0.74267  0.55815  0.51898  1.0000
  S   S360      1.0  0.50435  0.80327  0.76276  1.0000
  C   C2694     1.0  0.64592  0.54055  0.75762  1.0000
  C   C2695     1.0  0.99309  0.54407  0.65912  1.0000
  C   C2696     1.0  0.62611  0.61447  0.52000  1.0000
  H   H2158     1.0  0.72561  0.93018  0.52632  1.0000
  C   C2697     1.0  0.79268  0.00468  0.51725  1.0000
  Fe  Fe179     1.0  0.99399  0.96962  0.72989  1.0000
  H   H2159     1.0  0.87123  0.51448  0.65383  1.0000
  C   C2698     1.0  0.55051  0.52494  0.76271  1.0000
  H   H2160     1.0  0.93217  0.99595  0.63702  1.0000
  C   C2699     1.0  0.88885  0.86830  0.75221  1.0000
  C   C2700     1.0  0.91796  0.99950  0.64661  1.0000
  C   C2701     1.0  0.74159  0.91703  0.52894  1.0000
  C   C2702     1.0  0.97934  0.00732  0.61020  1.0000
  C   C2703     1.0  0.50040  0.89098  0.75311  1.0000
  H   H2161     1.0  0.71536  0.71022  0.51689  1.0000
  H   H2162     1.0  0.63516  0.56879  0.52061  1.0000
  Fe  Fe180     1.0  0.81805  0.51034  0.58053  1.0000
  Fe  Fe181     1.0  0.81834  0.00991  0.58169  1.0000
  Fe  Fe182     1.0  0.49548  0.70768  0.72962  1.0000
  C   C2704     1.0  0.50809  0.51101  0.76287  1.0000
  C   C2705     1.0  0.52612  0.53142  0.76637  1.0000
  H   H2163     1.0  0.59730  0.94207  0.92615  1.0000
  C   C2706     1.0  0.97839  0.70760  0.90005  1.0000
  C   C2707     1.0  0.54237  0.54509  0.93761  1.0000
  S   S361      1.0  0.96037  0.72841  0.85793  1.0000
  S   S362      1.0  0.50551  0.58290  0.80589  1.0000
  C   C2708     1.0  0.95783  0.79652  0.77175  1.0000
  S   S363      1.0  0.97629  0.76018  0.80976  1.0000
  C   C2709     1.0  0.71241  0.70346  0.97811  1.0000
  Fe  Fe183     1.0  0.84078  0.76008  0.91595  1.0000
  S   S364      1.0  0.80251  0.74919  0.90780  1.0000
  S   S365      1.0  0.86707  0.78143  0.89665  1.0000
  Fe  Fe184     1.0  0.83124  0.74287  0.95437  1.0000
  S   S366      1.0  0.79257  0.73104  0.94905  1.0000
  S   S367      1.0  0.84954  0.73591  0.98087  1.0000
  Fe  Fe185     1.0  0.80707  0.70915  0.92473  1.0000
  S   S368      1.0  0.79969  0.66239  0.91619  1.0000
  Fe  Fe186     1.0  0.79111  0.77231  0.93283  1.0000
  S   S369      1.0  0.75717  0.80095  0.93635  1.0000
  S   S370      1.0  0.84620  0.71858  0.93096  1.0000
  S   S371      1.0  0.82898  0.78561  0.94005  1.0000
  Fe  Fe187     1.0  0.70964  0.96555  0.92439  1.0000
  S   S372      1.0  0.67260  0.94841  0.93009  1.0000
  S   S373      1.0  0.74260  0.93632  0.91849  1.0000
  Fe  Fe188     1.0  0.70226  0.53778  0.94054  1.0000
  S   S374      1.0  0.66765  0.52726  0.95489  1.0000
  S   S375      1.0  0.71347  0.58485  0.94619  1.0000
  C   C2710     1.0  0.67108  0.61805  0.98560  1.0000
  C   C2711     1.0  0.75163  0.66186  0.98822  1.0000
  H   H2164     1.0  0.56672  0.87254  0.85611  1.0000
  H   H2165     1.0  0.83773  0.83955  0.80524  1.0000
  H   H2166     1.0  0.67520  0.70359  0.98738  1.0000
  H   H2167     1.0  0.77261  0.70153  0.98987  1.0000
  H   H2168     1.0  0.65912  0.91863  0.00313  1.0000
  H   H2169     1.0  0.57860  0.53904  0.84276  1.0000
  H   H2170     1.0  0.66039  0.73802  0.96491  1.0000
  C   C2712     1.0  0.50976  0.51342  0.92808  1.0000
  Fe  Fe189     1.0  0.98636  0.74474  0.83682  1.0000
  C   C2713     1.0  0.53128  0.84593  0.83168  1.0000
  C   C2714     1.0  0.51267  0.99550  0.89197  1.0000
  C   C2715     1.0  0.58155  0.98479  0.92327  1.0000
  H   H2171     1.0  0.73655  0.61882  0.98412  1.0000
  S   S376      1.0  0.62694  0.96930  0.89440  1.0000
  C   C2716     1.0  0.72799  0.71412  0.96499  1.0000
  C   C2717     1.0  0.50292  0.65105  0.77137  1.0000
  H   H2172     1.0  0.78811  0.73334  0.79520  1.0000
  C   C2718     1.0  0.68787  0.71212  0.97786  1.0000
  H   H2173     1.0  0.73294  0.54087  0.98279  1.0000
  H   H2174     1.0  0.92840  0.80558  0.80806  1.0000
  H   H2175     1.0  0.49700  0.83968  0.79328  1.0000
  H   H2176     1.0  0.96181  0.70829  0.90766  1.0000
  H   H2177     1.0  0.55573  0.88449  0.77964  1.0000
  P   P90       1.0  0.91626  0.83183  0.77436  1.0000
  C   C2719     1.0  0.83241  0.74482  0.99981  1.0000
  C   C2720     1.0  0.80787  0.75198  0.99835  1.0000
  C   C2721     1.0  0.84305  0.79672  0.79426  1.0000
  H   H2178     1.0  0.79906  0.75141  0.98564  1.0000
  C   C2722     1.0  0.71938  0.73346  0.95221  1.0000
  C   C2723     1.0  0.77564  0.64100  0.92454  1.0000
  C   C2724     1.0  0.77494  0.61105  0.92063  1.0000
  C   C2725     1.0  0.75594  0.59351  0.92695  1.0000
  C   C2726     1.0  0.73734  0.60587  0.93714  1.0000
  C   C2727     1.0  0.73800  0.63587  0.94085  1.0000
  C   C2728     1.0  0.75707  0.65330  0.93471  1.0000
  H   H2179     1.0  0.78915  0.60139  0.91265  1.0000
  H   H2180     1.0  0.75565  0.57051  0.92392  1.0000
  H   H2181     1.0  0.72367  0.64585  0.94846  1.0000
  H   H2182     1.0  0.75726  0.67631  0.93764  1.0000
  C   C2729     1.0  0.74628  0.89871  0.92380  1.0000
  C   C2730     1.0  0.76839  0.88460  0.91976  1.0000
  C   C2731     1.0  0.77217  0.85489  0.92370  1.0000
  C   C2732     1.0  0.75379  0.83879  0.93169  1.0000
  C   C2733     1.0  0.73180  0.85298  0.93599  1.0000
  C   C2734     1.0  0.72805  0.88272  0.93209  1.0000
  H   H2183     1.0  0.78267  0.89672  0.91343  1.0000
  H   H2184     1.0  0.78919  0.84436  0.92034  1.0000
  H   H2185     1.0  0.71750  0.84081  0.94222  1.0000
  H   H2186     1.0  0.71102  0.89324  0.93540  1.0000
  C   C2735     1.0  0.93430  0.74357  0.86829  1.0000
  C   C2736     1.0  0.92650  0.77208  0.86518  1.0000
  C   C2737     1.0  0.90613  0.78341  0.87420  1.0000
  C   C2738     1.0  0.89304  0.76623  0.88613  1.0000
  C   C2739     1.0  0.90083  0.73765  0.88922  1.0000
  C   C2740     1.0  0.92133  0.72641  0.88031  1.0000
  H   H2187     1.0  0.93621  0.78541  0.85592  1.0000
  H   H2188     1.0  0.90040  0.80563  0.87190  1.0000
  H   H2189     1.0  0.89103  0.72419  0.89842  1.0000
  H   H2190     1.0  0.92715  0.70426  0.88275  1.0000
  C   C2741     1.0  0.96234  0.84265  0.89785  1.0000
  C   C2742     1.0  0.73220  0.91805  0.97816  1.0000
  H   H2191     1.0  0.55671  0.97276  0.85421  1.0000
  C   C2743     1.0  0.69512  0.74234  0.95230  1.0000
  C   C2744     1.0  0.94732  0.88653  0.81058  1.0000
  C   C2745     1.0  0.75243  0.63237  0.98328  1.0000
  H   H2192     1.0  0.90495  0.00613  0.77815  1.0000
  H   H2193     1.0  0.66371  0.60711  0.97411  1.0000
  C   C2746     1.0  0.66192  0.98840  0.99767  1.0000
  C   C2747     1.0  0.80544  0.72206  0.79584  1.0000
  H   H2194     1.0  0.79935  0.69743  0.77206  1.0000
  C   C2748     1.0  0.83375  0.68660  0.78395  1.0000
  C   C2749     1.0  0.84959  0.69189  0.79798  1.0000
  C   C2750     1.0  0.84374  0.71289  0.81085  1.0000
  C   C2751     1.0  0.82126  0.72744  0.80987  1.0000
  P   P91       1.0  0.86375  0.71891  0.82938  1.0000
  C   C2752     1.0  0.86202  0.75686  0.83589  1.0000
  C   C2753     1.0  0.85376  0.69572  0.84714  1.0000
  C   C2754     1.0  0.84400  0.66822  0.84346  1.0000
  C   C2755     1.0  0.83541  0.65076  0.85716  1.0000
  C   C2756     1.0  0.83661  0.66054  0.87459  1.0000
  C   C2757     1.0  0.84669  0.68760  0.87838  1.0000
  C   C2758     1.0  0.85539  0.70502  0.86474  1.0000
  C   C2759     1.0  0.88007  0.77659  0.83085  1.0000
  C   C2760     1.0  0.87860  0.80574  0.83616  1.0000
  C   C2761     1.0  0.85936  0.81535  0.84671  1.0000
  C   C2762     1.0  0.84139  0.79593  0.85181  1.0000
  C   C2763     1.0  0.84257  0.76691  0.84632  1.0000
  C   C2764     1.0  0.89449  0.70950  0.82302  1.0000
  C   C2765     1.0  0.90355  0.71797  0.80648  1.0000
  C   C2766     1.0  0.92705  0.70996  0.80131  1.0000
  C   C2767     1.0  0.94168  0.69347  0.81258  1.0000
  C   C2768     1.0  0.93290  0.68519  0.82908  1.0000
  C   C2769     1.0  0.90948  0.69334  0.83437  1.0000
  C   C2770     1.0  0.57651  0.54865  0.79181  1.0000
  H   H2195     1.0  0.57264  0.52827  0.90580  1.0000
  S   S377      1.0  0.69055  0.51428  0.91576  1.0000
  H   H2196     1.0  0.86621  0.67923  0.79887  1.0000
  H   H2197     1.0  0.81575  0.74275  0.81998  1.0000
  H   H2198     1.0  0.84282  0.66027  0.83006  1.0000
  H   H2199     1.0  0.82758  0.62974  0.85429  1.0000
  H   H2200     1.0  0.82958  0.64728  0.88520  1.0000
  H   H2201     1.0  0.84745  0.69522  0.89191  1.0000
  H   H2202     1.0  0.86299  0.72594  0.86797  1.0000
  H   H2203     1.0  0.89554  0.76959  0.82316  1.0000
  H   H2204     1.0  0.89274  0.82074  0.83253  1.0000
  H   H2205     1.0  0.85867  0.83766  0.85137  1.0000
  H   H2206     1.0  0.82692  0.80313  0.86053  1.0000
  H   H2207     1.0  0.82859  0.75217  0.85069  1.0000
  H   H2208     1.0  0.89246  0.73075  0.79761  1.0000
  H   H2209     1.0  0.93416  0.71660  0.78862  1.0000
  H   H2210     1.0  0.95999  0.68750  0.80863  1.0000
  H   H2211     1.0  0.94458  0.67323  0.83804  1.0000
  H   H2212     1.0  0.90334  0.68728  0.84740  1.0000
  C   C2771     1.0  0.77365  0.62020  0.97619  1.0000
  C   C2772     1.0  0.98346  0.68300  0.88970  1.0000
  C   C2773     1.0  0.93346  0.82829  0.80866  1.0000
  C   C2774     1.0  0.56168  0.83221  0.79526  1.0000
  C   C2775     1.0  0.57821  0.84788  0.80562  1.0000
  C   C2776     1.0  0.76049  0.54890  0.00244  1.0000
  P   P92       1.0  0.56818  0.88010  0.81742  1.0000
  H   H2213     1.0  0.96488  0.80785  0.78315  1.0000
  C   C2777     1.0  0.58906  0.88927  0.83496  1.0000
  C   C2778     1.0  0.58332  0.88349  0.85264  1.0000
  C   C2779     1.0  0.59884  0.89248  0.86616  1.0000
  C   C2780     1.0  0.62015  0.90729  0.86216  1.0000
  C   C2781     1.0  0.62614  0.91283  0.84461  1.0000
  C   C2782     1.0  0.61076  0.90374  0.83104  1.0000
  H   H2214     1.0  0.52876  0.99519  0.91775  1.0000
  C   C2783     1.0  0.56607  0.91043  0.80235  1.0000
  C   C2784     1.0  0.55978  0.90594  0.78460  1.0000
  C   C2785     1.0  0.51925  0.54145  0.93035  1.0000
  C   C2786     1.0  0.49646  0.88436  0.78452  1.0000
  C   C2787     1.0  0.56801  0.96245  0.79681  1.0000
  C   C2788     1.0  0.56981  0.93900  0.80841  1.0000
  C   C2789     1.0  0.56692  0.56636  0.82124  1.0000
  C   C2790     1.0  0.58766  0.52400  0.79928  1.0000
  C   C2791     1.0  0.66804  0.89832  0.99987  1.0000
  H   H2215     1.0  0.54286  0.83889  0.79453  1.0000
  H   H2216     1.0  0.69594  0.64302  0.97034  1.0000
  H   H2217     1.0  0.61212  0.95113  0.95657  1.0000
  H   H2218     1.0  0.59417  0.88858  0.87982  1.0000
  H   H2219     1.0  0.63184  0.91494  0.87268  1.0000
  H   H2220     1.0  0.64250  0.92473  0.84160  1.0000
  H   H2221     1.0  0.61549  0.90865  0.81752  1.0000
  H   H2222     1.0  0.55626  0.58820  0.79755  1.0000
  C   C2792     1.0  0.56927  0.80776  0.78568  1.0000
  H   H2223     1.0  0.54336  0.82744  0.82995  1.0000
  C   C2793     1.0  0.58876  0.52088  0.81760  1.0000
  H   H2224     1.0  0.57077  0.98439  0.80162  1.0000
  H   H2225     1.0  0.57371  0.94342  0.82216  1.0000
  H   H2226     1.0  0.61583  0.85053  0.81377  1.0000
  H   H2227     1.0  0.81034  0.62819  0.96779  1.0000
  H   H2228     1.0  0.60559  0.99919  0.97052  1.0000
  H   H2229     1.0  0.83840  0.67038  0.77408  1.0000
  C   C2794     1.0  0.52278  0.89759  0.82981  1.0000
  H   H2230     1.0  0.85350  0.75604  0.78219  1.0000
  S   S378      1.0  0.99324  0.70164  0.77526  1.0000
  C   C2795     1.0  0.69990  0.65205  0.99824  1.0000
  H   H2231     1.0  0.64789  0.59609  0.00398  1.0000
  C   C2796     1.0  0.65302  0.97904  0.01407  1.0000
  H   H2232     1.0  0.50918  0.56050  0.92612  1.0000
  H   H2233     1.0  0.52822  0.91940  0.82649  1.0000
  H   H2234     1.0  0.77365  0.59786  0.97157  1.0000
  H   H2235     1.0  0.97856  0.81720  0.85737  1.0000
  H   H2236     1.0  0.68860  0.75735  0.94234  1.0000
  C   C2797     1.0  0.74045  0.79347  0.98247  1.0000
  C   C2798     1.0  0.72992  0.78140  0.99748  1.0000
  H   H2237     1.0  0.73139  0.88824  0.99984  1.0000
  H   H2238     1.0  0.80167  0.53425  0.94636  1.0000
  C   C2799     1.0  0.75981  0.83036  0.00051  1.0000
  C   C2800     1.0  0.75493  0.81817  0.98392  1.0000
  P   P93       1.0  0.77937  0.86161  0.00210  1.0000
  C   C2801     1.0  0.76674  0.88870  0.98752  1.0000
  H   H2239     1.0  0.55624  0.79580  0.77781  1.0000
  H   H2240     1.0  0.95324  0.90892  0.81118  1.0000
  C   C2802     1.0  0.87188  0.83585  0.79153  1.0000
  H   H2241     1.0  0.96646  0.81928  0.92214  1.0000
  H   H2242     1.0  0.58180  0.95246  0.87855  1.0000
  C   C2803     1.0  0.60931  0.98544  0.87718  1.0000
  C   C2804     1.0  0.78054  0.90035  0.97373  1.0000
  C   C2805     1.0  0.77029  0.92106  0.96246  1.0000
  C   C2806     1.0  0.74622  0.92998  0.96475  1.0000
  H   H2243     1.0  0.71333  0.92449  0.97944  1.0000
  H   H2244     1.0  0.93526  0.89011  0.78389  1.0000
  C   C2807     1.0  0.81030  0.85270  0.99616  1.0000
  C   C2808     1.0  0.81647  0.82587  0.98840  1.0000
  C   C2809     1.0  0.84063  0.81938  0.98427  1.0000
  C   C2810     1.0  0.85880  0.83953  0.98779  1.0000
  H   H2245     1.0  0.89290  0.77376  0.77179  1.0000
  C   C2811     1.0  0.97620  0.81777  0.87154  1.0000
  H   H2246     1.0  0.73735  0.78385  0.96962  1.0000
  H   H2247     1.0  0.49876  0.53127  0.88285  1.0000
  C   C2812     1.0  0.68000  0.88211  0.01296  1.0000
  C   C2813     1.0  0.85865  0.77834  0.78478  1.0000
  H   H2248     1.0  0.76274  0.82742  0.97208  1.0000
  C   C2814     1.0  0.59357  0.96273  0.93255  1.0000
  S   S379      1.0  0.50333  0.97342  0.82437  1.0000
  H   H2249     1.0  0.96014  0.86065  0.87171  1.0000
  H   H2250     1.0  0.73823  0.94544  0.95570  1.0000
  C   C2815     1.0  0.49803  0.85392  0.78198  1.0000
  H   H2251     1.0  0.79899  0.89315  0.97134  1.0000
  H   H2252     1.0  0.78066  0.92955  0.95150  1.0000
  C   C2816     1.0  0.84970  0.82542  0.79769  1.0000
  S   S380      1.0  0.69588  0.99966  0.90514  1.0000
  C   C2817     1.0  0.57835  0.54201  0.82858  1.0000
  H   H2253     1.0  0.80289  0.80974  0.98559  1.0000
  H   H2254     1.0  0.84529  0.79856  0.97839  1.0000
  H   H2255     1.0  0.87748  0.83427  0.98459  1.0000
  C   C2818     1.0  0.57330  0.98342  0.85806  1.0000
  H   H2256     1.0  0.55965  0.97603  0.77034  1.0000
  C   C2819     1.0  0.95054  0.86835  0.82514  1.0000
  C   C2820     1.0  0.94898  0.74191  0.95728  1.0000
  C   C2821     1.0  0.92508  0.74561  0.95142  1.0000
  C   C2822     1.0  0.92061  0.75474  0.93417  1.0000
  C   C2823     1.0  0.93999  0.76019  0.92280  1.0000
  C   C2824     1.0  0.96404  0.75680  0.92860  1.0000
  C   C2825     1.0  0.96844  0.74739  0.94591  1.0000
  H   H2257     1.0  0.69877  0.82534  0.98715  1.0000
  S   S381      1.0  0.49610  0.94180  0.77234  1.0000
  C   C2826     1.0  0.93728  0.87563  0.79500  1.0000
  H   H2258     1.0  0.77594  0.76645  0.01191  1.0000
  H   H2259     1.0  0.77442  0.53686  0.99539  1.0000
  H   H2260     1.0  0.51881  0.64116  0.79671  1.0000
  Fe  Fe190     1.0  0.65838  0.98411  0.91232  1.0000
  H   H2261     1.0  0.93617  0.76707  0.90943  1.0000
  H   H2262     1.0  0.62901  0.80739  0.79684  1.0000
  C   C2827     1.0  0.53857  0.87401  0.82685  1.0000
  H   H2263     1.0  0.99042  0.77469  0.87505  1.0000
  H   H2264     1.0  0.66523  0.52517  0.99570  1.0000
  C   C2828     1.0  0.96579  0.84221  0.87961  1.0000
  C   C2829     1.0  0.51238  0.00837  0.87532  1.0000
  C   C2830     1.0  0.69037  0.84578  0.99079  1.0000
  C   C2831     1.0  0.93037  0.84635  0.79392  1.0000
  H   H2265     1.0  0.74674  0.70756  0.96428  1.0000
  H   H2266     1.0  0.73162  0.74166  0.94219  1.0000
  C   C2832     1.0  0.77272  0.67862  0.98641  1.0000
  H   H2267     1.0  0.95237  0.73473  0.97065  1.0000
  H   H2268     1.0  0.90997  0.74133  0.96020  1.0000
  H   H2269     1.0  0.90209  0.75754  0.92954  1.0000
  C   C2833     1.0  0.96941  0.81871  0.90802  1.0000
  H   H2270     1.0  0.65935  0.90218  0.97229  1.0000
  C   C2834     1.0  0.56600  0.56970  0.80293  1.0000
  P   P94       1.0  0.72335  0.67894  0.99513  1.0000
  C   C2835     1.0  0.67933  0.73154  0.96506  1.0000
  Fe  Fe191     1.0  0.67153  0.98137  0.95204  1.0000
  C   C2836     1.0  0.58761  0.97196  0.87190  1.0000
  C   C2837     1.0  0.79427  0.63728  0.97402  1.0000
  H   H2271     1.0  0.70091  0.56743  0.99903  1.0000
  C   C2838     1.0  0.59353  0.79881  0.78625  1.0000
  H   H2272     1.0  0.59939  0.77985  0.77880  1.0000
  C   C2839     1.0  0.52899  0.00511  0.90482  1.0000
  H   H2273     1.0  0.54996  0.56666  0.93884  1.0000
  C   C2840     1.0  0.50778  0.63299  0.78603  1.0000
  H   H2274     1.0  0.87686  0.85814  0.79437  1.0000
  H   H2275     1.0  0.80977  0.67985  0.97735  1.0000
  C   C2841     1.0  0.79387  0.66641  0.97928  1.0000
  H   H2276     1.0  0.95393  0.86141  0.90411  1.0000
  C   C2842     1.0  0.67934  0.86273  0.97777  1.0000
  C   C2843     1.0  0.74241  0.89743  0.98952  1.0000
  C   C2844     1.0  0.66797  0.88889  0.98235  1.0000
  C   C2845     1.0  0.97996  0.79407  0.90000  1.0000
  C   C2846     1.0  0.68959  0.63830  0.98351  1.0000
  C   C2847     1.0  0.82868  0.87287  0.99969  1.0000
  H   H2277     1.0  0.62435  0.55170  0.78020  1.0000
  C   C2848     1.0  0.98311  0.79370  0.88166  1.0000
  C   C2849     1.0  0.49864  0.60452  0.78695  1.0000
  C   C2850     1.0  0.88757  0.81764  0.78183  1.0000
  C   C2851     1.0  0.56192  0.95773  0.77917  1.0000
  H   H2278     1.0  0.67960  0.85562  0.96412  1.0000
  C   C2852     1.0  0.71905  0.56623  0.00448  1.0000
  C   C2853     1.0  0.49974  0.89316  0.83696  1.0000
  H   H2279     1.0  0.51022  0.67279  0.77088  1.0000
  C   C2854     1.0  0.58052  0.51265  0.89675  1.0000
  H   H2280     1.0  0.71878  0.76224  0.99628  1.0000
  H   H2281     1.0  0.55807  0.58226  0.82969  1.0000
  C   C2855     1.0  0.94355  0.83925  0.82419  1.0000
  C   C2856     1.0  0.61019  0.81434  0.79642  1.0000
  P   P95       1.0  0.98862  0.76318  0.91337  1.0000
  S   S382      1.0  0.70960  0.99651  0.94762  1.0000
  S   S383      1.0  0.65634  0.96743  0.97856  1.0000
  C   C2857     1.0  0.60261  0.83884  0.80604  1.0000
  H   H2282     1.0  0.64197  0.95981  0.01483  1.0000
  H   H2283     1.0  0.98676  0.74431  0.95068  1.0000
  H   H2284     1.0  0.49962  0.00108  0.86539  1.0000
  H   H2285     1.0  0.57627  0.98074  0.90975  1.0000
  H   H2286     1.0  0.95906  0.87664  0.83697  1.0000
  H   H2287     1.0  0.94641  0.82499  0.83532  1.0000
  H   H2288     1.0  0.97072  0.66523  0.88930  1.0000
  C   C2858     1.0  0.60204  0.96789  0.94961  1.0000
  S   S384      1.0  0.50234  0.52679  0.84368  1.0000
  H   H2289     1.0  0.69952  0.93812  0.00886  1.0000
  C   C2859     1.0  0.81173  0.70177  0.78284  1.0000
  C   C2860     1.0  0.59833  0.99507  0.95747  1.0000
  C   C2861     1.0  0.88095  0.78863  0.77872  1.0000
  H   H2290     1.0  0.82585  0.78872  0.79906  1.0000
  Fe  Fe192     1.0  0.49997  0.53528  0.81425  1.0000
  C   C2862     1.0  0.73715  0.55106  0.99534  1.0000
  C   C2863     1.0  0.66230  0.61175  0.00242  1.0000
  C   C2864     1.0  0.69077  0.85536  0.00834  1.0000
  C   C2865     1.0  0.58060  0.00854  0.84921  1.0000
  C   C2866     1.0  0.85283  0.86631  0.99549  1.0000
  H   H2291     1.0  0.59131  0.60884  0.77772  1.0000
  H   H2292     1.0  0.81334  0.65510  0.01373  1.0000
  C   C2867     1.0  0.80272  0.51081  0.94787  1.0000
  H   H2293     1.0  0.82432  0.89366  0.00570  1.0000
  C   C2868     1.0  0.55776  0.92952  0.77309  1.0000
  C   C2869     1.0  0.79477  0.76084  0.01328  1.0000
  H   H2294     1.0  0.55095  0.51626  0.87797  1.0000
  H   H2295     1.0  0.86694  0.88191  0.99826  1.0000
  H   H2296     1.0  0.50248  0.81973  0.84216  1.0000
  C   C2870     1.0  0.50817  0.84150  0.83875  1.0000
  C   C2871     1.0  0.67084  0.51801  0.00865  1.0000
  C   C2872     1.0  0.73392  0.79410  0.01398  1.0000
  C   C2873     1.0  0.49769  0.90315  0.77009  1.0000
  H   H2297     1.0  0.52116  0.55205  0.77232  1.0000
  H   H2298     1.0  0.50004  0.97826  0.89490  1.0000
  P   P96       1.0  0.57348  0.55120  0.76818  1.0000
  H   H2299     1.0  0.98935  0.76852  0.76990  1.0000
  H   H2300     1.0  0.57452  0.52361  0.94750  1.0000
  H   H2301     1.0  0.72167  0.98354  0.01179  1.0000
  C   C2874     1.0  0.55617  0.52085  0.94263  1.0000
  H   H2302     1.0  0.68966  0.71521  0.01567  1.0000
  C   C2875     1.0  0.72685  0.69954  0.01539  1.0000
  H   H2303     1.0  0.83472  0.51174  0.96410  1.0000
  C   C2876     1.0  0.99434  0.73123  0.90003  1.0000
  C   C2877     1.0  0.57748  0.61158  0.76771  1.0000
  C   C2878     1.0  0.69122  0.64523  0.01515  1.0000
  C   C2879     1.0  0.74907  0.81821  0.01553  1.0000
  C   C2880     1.0  0.84351  0.74548  0.01650  1.0000
  H   H2304     1.0  0.58114  0.65826  0.76705  1.0000
