data_image0
_chemical_formula_structural       FeS2FeS2FeSFeS4CHPC2PC6H4C3H2CH2CHC4H3C6H4CH4CHC4SHC2HC7H2C7H5CH2CH3C2H2SC2HCHCH2SC2H3CHCHC5HCH2C7H3CH6C2HCHCHPHC2H2C5H5CH2CHC2HPC4HC4FeCH2CHSC2HC2HSC2HC3H2C2H2CHC3H2CH2CFeS2FeS2FeSFeS3FeS2C4FeSHS2HSCH2FeSC3HC3FeH4C6H4C6HCHC6H4C2HC12H15C5PC6HC2SC4H2C3HCHCHSC2H3C3PHCHPHC3HCHFeCHCH2CH2C2HC4H2FeCH2PHC5HCH2FeH4C3HCHCSC2HCHCH2CHC5H3CH3CHC2HC4HCH5CHCHC4HC2H2CPH3CHCH3CHC2H2CHC2H4CFeS2FeS2FeSFeS4CSPCSHC8H2C2PC3HCH2C2HCH3C6H5C3HCHC4HC2H2CH3CHC2HC11H3CHCH4CH6C3PHCHCH2C2HCHCH3C3HC2HC8H4CH4C2H5CHCHCH2C7HC2HCH3CH5CHC2PH5C5HCHCPHFeS2FeS2FeSFeS3CSHCPFeSFeSHFeSHSCFeHFeSC2H2SHCHCH3C6H4C2H2C2HC8H4C14H8C2H2C3H2CFeC4H4CHC3HC3H2C2HC6H2CH2FeC2HCHC2H2C2HC2H2CHC7HCHCH2C2PC3H2C2HCHC4HCH2CPHCH3CHSC4HCHC2H2C5H7C2HSHC5H3CH2C3HC2HC2H3C2SCHCHSH2CSC2FeC3H2C3H3CSC2H2SPC2SC3H2CHCHFeCSCS2H2FeSC2HC4H4CHCHC5H3CSH2CHCHC3H2CH4CS2Fe2CSCHC2HC2HC2HCHC2H3SHC2H3PH2C4HFeHCH2CFeS2HCH4C4FeSHS2HCFeSHSHCSHC2FeS2HCFeHC2H2C5HC3HC5H2CHCHCHC2HCHCHCFeC2HCHC2HCH2CHC4S2H2C2FeCH2CHCHSCHC10H3PC4HSC2H4C5PC3H2C7H2SCH7C2HSCH4CH2SH2CHPC4HC2SH2CHC2H2CH3C3HC2H2C6HCH2CH2CH3PCHC3HSC9SCPCHC2HC2HCH3C2HC3HC2H2C3H2C3H3CPSHC4HSHCHC2H3CH5C3HC2HCH6C6PC10HCHC4H4CH3C2HC2H3SC3SHC3H2CH3C3H2FeHCHCHCHC5H2CHCH2C2SHCSCHCFeS2CH2CH2CH2CFeS2C3HFeSCS2HSFe2HFeC6HC4HCFeCPFeHCHC3H3CHCSC2HCH2C3HCH2C4HFeCSHCH3CH3CH2C2H3CHCH2CH2C4H2CFeH6SHCFeH3CSH3C3SC7PC18H6CH4SCSCH3S2HSH2FeH2C2HCHSHCFeS2HC4SH3CH2C2FeC7H5CHCSCH2PC4HCHC2PH2CH2C4PCH4CH2CHC2H2CHC2HCH3CHC2HFeH2CHSH3CH3C2H3SHC5FeC2HC6H4C5HC6HC2HCH4CH4C2HC2HFeSHCSFe2SFeS2CFeS2C4HCFeCSHCHC6H4CH3C2H2SHC3HPC9H3C6HCH2SH6C2HCHCH3C3HC2PCH3CHC2PH2C3HC3HFeCHC6H3CH3C2HCH2C4HC5HC2HC2HSH4CH2CPC5HC3HC2HCH2C2H3CHCH3C2H3CHC2H2SHSHFe2SHC2H2Fe2C4H3CHC7H4SC2HCSH2CSCHC2H4C3HC2HC3H3CH2C5SC4HCH6CS2HCH2C2H4C2HPH2CSHCH4CHC7HCHC2HCHC2H2SHFeSCFeSFeS2CFeS2H2CH3CH3CSC6H4CH2CPC8H2CH3C8PC9PC8H5CH7CH5C5FeH5C2HC2HCHC2HCHC2SCHCH3C4FeSCHC2HCH2CSHCHCH4FeC2HCHCH3FeCHC2HCHCHC2SC3HC2HC2H2CHC4HCH5C3HC4HC4PH2CH2CHC2SH2C3H2
_chemical_formula_sum              "Fe80 S160 C1200 H960 P40"
_cell_length_a       63.4811
_cell_length_b       63.4977
_cell_length_c       29.1681
_cell_angle_alpha    88.4956
_cell_angle_beta     88.7024
_cell_angle_gamma    123.532

_space_group_name_H-M_alt    "P 1"
_space_group_IT_number       1

loop_
  _space_group_symop_operation_xyz
  'x, y, z'

loop_
  _atom_site_type_symbol
  _atom_site_label
  _atom_site_symmetry_multiplicity
  _atom_site_fract_x
  _atom_site_fract_y
  _atom_site_fract_z
  _atom_site_occupancy
  Fe  Fe1       1.0  0.14495  0.32363  0.28194  1.0000
  S   S1        1.0  0.16253  0.36227  0.24786  1.0000
  S   S2        1.0  0.13545  0.31164  0.35902  1.0000
  Fe  Fe2       1.0  0.13181  0.29818  0.18818  1.0000
  S   S3        1.0  0.14866  0.33514  0.14762  1.0000
  S   S4        1.0  0.10563  0.26055  0.15500  1.0000
  Fe  Fe3       1.0  0.18033  0.34998  0.19644  1.0000
  S   S5        1.0  0.21971  0.38190  0.17093  1.0000
  Fe  Fe4       1.0  0.12998  0.34507  0.20082  1.0000
  S   S6        1.0  0.10996  0.36509  0.18649  1.0000
  S   S7        1.0  0.16502  0.31215  0.23350  1.0000
  S   S8        1.0  0.11081  0.30726  0.23853  1.0000
  S   S9        1.0  0.11578  0.17948  0.05014  1.0000
  C   C1        1.0  0.16016  0.97457  0.22584  1.0000
  H   H1        1.0  0.25277  0.42903  0.02914  1.0000
  P   P1        1.0  0.10707  0.37069  0.47383  1.0000
  C   C2        1.0  0.21207  0.33550  0.03953  1.0000
  C   C3        1.0  0.19972  0.31198  0.43102  1.0000
  P   P2        1.0  0.20208  0.39949  0.99454  1.0000
  C   C4        1.0  0.10190  0.36914  0.13055  1.0000
  C   C5        1.0  0.08870  0.38091  0.12476  1.0000
  C   C6        1.0  0.08084  0.38327  0.08115  1.0000
  C   C7        1.0  0.08594  0.37367  0.04295  1.0000
  C   C8        1.0  0.09938  0.36217  0.04871  1.0000
  C   C9        1.0  0.10762  0.36020  0.09208  1.0000
  H   H2        1.0  0.08423  0.38794  0.15428  1.0000
  H   H3        1.0  0.07052  0.39218  0.07720  1.0000
  H   H4        1.0  0.10302  0.35424  0.01970  1.0000
  H   H5        1.0  0.11760  0.35097  0.09601  1.0000
  C   C10       1.0  0.24110  0.37876  0.13683  1.0000
  C   C11       1.0  0.24065  0.35650  0.13808  1.0000
  C   C12       1.0  0.25924  0.35546  0.11291  1.0000
  H   H6        1.0  0.11659  0.34308  0.32253  1.0000
  H   H7        1.0  0.12683  0.35365  0.40315  1.0000
  C   C13       1.0  0.26001  0.39979  0.10988  1.0000
  H   H8        1.0  0.22633  0.34031  0.15914  1.0000
  H   H9        1.0  0.25907  0.33837  0.11465  1.0000
  C   C14       1.0  0.98008  0.03029  0.09487  1.0000
  H   H10       1.0  0.26066  0.41718  0.10933  1.0000
  C   C15       1.0  0.14797  0.32539  0.41258  1.0000
  C   C16       1.0  0.16930  0.35002  0.41549  1.0000
  C   C17       1.0  0.07289  0.35634  0.35017  1.0000
  C   C18       1.0  0.13566  0.31109  0.45365  1.0000
  H   H11       1.0  0.17890  0.36140  0.38442  1.0000
  H   H12       1.0  0.18927  0.43683  0.00170  1.0000
  H   H13       1.0  0.11918  0.29203  0.45192  1.0000
  C   C19       1.0  0.10934  0.23833  0.12683  1.0000
  C   C20       1.0  0.08816  0.21808  0.10660  1.0000
  C   C21       1.0  0.09003  0.20025  0.08241  1.0000
  C   C22       1.0  0.11301  0.20211  0.07912  1.0000
  C   C23       1.0  0.13410  0.22204  0.10033  1.0000
  C   C24       1.0  0.13243  0.24037  0.12341  1.0000
  H   H14       1.0  0.07023  0.21635  0.10907  1.0000
  H   H15       1.0  0.07360  0.18490  0.06675  1.0000
  H   H16       1.0  0.15180  0.22332  0.09864  1.0000
  H   H17       1.0  0.14888  0.25596  0.13858  1.0000
  C   C25       1.0  0.06044  0.03989  0.11221  1.0000
  H   H18       1.0  0.13412  0.41300  0.01697  1.0000
  H   H19       1.0  0.04276  0.32077  0.10143  1.0000
  H   H20       1.0  0.20583  0.97280  0.98720  1.0000
  H   H21       1.0  0.09294  0.04334  0.01064  1.0000
  C   C26       1.0  0.17818  0.36004  0.45881  1.0000
  H   H22       1.0  0.16202  0.01259  0.07673  1.0000
  C   C27       1.0  0.11160  0.35428  0.38885  1.0000
  C   C28       1.0  0.03285  0.98765  0.05437  1.0000
  C   C29       1.0  0.23135  0.32496  0.28560  1.0000
  C   C30       1.0  0.18587  0.28953  0.40735  1.0000
  S   S10       1.0  0.04774  0.42204  0.99249  1.0000
  H   H23       1.0  0.08527  0.23832  0.01504  1.0000
  C   C31       1.0  0.06056  0.28880  0.03610  1.0000
  C   C32       1.0  0.07057  0.28147  0.07082  1.0000
  H   H24       1.0  0.21097  0.22013  0.35414  1.0000
  C   C33       1.0  0.14107  0.39269  0.47273  1.0000
  C   C34       1.0  0.18673  0.35315  0.03698  1.0000
  C   C35       1.0  0.05015  0.30943  0.09301  1.0000
  C   C36       1.0  0.04350  0.04377  0.08942  1.0000
  C   C37       1.0  0.21213  0.31870  0.31881  1.0000
  C   C38       1.0  0.13650  0.42968  0.00052  1.0000
  C   C39       1.0  0.98359  0.00305  0.14936  1.0000
  H   H25       1.0  0.18927  0.33069  0.34935  1.0000
  H   H26       1.0  0.04740  0.05500  0.99544  1.0000
  C   C40       1.0  0.02095  0.46173  0.99674  1.0000
  C   C41       1.0  0.24016  0.29190  0.36426  1.0000
  C   C42       1.0  0.12833  0.24148  0.25551  1.0000
  C   C43       1.0  0.15195  0.24576  0.24430  1.0000
  C   C44       1.0  0.17207  0.25950  0.27318  1.0000
  C   C45       1.0  0.21917  0.24020  0.35660  1.0000
  C   C46       1.0  0.19277  0.41024  0.04301  1.0000
  H   H27       1.0  0.05666  0.47008  0.01991  1.0000
  H   H28       1.0  0.11297  0.23159  0.23232  1.0000
  H   H29       1.0  0.15475  0.23891  0.21263  1.0000
  H   H30       1.0  0.19049  0.26350  0.26307  1.0000
  H   H31       1.0  0.17544  0.31840  0.07393  1.0000
  C   C47       1.0  0.12769  0.44265  0.02318  1.0000
  H   H32       1.0  0.21177  0.37209  0.30677  1.0000
  H   H33       1.0  0.01589  0.24115  0.03849  1.0000
  C   C48       1.0  0.18007  0.42599  0.43257  1.0000
  H   H34       1.0  0.07525  0.10780  0.09737  1.0000
  H   H35       1.0  0.03553  0.07167  0.06916  1.0000
  H   H36       1.0  0.06777  0.36765  0.41585  1.0000
  C   C49       1.0  0.16606  0.26752  0.43084  1.0000
  C   C50       1.0  0.99003  0.01594  0.10628  1.0000
  H   H37       1.0  0.09621  0.05744  0.14459  1.0000
  H   H38       1.0  0.16940  0.35174  0.04672  1.0000
  S   S11       1.0  0.06734  0.11236  0.99526  1.0000
  C   C51       1.0  0.12473  0.25066  0.29593  1.0000
  C   C52       1.0  0.06082  0.30271  0.12693  1.0000
  H   H39       1.0  0.24839  0.31188  0.36836  1.0000
  C   C53       1.0  0.15383  0.40876  0.43367  1.0000
  H   H40       1.0  0.17600  0.99176  0.12911  1.0000
  C   C54       1.0  0.02873  0.04285  0.98270  1.0000
  H   H41       1.0  0.99212  0.99299  0.15983  1.0000
  H   H42       1.0  0.96138  0.99333  0.21269  1.0000
  S   S12       1.0  0.99446  0.08215  0.00071  1.0000
  C   C55       1.0  0.19377  0.42757  0.47062  1.0000
  C   C56       1.0  0.00315  0.46812  0.99882  1.0000
  H   H43       1.0  0.23638  0.31167  0.27778  1.0000
  H   H44       1.0  0.99214  0.19469  0.04816  1.0000
  H   H45       1.0  0.00310  0.17048  0.99883  1.0000
  C   C57       1.0  0.08838  0.08494  0.12225  1.0000
  H   H46       1.0  0.07904  0.28342  0.14241  1.0000
  C   C58       1.0  0.04872  0.06832  0.08527  1.0000
  H   H47       1.0  0.11136  0.30703  0.01188  1.0000
  C   C59       1.0  0.14469  0.26403  0.32523  1.0000
  C   C60       1.0  0.05000  0.30255  0.04780  1.0000
  C   C61       1.0  0.14929  0.27027  0.00247  1.0000
  C   C62       1.0  0.19321  0.31259  0.47686  1.0000
  C   C63       1.0  0.96319  0.03097  0.12536  1.0000
  H   H48       1.0  0.21239  0.26842  0.09598  1.0000
  C   C64       1.0  0.24395  0.34841  0.26142  1.0000
  H   H49       1.0  0.15563  0.24984  0.41370  1.0000
  H   H50       1.0  0.19605  0.99669  0.31966  1.0000
  C   C65       1.0  0.19916  0.26832  0.02855  1.0000
  C   C66       1.0  0.15807  0.98040  0.11297  1.0000
  C   C67       1.0  0.21758  0.35913  0.30162  1.0000
  C   C68       1.0  0.20614  0.37439  0.01120  1.0000
  C   C69       1.0  0.17673  0.42630  0.11697  1.0000
  C   C70       1.0  0.18293  0.40860  0.12459  1.0000
  C   C71       1.0  0.19129  0.40089  0.08794  1.0000
  H   H51       1.0  0.27494  0.29485  0.37742  1.0000
  H   H52       1.0  0.04173  0.30829  0.02249  1.0000
  H   H53       1.0  0.18418  0.23682  0.34513  1.0000
  C   C72       1.0  0.18992  0.33405  0.05191  1.0000
  H   H54       1.0  0.16987  0.43189  0.14543  1.0000
  H   H55       1.0  0.18129  0.40078  0.15900  1.0000
  H   H56       1.0  0.19662  0.38775  0.09522  1.0000
  H   H57       1.0  0.11837  0.43590  0.05692  1.0000
  H   H58       1.0  0.05023  0.00483  0.04169  1.0000
  H   H59       1.0  0.10589  0.10093  0.13412  1.0000
  C   C73       1.0  0.02083  0.23090  0.01642  1.0000
  C   C74       1.0  0.21755  0.27695  0.06148  1.0000
  H   H60       1.0  0.05638  0.02112  0.11833  1.0000
  C   C75       1.0  0.17952  0.43680  0.07277  1.0000
  H   H61       1.0  0.10666  0.24808  0.30391  1.0000
  C   C76       1.0  0.27819  0.39855  0.08380  1.0000
  H   H62       1.0  0.17992  0.25289  0.03779  1.0000
  P   P3        1.0  0.01406  0.01763  0.06921  1.0000
  H   H63       1.0  0.12409  0.27270  0.04942  1.0000
  C   C77       1.0  0.22799  0.37527  0.99751  1.0000
  C   C78       1.0  0.07114  0.08882  0.10142  1.0000
  H   H64       1.0  0.21557  0.32905  0.41433  1.0000
  H   H65       1.0  0.26876  0.32244  0.99632  1.0000
  C   C79       1.0  0.25318  0.43756  0.99612  1.0000
  C   C80       1.0  0.15962  0.26820  0.47674  1.0000
  C   C81       1.0  0.20495  0.33572  0.32582  1.0000
  C   C82       1.0  0.08296  0.06047  0.12794  1.0000
  C   C83       1.0  0.09800  0.36127  0.41577  1.0000
  H   H66       1.0  0.07813  0.27019  0.06326  1.0000
  H   H67       1.0  0.96371  0.44235  0.05930  1.0000
  H   H68       1.0  0.14617  0.97609  0.20826  1.0000
  H   H69       1.0  0.21414  0.44065  0.46966  1.0000
  H   H70       1.0  0.09125  0.31797  0.45899  1.0000
  C   C84       1.0  0.12715  0.97798  0.06220  1.0000
  H   H71       1.0  0.06174  0.30884  0.16162  1.0000
  H   H72       1.0  0.14916  0.38542  0.99585  1.0000
  C   C85       1.0  0.16850  0.26851  0.31416  1.0000
  H   H73       1.0  0.05804  0.35731  0.33488  1.0000
  C   C86       1.0  0.07090  0.28866  0.11588  1.0000
  C   C87       1.0  0.23722  0.36556  0.26975  1.0000
  H   H74       1.0  0.98583  0.04148  0.06283  1.0000
  P   P4        1.0  0.19511  0.28815  0.34902  1.0000
  C   C88       1.0  0.20408  0.24977  0.35113  1.0000
  C   C89       1.0  0.08669  0.34958  0.32357  1.0000
  C   C90       1.0  0.25521  0.28229  0.36972  1.0000
  C   C91       1.0  0.21466  0.27581  0.35373  1.0000
  H   H75       1.0  0.18981  0.43799  0.40206  1.0000
  C   C92       1.0  0.01193  0.98806  0.06938  1.0000
  C   C93       1.0  0.00902  0.02327  0.01081  1.0000
  C   C94       1.0  0.23095  0.35591  0.01189  1.0000
  C   C95       1.0  0.18806  0.98608  0.28919  1.0000
  Fe  Fe5       1.0  0.08750  0.15476  0.99726  1.0000
  C   C96       1.0  0.18750  0.42880  0.03587  1.0000
  H   H76       1.0  0.24677  0.38357  0.25049  1.0000
  H   H77       1.0  0.16605  0.28518  0.01797  1.0000
  C   C97       1.0  0.01336  0.19089  0.99420  1.0000
  H   H78       1.0  0.08266  0.34542  0.28773  1.0000
  S   S13       1.0  0.05293  0.15414  0.98032  1.0000
  C   C98       1.0  0.96639  0.00344  0.17957  1.0000
  C   C99       1.0  0.12555  0.26337  0.02010  1.0000
  H   H79       1.0  0.14355  0.40795  0.40391  1.0000
  C   C100      1.0  0.24475  0.25647  0.36565  1.0000
  C   C101      1.0  0.24259  0.29651  0.04984  1.0000
  H   H80       1.0  0.21487  0.32110  0.05217  1.0000
  S   S14       1.0  0.07623  0.37564  0.98732  1.0000
  C   C102      1.0  0.98508  0.00760  0.99285  1.0000
  C   C103      1.0  0.22413  0.97554  0.98165  1.0000
  H   H81       1.0  0.96968  0.99210  0.01354  1.0000
  C   C104      1.0  0.10592  0.34840  0.34305  1.0000
  C   C105      1.0  0.07848  0.36216  0.39615  1.0000
  C   C106      1.0  0.15027  0.99228  0.08329  1.0000
  H   H82       1.0  0.25690  0.30335  0.07526  1.0000
  H   H83       1.0  0.25862  0.35318  0.23547  1.0000
  C   C107      1.0  0.00724  0.20453  0.02196  1.0000
  C   C108      1.0  0.10365  0.24412  0.00049  1.0000
  H   H84       1.0  0.16531  0.00101  0.27643  1.0000
  H   H85       1.0  0.12091  0.98710  0.03934  1.0000
  C   C109      1.0  0.24929  0.30724  0.00518  1.0000
  H   H86       1.0  0.14168  0.27154  0.35569  1.0000
  C   C110      1.0  0.17078  0.98855  0.26476  1.0000
  C   C111      1.0  0.27796  0.37640  0.08542  1.0000
  C   C112      1.0  0.20562  0.27938  0.98386  1.0000
  H   H87       1.0  0.17514  0.45089  0.06711  1.0000
  H   H88       1.0  0.25642  0.24903  0.36998  1.0000
  C   C113      1.0  0.13040  0.46398  0.00183  1.0000
  H   H89       1.0  0.19478  0.37904  0.46050  1.0000
  H   H90       1.0  0.24824  0.35710  0.00266  1.0000
  C   C114      1.0  0.04084  0.24390  0.98324  1.0000
  Fe  Fe6       1.0  0.12748  0.33608  0.70839  1.0000
  S   S15       1.0  0.16245  0.37165  0.67895  1.0000
  S   S16       1.0  0.09009  0.32892  0.73515  1.0000
  Fe  Fe7       1.0  0.15184  0.30608  0.70466  1.0000
  S   S17       1.0  0.18903  0.33953  0.67562  1.0000
  S   S18       1.0  0.14736  0.26840  0.71810  1.0000
  Fe  Fe8       1.0  0.18357  0.36201  0.72727  1.0000
  S   S19       1.0  0.21037  0.39031  0.77841  1.0000
  Fe  Fe9       1.0  0.16507  0.34625  0.62905  1.0000
  S   S20       1.0  0.17826  0.35944  0.55355  1.0000
  S   S21       1.0  0.14820  0.32791  0.75964  1.0000
  S   S22       1.0  0.12829  0.31134  0.65518  1.0000
  Fe  Fe10      1.0  0.07964  0.11887  0.92093  1.0000
  S   S23       1.0  0.04529  0.11716  0.89635  1.0000
  S   S24       1.0  0.09183  0.09578  0.88384  1.0000
  C   C115      1.0  0.97357  0.06354  0.91690  1.0000
  C   C116      1.0  0.18097  0.19912  0.88919  1.0000
  C   C117      1.0  0.00886  0.28137  0.89687  1.0000
  C   C118      1.0  0.13528  0.41896  0.84975  1.0000
  Fe  Fe11      1.0  0.06723  0.15909  0.90700  1.0000
  S   S25       1.0  0.06564  0.18919  0.86660  1.0000
  H   H91       1.0  0.18979  0.42409  0.77623  1.0000
  S   S26       1.0  0.10265  0.16145  0.92410  1.0000
  S   S27       1.0  0.02863  0.38001  0.91340  1.0000
  H   H92       1.0  0.01014  0.05578  0.70310  1.0000
  S   S28       1.0  0.04023  0.43662  0.88577  1.0000
  C   C119      1.0  0.27161  0.98277  0.96709  1.0000
  H   H93       1.0  0.08851  0.21683  0.94797  1.0000
  H   H94       1.0  0.01198  0.31463  0.86744  1.0000
  Fe  Fe12      1.0  0.05443  0.41247  0.86348  1.0000
  S   S29       1.0  0.06659  0.41058  0.79044  1.0000
  C   C120      1.0  0.02818  0.98447  0.73015  1.0000
  C   C121      1.0  0.08893  0.06835  0.90889  1.0000
  C   C122      1.0  0.08503  0.04896  0.88067  1.0000
  H   H95       1.0  0.07498  0.27844  0.88397  1.0000
  C   C123      1.0  0.09758  0.34377  0.51240  1.0000
  C   C124      1.0  0.08636  0.02515  0.94625  1.0000
  C   C125      1.0  0.13668  0.30692  0.90823  1.0000
  Fe  Fe13      1.0  0.07079  0.45206  0.93655  1.0000
  H   H96       1.0  0.09951  0.46671  0.78048  1.0000
  H   H97       1.0  0.18066  0.18294  0.87720  1.0000
  H   H98       1.0  0.20818  0.32273  0.94145  1.0000
  H   H99       1.0  0.20085  0.38175  0.90290  1.0000
  C   C126      1.0  0.07438  0.38848  0.77753  1.0000
  C   C127      1.0  0.06144  0.36444  0.79948  1.0000
  C   C128      1.0  0.06657  0.34648  0.78622  1.0000
  C   C129      1.0  0.08526  0.35262  0.75192  1.0000
  C   C130      1.0  0.09859  0.37684  0.73049  1.0000
  C   C131      1.0  0.09289  0.39456  0.74283  1.0000
  H   H100      1.0  0.04682  0.35946  0.82551  1.0000
  H   H101      1.0  0.05599  0.32772  0.80254  1.0000
  H   H102      1.0  0.11285  0.38173  0.70374  1.0000
  H   H103      1.0  0.10287  0.41306  0.72548  1.0000
  C   C132      1.0  0.23897  0.39370  0.79348  1.0000
  C   C133      1.0  0.25141  0.38633  0.76452  1.0000
  C   C134      1.0  0.03867  0.05953  0.80255  1.0000
  C   C135      1.0  0.16351  0.36659  0.87963  1.0000
  C   C136      1.0  0.27222  0.40714  0.84850  1.0000
  C   C137      1.0  0.24957  0.40426  0.83539  1.0000
  H   H104      1.0  0.24347  0.37819  0.73217  1.0000
  C   C138      1.0  0.01498  0.04963  0.73375  1.0000
  H   H105      1.0  0.24014  0.41007  0.85795  1.0000
  C   C139      1.0  0.12732  0.24858  0.76482  1.0000
  C   C140      1.0  0.10993  0.25263  0.78577  1.0000
  C   C141      1.0  0.09216  0.23502  0.81919  1.0000
  C   C142      1.0  0.09148  0.21316  0.83176  1.0000
  C   C143      1.0  0.11003  0.21002  0.81328  1.0000
  C   C144      1.0  0.12773  0.22755  0.77944  1.0000
  H   H106      1.0  0.10943  0.26875  0.77481  1.0000
  H   H107      1.0  0.07851  0.23808  0.83458  1.0000
  H   H108      1.0  0.10989  0.19340  0.82318  1.0000
  H   H109      1.0  0.14129  0.22441  0.76361  1.0000
  C   C145      1.0  0.19551  0.24329  0.88031  1.0000
  C   C146      1.0  0.18251  0.37842  0.91119  1.0000
  H   H110      1.0  0.13474  0.30999  0.52815  1.0000
  C   C147      1.0  0.04981  0.17711  0.73084  1.0000
  C   C148      1.0  0.07380  0.18173  0.72061  1.0000
  C   C149      1.0  0.08068  0.16613  0.74021  1.0000
  C   C150      1.0  0.06382  0.14593  0.77045  1.0000
  C   C151      1.0  0.03978  0.14090  0.78024  1.0000
  C   C152      1.0  0.03275  0.15631  0.76041  1.0000
  C   C153      1.0  0.04058  0.21760  0.74765  1.0000
  C   C154      1.0  0.04827  0.24242  0.73456  1.0000
  C   C155      1.0  0.04676  0.25775  0.76623  1.0000
  C   C156      1.0  0.03733  0.24844  0.81103  1.0000
  C   C157      1.0  0.02949  0.22376  0.82435  1.0000
  C   C158      1.0  0.03115  0.20842  0.79287  1.0000
  H   H111      1.0  0.09949  0.17030  0.73321  1.0000
  H   H112      1.0  0.06957  0.13449  0.78700  1.0000
  H   H113      1.0  0.02680  0.12544  0.80416  1.0000
  H   H114      1.0  0.01407  0.15212  0.76875  1.0000
  H   H115      1.0  0.01338  0.14728  0.66557  1.0000
  H   H116      1.0  0.05287  0.27691  0.75595  1.0000
  H   H117      1.0  0.03624  0.26045  0.83532  1.0000
  H   H118      1.0  0.02255  0.21658  0.85928  1.0000
  H   H119      1.0  0.02536  0.18958  0.80435  1.0000
  H   H120      1.0  0.03282  0.02816  0.84363  1.0000
  H   H121      1.0  0.20334  0.34195  0.80189  1.0000
  H   H122      1.0  0.21826  0.35502  0.88049  1.0000
  H   H123      1.0  0.08338  0.05072  0.84415  1.0000
  H   H124      1.0  0.08082  0.01276  0.87706  1.0000
  H   H125      1.0  0.03148  0.00230  0.71779  1.0000
  C   C159      1.0  0.26910  0.00337  0.96314  1.0000
  C   C160      1.0  0.16713  0.21732  0.94452  1.0000
  C   C161      1.0  0.08352  0.02737  0.89926  1.0000
  C   C162      1.0  0.06735  0.37160  0.51389  1.0000
  C   C163      1.0  0.03291  0.20359  0.96063  1.0000
  P   P5        1.0  0.16394  0.46883  0.87646  1.0000
  C   C164      1.0  0.18101  0.24069  0.91974  1.0000
  C   C165      1.0  0.23100  0.29842  0.97203  1.0000
  C   C166      1.0  0.02023  0.27220  0.92419  1.0000
  C   C167      1.0  0.06920  0.40976  0.53052  1.0000
  C   C168      1.0  0.16719  0.19666  0.92931  1.0000
  C   C169      1.0  0.27457  0.39014  0.77683  1.0000
  H   H126      1.0  0.11975  0.41701  0.87004  1.0000
  C   C170      1.0  0.11495  0.29533  0.88293  1.0000
  C   C171      1.0  0.04174  0.97559  0.70920  1.0000
  S   S30       1.0  0.08618  0.99914  0.97122  1.0000
  C   C172      1.0  0.08284  0.29962  0.52576  1.0000
  C   C173      1.0  0.08210  0.30212  0.57314  1.0000
  C   C174      1.0  0.08886  0.32530  0.59030  1.0000
  C   C175      1.0  0.01839  0.97420  0.92138  1.0000
  H   H127      1.0  0.13020  0.22940  0.91552  1.0000
  H   H128      1.0  0.96938  0.11894  0.64237  1.0000
  C   C176      1.0  0.00975  0.01567  0.78390  1.0000
  C   C177      1.0  0.03239  0.06748  0.76313  1.0000
  C   C178      1.0  0.06691  0.22504  0.57338  1.0000
  H   H129      1.0  0.10178  0.36385  0.57416  1.0000
  C   C179      1.0  0.19521  0.22246  0.86480  1.0000
  H   H130      1.0  0.09505  0.08098  0.97793  1.0000
  C   C180      1.0  0.16578  0.34580  0.49990  1.0000
  H   H131      1.0  0.06190  0.23910  0.92924  1.0000
  S   S31       1.0  0.97854  0.39416  0.97102  1.0000
  C   C181      1.0  0.13122  0.39823  0.82639  1.0000
  C   C182      1.0  0.09651  0.34602  0.56012  1.0000
  H   H132      1.0  0.07785  0.28175  0.51241  1.0000
  H   H133      1.0  0.07652  0.28620  0.59665  1.0000
  H   H134      1.0  0.08840  0.32730  0.62712  1.0000
  C   C183      1.0  0.09055  0.32034  0.49545  1.0000
  C   C184      1.0  0.27585  0.45910  0.97876  1.0000
  C   C185      1.0  0.05108  0.21055  0.61143  1.0000
  P   P6        1.0  0.99447  0.98223  0.79714  1.0000
  H   H135      1.0  0.16736  0.36113  0.84718  1.0000
  C   C186      1.0  0.17994  0.28400  0.85295  1.0000
  H   H136      1.0  0.05356  0.34452  0.90009  1.0000
  P   P7        1.0  0.18189  0.26751  0.94125  1.0000
  H   H137      1.0  0.17883  0.29695  0.78466  1.0000
  C   C187      1.0  0.15078  0.40013  0.79964  1.0000
  C   C188      1.0  0.05593  0.31518  0.93277  1.0000
  C   C189      1.0  0.18925  0.29121  0.89690  1.0000
  H   H138      1.0  0.15634  0.17865  0.94858  1.0000
  C   C190      1.0  0.14439  0.32124  0.49699  1.0000
  H   H139      1.0  0.14415  0.25126  0.49457  1.0000
  Fe  Fe14      1.0  0.03387  0.11236  0.97112  1.0000
  C   C191      1.0  0.99091  0.18354  0.69278  1.0000
  H   H140      1.0  0.07394  0.32856  0.94716  1.0000
  C   C192      1.0  0.19927  0.32793  0.82866  1.0000
  H   H141      1.0  0.12470  0.35200  0.86578  1.0000
  H   H142      1.0  0.11630  0.36576  0.93894  1.0000
  C   C193      1.0  0.00815  0.17633  0.68850  1.0000
  H   H143      1.0  0.15400  0.42710  0.93926  1.0000
  H   H144      1.0  0.15467  0.31289  0.89164  1.0000
  C   C194      1.0  0.00374  0.02382  0.74399  1.0000
  C   C195      1.0  0.09164  0.28749  0.90417  1.0000
  H   H145      1.0  0.10456  0.25539  0.54987  1.0000
  C   C196      1.0  0.10163  0.24898  0.62324  1.0000
  C   C197      1.0  0.24542  0.99972  0.97042  1.0000
  C   C198      1.0  0.17776  0.38571  0.95315  1.0000
  C   C199      1.0  0.20220  0.31685  0.90714  1.0000
  H   H146      1.0  0.05220  0.07338  0.82522  1.0000
  H   H147      1.0  0.08757  0.19755  0.69835  1.0000
  Fe  Fe15      1.0  0.06092  0.39894  0.96125  1.0000
  C   C200      1.0  0.11192  0.30339  0.97604  1.0000
  H   H148      1.0  0.01052  0.25202  0.93111  1.0000
  H   H149      1.0  0.98943  0.08097  0.90139  1.0000
  P   P8        1.0  0.04033  0.19693  0.70568  1.0000
  H   H150      1.0  0.05524  0.98650  0.68101  1.0000
  C   C201      1.0  0.20761  0.33519  0.87288  1.0000
  C   C202      1.0  0.18535  0.30240  0.81887  1.0000
  C   C203      1.0  0.99555  0.97633  0.85760  1.0000
  C   C204      1.0  0.13471  0.36903  0.93146  1.0000
  C   C205      1.0  0.13952  0.36158  0.89002  1.0000
  H   H151      1.0  0.96835  0.40195  0.87648  1.0000
  C   C206      1.0  0.02756  0.03375  0.81286  1.0000
  H   H152      1.0  0.05526  0.25006  0.69990  1.0000
  H   H153      1.0  0.16855  0.26424  0.84481  1.0000
  Fe  Fe16      1.0  0.01724  0.40567  0.94037  1.0000
  H   H154      1.0  0.09323  0.23922  0.69525  1.0000
  H   H155      1.0  0.99656  0.20155  0.70648  1.0000
  H   H156      1.0  0.99698  0.03488  0.88543  1.0000
  H   H157      1.0  0.23678  0.30645  0.93727  1.0000
  C   C207      1.0  0.00028  0.15304  0.66979  1.0000
  C   C208      1.0  0.15900  0.44199  0.84641  1.0000
  C   C209      1.0  0.09156  0.06602  0.95591  1.0000
  H   H158      1.0  0.12134  0.26355  0.62801  1.0000
  C   C210      1.0  0.13527  0.31139  0.95447  1.0000
  H   H159      1.0  0.24739  0.98107  0.82270  1.0000
  C   C211      1.0  0.08572  0.23496  0.66137  1.0000
  S   S32       1.0  0.08671  0.43045  0.91007  1.0000
  C   C212      1.0  0.02440  0.04701  0.93760  1.0000
  C   C213      1.0  0.06041  0.21539  0.65586  1.0000
  H   H160      1.0  0.19183  0.41274  0.53904  1.0000
  C   C214      1.0  0.04383  0.28912  0.94248  1.0000
  H   H161      1.0  0.03958  0.06242  0.91633  1.0000
  C   C215      1.0  0.00048  0.03146  0.92011  1.0000
  H   H162      1.0  0.99027  0.01020  0.72087  1.0000
  H   H163      1.0  0.04110  0.08748  0.75539  1.0000
  C   C216      1.0  0.12919  0.23892  0.94498  1.0000
  H   H164      1.0  0.03164  0.19573  0.60588  1.0000
  C   C217      1.0  0.25478  0.46024  0.91148  1.0000
  C   C218      1.0  0.01790  0.98054  0.87539  1.0000
  C   C219      1.0  0.95826  0.14415  0.66129  1.0000
  C   C220      1.0  0.17458  0.42282  0.79663  1.0000
  C   C221      1.0  0.23124  0.42692  0.97087  1.0000
  H   H165      1.0  0.11278  0.38064  0.82903  1.0000
  H   H166      1.0  0.99059  0.26837  0.88295  1.0000
  H   H167      1.0  0.14749  0.38396  0.78140  1.0000
  C   C222      1.0  0.04661  0.22996  0.95501  1.0000
  H   H168      1.0  0.11616  0.29235  0.84683  1.0000
  H   H169      1.0  0.03548  0.97695  0.93472  1.0000
  H   H170      1.0  0.96233  0.99966  0.93399  1.0000
  C   C223      1.0  0.04439  0.32428  0.90607  1.0000
  H   H171      1.0  0.20349  0.33012  0.49467  1.0000
  C   C224      1.0  0.96604  0.16745  0.67933  1.0000
  C   C225      1.0  0.09221  0.24422  0.57927  1.0000
  H   H172      1.0  0.05961  0.22131  0.53925  1.0000
  C   C226      1.0  0.02088  0.30741  0.88801  1.0000
  C   C227      1.0  0.17316  0.29074  0.49970  1.0000
  C   C228      1.0  0.23208  0.43861  0.92866  1.0000
  C   C229      1.0  0.97539  0.13698  0.65643  1.0000
  H   H173      1.0  0.16806  0.29146  0.53510  1.0000
  C   C230      1.0  0.98087  0.01175  0.94769  1.0000
  H   H174      1.0  0.03481  0.98819  0.85351  1.0000
  H   H175      1.0  0.20611  0.22444  0.83397  1.0000
  H   H176      1.0  0.03768  0.19295  0.93931  1.0000
  H   H177      1.0  0.21534  0.43113  0.90887  1.0000
  H   H178      1.0  0.20715  0.26137  0.86163  1.0000
  C   C231      1.0  0.17871  0.44375  0.81973  1.0000
  H   H179      1.0  0.27997  0.41484  0.88116  1.0000
  C   C232      1.0  0.97146  0.05940  0.96462  1.0000
  H   H180      1.0  0.06038  0.41886  0.54455  1.0000
  C   C233      1.0  0.05589  0.38338  0.53148  1.0000
  C   C234      1.0  0.10547  0.23192  0.96293  1.0000
  C   C235      1.0  0.15127  0.25786  0.96523  1.0000
  C   C236      1.0  0.15362  0.38069  0.96330  1.0000
  H   H181      1.0  0.15626  0.21497  0.97571  1.0000
  C   C237      1.0  0.10549  0.41267  0.49414  1.0000
  C   C238      1.0  0.28517  0.40067  0.81872  1.0000
  H   H182      1.0  0.98644  0.45785  0.97876  1.0000
  H   H183      1.0  0.12244  0.44919  0.81154  1.0000
  C   C239      1.0  0.08977  0.29073  0.95125  1.0000
  P   P9        1.0  0.05891  0.27812  0.97846  1.0000
  H   H184      1.0  0.03673  0.37205  0.54621  1.0000
  H   H185      1.0  0.01796  0.44680  0.97514  1.0000
  H   H186      1.0  0.24352  0.01564  0.96723  1.0000
  C   C240      1.0  0.09039  0.04463  0.97438  1.0000
  H   H187      1.0  0.15229  0.32084  0.97362  1.0000
  C   C241      1.0  0.12888  0.46839  0.81903  1.0000
  H   H188      1.0  0.95678  0.04856  0.85227  1.0000
  H   H189      1.0  0.14597  0.38233  0.54130  1.0000
  H   H190      1.0  0.28438  0.38496  0.75368  1.0000
  C   C242      1.0  0.15016  0.45893  0.93426  1.0000
  H   H191      1.0  0.28530  0.02226  0.95444  1.0000
  C   C243      1.0  0.18121  0.41197  0.50979  1.0000
  C   C244      1.0  0.14769  0.43772  0.95632  1.0000
  H   H192      1.0  0.19723  0.46117  0.81644  1.0000
  H   H193      1.0  0.05678  0.35113  0.51493  1.0000
  C   C245      1.0  0.15500  0.39456  0.51088  1.0000
  H   H194      1.0  0.10425  0.44483  0.51095  1.0000
  C   C246      1.0  0.09237  0.38617  0.49571  1.0000
  C   C247      1.0  0.09394  0.42438  0.51167  1.0000
  H   H195      1.0  0.24294  0.39088  0.97625  1.0000
  H   H196      1.0  0.95686  0.99511  0.80503  1.0000
  H   H197      1.0  0.25541  0.46895  0.87859  1.0000
  H   H198      1.0  0.12469  0.42436  0.47987  1.0000
  C   C248      1.0  0.27664  0.47050  0.93655  1.0000
  Fe  Fe17      1.0  0.15108  0.82991  0.23588  1.0000
  S   S33       1.0  0.16682  0.86284  0.18368  1.0000
  S   S34       1.0  0.13749  0.82953  0.31070  1.0000
  Fe  Fe18      1.0  0.14928  0.79481  0.16365  1.0000
  S   S35       1.0  0.16514  0.82508  0.10805  1.0000
  S   S36       1.0  0.14224  0.75637  0.14841  1.0000
  Fe  Fe19      1.0  0.19255  0.85125  0.15778  1.0000
  S   S37       1.0  0.23046  0.88318  0.12505  1.0000
  Fe  Fe20      1.0  0.13865  0.83517  0.13520  1.0000
  S   S38       1.0  0.12482  0.84452  0.07097  1.0000
  S   S39       1.0  0.17897  0.82025  0.21320  1.0000
  S   S40       1.0  0.12064  0.80270  0.18831  1.0000
  S   S41       1.0  0.06188  0.67818  0.01090  1.0000
  C   C249      1.0  0.04702  0.49468  0.04849  1.0000
  S   S42       1.0  0.05649  0.88846  0.04437  1.0000
  P   P10       1.0  0.15234  0.93909  0.16215  1.0000
  C   C250      1.0  0.97506  0.62075  0.02222  1.0000
  S   S43       1.0  0.08191  0.58287  0.98700  1.0000
  H   H199      1.0  0.20198  0.86044  0.42996  1.0000
  C   C251      1.0  0.10587  0.85687  0.06485  1.0000
  C   C252      1.0  0.10464  0.86595  0.02115  1.0000
  C   C253      1.0  0.08990  0.87600  0.01448  1.0000
  C   C254      1.0  0.07565  0.87640  0.05129  1.0000
  C   C255      1.0  0.07670  0.86712  0.09492  1.0000
  C   C256      1.0  0.09199  0.85769  0.10185  1.0000
  C   C257      1.0  0.15350  0.93444  0.99615  1.0000
  C   C258      1.0  0.18539  0.74298  0.37872  1.0000
  H   H200      1.0  0.06562  0.86725  0.12347  1.0000
  H   H201      1.0  0.09265  0.85062  0.13556  1.0000
  C   C259      1.0  0.25256  0.87975  0.09357  1.0000
  C   C260      1.0  0.26205  0.86625  0.11225  1.0000
  P   P11       1.0  0.98381  0.49561  0.02877  1.0000
  C   C261      1.0  0.10599  0.53564  0.99038  1.0000
  C   C262      1.0  0.12664  0.90965  0.18914  1.0000
  C   C263      1.0  0.26344  0.89379  0.05186  1.0000
  H   H202      1.0  0.25457  0.85617  0.14516  1.0000
  C   C264      1.0  0.22353  0.82809  0.40888  1.0000
  H   H203      1.0  0.09447  0.94061  0.05296  1.0000
  H   H204      1.0  0.25677  0.90489  0.03773  1.0000
  C   C265      1.0  0.14865  0.83487  0.36823  1.0000
  C   C266      1.0  0.17426  0.84692  0.37764  1.0000
  H   H205      1.0  0.11618  0.85656  0.24531  1.0000
  C   C267      1.0  0.13110  0.82714  0.40580  1.0000
  H   H206      1.0  0.18812  0.85344  0.34949  1.0000
  H   H207      1.0  0.07293  0.84755  0.25346  1.0000
  H   H208      1.0  0.11124  0.81796  0.39933  1.0000
  C   C268      1.0  0.12074  0.73578  0.10782  1.0000
  C   C269      1.0  0.10048  0.73711  0.09440  1.0000
  C   C270      1.0  0.08293  0.71957  0.06412  1.0000
  C   C271      1.0  0.08554  0.70069  0.04649  1.0000
  C   C272      1.0  0.10618  0.69975  0.05892  1.0000
  C   C273      1.0  0.12356  0.71710  0.08973  1.0000
  H   H209      1.0  0.09795  0.75123  0.10832  1.0000
  H   H210      1.0  0.06702  0.72045  0.05480  1.0000
  H   H211      1.0  0.10844  0.68532  0.04565  1.0000
  H   H212      1.0  0.13919  0.71593  0.09988  1.0000
  H   H213      1.0  0.11452  0.81215  0.98211  1.0000
  C   C274      1.0  0.16714  0.95836  0.21059  1.0000
  C   C275      1.0  0.00887  0.94222  0.06851  1.0000
  C   C276      1.0  0.16105  0.73816  0.37594  1.0000
  H   H214      1.0  0.00775  0.92454  0.06788  1.0000
  C   C277      1.0  0.98751  0.94225  0.08109  1.0000
  H   H215      1.0  0.09835  0.91861  0.18402  1.0000
  C   C278      1.0  0.99543  0.64547  0.00958  1.0000
  C   C279      1.0  0.20030  0.95339  0.12852  1.0000
  C   C280      1.0  0.14869  0.78858  0.01679  1.0000
  C   C281      1.0  0.19118  0.80581  0.33652  1.0000
  H   H216      1.0  0.11624  0.78689  0.04605  1.0000
  C   C282      1.0  0.10240  0.90497  0.19587  1.0000
  C   C283      1.0  0.20882  0.92534  0.08987  1.0000
  H   H217      1.0  0.28005  0.96838  0.05124  1.0000
  H   H218      1.0  0.00579  0.55084  0.01570  1.0000
  C   C284      1.0  0.01775  0.62659  0.08901  1.0000
  H   H219      1.0  0.21002  0.93618  0.99401  1.0000
  H   H220      1.0  0.18881  0.94225  0.22616  1.0000
  H   H221      1.0  0.02444  0.65245  0.21047  1.0000
  C   C285      1.0  0.18210  0.85105  0.42352  1.0000
  H   H222      1.0  0.23758  0.96325  0.10707  1.0000
  C   C286      1.0  0.17436  0.93425  0.13175  1.0000
  C   C287      1.0  0.03150  0.96492  0.05507  1.0000
  H   H223      1.0  0.20116  0.76131  0.38797  1.0000
  C   C288      1.0  0.13153  0.89226  0.20802  1.0000
  C   C289      1.0  0.08303  0.88251  0.21854  1.0000
  C   C290      1.0  0.18406  0.95555  0.23594  1.0000
  C   C291      1.0  0.20848  0.80389  0.11376  1.0000
  C   C292      1.0  0.20619  0.78182  0.13008  1.0000
  C   C293      1.0  0.19948  0.76229  0.10050  1.0000
  C   C294      1.0  0.19493  0.76477  0.05461  1.0000
  C   C295      1.0  0.19706  0.78688  0.03808  1.0000
  C   C296      1.0  0.20402  0.80648  0.06793  1.0000
  C   C297      1.0  0.99920  0.63341  0.15574  1.0000
  C   C298      1.0  0.02935  0.50123  0.05055  1.0000
  H   H224      1.0  0.12192  0.70977  0.36307  1.0000
  H   H225      1.0  0.14573  0.89658  0.11168  1.0000
  H   H226      1.0  0.06447  0.50549  0.06628  1.0000
  C   C299      1.0  0.00693  0.48754  0.02663  1.0000
  H   H227      1.0  0.00221  0.53060  0.18229  1.0000
  C   C300      1.0  0.16570  0.91135  0.11084  1.0000
  H   H228      1.0  0.11309  0.56856  0.02407  1.0000
  H   H229      1.0  0.24316  0.82783  0.00627  1.0000
  H   H230      1.0  0.22212  0.92135  0.07554  1.0000
  H   H231      1.0  0.03365  0.51729  0.07005  1.0000
  C   C301      1.0  0.11222  0.86992  0.23097  1.0000
  H   H232      1.0  0.11948  0.53432  0.01007  1.0000
  H   H233      1.0  0.21313  0.81880  0.13686  1.0000
  H   H234      1.0  0.20898  0.77961  0.16593  1.0000
  H   H235      1.0  0.19715  0.74496  0.11347  1.0000
  H   H236      1.0  0.18933  0.74921  0.03262  1.0000
  H   H237      1.0  0.20579  0.82370  0.05591  1.0000
  C   C302      1.0  0.18961  0.72408  0.36923  1.0000
  C   C303      1.0  0.16956  0.70022  0.35734  1.0000
  C   C304      1.0  0.14521  0.69517  0.35516  1.0000
  P   P12       1.0  0.15527  0.76225  0.38888  1.0000
  H   H238      1.0  0.12965  0.67665  0.34603  1.0000
  C   C305      1.0  0.14267  0.95410  0.12208  1.0000
  H   H239      1.0  0.96653  0.65607  0.06194  1.0000
  C   C306      1.0  0.18292  0.90685  0.09038  1.0000
  H   H240      1.0  0.08924  0.88307  0.98072  1.0000
  H   H241      1.0  0.17618  0.88867  0.07622  1.0000
  C   C307      1.0  0.01507  0.56545  0.08270  1.0000
  C   C308      1.0  0.21389  0.82949  0.32953  1.0000
  H   H242      1.0  0.98335  0.63190  0.17394  1.0000
  C   C309      1.0  0.19460  0.96951  0.27489  1.0000
  H   H243      1.0  0.14911  0.77755  0.04527  1.0000
  C   C310      1.0  0.21749  0.94882  0.10803  1.0000
  H   H244      1.0  0.21866  0.83942  0.29625  1.0000
  H   H245      1.0  0.05731  0.64076  0.09155  1.0000
  H   H246      1.0  0.11504  0.86513  0.99217  1.0000
  C   C311      1.0  0.04339  0.64762  0.15365  1.0000
  C   C312      1.0  0.12980  0.79356  0.01716  1.0000
  C   C313      1.0  0.13890  0.83113  0.45174  1.0000
  H   H247      1.0  0.13024  0.71831  0.45585  1.0000
  C   C314      1.0  0.00476  0.54601  0.05181  1.0000
  C   C315      1.0  0.28257  0.86730  0.09002  1.0000
  H   H248      1.0  0.10849  0.91940  0.10335  1.0000
  C   C316      1.0  0.02247  0.64502  0.17669  1.0000
  C   C317      1.0  0.13248  0.76031  0.35009  1.0000
  C   C318      1.0  0.11530  0.76641  0.36447  1.0000
  C   C319      1.0  0.09824  0.76560  0.33390  1.0000
  C   C320      1.0  0.09827  0.75882  0.28873  1.0000
  C   C321      1.0  0.11533  0.75278  0.27405  1.0000
  C   C322      1.0  0.13240  0.75355  0.30451  1.0000
  C   C323      1.0  0.01418  0.55996  0.12966  1.0000
  H   H249      1.0  0.06423  0.87874  0.22276  1.0000
  H   H250      1.0  0.17679  0.85479  0.02351  1.0000
  H   H251      1.0  0.02248  0.57515  0.15331  1.0000
  H   H252      1.0  0.14944  0.93152  0.03286  1.0000
  C   C324      1.0  0.08790  0.86493  0.23584  1.0000
  H   H253      1.0  0.16179  0.90635  0.99333  1.0000
  H   H254      1.0  0.19637  0.79486  0.44953  1.0000
  H   H255      1.0  0.17882  0.79782  0.30819  1.0000
  H   H256      1.0  0.02420  0.58486  0.07006  1.0000
  C   C325      1.0  0.12011  0.93979  0.09897  1.0000
  C   C326      1.0  0.11221  0.95175  0.06985  1.0000
  H   H257      1.0  0.11542  0.77253  0.39876  1.0000
  H   H258      1.0  0.08573  0.77129  0.34474  1.0000
  H   H259      1.0  0.08552  0.75892  0.26478  1.0000
  H   H260      1.0  0.11571  0.74807  0.23869  1.0000
  H   H261      1.0  0.14591  0.74945  0.29204  1.0000
  C   C327      1.0  0.98896  0.96506  0.08135  1.0000
  H   H262      1.0  0.01643  0.62003  0.05466  1.0000
  C   C328      1.0  0.99677  0.62440  0.11140  1.0000
  H   H263      1.0  0.06162  0.65726  0.16923  1.0000
  C   C329      1.0  0.04096  0.63823  0.10998  1.0000
  H   H264      1.0  0.15036  0.89608  0.20562  1.0000
  H   H265      1.0  0.04793  0.96492  0.04408  1.0000
  C   C330      1.0  0.22997  0.84071  0.36576  1.0000
  C   C331      1.0  0.99399  0.52089  0.06771  1.0000
  C   C332      1.0  0.16456  0.84321  0.46112  1.0000
  C   C333      1.0  0.00280  0.53492  0.14592  1.0000
  C   C334      1.0  0.10243  0.55519  0.99819  1.0000
  C   C335      1.0  0.99278  0.51546  0.11509  1.0000
  C   C336      1.0  0.20099  0.80428  0.41583  1.0000
  H   H266      1.0  0.20848  0.72798  0.37102  1.0000
  C   C337      1.0  0.14356  0.75793  0.44783  1.0000
  C   C338      1.0  0.14093  0.71401  0.36464  1.0000
  H   H267      1.0  0.17287  0.68562  0.34983  1.0000
  C   C339      1.0  0.18446  0.79305  0.37981  1.0000
  H   H268      1.0  0.23578  0.83698  0.43720  1.0000
  H   H269      1.0  0.00660  0.65867  0.03543  1.0000
  H   H270      1.0  0.24723  0.85934  0.36058  1.0000
  C   C340      1.0  0.28368  0.89447  0.02919  1.0000
  H   H271      1.0  0.96973  0.92451  0.08984  1.0000
  H   H272      1.0  0.97867  0.57459  0.11982  1.0000
  H   H273      1.0  0.97204  0.96459  0.09002  1.0000
  H   H274      1.0  0.99676  0.95801  0.98494  1.0000
  H   H275      1.0  0.21990  0.86624  0.00138  1.0000
  C   C341      1.0  0.18685  0.86721  0.99360  1.0000
  H   H276      1.0  0.13837  0.74484  0.98114  1.0000
  C   C342      1.0  0.13226  0.73443  0.47197  1.0000
  C   C343      1.0  0.96151  0.60400  0.98763  1.0000
  P   P13       1.0  0.96739  0.61082  0.08239  1.0000
  H   H277      1.0  0.98474  0.49620  0.12798  1.0000
  H   H278      1.0  0.12299  0.47375  0.01872  1.0000
  H   H279      1.0  0.15414  0.79646  0.45193  1.0000
  H   H280      1.0  0.28893  0.94743  0.11271  1.0000
  H   H281      1.0  0.14522  0.96298  0.98913  1.0000
  C   C344      1.0  0.14563  0.77829  0.46999  1.0000
  C   C345      1.0  0.12879  0.80775  0.98104  1.0000
  C   C346      1.0  0.21113  0.87367  0.98105  1.0000
  C   C347      1.0  0.22648  0.95496  0.98552  1.0000
  C   C348      1.0  0.04269  0.47478  0.02202  1.0000
  H   H282      1.0  0.20753  0.96713  0.29446  1.0000
  C   C349      1.0  0.95934  0.56413  0.10942  1.0000
  H   H283      1.0  0.25157  0.94232  0.98146  1.0000
  C   C350      1.0  0.16691  0.79794  0.98032  1.0000
  P   P14       1.0  0.19044  0.79023  0.97946  1.0000
  H   H284      1.0  0.20734  0.97154  0.14300  1.0000
  Fe  Fe21      1.0  0.12688  0.83719  0.67565  1.0000
  S   S44       1.0  0.16562  0.86752  0.64650  1.0000
  S   S45       1.0  0.09522  0.84114  0.70239  1.0000
  Fe  Fe22      1.0  0.13758  0.79582  0.66954  1.0000
  S   S46       1.0  0.17751  0.82341  0.64166  1.0000
  S   S47       1.0  0.11925  0.75321  0.67256  1.0000
  Fe  Fe23      1.0  0.17930  0.84955  0.69467  1.0000
  S   S48       1.0  0.20669  0.87287  0.74998  1.0000
  Fe  Fe24      1.0  0.16066  0.83902  0.59478  1.0000
  S   S49       1.0  0.17580  0.84809  0.51856  1.0000
  S   S50       1.0  0.14056  0.82043  0.72572  1.0000
  S   S51       1.0  0.12072  0.81008  0.62059  1.0000
  C   C351      1.0  0.98350  0.70858  0.91395  1.0000
  S   S52       1.0  0.06034  0.60457  0.87475  1.0000
  H   H285      1.0  0.11448  0.71339  0.53614  1.0000
  C   C352      1.0  0.03886  0.75716  0.76418  1.0000
  P   P15       1.0  0.20692  0.76641  0.75109  1.0000
  Fe  Fe25      1.0  0.02825  0.60678  0.90260  1.0000
  S   S53       1.0  0.98926  0.58196  0.87369  1.0000
  Fe  Fe26      1.0  0.08336  0.64728  0.87340  1.0000
  S   S54       1.0  0.11240  0.67224  0.81638  1.0000
  H   H286      1.0  0.17812  0.77976  0.69216  1.0000
  Fe  Fe27      1.0  0.06258  0.64942  0.96667  1.0000
  S   S55       1.0  0.04442  0.89057  0.90891  1.0000
  H   H287      1.0  0.04906  0.94617  0.70959  1.0000
  S   S56       1.0  0.06121  0.94760  0.86862  1.0000
  C   C353      1.0  0.27637  0.82494  0.78791  1.0000
  Fe  Fe28      1.0  0.02665  0.91311  0.90335  1.0000
  H   H288      1.0  0.16120  0.85906  0.84439  1.0000
  Fe  Fe29      1.0  0.07975  0.92605  0.87974  1.0000
  S   S57       1.0  0.10993  0.92720  0.83329  1.0000
  C   C354      1.0  0.18956  0.91380  0.80091  1.0000
  C   C355      1.0  0.03931  0.65720  0.77772  1.0000
  H   H289      1.0  0.24507  0.79399  0.67465  1.0000
  H   H290      1.0  0.14785  0.53579  0.84833  1.0000
  S   S58       1.0  0.03637  0.92743  0.97410  1.0000
  H   H291      1.0  0.97964  0.52110  0.84214  1.0000
  C   C356      1.0  0.11571  0.47832  0.80113  1.0000
  H   H292      1.0  0.24113  0.86414  0.69819  1.0000
  C   C357      1.0  0.23727  0.52710  0.84623  1.0000
  H   H293      1.0  0.06386  0.50605  0.90736  1.0000
  H   H294      1.0  0.05875  0.54196  0.91916  1.0000
  H   H295      1.0  0.24221  0.75776  0.80072  1.0000
  C   C358      1.0  0.10539  0.90262  0.79822  1.0000
  C   C359      1.0  0.08125  0.88188  0.78916  1.0000
  C   C360      1.0  0.07848  0.86320  0.75995  1.0000
  C   C361      1.0  0.09975  0.86483  0.73994  1.0000
  C   C362      1.0  0.12390  0.88534  0.74964  1.0000
  C   C363      1.0  0.12666  0.90421  0.77831  1.0000
  H   H296      1.0  0.06473  0.88045  0.80407  1.0000
  H   H297      1.0  0.05973  0.84748  0.75260  1.0000
  H   H298      1.0  0.14040  0.88690  0.73431  1.0000
  H   H299      1.0  0.14540  0.92019  0.78492  1.0000
  C   C364      1.0  0.23601  0.87721  0.76213  1.0000
  C   C365      1.0  0.24684  0.88741  0.80406  1.0000
  H   H300      1.0  0.01928  0.71257  0.91083  1.0000
  H   H301      1.0  0.99474  0.64189  0.89354  1.0000
  C   C366      1.0  0.96194  0.96605  0.78108  1.0000
  C   C367      1.0  0.24920  0.87188  0.73069  1.0000
  H   H302      1.0  0.23657  0.89126  0.82873  1.0000
  C   C368      1.0  0.06240  0.75257  0.68661  1.0000
  C   C369      1.0  0.12259  0.50261  0.81155  1.0000
  C   C370      1.0  0.11753  0.73185  0.71528  1.0000
  C   C371      1.0  0.11431  0.73364  0.76251  1.0000
  C   C372      1.0  0.11118  0.71463  0.79417  1.0000
  C   C373      1.0  0.11159  0.69409  0.77863  1.0000
  C   C374      1.0  0.11496  0.69264  0.73156  1.0000
  C   C375      1.0  0.11748  0.71108  0.70021  1.0000
  H   H303      1.0  0.11376  0.74931  0.77447  1.0000
  H   H304      1.0  0.10873  0.71595  0.83052  1.0000
  H   H305      1.0  0.11578  0.67718  0.71917  1.0000
  H   H306      1.0  0.11973  0.70936  0.66389  1.0000
  C   C376      1.0  0.04451  0.68133  0.78438  1.0000
  C   C377      1.0  0.05945  0.72962  0.84965  1.0000
  C   C378      1.0  0.27336  0.87749  0.74063  1.0000
  C   C379      1.0  0.15616  0.76708  0.83997  1.0000
  C   C380      1.0  0.16058  0.79086  0.83033  1.0000
  C   C381      1.0  0.17971  0.80753  0.79833  1.0000
  C   C382      1.0  0.18924  0.77608  0.78352  1.0000
  C   C383      1.0  0.17012  0.75953  0.81618  1.0000
  C   C384      1.0  0.20368  0.73874  0.77829  1.0000
  C   C385      1.0  0.18063  0.71517  0.77658  1.0000
  C   C386      1.0  0.17767  0.69349  0.79703  1.0000
  C   C387      1.0  0.19781  0.69503  0.81880  1.0000
  C   C388      1.0  0.22101  0.71830  0.81991  1.0000
  C   C389      1.0  0.22400  0.74010  0.79970  1.0000
  H   H307      1.0  0.14133  0.75410  0.86480  1.0000
  H   H308      1.0  0.14920  0.79640  0.84744  1.0000
  H   H309      1.0  0.24760  0.54151  0.81899  1.0000
  H   H310      1.0  0.16540  0.74056  0.82283  1.0000
  H   H311      1.0  0.16481  0.71358  0.75974  1.0000
  H   H312      1.0  0.15960  0.67546  0.79615  1.0000
  H   H313      1.0  0.19537  0.67816  0.83473  1.0000
  H   H314      1.0  0.23669  0.71945  0.83653  1.0000
  C   C390      1.0  0.20035  0.74288  0.66842  1.0000
  C   C391      1.0  0.19413  0.80033  0.77516  1.0000
  H   H315      1.0  0.01063  0.61720  0.78038  1.0000
  H   H316      1.0  0.18314  0.82596  0.79111  1.0000
  C   C392      1.0  0.18253  0.76808  0.67348  1.0000
  C   C393      1.0  0.19552  0.75842  0.69378  1.0000
  C   C394      1.0  0.18768  0.89207  0.92791  1.0000
  H   H317      1.0  0.14599  0.82808  0.91674  1.0000
  H   H318      1.0  0.11866  0.88779  0.90069  1.0000
  C   C395      1.0  0.98038  0.51613  0.87760  1.0000
  Fe  Fe30      1.0  0.07182  0.96088  0.94028  1.0000
  C   C396      1.0  0.96541  0.70748  0.84117  1.0000
  C   C397      1.0  0.12549  0.75198  0.53924  1.0000
  C   C398      1.0  0.19746  0.49173  0.88011  1.0000
  C   C399      1.0  0.14177  0.47224  0.95777  1.0000
  H   H319      1.0  0.21737  0.95460  0.88693  1.0000
  H   H320      1.0  0.05460  0.65491  0.76883  1.0000
  H   H321      1.0  0.98247  0.70808  0.95114  1.0000
  H   H322      1.0  0.12505  0.82491  0.47989  1.0000
  C   C400      1.0  0.05381  0.73474  0.72338  1.0000
  H   H323      1.0  0.17287  0.74229  0.56904  1.0000
  C   C401      1.0  0.22375  0.88916  0.94176  1.0000
  C   C402      1.0  0.95864  0.49616  0.90086  1.0000
  C   C403      1.0  0.12329  0.73152  0.51755  1.0000
  H   H324      1.0  0.17957  0.82008  0.91581  1.0000
  C   C404      1.0  0.13951  0.71843  0.93911  1.0000
  C   C405      1.0  0.99500  0.63903  0.79606  1.0000
  C   C406      1.0  0.00444  0.71122  0.89087  1.0000
  H   H325      1.0  0.21174  0.76816  0.92266  1.0000
  H   H326      1.0  0.10763  0.78704  0.88316  1.0000
  C   C407      1.0  0.02103  0.93886  0.76182  1.0000
  C   C408      1.0  0.26406  0.84748  0.94413  1.0000
  H   H327      1.0  0.01872  0.67189  0.95410  1.0000
  C   C409      1.0  0.17493  0.87580  0.96659  1.0000
  C   C410      1.0  0.00742  0.94763  0.78260  1.0000
  C   C411      1.0  0.14304  0.51725  0.83916  1.0000
  C   C412      1.0  0.23128  0.96226  0.81670  1.0000
  C   C413      1.0  0.96827  0.61189  0.94141  1.0000
  C   C414      1.0  0.15639  0.50746  0.85688  1.0000
  H   H328      1.0  0.28166  0.85906  0.96113  1.0000
  H   H329      1.0  0.05721  0.71988  0.72131  1.0000
  C   C415      1.0  0.98630  0.71007  0.81797  1.0000
  H   H330      1.0  0.13852  0.79133  0.53221  1.0000
  H   H331      1.0  0.20132  0.51173  0.81592  1.0000
  Fe  Fe31      1.0  0.07044  0.60650  0.94841  1.0000
  C   C416      1.0  0.96551  0.55398  0.95487  1.0000
  C   C417      1.0  0.27097  0.89297  0.81405  1.0000
  H   H332      1.0  0.99436  0.93669  0.81130  1.0000
  C   C418      1.0  0.19327  0.92277  0.84546  1.0000
  H   H333      1.0  0.17360  0.89529  0.79336  1.0000
  C   C419      1.0  0.14911  0.48273  0.84773  1.0000
  C   C420      1.0  0.21422  0.94722  0.85297  1.0000
  H   H334      1.0  0.20870  0.81352  0.75000  1.0000
  H   H335      1.0  0.11169  0.50984  0.79913  1.0000
  C   C421      1.0  0.17641  0.76016  0.95299  1.0000
  C   C422      1.0  0.16170  0.94030  0.90086  1.0000
  H   H336      1.0  0.15551  0.86922  0.97563  1.0000
  C   C423      1.0  0.17466  0.76242  0.62850  1.0000
  C   C424      1.0  0.19216  0.73702  0.62363  1.0000
  H   H337      1.0  0.19572  0.72483  0.60445  1.0000
  H   H338      1.0  0.20388  0.92144  0.73074  1.0000
  C   C425      1.0  0.17933  0.74682  0.60365  1.0000
  H   H339      1.0  0.16453  0.76989  0.61323  1.0000
  C   C426      1.0  0.00609  0.71221  0.84266  1.0000
  C   C427      1.0  0.98196  0.50423  0.97028  1.0000
  C   C428      1.0  0.20674  0.92881  0.76482  1.0000
  C   C429      1.0  0.13673  0.77537  0.51548  1.0000
  C   C430      1.0  0.25358  0.80220  0.70661  1.0000
  C   C431      1.0  0.09533  0.76670  0.88194  1.0000
  C   C432      1.0  0.25019  0.52513  0.88254  1.0000
  H   H340      1.0  0.16341  0.94194  0.86366  1.0000
  C   C433      1.0  0.00302  0.52986  0.90024  1.0000
  H   H341      1.0  0.17155  0.51874  0.87962  1.0000
  C   C434      1.0  0.15039  0.74165  0.95968  1.0000
  H   H342      1.0  0.20068  0.47497  0.94302  1.0000
  H   H343      1.0  0.20213  0.80462  0.88159  1.0000
  C   C435      1.0  0.23963  0.79271  0.74866  1.0000
  C   C436      1.0  0.14657  0.81679  0.94431  1.0000
  P   P16       1.0  0.03304  0.71563  0.81241  1.0000
  C   C437      1.0  0.21213  0.89839  0.91533  1.0000
  C   C438      1.0  0.09745  0.85264  0.86794  1.0000
  C   C439      1.0  0.15457  0.71321  0.91262  1.0000
  H   H344      1.0  0.14606  0.69518  0.89656  1.0000
  H   H345      1.0  0.95763  0.95163  0.95492  1.0000
  C   C440      1.0  0.08224  0.72493  0.91062  1.0000
  C   C441      1.0  0.96443  0.90007  0.90303  1.0000
  H   H346      1.0  0.24065  0.79738  0.82193  1.0000
  C   C442      1.0  0.96404  0.70681  0.88914  1.0000
  H   H347      1.0  0.07211  0.75119  0.65694  1.0000
  C   C443      1.0  0.18060  0.73115  0.90714  1.0000
  C   C444      1.0  0.03826  0.95286  0.72519  1.0000
  C   C445      1.0  0.21102  0.51034  0.84478  1.0000
  C   C446      1.0  0.07180  0.54018  0.93931  1.0000
  H   H348      1.0  0.19223  0.72686  0.88718  1.0000
  C   C447      1.0  0.12110  0.83662  0.83575  1.0000
  H   H349      1.0  0.26150  0.95346  0.89320  1.0000
  H   H350      1.0  0.01844  0.92136  0.77485  1.0000
  C   C448      1.0  0.04759  0.77498  0.72744  1.0000
  P   P17       1.0  0.17215  0.90340  0.89357  1.0000
  H   H351      1.0  0.03058  0.75984  0.79449  1.0000
  C   C449      1.0  0.21913  0.81682  0.89956  1.0000
  H   H352      1.0  0.11939  0.70436  0.94415  1.0000
  H   H353      1.0  0.27053  0.53809  0.88359  1.0000
  H   H354      1.0  0.07396  0.76848  0.82817  1.0000
  C   C450      1.0  0.97381  0.96589  0.88666  1.0000
  H   H355      1.0  0.27922  0.90116  0.84618  1.0000
  S   S59       1.0  0.09342  0.94252  0.94875  1.0000
  C   C451      1.0  0.24105  0.83529  0.87446  1.0000
  C   C452      1.0  0.00019  0.66321  0.80278  1.0000
  C   C453      1.0  0.14302  0.87614  0.87504  1.0000
  C   C454      1.0  0.27878  0.82286  0.70542  1.0000
  H   H356      1.0  0.22214  0.90996  0.88467  1.0000
  C   C455      1.0  0.04170  0.73672  0.76236  1.0000
  H   H357      1.0  0.24065  0.83780  0.83762  1.0000
  C   C456      1.0  0.28445  0.88818  0.78220  1.0000
  C   C457      1.0  0.22760  0.95299  0.77265  1.0000
  H   H358      1.0  0.02177  0.53413  0.96296  1.0000
  H   H359      1.0  0.04596  0.79108  0.72931  1.0000
  C   C458      1.0  0.05933  0.77268  0.68866  1.0000
  C   C459      1.0  0.11977  0.87352  0.88342  1.0000
  C   C460      1.0  0.96398  0.55639  0.90748  1.0000
  C   C461      1.0  0.14345  0.85733  0.85161  1.0000
  C   C462      1.0  0.09846  0.75117  0.91186  1.0000
  H   H360      1.0  0.24084  0.96450  0.74448  1.0000
  H   H361      1.0  0.98476  0.66489  0.81319  1.0000
  H   H362      1.0  0.07975  0.85126  0.87322  1.0000
  H   H363      1.0  0.98707  0.71047  0.78077  1.0000
  H   H364      1.0  0.06656  0.78689  0.66069  1.0000
  H   H365      1.0  0.28520  0.83421  0.81911  1.0000
  H   H366      1.0  0.04988  0.69384  0.88043  1.0000
  C   C463      1.0  0.26359  0.85044  0.89671  1.0000
  C   C464      1.0  0.00231  0.65315  0.96333  1.0000
  H   H367      1.0  0.26302  0.93823  0.81754  1.0000
  S   S60       1.0  0.98846  0.89891  0.87330  1.0000
  H   H368      1.0  0.95965  0.93284  0.75703  1.0000
  C   C465      1.0  0.21062  0.48960  0.91607  1.0000
  C   C466      1.0  0.25117  0.80431  0.78926  1.0000
  C   C467      1.0  0.06270  0.71418  0.87994  1.0000
  C   C468      1.0  0.08557  0.55788  0.97265  1.0000
  C   C469      1.0  0.09814  0.83436  0.84365  1.0000
  H   H369      1.0  0.08100  0.81889  0.82973  1.0000
  H   H370      1.0  0.28371  0.87393  0.71554  1.0000
  H   H371      1.0  0.01989  0.54529  0.88215  1.0000
  C   C470      1.0  0.24199  0.82956  0.96959  1.0000
  H   H372      1.0  0.08455  0.71287  0.93394  1.0000
  H   H373      1.0  0.15165  0.96751  0.90448  1.0000
  C   C471      1.0  0.16504  0.92306  0.92529  1.0000
  C   C472      1.0  0.01458  0.63601  0.78404  1.0000
  C   C473      1.0  0.15102  0.95206  0.97159  1.0000
  H   H374      1.0  0.24244  0.89378  0.93156  1.0000
  C   C474      1.0  0.07602  0.75602  0.85077  1.0000
  C   C475      1.0  0.07469  0.51978  0.93263  1.0000
  H   H375      1.0  0.21044  0.73529  0.68326  1.0000
  C   C476      1.0  0.23687  0.50633  0.91735  1.0000
  C   C477      1.0  0.21920  0.81407  0.94747  1.0000
  H   H376      1.0  0.06374  0.69744  0.78031  1.0000
  H   H377      1.0  0.12163  0.82270  0.81608  1.0000
  H   H378      1.0  0.11841  0.74972  0.57443  1.0000
  C   C478      1.0  0.16570  0.81215  0.94404  1.0000
  C   C479      1.0  0.02515  0.68459  0.79757  1.0000
  S   S61       1.0  0.05051  0.64926  0.89464  1.0000
  C   C480      1.0  0.19152  0.75457  0.92711  1.0000
  H   H379      1.0  0.28080  0.86438  0.87726  1.0000
  C   C481      1.0  0.98882  0.63632  0.92927  1.0000
  H   H380      1.0  0.97662  0.89907  0.97080  1.0000
  S   S62       1.0  0.09653  0.64919  0.94503  1.0000
  H   H381      1.0  0.95817  0.59867  0.91489  1.0000
  H   H382      1.0  0.11327  0.75939  0.93628  1.0000
  C   C482      1.0  0.15495  0.95486  0.92395  1.0000
  S   S63       1.0  0.03727  0.60694  0.97650  1.0000
  C   C483      1.0  0.00392  0.52371  0.94619  1.0000
  C   C484      1.0  0.27961  0.95887  0.87839  1.0000
  Fe  Fe32      1.0  0.05732  0.90814  0.97722  1.0000
  C   C485      1.0  0.97448  0.95976  0.93268  1.0000
  C   C486      1.0  0.96273  0.89963  0.95103  1.0000
  C   C487      1.0  0.16045  0.91997  0.97320  1.0000
  H   H383      1.0  0.97590  0.62245  0.80140  1.0000
  H   H384      1.0  0.28941  0.83044  0.67292  1.0000
  C   C488      1.0  0.28035  0.95015  0.83521  1.0000
  C   C489      1.0  0.99664  0.96367  0.94986  1.0000
  C   C490      1.0  0.95936  0.49022  0.94704  1.0000
  H   H385      1.0  0.24688  0.50462  0.94532  1.0000
  H   H386      1.0  0.14300  0.48847  0.94198  1.0000
  H   H387      1.0  0.98257  0.56760  0.97142  1.0000
  C   C491      1.0  0.09197  0.51755  0.95820  1.0000
  S   S64       1.0  0.09843  0.49386  0.95022  1.0000
  C   C492      1.0  0.01108  0.97061  0.76736  1.0000
  C   C493      1.0  0.25009  0.95853  0.97844  1.0000
  H   H388      1.0  0.59380  0.03059  0.02372  1.0000
  H   H389      1.0  0.60462  0.44657  0.40651  1.0000
  S   S65       1.0  0.36813  0.43790  0.01562  1.0000
  P   P18       1.0  0.48200  0.99107  0.00415  1.0000
  C   C494      1.0  0.51203  0.97306  0.98074  1.0000
  C   C495      1.0  0.52139  0.05799  0.06949  1.0000
  S   S66       1.0  0.49416  0.41153  0.02186  1.0000
  C   C496      1.0  0.55406  0.32712  0.02057  1.0000
  C   C497      1.0  0.34299  0.03094  0.99076  1.0000
  C   C498      1.0  0.62062  0.44718  0.39097  1.0000
  H   H390      1.0  0.57718  0.28606  0.14330  1.0000
  H   H391      1.0  0.55862  0.24310  0.11488  1.0000
  C   C499      1.0  0.47533  0.02927  0.02693  1.0000
  H   H392      1.0  0.44375  0.98488  0.07377  1.0000
  C   C500      1.0  0.51426  0.03485  0.05144  1.0000
  H   H393      1.0  0.60660  0.10596  0.02205  1.0000
  Fe  Fe33      1.0  0.53332  0.42667  0.98937  1.0000
  C   C501      1.0  0.58478  0.30063  0.02814  1.0000
  S   S67       1.0  0.60314  0.24926  0.15437  1.0000
  C   C502      1.0  0.58819  0.38519  0.25254  1.0000
  S   S68       1.0  0.58972  0.33801  0.18409  1.0000
  S   S69       1.0  0.60602  0.29337  0.24031  1.0000
  H   H394      1.0  0.29259  0.41483  0.06302  1.0000
  H   H395      1.0  0.44250  0.39420  0.04594  1.0000
  Fe  Fe34      1.0  0.32842  0.40552  0.00191  1.0000
  S   S70       1.0  0.56830  0.45511  0.02533  1.0000
  C   C503      1.0  0.59971  0.34880  0.40854  1.0000
  C   C504      1.0  0.57631  0.28331  0.10665  1.0000
  H   H396      1.0  0.61811  0.44652  0.17499  1.0000
  C   C505      1.0  0.59628  0.36197  0.14269  1.0000
  C   C506      1.0  0.57617  0.36093  0.12106  1.0000
  C   C507      1.0  0.58064  0.38074  0.09060  1.0000
  C   C508      1.0  0.60524  0.40201  0.08253  1.0000
  H   H397      1.0  0.38598  0.45113  0.11873  1.0000
  H   H398      1.0  0.51152  0.08518  0.07848  1.0000
  H   H399      1.0  0.55702  0.34491  0.12844  1.0000
  H   H400      1.0  0.56503  0.37987  0.07443  1.0000
  C   C509      1.0  0.44886  0.40795  0.01752  1.0000
  H   H401      1.0  0.59799  0.34774  0.44574  1.0000
  C   C510      1.0  0.61095  0.19468  0.06566  1.0000
  H   H402      1.0  0.34001  0.01989  0.02202  1.0000
  C   C511      1.0  0.60740  0.22960  0.11841  1.0000
  C   C512      1.0  0.58630  0.21021  0.09639  1.0000
  C   C513      1.0  0.58807  0.19295  0.06993  1.0000
  C   C514      1.0  0.61659  0.42819  0.36199  1.0000
  C   C515      1.0  0.48265  0.05253  0.04453  1.0000
  H   H403      1.0  0.60557  0.21695  0.98269  1.0000
  H   H404      1.0  0.56829  0.20820  0.10059  1.0000
  H   H405      1.0  0.57155  0.17787  0.05397  1.0000
  C   C516      1.0  0.61308  0.40544  0.25939  1.0000
  S   S71       1.0  0.30055  0.37409  0.05334  1.0000
  H   H406      1.0  0.40843  0.43272  0.08584  1.0000
  H   H407      1.0  0.51993  0.32432  0.04245  1.0000
  C   C517      1.0  0.58590  0.30404  0.07560  1.0000
  H   H408      1.0  0.29286  0.46690  0.99806  1.0000
  C   C518      1.0  0.50276  0.98076  0.01621  1.0000
  H   H409      1.0  0.50091  0.98403  0.08962  1.0000
  C   C519      1.0  0.61445  0.37374  0.33630  1.0000
  C   C520      1.0  0.60971  0.42958  0.19717  1.0000
  C   C521      1.0  0.41794  0.45307  0.08661  1.0000
  H   H410      1.0  0.55718  0.23677  0.03133  1.0000
  H   H411      1.0  0.59391  0.32269  0.08871  1.0000
  C   C522      1.0  0.62096  0.38272  0.13298  1.0000
  H   H412      1.0  0.61932  0.26910  0.01488  1.0000
  H   H413      1.0  0.60870  0.35234  0.27600  1.0000
  H   H414      1.0  0.47088  0.05986  0.04020  1.0000
  H   H415      1.0  0.58834  0.31121  0.31897  1.0000
  C   C523      1.0  0.58511  0.40924  0.19023  1.0000
  S   S72       1.0  0.55761  0.10537  0.98573  1.0000
  S   S73       1.0  0.61359  0.17223  0.03545  1.0000
  Fe  Fe35      1.0  0.58417  0.43237  0.00583  1.0000
  Fe  Fe36      1.0  0.61944  0.33019  0.20247  1.0000
  C   C524      1.0  0.57432  0.38712  0.21804  1.0000
  S   S74       1.0  0.59462  0.98946  0.98610  1.0000
  C   C525      1.0  0.53455  0.33094  0.01550  1.0000
  H   H416      1.0  0.55396  0.31730  0.05148  1.0000
  C   C526      1.0  0.49085  0.02002  0.03096  1.0000
  C   C527      1.0  0.59124  0.32681  0.38491  1.0000
  H   H417      1.0  0.62014  0.38286  0.98609  1.0000
  C   C528      1.0  0.57434  0.27625  0.01226  1.0000
  C   C529      1.0  0.60608  0.35156  0.31297  1.0000
  H   H418      1.0  0.59739  0.41300  0.35527  1.0000
  C   C530      1.0  0.56581  0.25909  0.09060  1.0000
  C   C531      1.0  0.50561  0.06684  0.06597  1.0000
  H   H419      1.0  0.58293  0.30878  0.40369  1.0000
  C   C532      1.0  0.40528  0.46345  0.10501  1.0000
  H   H420      1.0  0.53957  0.06954  0.08477  1.0000
  C   C533      1.0  0.56502  0.25557  0.04346  1.0000
  C   C534      1.0  0.59444  0.32821  0.33716  1.0000
  H   H421      1.0  0.57459  0.41040  0.16261  1.0000
  H   H422      1.0  0.55544  0.37113  0.21194  1.0000
  H   H423      1.0  0.57935  0.36776  0.27322  1.0000
  S   S75       1.0  0.61188  0.42844  0.04775  1.0000
  H   H424      1.0  0.52743  0.02911  0.05227  1.0000
  C   C535      1.0  0.50859  0.97897  0.06169  1.0000
  C   C536      1.0  0.47383  0.41990  0.99923  1.0000
  H   H425      1.0  0.50659  0.46257  0.13454  1.0000
  H   H426      1.0  0.41256  0.40345  0.01220  1.0000
  H   H427      1.0  0.53437  0.46271  0.07401  1.0000
  P   P19       1.0  0.59621  0.32751  0.98858  1.0000
  H   H428      1.0  0.45780  0.01877  0.00918  1.0000
  H   H429      1.0  0.61877  0.38902  0.40381  1.0000
  C   C537      1.0  0.57312  0.33568  0.98584  1.0000
  C   C538      1.0  0.44255  0.46890  0.06774  1.0000
  C   C539      1.0  0.61152  0.37223  0.38447  1.0000
  C   C540      1.0  0.43185  0.41318  0.99852  1.0000
  H   H430      1.0  0.58729  0.06267  0.98873  1.0000
  Fe  Fe37      1.0  0.58765  0.14739  0.97980  1.0000
  H   H431      1.0  0.45171  0.46043  0.05234  1.0000
  C   C541      1.0  0.58925  0.02970  0.98802  1.0000
  H   H432      1.0  0.55914  0.19484  0.98356  1.0000
  H   H433      1.0  0.37573  0.06447  0.01572  1.0000
  C   C542      1.0  0.36330  0.05629  0.98739  1.0000
  Fe  Fe38      1.0  0.33324  0.41918  0.90017  1.0000
  S   S76       1.0  0.31514  0.40655  0.83120  1.0000
  S   S77       1.0  0.37322  0.45262  0.90477  1.0000
  H   H434      1.0  0.39447  0.44396  0.70236  1.0000
  C   C543      1.0  0.50968  0.02453  0.87652  1.0000
  H   H435      1.0  0.44342  0.00663  0.76441  1.0000
  H   H436      1.0  0.59562  0.13654  0.72830  1.0000
  H   H437      1.0  0.48270  0.04632  0.73576  1.0000
  H   H438      1.0  0.34375  0.97723  0.82137  1.0000
  C   C544      1.0  0.47399  0.45608  0.79937  1.0000
  C   C545      1.0  0.42032  0.04864  0.94448  1.0000
  C   C546      1.0  0.46317  0.98538  0.91609  1.0000
  C   C547      1.0  0.58089  0.04757  0.92155  1.0000
  Fe  Fe39      1.0  0.57521  0.10249  0.92027  1.0000
  S   S78       1.0  0.55218  0.11013  0.87367  1.0000
  H   H439      1.0  0.59383  0.09924  0.76264  1.0000
  S   S79       1.0  0.38774  0.00076  0.91817  1.0000
  S   S80       1.0  0.56527  0.15739  0.93689  1.0000
  H   H440      1.0  0.55346  0.06266  0.79535  1.0000
  C   C548      1.0  0.50314  0.45266  0.84587  1.0000
  Fe  Fe40      1.0  0.58321  0.15137  0.87583  1.0000
  S   S81       1.0  0.60430  0.17675  0.81175  1.0000
  H   H441      1.0  0.38601  0.39950  0.86129  1.0000
  S   S82       1.0  0.60715  0.14334  0.91851  1.0000
  H   H442      1.0  0.44932  0.98103  0.84803  1.0000
  C   C549      1.0  0.53243  0.09884  0.75641  1.0000
  S   S83       1.0  0.54675  0.44714  0.92031  1.0000
  H   H443      1.0  0.47121  0.45665  0.91533  1.0000
  C   C550      1.0  0.53382  0.34320  0.97572  1.0000
  C   C551      1.0  0.55311  0.35249  0.94163  1.0000
  Fe  Fe41      1.0  0.56430  0.42470  0.90980  1.0000
  S   S84       1.0  0.56144  0.40504  0.84367  1.0000
  S   S85       1.0  0.60106  0.45437  0.93843  1.0000
  H   H444      1.0  0.48189  0.05086  0.92009  1.0000
  C   C552      1.0  0.44760  0.02469  0.77537  1.0000
  Fe  Fe42      1.0  0.53625  0.11507  0.93861  1.0000
  H   H445      1.0  0.56097  0.29941  0.91688  1.0000
  C   C553      1.0  0.58135  0.00946  0.91562  1.0000
  C   C554      1.0  0.57841  0.02805  0.89562  1.0000
  H   H446      1.0  0.30705  0.45732  0.78104  1.0000
  H   H447      1.0  0.58742  0.35603  0.91967  1.0000
  C   C555      1.0  0.49103  0.39040  0.85556  1.0000
  C   C556      1.0  0.49548  0.37918  0.89266  1.0000
  C   C557      1.0  0.57495  0.24393  0.90888  1.0000
  C   C558      1.0  0.58326  0.39703  0.82751  1.0000
  C   C559      1.0  0.60299  0.40191  0.85543  1.0000
  H   H448      1.0  0.55281  0.36246  0.91113  1.0000
  C   C560      1.0  0.55973  0.22150  0.93545  1.0000
  C   C561      1.0  0.58154  0.38673  0.78455  1.0000
  C   C562      1.0  0.61968  0.21915  0.75703  1.0000
  H   H449      1.0  0.56636  0.38288  0.76270  1.0000
  C   C563      1.0  0.43047  0.02544  0.80506  1.0000
  C   C564      1.0  0.58806  0.20919  0.81666  1.0000
  C   C565      1.0  0.60397  0.20352  0.79457  1.0000
  C   C566      1.0  0.57280  0.34893  0.94676  1.0000
  C   C567      1.0  0.48882  0.01105  0.84920  1.0000
  H   H450      1.0  0.57614  0.19749  0.84590  1.0000
  H   H451      1.0  0.47071  0.11152  0.71237  1.0000
  C   C568      1.0  0.43551  0.04868  0.81853  1.0000
  H   H452      1.0  0.55688  0.13641  0.72446  1.0000
  C   C569      1.0  0.58346  0.30224  0.85809  1.0000
  H   H453      1.0  0.49061  0.01563  0.81275  1.0000
  C   C570      1.0  0.46630  0.07186  0.94254  1.0000
  H   H454      1.0  0.52773  0.03976  0.86162  1.0000
  C   C571      1.0  0.61264  0.24727  0.93556  1.0000
  C   C572      1.0  0.60080  0.32031  0.93116  1.0000
  H   H455      1.0  0.60449  0.40971  0.88866  1.0000
  C   C573      1.0  0.49090  0.42268  0.72375  1.0000
  H   H456      1.0  0.52317  0.15203  0.72384  1.0000
  C   C574      1.0  0.33184  0.03495  0.91355  1.0000
  H   H457      1.0  0.43154  0.41639  0.86313  1.0000
  C   C575      1.0  0.50048  0.41872  0.68359  1.0000
  Fe  Fe43      1.0  0.35989  0.46087  0.96897  1.0000
  C   C576      1.0  0.47675  0.40281  0.75680  1.0000
  C   C577      1.0  0.53177  0.07828  0.77731  1.0000
  H   H458      1.0  0.50100  0.44733  0.94873  1.0000
  C   C578      1.0  0.57992  0.30645  0.90357  1.0000
  H   H459      1.0  0.52392  0.09387  0.66476  1.0000
  C   C579      1.0  0.49602  0.39494  0.67615  1.0000
  C   C580      1.0  0.46983  0.39208  0.85676  1.0000
  H   H460      1.0  0.51494  0.09858  0.58477  1.0000
  C   C581      1.0  0.30209  0.97462  0.90114  1.0000
  H   H461      1.0  0.50368  0.39196  0.64525  1.0000
  H   H462      1.0  0.51464  0.06267  0.79409  1.0000
  C   C582      1.0  0.32718  0.02003  0.95372  1.0000
  H   H463      1.0  0.56745  0.29209  0.83640  1.0000
  C   C583      1.0  0.55383  0.07833  0.77871  1.0000
  C   C584      1.0  0.59722  0.22470  0.96205  1.0000
  C   C585      1.0  0.49843  0.10300  0.69450  1.0000
  C   C586      1.0  0.61927  0.24010  0.74131  1.0000
  S   S86       1.0  0.49504  0.10083  0.95306  1.0000
  S   S87       1.0  0.34101  0.39367  0.94033  1.0000
  H   H464      1.0  0.56635  0.25125  0.88782  1.0000
  H   H465      1.0  0.50958  0.44164  0.86116  1.0000
  C   C587      1.0  0.44393  0.07072  0.95135  1.0000
  C   C588      1.0  0.57674  0.09910  0.76044  1.0000
  Fe  Fe44      1.0  0.37991  0.42806  0.95077  1.0000
  C   C589      1.0  0.57771  0.11997  0.74092  1.0000
  H   H466      1.0  0.49482  0.44131  0.72898  1.0000
  H   H467      1.0  0.42452  0.45591  0.83660  1.0000
  C   C590      1.0  0.55567  0.11986  0.73892  1.0000
  H   H468      1.0  0.53331  0.18921  0.76662  1.0000
  C   C591      1.0  0.48190  0.44122  0.81886  1.0000
  H   H469      1.0  0.46187  0.11604  0.63190  1.0000
  S   S88       1.0  0.41907  0.43656  0.93264  1.0000
  C   C592      1.0  0.37978  0.37631  0.80381  1.0000
  H   H470      1.0  0.45786  0.44772  0.77787  1.0000
  C   C593      1.0  0.46487  0.44294  0.94376  1.0000
  C   C594      1.0  0.47221  0.37893  0.74891  1.0000
  C   C595      1.0  0.47905  0.36985  0.93147  1.0000
  C   C596      1.0  0.46475  0.05026  0.92702  1.0000
  C   C597      1.0  0.60261  0.24519  0.76234  1.0000
  C   C598      1.0  0.31891  0.47028  0.84886  1.0000
  C   C599      1.0  0.51059  0.09903  0.65819  1.0000
  C   C600      1.0  0.50543  0.10154  0.61271  1.0000
  C   C601      1.0  0.47552  0.11136  0.63924  1.0000
  C   C602      1.0  0.58741  0.01054  0.96164  1.0000
  H   H471      1.0  0.51160  0.43417  0.65841  1.0000
  H   H472      1.0  0.52384  0.02893  0.94401  1.0000
  H   H473      1.0  0.53931  0.21146  0.93529  1.0000
  P   P20       1.0  0.46487  0.40773  0.80953  1.0000
  C   C603      1.0  0.60131  0.25698  0.90937  1.0000
  C   C604      1.0  0.43977  0.43053  0.96111  1.0000
  C   C605      1.0  0.46996  0.04719  0.75974  1.0000
  C   C606      1.0  0.58696  0.22955  0.79986  1.0000
  H   H474      1.0  0.48301  0.36205  0.96099  1.0000
  S   S89       1.0  0.31888  0.42943  0.96095  1.0000
  C   C607      1.0  0.41663  0.37795  0.77360  1.0000
  C   C608      1.0  0.41845  0.02697  0.92942  1.0000
  H   H475      1.0  0.47858  0.35667  0.70320  1.0000
  H   H476      1.0  0.57467  0.02755  0.85953  1.0000
  H   H477      1.0  0.43941  0.01121  0.90843  1.0000
  H   H478      1.0  0.35586  0.07163  0.87906  1.0000
  C   C609      1.0  0.42031  0.40311  0.83758  1.0000
  C   C610      1.0  0.39083  0.36852  0.77232  1.0000
  C   C611      1.0  0.48062  0.10885  0.68473  1.0000
  C   C612      1.0  0.43160  0.39546  0.80622  1.0000
  C   C613      1.0  0.45799  0.37145  0.93300  1.0000
  P   P21       1.0  0.50442  0.09956  0.75347  1.0000
  C   C614      1.0  0.46559  0.99154  0.86903  1.0000
  C   C615      1.0  0.47580  0.07058  0.77505  1.0000
  C   C616      1.0  0.45803  0.07116  0.80367  1.0000
  H   H479      1.0  0.51851  0.34586  0.97161  1.0000
  H   H480      1.0  0.42204  0.04921  0.84115  1.0000
  C   C617      1.0  0.32519  0.98158  0.87956  1.0000
  C   C618      1.0  0.51117  0.12677  0.78440  1.0000
  C   C619      1.0  0.52017  0.15002  0.76079  1.0000
  C   C620      1.0  0.52601  0.17122  0.78494  1.0000
  C   C621      1.0  0.52313  0.16945  0.83278  1.0000
  C   C622      1.0  0.51484  0.14659  0.85656  1.0000
  C   C623      1.0  0.50914  0.12540  0.83254  1.0000
  H   H481      1.0  0.57374  0.23310  0.81570  1.0000
  H   H482      1.0  0.42469  0.37149  0.74917  1.0000
  S   S90       1.0  0.59930  0.26958  0.74122  1.0000
  C   C624      1.0  0.39453  0.39353  0.83656  1.0000
  H   H483      1.0  0.41324  0.00804  0.81772  1.0000
  H   H484      1.0  0.52797  0.18596  0.85147  1.0000
  H   H485      1.0  0.51309  0.14533  0.89374  1.0000
  H   H486      1.0  0.50319  0.10796  0.85163  1.0000
  H   H487      1.0  0.43743  0.38431  0.89898  1.0000
  H   H488      1.0  0.46143  0.36337  0.77406  1.0000
  H   H489      1.0  0.41202  0.43209  0.76527  1.0000
  C   C625      1.0  0.50740  0.01833  0.92344  1.0000
  C   C626      1.0  0.48186  0.37506  0.70878  1.0000
  H   H490      1.0  0.29986  0.45946  0.86389  1.0000
  S   S91       1.0  0.57967  0.07182  0.89283  1.0000
  C   C627      1.0  0.45340  0.38260  0.89597  1.0000
  H   H491      1.0  0.35978  0.36896  0.80307  1.0000
  H   H492      1.0  0.46124  0.08884  0.81444  1.0000
  H   H493      1.0  0.58000  0.99497  0.89483  1.0000
  H   H494      1.0  0.37930  0.35501  0.74716  1.0000
  C   C628      1.0  0.44074  0.02772  0.92092  1.0000
  H   H495      1.0  0.50456  0.39827  0.82654  1.0000
  H   H496      1.0  0.51202  0.37826  0.89171  1.0000
  S   S92       1.0  0.61760  0.33233  0.67604  1.0000
  H   H497      1.0  0.44484  0.08717  0.96335  1.0000
  H   H498      1.0  0.32000  0.02687  0.88446  1.0000
  C   C629      1.0  0.48180  0.43770  0.96263  1.0000
  H   H499      1.0  0.34281  0.99438  0.89547  1.0000
  P   P22       1.0  0.30187  0.98688  0.95649  1.0000
  C   C630      1.0  0.40084  0.45501  0.73269  1.0000
  C   C631      1.0  0.48798  0.10778  0.60323  1.0000
  C   C632      1.0  0.41070  0.44828  0.76823  1.0000
  C   C633      1.0  0.60775  0.31149  0.84008  1.0000
  H   H500      1.0  0.48402  0.10974  0.56798  1.0000
  C   C634      1.0  0.59977  0.38210  0.76893  1.0000
  C   C635      1.0  0.41790  0.46183  0.80823  1.0000
  S   S93       1.0  0.54793  0.40189  0.97636  1.0000
  H   H501      1.0  0.59864  0.37489  0.73525  1.0000
  H   H502      1.0  0.57330  0.27311  0.97600  1.0000
  C   C636      1.0  0.62107  0.39709  0.83997  1.0000
  H   H503      1.0  0.62214  0.13983  0.80215  1.0000
  C   C637      1.0  0.48416  0.99856  0.94350  1.0000
  C   C638      1.0  0.57088  0.21207  0.96244  1.0000
  H   H504      1.0  0.61270  0.27446  0.88907  1.0000
  H   H505      1.0  0.61035  0.30838  0.80467  1.0000
  C   C639      1.0  0.35215  0.06031  0.91035  1.0000
  H   H506      1.0  0.60642  0.44462  0.79071  1.0000
  H   H507      1.0  0.40333  0.04840  0.95073  1.0000
  H   H508      1.0  0.38390  0.09049  0.94444  1.0000
  C   C640      1.0  0.36793  0.07095  0.94718  1.0000
  C   C641      1.0  0.61993  0.38771  0.79626  1.0000
  C   C642      1.0  0.58565  0.04795  0.96824  1.0000
  H   H509      1.0  0.44576  0.36497  0.96380  1.0000
  C   C643      1.0  0.32582  0.97228  0.83700  1.0000
  C   C644      1.0  0.32299  0.46928  0.80199  1.0000
  H   H510      1.0  0.33845  0.97261  0.96467  1.0000
  H   H511      1.0  0.50720  0.97339  0.94547  1.0000
  C   C645      1.0  0.57523  0.77169  0.01771  1.0000
  C   C646      1.0  0.41733  0.92019  0.01966  1.0000
  C   C647      1.0  0.32724  0.96699  0.99639  1.0000
  C   C648      1.0  0.40331  0.52768  0.98256  1.0000
  C   C649      1.0  0.49066  0.82706  0.98307  1.0000
  C   C650      1.0  0.49714  0.56348  0.05822  1.0000
  H   H512      1.0  0.46779  0.72271  0.11307  1.0000
  C   C651      1.0  0.41711  0.48966  0.10389  1.0000
  H   H513      1.0  0.50219  0.78134  0.39710  1.0000
  H   H514      1.0  0.50290  0.80983  0.18452  1.0000
  C   C652      1.0  0.49035  0.74486  0.37232  1.0000
  H   H515      1.0  0.56083  0.72955  0.16457  1.0000
  H   H516      1.0  0.49116  0.84556  0.28051  1.0000
  C   C653      1.0  0.56147  0.80562  0.17467  1.0000
  H   H517      1.0  0.61043  0.80584  0.03285  1.0000
  H   H518      1.0  0.29210  0.90570  0.99755  1.0000
  H   H519      1.0  0.51559  0.79608  0.25211  1.0000
  P   P23       1.0  0.48683  0.51551  0.04301  1.0000
  C   C654      1.0  0.60015  0.79191  0.00746  1.0000
  H   H520      1.0  0.45436  0.80170  0.27149  1.0000
  C   C655      1.0  0.50793  0.77436  0.04327  1.0000
  C   C656      1.0  0.53109  0.48742  0.02697  1.0000
  C   C657      1.0  0.29449  0.96463  0.04487  1.0000
  H   H521      1.0  0.59746  0.84094  0.04066  1.0000
  S   S94       1.0  0.58129  0.87159  0.00355  1.0000
  C   C658      1.0  0.44118  0.94101  0.00488  1.0000
  C   C659      1.0  0.52501  0.66434  0.08679  1.0000
  C   C660      1.0  0.58843  0.81447  0.33857  1.0000
  C   C661      1.0  0.53278  0.81454  0.13980  1.0000
  C   C662      1.0  0.52379  0.55311  0.09715  1.0000
  C   C663      1.0  0.40696  0.55009  0.99794  1.0000
  C   C664      1.0  0.53707  0.57710  0.11544  1.0000
  C   C665      1.0  0.60213  0.87699  0.04770  1.0000
  C   C666      1.0  0.60610  0.85792  0.05987  1.0000
  S   S95       1.0  0.37177  0.50069  0.98429  1.0000
  C   C667      1.0  0.43661  0.96709  0.05791  1.0000
  P   P24       1.0  0.52911  0.72785  0.99776  1.0000
  C   C668      1.0  0.55839  0.75459  0.20962  1.0000
  H   H522      1.0  0.45865  0.84223  0.05479  1.0000
  C   C669      1.0  0.51909  0.80842  0.18168  1.0000
  C   C670      1.0  0.48568  0.88674  0.10764  1.0000
  H   H523      1.0  0.45342  0.82013  0.98374  1.0000
  C   C671      1.0  0.30779  0.97109  0.00209  1.0000
  C   C672      1.0  0.60174  0.71441  0.03990  1.0000
  H   H524      1.0  0.34734  0.95212  0.02679  1.0000
  C   C673      1.0  0.54418  0.68959  0.09264  1.0000
  H   H525      1.0  0.51127  0.87517  0.21309  1.0000
  H   H526      1.0  0.61106  0.91398  0.06264  1.0000
  H   H527      1.0  0.59462  0.70715  0.00668  1.0000
  C   C674      1.0  0.49507  0.73185  0.34016  1.0000
  C   C675      1.0  0.51527  0.74519  0.30778  1.0000
  H   H528      1.0  0.38414  0.90685  0.06358  1.0000
  C   C676      1.0  0.56677  0.73930  0.19632  1.0000
  C   C677      1.0  0.61376  0.89907  0.07213  1.0000
  C   C678      1.0  0.53099  0.77171  0.30752  1.0000
  H   H529      1.0  0.48228  0.55885  0.03498  1.0000
  C   C679      1.0  0.47082  0.82808  0.00171  1.0000
  C   C680      1.0  0.49449  0.72494  0.06294  1.0000
  H   H530      1.0  0.52913  0.83828  0.98978  1.0000
  H   H531      1.0  0.60484  0.74942  0.02565  1.0000
  C   C681      1.0  0.33268  0.95578  0.03200  1.0000
  C   C682      1.0  0.52002  0.76485  0.01931  1.0000
  C   C683      1.0  0.59153  0.75003  0.26387  1.0000
  H   H532      1.0  0.57742  0.79667  0.35832  1.0000
  H   H533      1.0  0.59477  0.84206  0.23260  1.0000
  C   C684      1.0  0.44185  0.50558  0.08548  1.0000
  C   C685      1.0  0.54750  0.79885  0.21668  1.0000
  C   C686      1.0  0.59803  0.83982  0.26810  1.0000
  H   H534      1.0  0.47483  0.73447  0.39765  1.0000
  H   H535      1.0  0.57827  0.80516  0.17146  1.0000
  H   H536      1.0  0.59018  0.77542  0.30838  1.0000
  C   C687      1.0  0.50654  0.65835  0.05507  1.0000
  P   P25       1.0  0.55730  0.78908  0.26618  1.0000
  S   S96       1.0  0.59730  0.66924  0.05946  1.0000
  H   H537      1.0  0.43345  0.58940  0.00972  1.0000
  C   C688      1.0  0.58326  0.76538  0.27719  1.0000
  C   C689      1.0  0.58297  0.81648  0.29282  1.0000
  C   C690      1.0  0.48243  0.73453  0.08695  1.0000
  C   C691      1.0  0.55387  0.81303  0.13632  1.0000
  H   H538      1.0  0.56450  0.81782  0.10394  1.0000
  S   S97       1.0  0.55282  0.91664  0.99888  1.0000
  H   H539      1.0  0.49750  0.89682  0.03587  1.0000
  C   C692      1.0  0.50318  0.50002  0.05314  1.0000
  H   H540      1.0  0.62293  0.84523  0.10759  1.0000
  C   C693      1.0  0.56707  0.76829  0.24969  1.0000
  C   C694      1.0  0.52595  0.78466  0.33964  1.0000
  H   H541      1.0  0.52729  0.82073  0.11011  1.0000
  H   H542      1.0  0.56656  0.77051  0.05091  1.0000
  H   H543      1.0  0.58511  0.89298  0.16361  1.0000
  C   C695      1.0  0.51355  0.83853  0.00498  1.0000
  H   H544      1.0  0.40146  0.94828  0.09828  1.0000
  H   H545      1.0  0.53775  0.80513  0.33989  1.0000
  H   H546      1.0  0.53581  0.92514  0.09926  1.0000
  H   H547      1.0  0.48680  0.48639  0.12209  1.0000
  H   H548      1.0  0.48319  0.71137  0.34054  1.0000
  C   C696      1.0  0.50575  0.77126  0.37199  1.0000
  C   C697      1.0  0.51006  0.58721  0.07738  1.0000
  C   C698      1.0  0.48919  0.75924  0.07722  1.0000
  H   H549      1.0  0.45773  0.81670  0.12646  1.0000
  C   C699      1.0  0.48694  0.89777  0.06447  1.0000
  C   C700      1.0  0.52640  0.80063  0.22002  1.0000
  H   H550      1.0  0.40691  0.49765  0.11653  1.0000
  C   C701      1.0  0.60513  0.69986  0.07188  1.0000
  H   H551      1.0  0.47986  0.76665  0.09586  1.0000
  H   H552      1.0  0.54539  0.75583  0.18825  1.0000
  H   H553      1.0  0.43770  0.78756  0.19432  1.0000
  H   H554      1.0  0.53511  0.86086  0.06034  1.0000
  H   H555      1.0  0.53967  0.86321  0.15156  1.0000
  H   H556      1.0  0.51866  0.73473  0.28332  1.0000
  C   C702      1.0  0.45403  0.80658  0.19815  1.0000
  C   C703      1.0  0.46338  0.81455  0.24164  1.0000
  C   C704      1.0  0.48411  0.83924  0.24671  1.0000
  C   C705      1.0  0.49555  0.85594  0.20833  1.0000
  C   C706      1.0  0.48659  0.84794  0.16434  1.0000
  C   C707      1.0  0.46551  0.82321  0.15964  1.0000
  P   P26       1.0  0.50097  0.86992  0.11513  1.0000
  C   C708      1.0  0.53424  0.89189  0.12450  1.0000
  C   C709      1.0  0.54621  0.91783  0.11356  1.0000
  C   C710      1.0  0.57209  0.93459  0.11987  1.0000
  C   C711      1.0  0.58606  0.92565  0.13808  1.0000
  C   C712      1.0  0.57418  0.89993  0.14993  1.0000
  C   C713      1.0  0.54842  0.88310  0.14297  1.0000
  C   C714      1.0  0.49703  0.85269  0.06403  1.0000
  C   C715      1.0  0.47398  0.84088  0.04190  1.0000
  C   C716      1.0  0.52775  0.96471  0.99053  1.0000
  C   C717      1.0  0.51364  0.74017  0.02932  1.0000
  H   H557      1.0  0.39089  0.55022  0.01068  1.0000
  C   C718      1.0  0.51683  0.85137  0.04521  1.0000
  H   H558      1.0  0.45034  0.52572  0.08463  1.0000
  C   C719      1.0  0.53022  0.59415  0.10558  1.0000
  C   C720      1.0  0.50764  0.67754  0.02822  1.0000
  C   C721      1.0  0.40300  0.92282  0.05325  1.0000
  C   C722      1.0  0.47241  0.88889  0.14441  1.0000
  H   H559      1.0  0.47130  0.88080  0.17818  1.0000
  H   H560      1.0  0.59975  0.55659  0.99694  1.0000
  H   H561      1.0  0.54737  0.95846  0.04252  1.0000
  H   H562      1.0  0.54094  0.61295  0.11879  1.0000
  C   C723      1.0  0.43115  0.57235  0.99740  1.0000
  H   H563      1.0  0.60475  0.74870  0.28464  1.0000
  H   H564      1.0  0.47532  0.91818  0.02397  1.0000
  H   H565      1.0  0.55297  0.58266  0.13668  1.0000
  C   C724      1.0  0.45500  0.49535  0.06803  1.0000
  C   C725      1.0  0.47452  0.91009  0.05773  1.0000
  H   H566      1.0  0.48887  0.70570  0.07081  1.0000
  C   C726      1.0  0.52735  0.70297  0.03288  1.0000
  C   C727      1.0  0.48531  0.51957  0.98207  1.0000
  H   H567      1.0  0.59009  0.72547  0.21274  1.0000
  H   H568      1.0  0.52966  0.54039  0.10496  1.0000
  H   H569      1.0  0.56023  0.72826  0.07136  1.0000
  S   S98       1.0  0.32120  0.88450  0.02473  1.0000
  C   C728      1.0  0.58337  0.73707  0.22336  1.0000
  C   C729      1.0  0.41269  0.94623  0.07250  1.0000
  C   C730      1.0  0.51956  0.50056  0.01920  1.0000
  S   S99       1.0  0.54974  0.60972  0.98707  1.0000
  H   H570      1.0  0.45181  0.92182  0.08915  1.0000
  C   C731      1.0  0.62064  0.86036  0.09757  1.0000
  C   C732      1.0  0.29385  0.88183  0.04893  1.0000
  C   C733      1.0  0.54521  0.70886  0.06618  1.0000
  H   H571      1.0  0.45001  0.90318  0.16610  1.0000
  H   H572      1.0  0.52467  0.64940  0.10637  1.0000
  C   C734      1.0  0.60745  0.73840  0.05087  1.0000
  H   H573      1.0  0.49172  0.63873  0.05033  1.0000
  H   H574      1.0  0.50504  0.60056  0.06876  1.0000
  H   H575      1.0  0.51316  0.79350  0.03550  1.0000
  C   C735      1.0  0.46030  0.90159  0.13773  1.0000
  C   C736      1.0  0.50365  0.54608  0.06838  1.0000
  C   C737      1.0  0.46127  0.91209  0.09437  1.0000
  H   H576      1.0  0.55871  0.69420  0.11680  1.0000
  H   H577      1.0  0.60618  0.93858  0.14242  1.0000
  Fe  Fe45      1.0  0.57644  0.65175  0.99461  1.0000
  H   H578      1.0  0.61323  0.83338  0.39383  1.0000
  C   C738      1.0  0.49913  0.48681  0.09527  1.0000
  H   H579      1.0  0.58142  0.95449  0.10990  1.0000
  C   C739      1.0  0.31891  0.94878  0.07390  1.0000
  H   H580      1.0  0.49326  0.67235  0.00351  1.0000
  C   C740      1.0  0.45084  0.96473  0.02328  1.0000
  H   H581      1.0  0.54350  0.48759  0.00056  1.0000
  C   C741      1.0  0.29986  0.95327  0.08038  1.0000
  C   C742      1.0  0.61603  0.74792  0.09425  1.0000
  C   C743      1.0  0.61465  0.70976  0.11473  1.0000
  C   C744      1.0  0.61844  0.86053  0.28854  1.0000
  C   C745      1.0  0.60872  0.83527  0.35894  1.0000
  H   H582      1.0  0.52332  0.51080  0.98658  1.0000
  H   H583      1.0  0.40968  0.90214  0.00426  1.0000
  C   C746      1.0  0.56195  0.75302  0.98573  1.0000
  H   H584      1.0  0.32260  0.93934  0.10095  1.0000
  C   C747      1.0  0.51041  0.47345  0.10264  1.0000
  H   H585      1.0  0.53442  0.77680  0.99312  1.0000
  H   H586      1.0  0.61752  0.69871  0.13954  1.0000
  C   C748      1.0  0.62002  0.73369  0.12596  1.0000
  C   C749      1.0  0.52623  0.47362  0.06843  1.0000
  S   S100      1.0  0.62047  0.77716  0.10750  1.0000
  H   H587      1.0  0.52971  0.97026  0.10619  1.0000
  C   C750      1.0  0.53443  0.96408  0.03557  1.0000
  S   S101      1.0  0.48193  0.60234  0.98163  1.0000
  C   C751      1.0  0.45230  0.57286  0.98101  1.0000
  H   H588      1.0  0.29028  0.85744  0.10557  1.0000
  C   C752      1.0  0.52469  0.97099  0.07124  1.0000
  Fe  Fe46      1.0  0.33847  0.91217  0.85565  1.0000
  S   S102      1.0  0.31505  0.89511  0.79262  1.0000
  S   S103      1.0  0.37939  0.94438  0.84665  1.0000
  C   C753      1.0  0.40600  0.48946  0.77665  1.0000
  H   H589      1.0  0.43283  0.58515  0.88789  1.0000
  H   H590      1.0  0.39942  0.54978  0.84533  1.0000
  C   C754      1.0  0.49978  0.72395  0.92405  1.0000
  H   H591      1.0  0.33626  0.48429  0.91324  1.0000
  H   H592      1.0  0.52191  0.55503  0.97455  1.0000
  C   C755      1.0  0.43039  0.89231  0.92325  1.0000
  H   H593      1.0  0.48046  0.49315  0.79320  1.0000
  H   H594      1.0  0.41025  0.88184  0.93120  1.0000
  C   C756      1.0  0.41541  0.48227  0.81255  1.0000
  Fe  Fe47      1.0  0.56606  0.61767  0.91475  1.0000
  S   S104      1.0  0.53761  0.62469  0.88538  1.0000
  S   S105      1.0  0.57191  0.59054  0.87570  1.0000
  C   C757      1.0  0.60985  0.89966  0.74525  1.0000
  C   C758      1.0  0.59186  0.55380  0.96343  1.0000
  C   C759      1.0  0.59909  0.77511  0.93350  1.0000
  H   H595      1.0  0.56507  0.74041  0.91872  1.0000
  Fe  Fe48      1.0  0.56562  0.66538  0.90116  1.0000
  S   S106      1.0  0.57193  0.70104  0.86661  1.0000
  C   C760      1.0  0.42400  0.53909  0.81739  1.0000
  S   S107      1.0  0.59538  0.65913  0.92448  1.0000
  S   S108      1.0  0.54939  0.88415  0.91232  1.0000
  H   H596      1.0  0.48861  0.81814  0.95084  1.0000
  S   S109      1.0  0.55673  0.93887  0.89224  1.0000
  Fe  Fe49      1.0  0.38783  0.92184  0.89470  1.0000
  Fe  Fe50      1.0  0.53043  0.90347  0.93542  1.0000
  H   H597      1.0  0.45410  0.53517  0.79286  1.0000
  Fe  Fe51      1.0  0.57791  0.92068  0.87477  1.0000
  C   C761      1.0  0.29017  0.83417  0.74604  1.0000
  C   C762      1.0  0.50533  0.54085  0.95736  1.0000
  C   C763      1.0  0.57667  0.56796  0.90172  1.0000
  C   C764      1.0  0.57352  0.54819  0.87561  1.0000
  C   C765      1.0  0.62170  0.72228  0.75705  1.0000
  C   C766      1.0  0.58921  0.53435  0.93692  1.0000
  H   H598      1.0  0.35045  0.48121  0.74644  1.0000
  C   C767      1.0  0.33943  0.48435  0.87657  1.0000
  C   C768      1.0  0.47076  0.89595  0.92718  1.0000
  C   C769      1.0  0.49406  0.69945  0.85755  1.0000
  C   C770      1.0  0.34762  0.48278  0.78261  1.0000
  H   H599      1.0  0.56737  0.79731  0.93142  1.0000
  C   C771      1.0  0.30340  0.95653  0.81482  1.0000
  Fe  Fe52      1.0  0.58218  0.47472  0.95562  1.0000
  C   C772      1.0  0.59088  0.87743  0.81836  1.0000
  P   P27       1.0  0.40001  0.51380  0.78449  1.0000
  Fe  Fe53      1.0  0.34214  0.90729  0.95863  1.0000
  H   H600      1.0  0.60823  0.82266  0.88840  1.0000
  C   C773      1.0  0.57951  0.53132  0.89325  1.0000
  H   H601      1.0  0.40789  0.56289  0.61270  1.0000
  C   C774      1.0  0.48336  0.52523  0.88685  1.0000
  C   C775      1.0  0.59643  0.74059  0.80318  1.0000
  C   C776      1.0  0.59285  0.71767  0.81875  1.0000
  H   H602      1.0  0.58791  0.58552  0.96664  1.0000
  H   H603      1.0  0.61444  0.85887  0.93165  1.0000
  H   H604      1.0  0.58645  0.74764  0.82060  1.0000
  C   C777      1.0  0.50773  0.49297  0.83554  1.0000
  H   H605      1.0  0.62138  0.88142  0.69864  1.0000
  C   C778      1.0  0.48971  0.71573  0.88098  1.0000
  S   S110      1.0  0.33104  0.92914  0.91542  1.0000
  C   C779      1.0  0.41839  0.55390  0.84319  1.0000
  C   C780      1.0  0.46453  0.50104  0.95855  1.0000
  H   H606      1.0  0.43553  0.86538  0.95907  1.0000
  C   C781      1.0  0.40213  0.52895  0.72984  1.0000
  H   H607      1.0  0.43792  0.55058  0.62959  1.0000
  H   H608      1.0  0.41991  0.49188  0.84453  1.0000
  C   C782      1.0  0.40635  0.55352  0.64541  1.0000
  C   C783      1.0  0.38762  0.54863  0.67829  1.0000
  C   C784      1.0  0.36412  0.49768  0.85741  1.0000
  H   H609      1.0  0.52989  0.69326  0.93438  1.0000
  C   C785      1.0  0.59353  0.85791  0.80476  1.0000
  H   H610      1.0  0.47720  0.94516  0.86379  1.0000
  H   H611      1.0  0.47681  0.59626  0.88187  1.0000
  C   C786      1.0  0.36837  0.49755  0.81000  1.0000
  C   C787      1.0  0.46219  0.58055  0.86336  1.0000
  C   C788      1.0  0.46808  0.56634  0.83687  1.0000
  C   C789      1.0  0.58523  0.57028  0.94627  1.0000
  H   H612      1.0  0.50150  0.82874  0.71377  1.0000
  Fe  Fe54      1.0  0.58010  0.95157  0.95467  1.0000
  C   C790      1.0  0.61303  0.88033  0.73208  1.0000
  S   S111      1.0  0.59417  0.92236  0.80357  1.0000
  H   H613      1.0  0.52137  0.83972  0.63565  1.0000
  C   C791      1.0  0.42323  0.54653  0.65488  1.0000
  H   H614      1.0  0.43647  0.73304  0.87728  1.0000
  H   H615      1.0  0.55077  0.80502  0.75347  1.0000
  H   H616      1.0  0.56972  0.81544  0.67536  1.0000
  C   C792      1.0  0.50417  0.54377  0.90998  1.0000
  H   H617      1.0  0.58254  0.87623  0.85179  1.0000
  H   H618      1.0  0.45200  0.93874  0.97858  1.0000
  H   H619      1.0  0.61497  0.77183  0.75285  1.0000
  C   C793      1.0  0.57430  0.75470  0.94380  1.0000
  H   H620      1.0  0.48265  0.52735  0.85014  1.0000
  H   H621      1.0  0.48742  0.57137  0.83444  1.0000
  C   C794      1.0  0.44474  0.88298  0.93876  1.0000
  C   C795      1.0  0.48248  0.91866  0.90089  1.0000
  H   H622      1.0  0.58692  0.84161  0.82761  1.0000
  H   H623      1.0  0.60827  0.77638  0.90084  1.0000
  H   H624      1.0  0.56721  0.54641  0.84095  1.0000
  C   C796      1.0  0.44198  0.91466  0.89579  1.0000
  H   H625      1.0  0.61591  0.91570  0.72181  1.0000
  C   C797      1.0  0.46809  0.92785  0.88502  1.0000
  H   H626      1.0  0.47878  0.72219  0.86549  1.0000
  H   H627      1.0  0.44897  0.48428  0.97652  1.0000
  C   C798      1.0  0.50836  0.69129  0.87723  1.0000
  H   H628      1.0  0.44765  0.48909  0.89362  1.0000
  H   H629      1.0  0.57816  0.51697  0.87192  1.0000
  C   C799      1.0  0.44892  0.55050  0.96509  1.0000
  C   C800      1.0  0.46366  0.50380  0.91115  1.0000
  C   C801      1.0  0.51422  0.71583  0.94399  1.0000
  C   C802      1.0  0.51832  0.69935  0.92027  1.0000
  H   H630      1.0  0.37127  0.53331  0.74591  1.0000
  H   H631      1.0  0.50247  0.92887  0.89179  1.0000
  C   C803      1.0  0.60485  0.85936  0.76194  1.0000
  Fe  Fe55      1.0  0.52278  0.61861  0.95834  1.0000
  H   H632      1.0  0.30953  0.85057  0.74507  1.0000
  H   H633      1.0  0.55550  0.83303  0.61618  1.0000
  H   H634      1.0  0.60309  0.69099  0.80761  1.0000
  H   H635      1.0  0.51224  0.67904  0.85889  1.0000
  H   H636      1.0  0.37468  0.55425  0.67111  1.0000
  H   H637      1.0  0.48655  0.69329  0.82398  1.0000
  S   S112      1.0  0.34735  0.88836  0.89899  1.0000
  H   H638      1.0  0.54841  0.76679  0.86944  1.0000
  C   C804      1.0  0.61204  0.79366  0.96533  1.0000
  Fe  Fe56      1.0  0.37312  0.95941  0.91030  1.0000
  H   H639      1.0  0.51951  0.56036  0.89120  1.0000
  H   H640      1.0  0.53174  0.48677  0.87669  1.0000
  H   H641      1.0  0.51759  0.51285  0.84270  1.0000
  C   C805      1.0  0.43736  0.57431  0.86662  1.0000
  S   S113      1.0  0.38355  0.93883  0.95805  1.0000
  H   H642      1.0  0.37974  0.50735  0.88004  1.0000
  H   H643      1.0  0.53684  0.83773  0.87691  1.0000
  H   H644      1.0  0.56139  0.83265  0.93487  1.0000
  C   C806      1.0  0.44910  0.54572  0.81380  1.0000
  C   C807      1.0  0.38562  0.53656  0.72054  1.0000
  C   C808      1.0  0.42440  0.52783  0.96605  1.0000
  S   S114      1.0  0.42469  0.92624  0.87186  1.0000
  C   C809      1.0  0.42124  0.53442  0.69706  1.0000
  C   C810      1.0  0.52347  0.87905  0.80749  1.0000
  C   C811      1.0  0.50193  0.87432  0.83167  1.0000
  C   C812      1.0  0.48274  0.84956  0.84579  1.0000
  C   C813      1.0  0.48493  0.82944  0.83541  1.0000
  C   C814      1.0  0.50644  0.83403  0.81070  1.0000
  C   C815      1.0  0.52587  0.85905  0.79745  1.0000
  P   P28       1.0  0.51000  0.80850  0.79719  1.0000
  C   C816      1.0  0.52861  0.80527  0.83935  1.0000
  C   C817      1.0  0.47949  0.77878  0.79939  1.0000
  C   C818      1.0  0.46847  0.76591  0.84198  1.0000
  C   C819      1.0  0.44495  0.74280  0.84432  1.0000
  C   C820      1.0  0.43229  0.73233  0.80417  1.0000
  C   C821      1.0  0.44314  0.74496  0.76167  1.0000
  C   C822      1.0  0.46665  0.76810  0.75920  1.0000
  C   C823      1.0  0.53158  0.78494  0.83825  1.0000
  C   C824      1.0  0.54557  0.78210  0.87130  1.0000
  C   C825      1.0  0.55620  0.79921  0.90622  1.0000
  C   C826      1.0  0.55281  0.81911  0.90824  1.0000
  C   C827      1.0  0.53898  0.82207  0.87505  1.0000
  C   C828      1.0  0.52416  0.81548  0.73958  1.0000
  C   C829      1.0  0.51616  0.82545  0.70571  1.0000
  C   C830      1.0  0.52732  0.83164  0.66133  1.0000
  C   C831      1.0  0.54650  0.82788  0.65031  1.0000
  C   C832      1.0  0.55447  0.81789  0.68363  1.0000
  C   C833      1.0  0.54349  0.81184  0.72816  1.0000
  H   H645      1.0  0.53859  0.89831  0.79725  1.0000
  H   H646      1.0  0.50027  0.88989  0.84022  1.0000
  H   H647      1.0  0.46631  0.84617  0.86530  1.0000
  H   H648      1.0  0.46982  0.81049  0.84670  1.0000
  H   H649      1.0  0.54296  0.86320  0.77935  1.0000
  H   H650      1.0  0.47800  0.77384  0.87344  1.0000
  C   C834      1.0  0.60573  0.70863  0.79586  1.0000
  H   H651      1.0  0.41403  0.71444  0.80597  1.0000
  H   H652      1.0  0.43332  0.73683  0.73053  1.0000
  H   H653      1.0  0.47466  0.77744  0.72589  1.0000
  H   H654      1.0  0.52341  0.77150  0.81143  1.0000
  S   S115      1.0  0.48765  0.88259  0.94459  1.0000
  C   C835      1.0  0.59869  0.89825  0.78840  1.0000
  S   S116      1.0  0.60377  0.93657  0.93359  1.0000
  C   C836      1.0  0.61259  0.75433  0.76480  1.0000
  H   H655      1.0  0.62067  0.71502  0.91922  1.0000
  H   H656      1.0  0.43462  0.52936  0.70413  1.0000
  H   H657      1.0  0.42178  0.51063  0.95388  1.0000
  S   S117      1.0  0.60269  0.51757  0.95521  1.0000
  S   S118      1.0  0.60659  0.83361  0.74638  1.0000
  H   H658      1.0  0.46508  0.55073  0.95191  1.0000
  S   S119      1.0  0.54833  0.65989  0.97184  1.0000
  H   H659      1.0  0.44487  0.97043  0.93062  1.0000
  H   H660      1.0  0.49657  0.73689  0.94121  1.0000
  Fe  Fe57      1.0  0.57437  0.90049  0.97221  1.0000
  H   H661      1.0  0.30385  0.94911  0.78198  1.0000
  H   H662      1.0  0.29425  0.48720  0.92324  1.0000
  C   C837      1.0  0.48683  0.48185  0.80782  1.0000
  C   C838      1.0  0.51587  0.47836  0.85448  1.0000
  H   H663      1.0  0.38956  0.47960  0.70997  1.0000
  C   C839      1.0  0.39824  0.47536  0.73703  1.0000
  H   H664      1.0  0.53523  0.95920  0.96297  1.0000
  S   S120      1.0  0.65374  0.35185  0.24468  1.0000
  H   H665      1.0  0.69681  0.17059  0.98013  1.0000
  C   C840      1.0  0.63792  0.30574  0.45008  1.0000
  Fe  Fe58      1.0  0.67310  0.34255  0.19058  1.0000
  S   S121      1.0  0.71021  0.37541  0.15743  1.0000
  S   S122      1.0  0.66333  0.30620  0.22709  1.0000
  H   H666      1.0  0.90343  0.05547  0.23379  1.0000
  C   C841      1.0  0.89006  0.00537  0.17083  1.0000
  C   C842      1.0  0.79854  0.33888  0.45812  1.0000
  C   C843      1.0  0.73099  0.35489  0.37909  1.0000
  C   C844      1.0  0.64525  0.46689  0.39988  1.0000
  S   S123      1.0  0.79878  0.37163  0.05862  1.0000
  H   H667      1.0  0.82050  0.98400  0.05141  1.0000
  H   H668      1.0  0.63229  0.28629  0.44974  1.0000
  H   H669      1.0  0.63785  0.32962  0.03396  1.0000
  C   C845      1.0  0.75534  0.33975  0.44497  1.0000
  H   H670      1.0  0.92180  0.40786  0.08981  1.0000
  H   H671      1.0  0.68944  0.40866  0.05275  1.0000
  C   C846      1.0  0.64686  0.29068  0.06359  1.0000
  C   C847      1.0  0.89930  0.02223  0.20642  1.0000
  Fe  Fe59      1.0  0.62802  0.28772  0.18619  1.0000
  C   C848      1.0  0.71116  0.36061  0.31387  1.0000
  C   C849      1.0  0.73384  0.37329  0.12851  1.0000
  C   C850      1.0  0.73434  0.35156  0.13210  1.0000
  C   C851      1.0  0.75427  0.35127  0.11036  1.0000
  C   C852      1.0  0.77370  0.37255  0.08447  1.0000
  C   C853      1.0  0.77294  0.39410  0.08038  1.0000
  C   C854      1.0  0.75317  0.39448  0.10240  1.0000
  H   H672      1.0  0.71977  0.33521  0.15254  1.0000
  H   H673      1.0  0.75479  0.33456  0.11403  1.0000
  H   H674      1.0  0.78790  0.41070  0.06109  1.0000
  H   H675      1.0  0.75305  0.41143  0.09961  1.0000
  H   H676      1.0  0.71353  0.45978  0.07585  1.0000
  C   C855      1.0  0.64959  0.34447  0.40914  1.0000
  H   H677      1.0  0.67134  0.20907  0.00636  1.0000
  C   C856      1.0  0.89624  0.04241  0.20624  1.0000
  S   S124      1.0  0.63941  0.32372  0.14659  1.0000
  C   C857      1.0  0.90469  0.98065  0.08158  1.0000
  H   H678      1.0  0.76012  0.32426  0.01650  1.0000
  H   H679      1.0  0.69438  0.41769  0.18332  1.0000
  P   P29       1.0  0.63129  0.40393  0.30462  1.0000
  C   C858      1.0  0.70955  0.35143  0.35872  1.0000
  C   C859      1.0  0.72508  0.45882  0.00627  1.0000
  C   C860      1.0  0.66960  0.27020  0.40137  1.0000
  C   C861      1.0  0.64085  0.13976  0.04169  1.0000
  H   H680      1.0  0.67801  0.36477  0.06251  1.0000
  C   C862      1.0  0.79892  0.36057  0.46735  1.0000
  H   H681      1.0  0.63656  0.38354  0.14904  1.0000
  C   C863      1.0  0.92526  0.42630  0.08170  1.0000
  C   C864      1.0  0.75437  0.36856  0.35424  1.0000
  P   P30       1.0  0.72785  0.34071  0.43567  1.0000
  H   H682      1.0  0.66239  0.26004  0.37022  1.0000
  H   H683      1.0  0.67805  0.31257  0.10732  1.0000
  C   C865      1.0  0.66552  0.36865  0.04495  1.0000
  H   H684      1.0  0.66460  0.24335  0.00742  1.0000
  H   H685      1.0  0.70976  0.31477  0.05258  1.0000
  C   C866      1.0  0.63049  0.23178  0.11312  1.0000
  C   C867      1.0  0.87775  0.00870  0.13475  1.0000
  C   C868      1.0  0.87415  0.02861  0.13546  1.0000
  C   C869      1.0  0.88361  0.04555  0.17083  1.0000
  P   P31       1.0  0.86451  0.98642  0.08995  1.0000
  C   C870      1.0  0.89181  0.02797  0.02734  1.0000
  H   H686      1.0  0.67697  0.17402  0.05104  1.0000
  H   H687      1.0  0.69426  0.35707  0.29821  1.0000
  H   H688      1.0  0.75633  0.35940  0.99162  1.0000
  H   H689      1.0  0.63264  0.28865  0.08766  1.0000
  C   C871      1.0  0.68971  0.41550  0.21986  1.0000
  H   H690      1.0  0.69141  0.34092  0.37717  1.0000
  H   H691      1.0  0.71074  0.40817  0.32143  1.0000
  C   C872      1.0  0.75597  0.37788  0.30931  1.0000
  H   H692      1.0  0.67118  0.40306  0.35011  1.0000
  C   C873      1.0  0.62590  0.35356  0.00802  1.0000
  C   C874      1.0  0.67227  0.30373  0.07462  1.0000
  H   H693      1.0  0.88722  0.41482  0.10088  1.0000
  H   H694      1.0  0.67817  0.44997  0.33489  1.0000
  C   C875      1.0  0.62534  0.40287  0.10378  1.0000
  H   H695      1.0  0.88097  0.06102  0.17096  1.0000
  C   C876      1.0  0.77745  0.36107  0.46064  1.0000
  C   C877      1.0  0.95340  0.46966  0.05171  1.0000
  H   H696      1.0  0.65325  0.35523  0.37723  1.0000
  C   C878      1.0  0.67736  0.15597  0.98955  1.0000
  H   H697      1.0  0.93859  0.39645  0.01298  1.0000
  H   H698      1.0  0.64985  0.21551  0.08477  1.0000
  H   H699      1.0  0.63204  0.14170  0.07216  1.0000
  C   C879      1.0  0.67640  0.40697  0.31376  1.0000
  H   H700      1.0  0.72234  0.41539  0.23788  1.0000
  C   C880      1.0  0.73431  0.37372  0.28898  1.0000
  C   C881      1.0  0.65687  0.28018  0.99070  1.0000
  H   H701      1.0  0.65639  0.37475  0.45194  1.0000
  Fe  Fe60      1.0  0.64181  0.31446  0.27884  1.0000
  H   H702      1.0  0.77391  0.38795  0.28986  1.0000
  H   H703      1.0  0.70824  0.37343  0.43739  1.0000
  C   C882      1.0  0.67205  0.39348  0.03922  1.0000
  H   H704      1.0  0.89219  0.98959  0.17192  1.0000
  S   S125      1.0  0.64011  0.30422  0.35574  1.0000
  H   H705      1.0  0.64440  0.41929  0.09785  1.0000
  H   H706      1.0  0.77812  0.37812  0.46752  1.0000
  H   H707      1.0  0.90861  0.01953  0.23443  1.0000
  C   C883      1.0  0.63920  0.27920  0.02182  1.0000
  H   H708      1.0  0.64257  0.44382  0.23709  1.0000
  H   H709      1.0  0.73537  0.38034  0.25376  1.0000
  H   H710      1.0  0.77131  0.37165  0.36886  1.0000
  C   C884      1.0  0.70545  0.41406  0.25069  1.0000
  C   C885      1.0  0.66621  0.15804  0.02961  1.0000
  H   H711      1.0  0.90336  0.03859  0.05534  1.0000
  H   H712      1.0  0.69626  0.29328  0.97919  1.0000
  H   H713      1.0  0.65504  0.41301  0.21115  1.0000
  S   S126      1.0  0.86785  0.42105  0.99645  1.0000
  H   H714      1.0  0.89490  0.45677  0.08023  1.0000
  C   C886      1.0  0.63214  0.21417  0.08738  1.0000
  C   C887      1.0  0.89794  0.03980  0.98347  1.0000
  C   C888      1.0  0.70005  0.30868  0.43883  1.0000
  C   C889      1.0  0.63719  0.42869  0.34199  1.0000
  C   C890      1.0  0.91016  0.45388  0.07669  1.0000
  Fe  Fe61      1.0  0.82521  0.39956  0.00090  1.0000
  C   C891      1.0  0.65586  0.39851  0.01712  1.0000
  C   C892      1.0  0.69129  0.29480  0.39901  1.0000
  H   H715      1.0  0.91661  0.00110  0.07976  1.0000
  C   C893      1.0  0.77670  0.31768  0.44207  1.0000
  C   C894      1.0  0.75517  0.31809  0.43541  1.0000
  C   C895      1.0  0.95620  0.01740  0.16756  1.0000
  C   C896      1.0  0.68238  0.29285  0.00224  1.0000
  C   C897      1.0  0.66191  0.44875  0.35058  1.0000
  C   C898      1.0  0.64254  0.31934  0.40808  1.0000
  H   H716      1.0  0.70086  0.30302  0.36588  1.0000
  H   H717      1.0  0.86397  0.03097  0.10866  1.0000
  H   H718      1.0  0.77646  0.30092  0.43465  1.0000
  H   H719      1.0  0.73851  0.30154  0.42265  1.0000
  C   C899      1.0  0.65142  0.35550  0.45163  1.0000
  C   C900      1.0  0.66061  0.40868  0.28305  1.0000
  C   C901      1.0  0.64264  0.34877  0.02910  1.0000
  C   C902      1.0  0.69883  0.40985  0.29765  1.0000
  C   C903      1.0  0.66734  0.41279  0.23588  1.0000
  H   H720      1.0  0.64682  0.24647  0.13012  1.0000
  C   C904      1.0  0.87172  0.00248  0.03414  1.0000
  C   C905      1.0  0.90582  0.43024  0.08811  1.0000
  C   C906      1.0  0.85859  0.98883  0.99614  1.0000
  C   C907      1.0  0.69009  0.30489  0.04381  1.0000
  C   C908      1.0  0.66587  0.46771  0.37961  1.0000
  C   C909      1.0  0.94904  0.44596  0.06384  1.0000
  H   H721      1.0  0.81521  0.33853  0.46325  1.0000
  C   C910      1.0  0.71434  0.37241  0.47118  1.0000
  C   C911      1.0  0.63275  0.37861  0.00181  1.0000
  H   H722      1.0  0.94333  0.01812  0.19134  1.0000
  C   C912      1.0  0.71714  0.46795  0.04117  1.0000
  H   H723      1.0  0.70852  0.13762  0.98625  1.0000
  H   H724      1.0  0.72792  0.44390  0.01480  1.0000
  H   H725      1.0  0.94842  0.03352  0.02102  1.0000
  H   H726      1.0  0.75420  0.15592  0.99086  1.0000
  C   C913      1.0  0.95043  0.03677  0.98422  1.0000
  H   H727      1.0  0.66069  0.41774  0.01332  1.0000
  H   H728      1.0  0.90419  0.39949  0.98162  1.0000
  H   H729      1.0  0.93605  0.97668  0.07210  1.0000
  H   H730      1.0  0.75654  0.39869  0.99467  1.0000
  C   C914      1.0  0.62651  0.11958  0.01346  1.0000
  C   C915      1.0  0.75609  0.32591  0.98112  1.0000
  H   H731      1.0  0.63965  0.24018  0.44509  1.0000
  C   C916      1.0  0.65675  0.25905  0.44354  1.0000
  C   C917      1.0  0.62356  0.42783  0.23196  1.0000
  H   H732      1.0  0.95590  0.04239  0.11630  1.0000
  Fe  Fe62      1.0  0.64722  0.36224  0.71979  1.0000
  S   S127      1.0  0.67812  0.37711  0.66409  1.0000
  H   H733      1.0  0.75260  0.45778  0.81764  1.0000
  C   C918      1.0  0.94824  0.97711  0.78892  1.0000
  S   S128      1.0  0.65865  0.31757  0.64745  1.0000
  Fe  Fe63      1.0  0.86424  0.40988  0.92348  1.0000
  Fe  Fe64      1.0  0.68582  0.34893  0.69241  1.0000
  S   S129      1.0  0.72505  0.35663  0.70142  1.0000
  Fe  Fe65      1.0  0.64912  0.34510  0.62177  1.0000
  S   S130      1.0  0.64839  0.35646  0.54627  1.0000
  S   S131      1.0  0.65736  0.33648  0.75057  1.0000
  C   C919      1.0  0.66324  0.09980  0.89812  1.0000
  Fe  Fe66      1.0  0.82243  0.41938  0.90708  1.0000
  S   S132      1.0  0.79017  0.41755  0.87051  1.0000
  S   S133      1.0  0.86485  0.44349  0.89402  1.0000
  C   C920      1.0  0.70248  0.98872  0.87991  1.0000
  C   C921      1.0  0.75476  0.30927  0.94911  1.0000
  C   C922      1.0  0.63881  0.45695  0.74547  1.0000
  C   C923      1.0  0.72355  0.45468  0.86370  1.0000
  H   H734      1.0  0.71377  0.39186  0.57858  1.0000
  C   C924      1.0  0.93465  0.40269  0.88174  1.0000
  Fe  Fe67      1.0  0.62946  0.30712  0.70466  1.0000
  C   C925      1.0  0.66178  0.20088  0.93587  1.0000
  S   S134      1.0  0.89007  0.40054  0.88677  1.0000
  H   H735      1.0  0.66538  0.46940  0.89188  1.0000
  C   C926      1.0  0.74419  0.22191  0.92737  1.0000
  H   H736      1.0  0.66360  0.18491  0.93622  1.0000
  C   C927      1.0  0.74274  0.37300  0.74929  1.0000
  C   C928      1.0  0.73534  0.38543  0.77771  1.0000
  C   C929      1.0  0.74994  0.39862  0.81503  1.0000
  C   C930      1.0  0.77193  0.39934  0.82467  1.0000
  C   C931      1.0  0.77898  0.38633  0.79708  1.0000
  C   C932      1.0  0.76453  0.37339  0.75930  1.0000
  H   H737      1.0  0.71855  0.38518  0.77055  1.0000
  H   H738      1.0  0.74421  0.40845  0.83637  1.0000
  H   H739      1.0  0.79588  0.38677  0.80415  1.0000
  H   H740      1.0  0.77042  0.36388  0.73746  1.0000
  C   C933      1.0  0.71731  0.38290  0.55109  1.0000
  H   H741      1.0  0.66727  0.44279  0.82765  1.0000
  H   H742      1.0  0.74269  0.20561  0.94387  1.0000
  H   H743      1.0  0.71877  0.15379  0.83982  1.0000
  C   C934      1.0  0.95500  0.04513  0.88911  1.0000
  C   C935      1.0  0.68614  0.44660  0.82598  1.0000
  H   H744      1.0  0.63638  0.30600  0.52440  1.0000
  H   H745      1.0  0.64110  0.22913  0.86769  1.0000
  S   S135      1.0  0.91147  0.99971  0.87208  1.0000
  H   H746      1.0  0.78235  0.17338  0.92055  1.0000
  C   C936      1.0  0.75029  0.34899  0.92109  1.0000
  C   C937      1.0  0.74848  0.33211  0.88909  1.0000
  C   C938      1.0  0.75041  0.31189  0.90287  1.0000
  H   H747      1.0  0.68987  0.44827  0.89886  1.0000
  P   P32       1.0  0.75241  0.29295  0.85995  1.0000
  C   C939      1.0  0.74888  0.26484  0.88579  1.0000
  C   C940      1.0  0.72807  0.28397  0.81906  1.0000
  C   C941      1.0  0.70538  0.25987  0.82234  1.0000
  C   C942      1.0  0.68723  0.25267  0.78929  1.0000
  C   C943      1.0  0.69159  0.26943  0.75268  1.0000
  C   C944      1.0  0.71383  0.29361  0.74964  1.0000
  C   C945      1.0  0.73192  0.30093  0.78280  1.0000
  C   C946      1.0  0.76509  0.25740  0.87185  1.0000
  C   C947      1.0  0.75395  0.34581  0.96711  1.0000
  H   H748      1.0  0.64815  0.19511  0.86759  1.0000
  H   H749      1.0  0.64312  0.04351  0.95444  1.0000
  H   H750      1.0  0.65484  0.18361  0.77502  1.0000
  C   C948      1.0  0.78343  0.31242  0.83167  1.0000
  C   C949      1.0  0.80393  0.33096  0.85591  1.0000
  C   C950      1.0  0.82792  0.34615  0.83423  1.0000
  C   C951      1.0  0.83175  0.34286  0.78837  1.0000
  C   C952      1.0  0.81157  0.32416  0.76416  1.0000
  C   C953      1.0  0.78749  0.30886  0.78576  1.0000
  H   H751      1.0  0.93896  0.13167  0.65104  1.0000
  C   C954      1.0  0.67893  0.98494  0.87290  1.0000
  H   H752      1.0  0.75002  0.36524  0.90980  1.0000
  H   H753      1.0  0.74671  0.33562  0.85336  1.0000
  S   S136      1.0  0.64545  0.38588  0.77590  1.0000
  H   H754      1.0  0.70151  0.24652  0.85019  1.0000
  H   H755      1.0  0.66967  0.23414  0.79224  1.0000
  H   H756      1.0  0.67746  0.26394  0.72721  1.0000
  H   H757      1.0  0.71694  0.30688  0.72187  1.0000
  H   H758      1.0  0.74898  0.31981  0.77981  1.0000
  H   H759      1.0  0.77984  0.26822  0.84543  1.0000
  C   C955      1.0  0.63760  0.11739  0.97350  1.0000
  C   C956      1.0  0.62510  0.32902  0.91310  1.0000
  H   H760      1.0  0.93331  0.40384  0.84497  1.0000
  C   C957      1.0  0.73002  0.25027  0.92029  1.0000
  H   H761      1.0  0.80156  0.33383  0.89157  1.0000
  C   C958      1.0  0.72765  0.36882  0.56050  1.0000
  H   H762      1.0  0.85044  0.35486  0.77183  1.0000
  H   H763      1.0  0.81462  0.32162  0.72860  1.0000
  H   H764      1.0  0.77213  0.29435  0.76659  1.0000
  C   C959      1.0  0.72784  0.22901  0.94117  1.0000
  C   C960      1.0  0.70301  0.38075  0.93896  1.0000
  C   C961      1.0  0.73433  0.45522  0.82069  1.0000
  H   H765      1.0  0.64741  0.33200  0.85335  1.0000
  C   C962      1.0  0.65416  0.24045  0.93629  1.0000
  C   C963      1.0  0.64917  0.22616  0.89732  1.0000
  P   P33       1.0  0.64663  0.26403  0.93768  1.0000
  C   C964      1.0  0.67077  0.14857  0.86501  1.0000
  H   H766      1.0  0.77707  0.45160  0.86935  1.0000
  H   H767      1.0  0.76444  0.17196  0.84507  1.0000
  H   H768      1.0  0.66150  0.08837  0.96954  1.0000
  C   C965      1.0  0.73228  0.42648  0.93363  1.0000
  H   H769      1.0  0.68623  0.44303  0.75284  1.0000
  C   C966      1.0  0.75225  0.16496  0.87596  1.0000
  C   C967      1.0  0.91622  0.40179  0.91107  1.0000
  P   P34       1.0  0.67711  0.13267  0.90938  1.0000
  H   H770      1.0  0.73223  0.36700  0.59542  1.0000
  H   H771      1.0  0.63627  0.40099  0.86178  1.0000
  C   C968      1.0  0.65872  0.09150  0.85306  1.0000
  C   C969      1.0  0.66217  0.28612  0.88886  1.0000
  C   C970      1.0  0.65374  0.27826  0.84464  1.0000
  H   H772      1.0  0.69555  0.40574  0.90331  1.0000
  C   C971      1.0  0.69517  0.32749  0.85575  1.0000
  C   C972      1.0  0.68256  0.31123  0.89416  1.0000
  C   C973      1.0  0.62857  0.32476  0.86760  1.0000
  H   H773      1.0  0.62602  0.10198  0.95138  1.0000
  Fe  Fe68      1.0  0.86727  0.45393  0.96746  1.0000
  C   C974      1.0  0.76233  0.16568  0.91845  1.0000
  H   H774      1.0  0.70701  0.18443  0.86704  1.0000
  C   C975      1.0  0.69697  0.44705  0.78349  1.0000
  C   C976      1.0  0.73137  0.35653  0.52526  1.0000
  C   C977      1.0  0.95597  0.39908  0.94694  1.0000
  C   C978      1.0  0.91823  0.40030  0.95858  1.0000
  C   C979      1.0  0.93215  0.01809  0.95634  1.0000
  C   C980      1.0  0.65796  0.08242  0.93454  1.0000
  H   H775      1.0  0.84362  0.36059  0.85306  1.0000
  H   H776      1.0  0.64139  0.33952  0.93370  1.0000
  H   H777      1.0  0.66311  0.10459  0.82427  1.0000
  C   C981      1.0  0.78700  0.47039  0.88226  1.0000
  H   H778      1.0  0.69736  0.20600  0.80796  1.0000
  H   H779      1.0  0.71100  0.34678  0.85966  1.0000
  H   H780      1.0  0.88999  0.03494  0.91165  1.0000
  C   C982      1.0  0.64273  0.04878  0.88138  1.0000
  C   C983      1.0  0.93433  0.02224  0.90858  1.0000
  H   H781      1.0  0.68893  0.31862  0.92744  1.0000
  C   C984      1.0  0.95460  0.40168  0.89951  1.0000
  H   H782      1.0  0.63419  0.02893  0.87522  1.0000
  H   H783      1.0  0.77554  0.23064  0.88203  1.0000
  C   C985      1.0  0.66324  0.13530  0.96174  1.0000
  C   C986      1.0  0.68335  0.18644  0.81843  1.0000
  C   C987      1.0  0.72062  0.14577  0.95538  1.0000
  C   C988      1.0  0.70906  0.40457  0.92333  1.0000
  H   H784      1.0  0.65953  0.28860  0.77242  1.0000
  C   C989      1.0  0.72639  0.15482  0.87317  1.0000
  C   C990      1.0  0.74932  0.42411  0.95956  1.0000
  C   C991      1.0  0.76270  0.23601  0.89254  1.0000
  C   C992      1.0  0.64825  0.06601  0.84485  1.0000
  C   C993      1.0  0.69916  0.45000  0.86608  1.0000
  H   H785      1.0  0.68526  0.36394  0.93056  1.0000
  C   C994      1.0  0.66634  0.21461  0.97516  1.0000
  C   C995      1.0  0.64773  0.05702  0.92613  1.0000
  H   H786      1.0  0.69730  0.33134  0.78226  1.0000
  C   C996      1.0  0.66627  0.29465  0.80646  1.0000
  C   C997      1.0  0.72104  0.45135  0.78084  1.0000
  H   H787      1.0  0.63190  0.21477  0.73946  1.0000
  S   S137      1.0  0.82147  0.38491  0.93007  1.0000
  H   H788      1.0  0.67580  0.99969  0.88010  1.0000
  H   H789      1.0  0.69308  0.30748  0.51234  1.0000
  H   H790      1.0  0.71721  0.25557  0.93143  1.0000
  H   H791      1.0  0.72504  0.97316  0.87461  1.0000
  C   C998      1.0  0.68740  0.31893  0.81200  1.0000
  H   H792      1.0  0.71772  0.00652  0.89231  1.0000
  H   H793      1.0  0.63105  0.25171  0.71184  1.0000
  C   C999      1.0  0.68882  0.17403  0.85165  1.0000
  P   P35       1.0  0.73973  0.45745  0.91571  1.0000
  C   C1000     1.0  0.65315  0.20665  0.89708  1.0000
  C   C1001     1.0  0.65951  0.17384  0.79965  1.0000
  C   C1002     1.0  0.71052  0.14587  0.91308  1.0000
  C   C1003     1.0  0.64107  0.14899  0.81455  1.0000
  C   C1004     1.0  0.64668  0.34179  0.49370  1.0000
  H   H794      1.0  0.91621  0.00068  0.97184  1.0000
  C   C1005     1.0  0.71078  0.38478  0.50648  1.0000
  C   C1006     1.0  0.72938  0.46902  0.96111  1.0000
  C   C1007     1.0  0.64663  0.13636  0.84705  1.0000
  H   H795      1.0  0.75832  0.29521  0.96042  1.0000
  C   C1008     1.0  0.62657  0.45810  0.78475  1.0000
  C   C1009     1.0  0.86486  0.00067  0.95231  1.0000
  H   H796      1.0  0.71368  0.21827  0.96853  1.0000
  C   C1010     1.0  0.71988  0.37861  0.96536  1.0000
  H   H797      1.0  0.64418  0.05950  0.81022  1.0000
  H   H798      1.0  0.91241  0.97313  0.78430  1.0000
  C   C1011     1.0  0.74648  0.15592  0.95808  1.0000
  C   C1012     1.0  0.66239  0.23417  0.97557  1.0000
  H   H799      1.0  0.85505  0.98990  0.92294  1.0000
  H   H800      1.0  0.73878  0.34516  0.53353  1.0000
  H   H801      1.0  0.62822  0.44203  0.72182  1.0000
  C   C1013     1.0  0.74312  0.40028  0.97521  1.0000
  H   H802      1.0  0.63722  0.25963  0.83942  1.0000
  C   C1014     1.0  0.93778  0.39860  0.97630  1.0000
  H   H803      1.0  0.76744  0.44062  0.96782  1.0000
  H   H804      1.0  0.72904  0.45083  0.74799  1.0000
  H   H805      1.0  0.70190  0.39496  0.49976  1.0000
  C   C1015     1.0  0.88448  0.02614  0.94597  1.0000
  C   C1016     1.0  0.64017  0.31687  0.49256  1.0000
  H   H806      1.0  0.65529  0.26409  0.51601  1.0000
  H   H807      1.0  0.63182  0.11727  0.85898  1.0000
  H   H808      1.0  0.95278  0.17305  0.68297  1.0000
  C   C1017     1.0  0.68704  0.29728  0.48113  1.0000
  H   H809      1.0  0.81588  0.37704  0.47966  1.0000
  C   C1018     1.0  0.72474  0.35823  0.48024  1.0000
  C   C1019     1.0  0.66555  0.27253  0.48344  1.0000
  H   H810      1.0  0.91395  0.05920  0.97808  1.0000
  H   H811      1.0  0.65283  0.45247  0.97211  1.0000
  S   S138      1.0  0.82497  0.43333  0.97834  1.0000
  H   H812      1.0  0.71506  0.36019  0.97795  1.0000
  S   S139      1.0  0.68440  0.86001  0.24315  1.0000
  H   H813      1.0  0.63723  0.91862  0.12880  1.0000
  Fe  Fe69      1.0  0.65484  0.81938  0.26369  1.0000
  Fe  Fe70      1.0  0.69818  0.84416  0.19097  1.0000
  S   S140      1.0  0.73963  0.85842  0.17950  1.0000
  H   H814      1.0  0.89019  0.52506  0.07057  1.0000
  C   C1020     1.0  0.64558  0.81262  0.47417  1.0000
  C   C1021     1.0  0.74561  0.87149  0.41839  1.0000
  H   H815      1.0  0.90897  0.92977  0.07158  1.0000
  H   H816      1.0  0.70773  0.49469  0.05846  1.0000
  Fe  Fe71      1.0  0.65755  0.85575  0.18898  1.0000
  Fe  Fe72      1.0  0.64477  0.80379  0.16271  1.0000
  C   C1022     1.0  0.62384  0.85824  0.33385  1.0000
  C   C1023     1.0  0.66384  0.84665  0.02095  1.0000
  C   C1024     1.0  0.64987  0.81648  0.38995  1.0000
  C   C1025     1.0  0.86316  0.94161  0.08674  1.0000
  H   H817      1.0  0.62691  0.74093  0.15929  1.0000
  H   H818      1.0  0.65355  0.47935  0.03283  1.0000
  H   H819      1.0  0.62941  0.78111  0.42970  1.0000
  C   C1026     1.0  0.68869  0.78336  0.12045  1.0000
  H   H820      1.0  0.71705  0.79294  0.16986  1.0000
  C   C1027     1.0  0.63174  0.88216  0.12284  1.0000
  C   C1028     1.0  0.75528  0.87265  0.12562  1.0000
  C   C1029     1.0  0.77895  0.87650  0.11519  1.0000
  C   C1030     1.0  0.79240  0.88895  0.07356  1.0000
  C   C1031     1.0  0.78284  0.89872  0.04313  1.0000
  C   C1032     1.0  0.75891  0.89430  0.05305  1.0000
  C   C1033     1.0  0.74501  0.88097  0.09371  1.0000
  H   H821      1.0  0.78694  0.86993  0.13952  1.0000
  H   H822      1.0  0.81048  0.89165  0.06571  1.0000
  H   H823      1.0  0.75131  0.90176  0.02983  1.0000
  H   H824      1.0  0.72688  0.87820  0.10129  1.0000
  S   S141      1.0  0.67023  0.80350  0.21476  1.0000
  C   C1034     1.0  0.66435  0.84282  0.39240  1.0000
  C   C1035     1.0  0.87425  0.92785  0.08217  1.0000
  H   H825      1.0  0.63048  0.87822  0.26877  1.0000
  C   C1036     1.0  0.90929  0.53610  0.08253  1.0000
  S   S142      1.0  0.64903  0.88533  0.17183  1.0000
  H   H826      1.0  0.68017  0.87432  0.43683  1.0000
  H   H827      1.0  0.64836  0.48158  0.42241  1.0000
  C   C1037     1.0  0.72528  0.85849  0.34577  1.0000
  S   S143      1.0  0.89597  0.49249  0.99506  1.0000
  C   C1038     1.0  0.77930  0.93907  0.13108  1.0000
  H   H828      1.0  0.70152  0.80783  0.42056  1.0000
  C   C1039     1.0  0.65981  0.83895  0.47662  1.0000
  C   C1040     1.0  0.72897  0.81764  0.06019  1.0000
  H   H829      1.0  0.91229  0.64819  0.16304  1.0000
  H   H830      1.0  0.74492  0.83134  0.03795  1.0000
  H   H831      1.0  0.66767  0.81815  0.05249  1.0000
  H   H832      1.0  0.66478  0.77803  0.06518  1.0000
  C   C1041     1.0  0.65967  0.48706  0.99790  1.0000
  C   C1042     1.0  0.67231  0.83045  0.02238  1.0000
  C   C1043     1.0  0.71344  0.79593  0.13495  1.0000
  H   H833      1.0  0.90577  0.60805  0.19349  1.0000
  C   C1044     1.0  0.94484  0.53773  0.11511  1.0000
  C   C1045     1.0  0.94470  0.53420  0.98113  1.0000
  H   H834      1.0  0.90884  0.50323  0.10435  1.0000
  C   C1046     1.0  0.68404  0.78791  0.07592  1.0000
  C   C1047     1.0  0.93977  0.65442  0.11039  1.0000
  C   C1048     1.0  0.82180  0.94999  0.14251  1.0000
  H   H835      1.0  0.94616  0.53274  0.01764  1.0000
  H   H836      1.0  0.78889  0.92196  0.18404  1.0000
  H   H837      1.0  0.86245  0.90744  0.08052  1.0000
  C   C1049     1.0  0.66737  0.51194  0.98705  1.0000
  H   H838      1.0  0.65325  0.84708  0.05008  1.0000
  H   H839      1.0  0.67308  0.77023  0.14386  1.0000
  C   C1050     1.0  0.66993  0.75675  0.98283  1.0000
  C   C1051     1.0  0.70410  0.80498  0.04532  1.0000
  C   C1052     1.0  0.73356  0.81287  0.10470  1.0000
  C   C1053     1.0  0.62851  0.90162  0.10962  1.0000
  C   C1054     1.0  0.79605  0.93583  0.15551  1.0000
  S   S144      1.0  0.67393  0.84342  0.13585  1.0000
  C   C1055     1.0  0.71062  0.83345  0.36302  1.0000
  C   C1056     1.0  0.91985  0.52373  0.10154  1.0000
  C   C1057     1.0  0.92365  0.56248  0.07720  1.0000
  C   C1058     1.0  0.66917  0.85394  0.43544  1.0000
  H   H840      1.0  0.72299  0.86311  0.31095  1.0000
  C   C1059     1.0  0.71336  0.82734  0.40795  1.0000
  H   H841      1.0  0.95310  0.52804  0.12905  1.0000
  H   H842      1.0  0.68497  0.48307  0.38636  1.0000
  H   H843      1.0  0.68142  0.75675  0.00968  1.0000
  H   H844      1.0  0.75934  0.88642  0.43933  1.0000
  H   H845      1.0  0.77869  0.85670  0.42534  1.0000
  H   H846      1.0  0.64001  0.87412  0.34931  1.0000
  C   C1060     1.0  0.74268  0.87753  0.37351  1.0000
  S   S145      1.0  0.64222  0.80134  0.33663  1.0000
  S   S146      1.0  0.62700  0.81632  0.21303  1.0000
  H   H847      1.0  0.92957  0.59179  0.15883  1.0000
  C   C1061     1.0  0.92262  0.64100  0.14745  1.0000
  H   H848      1.0  0.77517  0.95863  0.07427  1.0000
  H   H849      1.0  0.67164  0.85461  0.36111  1.0000
  C   C1062     1.0  0.90054  0.94048  0.07708  1.0000
  C   C1063     1.0  0.64065  0.80150  0.43112  1.0000
  H   H850      1.0  0.94277  0.67206  0.09734  1.0000
  H   H851      1.0  0.69677  0.81878  0.34171  1.0000
  H   H852      1.0  0.75389  0.89696  0.36012  1.0000
  H   H853      1.0  0.66711  0.52345  0.01355  1.0000
  C   C1064     1.0  0.73103  0.84631  0.43591  1.0000
  C   C1065     1.0  0.78826  0.95638  0.09349  1.0000
  H   H854      1.0  0.75271  0.82287  0.11627  1.0000
  P   P36       1.0  0.69786  0.80958  0.98698  1.0000
  H   H855      1.0  0.91522  0.57175  0.06204  1.0000
  H   H856      1.0  0.84385  0.96889  0.00024  1.0000
  C   C1066     1.0  0.71889  0.49839  0.98684  1.0000
  S   S147      1.0  0.80081  0.91842  0.99459  1.0000
  H   H857      1.0  0.81612  0.85451  0.42516  1.0000
  C   C1067     1.0  0.71398  0.48769  0.03144  1.0000
  H   H858      1.0  0.73891  0.93307  0.98031  1.0000
  H   H859      1.0  0.94147  0.89892  0.01059  1.0000
  H   H860      1.0  0.75928  0.92776  0.14082  1.0000
  H   H861      1.0  0.83456  0.94742  0.16214  1.0000
  C   C1068     1.0  0.78126  0.84761  0.45451  1.0000
  H   H862      1.0  0.84279  0.93158  0.08820  1.0000
  C   C1069     1.0  0.94888  0.57672  0.09025  1.0000
  C   C1070     1.0  0.93241  0.60917  0.14465  1.0000
  C   C1071     1.0  0.94955  0.62245  0.10714  1.0000
  C   C1072     1.0  0.91896  0.61839  0.16458  1.0000
  C   C1073     1.0  0.87833  0.96811  0.08698  1.0000
  C   C1074     1.0  0.80260  0.84636  0.45419  1.0000
  C   C1075     1.0  0.95321  0.64523  0.09031  1.0000
  H   H863      1.0  0.93669  0.49149  0.04862  1.0000
  C   C1076     1.0  0.83092  0.96704  0.10414  1.0000
  H   H864      1.0  0.94619  0.58464  0.99570  1.0000
  C   C1077     1.0  0.81400  0.97050  0.08026  1.0000
  C   C1078     1.0  0.68649  0.83015  0.98517  1.0000
  H   H865      1.0  0.71656  0.51377  0.97933  1.0000
  C   C1079     1.0  0.91575  0.96688  0.07698  1.0000
  H   H866      1.0  0.64696  0.71600  0.98207  1.0000
  C   C1080     1.0  0.93383  0.47349  0.05851  1.0000
  C   C1081     1.0  0.66891  0.86220  0.98198  1.0000
  H   H867      1.0  0.66239  0.87478  0.98115  1.0000
  H   H868      1.0  0.82313  0.83384  0.49094  1.0000
  S   S148      1.0  0.66949  0.86863  0.65777  1.0000
  H   H869      1.0  0.73920  0.75425  0.72264  1.0000
  Fe  Fe73      1.0  0.65409  0.80131  0.67837  1.0000
  S   S149      1.0  0.68881  0.83129  0.63652  1.0000
  C   C1082     1.0  0.62735  0.86205  0.90322  1.0000
  Fe  Fe74      1.0  0.69344  0.85723  0.69188  1.0000
  S   S150      1.0  0.72877  0.88780  0.72606  1.0000
  Fe  Fe75      1.0  0.66230  0.84024  0.60472  1.0000
  S   S151      1.0  0.66566  0.85415  0.52975  1.0000
  S   S152      1.0  0.66094  0.82664  0.73576  1.0000
  C   C1083     1.0  0.68667  0.94644  0.85487  1.0000
  Fe  Fe76      1.0  0.84199  0.90669  0.86325  1.0000
  S   S153      1.0  0.81940  0.88296  0.80334  1.0000
  S   S154      1.0  0.88441  0.92796  0.86821  1.0000
  H   H870      1.0  0.94012  0.54032  0.84998  1.0000
  H   H871      1.0  0.77733  0.51041  0.94036  1.0000
  C   C1084     1.0  0.75318  0.86614  0.57277  1.0000
  H   H872      1.0  0.74286  0.75581  0.63799  1.0000
  H   H873      1.0  0.65702  0.59000  0.80768  1.0000
  H   H874      1.0  0.64843  0.67990  0.76185  1.0000
  C   C1085     1.0  0.92633  0.90086  0.90028  1.0000
  H   H875      1.0  0.63104  0.55461  0.86489  1.0000
  H   H876      1.0  0.91249  0.90144  0.88040  1.0000
  H   H877      1.0  0.65528  0.70241  0.90090  1.0000
  C   C1086     1.0  0.69977  0.92707  0.77968  1.0000
  S   S155      1.0  0.84059  0.93924  0.88616  1.0000
  C   C1087     1.0  0.75362  0.88570  0.74677  1.0000
  C   C1088     1.0  0.77058  0.90410  0.77630  1.0000
  C   C1089     1.0  0.79039  0.90314  0.79451  1.0000
  C   C1090     1.0  0.79418  0.88436  0.78187  1.0000
  C   C1091     1.0  0.77776  0.86645  0.75093  1.0000
  C   C1092     1.0  0.75723  0.86676  0.73414  1.0000
  H   H878      1.0  0.76838  0.91922  0.78528  1.0000
  H   H879      1.0  0.80308  0.91735  0.81746  1.0000
  H   H880      1.0  0.78095  0.85232  0.73986  1.0000
  H   H881      1.0  0.74447  0.85262  0.71101  1.0000
  C   C1093     1.0  0.64032  0.84588  0.84223  1.0000
  H   H882      1.0  0.63134  0.71507  0.73899  1.0000
  H   H883      1.0  0.64800  0.92572  0.83302  1.0000
  C   C1094     1.0  0.76684  0.86004  0.92273  1.0000
  P   P37       1.0  0.68309  0.51912  0.84853  1.0000
  C   C1095     1.0  0.75575  0.81804  0.90641  1.0000
  C   C1096     1.0  0.71680  0.53314  0.84519  1.0000
  C   C1097     1.0  0.72641  0.51847  0.83443  1.0000
  C   C1098     1.0  0.75243  0.52898  0.83405  1.0000
  C   C1099     1.0  0.76905  0.55413  0.84528  1.0000
  C   C1100     1.0  0.67472  0.52175  0.94184  1.0000
  C   C1101     1.0  0.75961  0.56870  0.85716  1.0000
  C   C1102     1.0  0.68637  0.92433  0.70151  1.0000
  H   H884      1.0  0.62874  0.75467  0.88471  1.0000
  H   H885      1.0  0.76069  0.80598  0.89108  1.0000
  C   C1103     1.0  0.72758  0.91060  0.85555  1.0000
  H   H886      1.0  0.71381  0.49882  0.82678  1.0000
  H   H887      1.0  0.75968  0.51753  0.82538  1.0000
  H   H888      1.0  0.82340  0.47878  0.85915  1.0000
  C   C1104     1.0  0.73087  0.94532  0.71583  1.0000
  C   C1105     1.0  0.73987  0.86191  0.53243  1.0000
  C   C1106     1.0  0.66157  0.70712  0.86509  1.0000
  C   C1107     1.0  0.64994  0.68841  0.83305  1.0000
  C   C1108     1.0  0.66205  0.57655  0.81528  1.0000
  C   C1109     1.0  0.67753  0.71890  0.77248  1.0000
  C   C1110     1.0  0.68947  0.73780  0.80455  1.0000
  C   C1111     1.0  0.68105  0.73180  0.85091  1.0000
  P   P38       1.0  0.71486  0.76976  0.78676  1.0000
  C   C1112     1.0  0.71890  0.77263  0.72492  1.0000
  C   C1113     1.0  0.70622  0.79102  0.80572  1.0000
  C   C1114     1.0  0.72471  0.81619  0.81510  1.0000
  C   C1115     1.0  0.71773  0.83282  0.82666  1.0000
  C   C1116     1.0  0.69227  0.82458  0.82836  1.0000
  C   C1117     1.0  0.67373  0.79950  0.81957  1.0000
  C   C1118     1.0  0.68064  0.78279  0.80836  1.0000
  C   C1119     1.0  0.70889  0.78360  0.69840  1.0000
  C   C1120     1.0  0.71083  0.78421  0.65046  1.0000
  P   P39       1.0  0.69182  0.92216  0.84037  1.0000
  C   C1121     1.0  0.74476  0.77773  0.80862  1.0000
  C   C1122     1.0  0.76729  0.79968  0.79122  1.0000
  C   C1123     1.0  0.79056  0.80669  0.80849  1.0000
  C   C1124     1.0  0.79166  0.79134  0.84223  1.0000
  C   C1125     1.0  0.76945  0.76895  0.85861  1.0000
  C   C1126     1.0  0.74606  0.76212  0.84192  1.0000
  C   C1127     1.0  0.71152  0.93700  0.68503  1.0000
  C   C1128     1.0  0.75420  0.88263  0.60492  1.0000
  H   H889      1.0  0.68290  0.72304  0.73631  1.0000
  H   H890      1.0  0.68952  0.74622  0.87606  1.0000
  H   H891      1.0  0.74458  0.82338  0.81283  1.0000
  H   H892      1.0  0.73221  0.85235  0.83292  1.0000
  H   H893      1.0  0.68698  0.83776  0.83542  1.0000
  C   C1129     1.0  0.67509  0.54181  0.83597  1.0000
  H   H894      1.0  0.66600  0.76365  0.80038  1.0000
  H   H895      1.0  0.69904  0.79118  0.71439  1.0000
  H   H896      1.0  0.76685  0.81158  0.76456  1.0000
  H   H897      1.0  0.80773  0.82420  0.79596  1.0000
  H   H898      1.0  0.80973  0.79688  0.85572  1.0000
  H   H899      1.0  0.77037  0.75700  0.88460  1.0000
  H   H900      1.0  0.72923  0.74473  0.85521  1.0000
  C   C1130     1.0  0.68052  0.91932  0.74864  1.0000
  H   H901      1.0  0.70548  0.56343  0.78456  1.0000
  H   H902      1.0  0.91498  0.91095  0.73737  1.0000
  H   H903      1.0  0.72392  0.90327  0.82143  1.0000
  H   H904      1.0  0.74078  0.86213  0.96713  1.0000
  H   H905      1.0  0.90367  0.50489  0.89631  1.0000
  C   C1131     1.0  0.78904  0.82410  0.52854  1.0000
  C   C1132     1.0  0.68660  0.76217  0.52103  1.0000
  C   C1133     1.0  0.82652  0.51018  0.89293  1.0000
  C   C1134     1.0  0.74177  0.89485  0.59743  1.0000
  C   C1135     1.0  0.78697  0.50333  0.92198  1.0000
  Fe  Fe77      1.0  0.83440  0.92160  0.95730  1.0000
  H   H906      1.0  0.70232  0.79198  0.63033  1.0000
  H   H907      1.0  0.69414  0.59422  0.76725  1.0000
  H   H908      1.0  0.74190  0.90695  0.62315  1.0000
  H   H909      1.0  0.71639  0.87089  0.49536  1.0000
  H   H910      1.0  0.72991  0.49733  0.91739  1.0000
  C   C1136     1.0  0.66328  0.94305  0.84682  1.0000
  C   C1137     1.0  0.68944  0.56155  0.80281  1.0000
  H   H911      1.0  0.78923  0.56227  0.84505  1.0000
  C   C1138     1.0  0.66665  0.76081  0.54547  1.0000
  C   C1139     1.0  0.94979  0.94211  0.76232  1.0000
  H   H912      1.0  0.63458  0.66936  0.84400  1.0000
  C   C1140     1.0  0.91104  0.94093  0.75827  1.0000
  H   H913      1.0  0.84698  0.52202  0.88877  1.0000
  C   C1141     1.0  0.92084  0.51847  0.91279  1.0000
  C   C1142     1.0  0.71925  0.92953  0.91858  1.0000
  H   H914      1.0  0.69772  0.50885  0.75888  1.0000
  C   C1143     1.0  0.81334  0.51897  0.91554  1.0000
  H   H915      1.0  0.65021  0.90216  0.91014  1.0000
  C   C1144     1.0  0.77251  0.84424  0.90132  1.0000
  C   C1145     1.0  0.66395  0.89104  0.85302  1.0000
  S   S156      1.0  0.83435  0.88819  0.93409  1.0000
  C   C1146     1.0  0.67367  0.50643  0.90687  1.0000
  H   H916      1.0  0.71824  0.89968  0.55217  1.0000
  C   C1147     1.0  0.72676  0.82323  0.95240  1.0000
  H   H917      1.0  0.94704  0.90061  0.84078  1.0000
  H   H918      1.0  0.66099  0.90944  0.76099  1.0000
  H   H919      1.0  0.66162  0.79580  0.91477  1.0000
  C   C1148     1.0  0.73347  0.76367  0.65484  1.0000
  C   C1149     1.0  0.72508  0.94078  0.76309  1.0000
  C   C1150     1.0  0.65358  0.53906  0.85733  1.0000
  C   C1151     1.0  0.66725  0.78282  0.55225  1.0000
  Fe  Fe78      1.0  0.87667  0.91260  0.94101  1.0000
  S   S157      1.0  0.62729  0.80839  0.64317  1.0000
  C   C1152     1.0  0.71545  0.92188  0.87308  1.0000
  H   H920      1.0  0.78027  0.88039  0.91991  1.0000
  C   C1153     1.0  0.62392  0.84168  0.87923  1.0000
  C   C1154     1.0  0.66629  0.48155  0.91814  1.0000
  H   H921      1.0  0.72653  0.56959  0.86778  1.0000
  C   C1155     1.0  0.73278  0.80750  0.93132  1.0000
  H   H922      1.0  0.79012  0.85225  0.88143  1.0000
  H   H923      1.0  0.65164  0.78176  0.57077  1.0000
  C   C1156     1.0  0.73142  0.76288  0.70279  1.0000
  S   S158      1.0  0.90031  0.90114  0.97797  1.0000
  H   H924      1.0  0.72398  0.77416  0.59164  1.0000
  C   C1157     1.0  0.64746  0.88667  0.89044  1.0000
  H   H925      1.0  0.77248  0.58812  0.86641  1.0000
  C   C1158     1.0  0.65785  0.69433  0.78677  1.0000
  H   H926      1.0  0.79213  0.81512  0.55733  1.0000
  H   H927      1.0  0.67284  0.87337  0.80018  1.0000
  H   H928      1.0  0.70151  0.84530  0.91615  1.0000
  H   H929      1.0  0.70895  0.93681  0.93388  1.0000
  Fe  Fe79      1.0  0.63660  0.83613  0.69836  1.0000
  C   C1159     1.0  0.72298  0.77413  0.62870  1.0000
  C   C1160     1.0  0.68792  0.80622  0.53522  1.0000
  H   H930      1.0  0.72001  0.78713  0.93472  1.0000
  C   C1161     1.0  0.69104  0.84547  0.94569  1.0000
  H   H931      1.0  0.68578  0.87297  0.91362  1.0000
  C   C1162     1.0  0.64016  0.75543  0.91243  1.0000
  H   H932      1.0  0.71597  0.94024  0.64842  1.0000
  H   H933      1.0  0.76249  0.85657  0.58021  1.0000
  H   H934      1.0  0.64151  0.52342  0.88173  1.0000
  Fe  Fe80      1.0  0.88222  0.95919  0.89734  1.0000
  C   C1163     1.0  0.65887  0.77862  0.92941  1.0000
  H   H935      1.0  0.76410  0.88553  0.63634  1.0000
  C   C1164     1.0  0.73357  0.55821  0.85747  1.0000
  C   C1165     1.0  0.76363  0.83712  0.49202  1.0000
  H   H936      1.0  0.75357  0.89955  0.86885  1.0000
  C   C1166     1.0  0.74427  0.84960  0.94897  1.0000
  H   H937      1.0  0.65398  0.79309  0.82012  1.0000
  C   C1167     1.0  0.66026  0.87047  0.82900  1.0000
  H   H938      1.0  0.89122  0.93100  0.75048  1.0000
  C   C1168     1.0  0.94150  0.53862  0.88662  1.0000
  C   C1169     1.0  0.74845  0.91658  0.92702  1.0000
  S   S159      1.0  0.64567  0.76215  0.69317  1.0000
  C   C1170     1.0  0.63577  0.73293  0.93158  1.0000
  C   C1171     1.0  0.92452  0.90024  0.94828  1.0000
  C   C1172     1.0  0.72856  0.89083  0.55748  1.0000
  H   H939      1.0  0.65059  0.74273  0.55888  1.0000
  C   C1173     1.0  0.62519  0.74516  0.74141  1.0000
  C   C1174     1.0  0.72757  0.87443  0.52519  1.0000
  H   H940      1.0  0.94225  0.47453  0.96399  1.0000
  C   C1175     1.0  0.70854  0.80792  0.51254  1.0000
  C   C1176     1.0  0.92441  0.92962  0.75103  1.0000
  H   H941      1.0  0.67133  0.91800  0.67775  1.0000
  H   H942      1.0  0.64133  0.95944  0.84940  1.0000
  C   C1177     1.0  0.65069  0.73356  0.96669  1.0000
  H   H943      1.0  0.68068  0.54111  0.93420  1.0000
  C   C1178     1.0  0.64735  0.55658  0.84747  1.0000
  C   C1179     1.0  0.74413  0.90813  0.88241  1.0000
  C   C1180     1.0  0.65934  0.47193  0.96357  1.0000
  C   C1181     1.0  0.64017  0.47667  0.81628  1.0000
  H   H944      1.0  0.95615  0.96200  0.87409  1.0000
  C   C1182     1.0  0.68219  0.86130  0.94413  1.0000
  H   H945      1.0  0.67383  0.47470  0.70539  1.0000
  H   H946      1.0  0.82366  0.53774  0.92880  1.0000
  H   H947      1.0  0.68772  0.82297  0.53970  1.0000
  H   H948      1.0  0.63794  0.80082  0.50538  1.0000
  H   H949      1.0  0.75433  0.81702  0.55812  1.0000
  C   C1183     1.0  0.94600  0.90046  0.87785  1.0000
  C   C1184     1.0  0.66452  0.47526  0.73648  1.0000
  C   C1185     1.0  0.67808  0.49434  0.76734  1.0000
  H   H950      1.0  0.95034  0.70612  0.82192  1.0000
  C   C1186     1.0  0.70647  0.96965  0.87038  1.0000
  C   C1187     1.0  0.76766  0.82524  0.52889  1.0000
  C   C1188     1.0  0.92298  0.96468  0.77719  1.0000
  C   C1189     1.0  0.92228  0.51625  0.96031  1.0000
  H   H951      1.0  0.63139  0.80917  0.95752  1.0000
  C   C1190     1.0  0.66621  0.49452  0.80847  1.0000
  C   C1191     1.0  0.68299  0.57894  0.79271  1.0000
  C   C1192     1.0  0.67369  0.77947  0.96523  1.0000
  C   C1193     1.0  0.72633  0.48895  0.95174  1.0000
  P   P40       1.0  0.73584  0.83841  0.49308  1.0000
  H   H952      1.0  0.94793  0.70498  0.90708  1.0000
  H   H953      1.0  0.76136  0.91473  0.94756  1.0000
  C   C1194     1.0  0.73591  0.92711  0.94525  1.0000
  H   H954      1.0  0.63708  0.83010  0.82284  1.0000
  H   H955      1.0  0.94107  0.48539  0.88330  1.0000
  C   C1195     1.0  0.65944  0.96222  0.85592  1.0000
  H   H956      1.0  0.75036  0.95498  0.70310  1.0000
  C   C1196     1.0  0.77361  0.47872  0.90579  1.0000
  C   C1197     1.0  0.81330  0.48591  0.87617  1.0000
  S   S160      1.0  0.87606  0.94479  0.97040  1.0000
  H   H957      1.0  0.72267  0.78634  0.48531  1.0000
  H   H958      1.0  0.63025  0.47718  0.84650  1.0000
  C   C1198     1.0  0.80652  0.83467  0.49120  1.0000
  C   C1199     1.0  0.70748  0.78564  0.50450  1.0000
  C   C1200     1.0  0.94269  0.89941  0.97351  1.0000
  H   H959      1.0  0.68584  0.74502  0.51492  1.0000
  H   H960      1.0  0.74037  0.94773  0.78638  1.0000
