data_image0
_chemical_formula_structural       C2H2SFeHSHCHCS2CH2PHC3H3CH2CH3CH2CH2CHC2H3C2PCHC3H3CHC3HCHPCH3CFeCHC3H2CHC4HC7HC6H2C2HCH2C6HCH2CH2C2HSHSHFeSFeSCSHC6H2CHC2H3C6H4CH2CPC5H2C2HCSCHC9H3C2HCPHCH3CH2C3H2CH4C2H3C3HCFeHC2H2C2HC4H2CHCHFeH2FeS2FeS2FeSFeS2HFeS2FeSHC4FeS2FeS2FeSFeS3FeS2FeS2FeSFeS3C9H4C6H4C3HC2H3C7H4C6SH3CHPH2C6HCH2C6H4C2HCHFeH2C6PHC7HCHC7H3CH6C2H6C7PC18H20CHC7H3C2HFeCHSCHC4HCHCH5CHC6PC13HC4H8CH7C2HC7PC17H17C8HC3SCHC2H2CHCHCH8PCH3CH4CHCH2C6HCHCH5CHC3S2CH2SCH4CH2C2HC2H2C2SHC5HCHC3HCHSHCHCHCH4CHC3HSHC4H2C2HCHC2HC2HPH2C2H2C2HCHCHCHCHC3HPCHSC3H3CHFeH2CHC2H2CH3SHC2HC3HCH2PC2HCFeS2HSFeCFeS3FeSHCHC4FeS2FeS2FeSFeS3HFeS2FeS2FeSFeS3HC4H2C6H4C6H4SHC4HCH2C8H2CHSCH2CHC6H4C6H4C2H2CHPCH5C4HFeC6H2C2HC5H2CH7C6PC18H20C5SCH5CHCHC6PC2HCHC9H2SH4CH8PCH2C2SH4C10FeH3CPS2C2H4C5H4FeH2C2HC4HC5H3CHPC4H2C2H4C3H4C3HC2SC4HCHC3H3CHCHC3HC4HCH2C2HCHCHCHC2HCH2CH2C2H2C2H2CHC2H3C2H5C3HC2H4CHC2HC2H3C2H3CH7SC2HCHCHC6H3C2SH2FeS2FeS2FeSFeCS2HC4H2FeC3PH2C6H5CH7C4PCHCH2CH2C3HCH4FeHC3H4CHC3HCH4CHCHCHCHCPHC5H2C3HCH2C4HCH2C5HC3HC4HC3H4C3H3PC10HCHC2HCS2HSCHCH2CSHC2HCSC2FeCHCHSHFeS2FeS2FeSFeS3C6H2CHC4HC11H3C6H5C2HC4HCH2C6PCH5CSCH2PHCHCH2CSHCHC2H2C5HC2HCHCPHC3HCH4CHC2H2PC11HCHCHC2H2C2H10C2HCH2C2HC5HCH2CHC2HCHCHCH2C6PC8HCHC8H21CHCHSC2H2FeH4C2H2CPCHFeS2FeS2FeHFeS3FeC2FeS2FeS3HSC2FeS2FeS2FeSFeS3CH2CH4C5HCHCHC7HCH2C6H7C2HCH2CHCH2C7H6CH3CHC6H4C2HC3H3CH2PH5CH2C5HCH3C2HCH4CHC7PC18H13SH5C2H3FeHCH3C3PH3C2H3C2HC2HC2H2CH2C2HSCH5C7PC2HC6HCHC2H2CHC2H3CH2C2HCHCHCHCH2PCHCH2C3HC3SHC9HSH3C3HC7HSC2HCHFeSCFeS2FeSFeS3HCFeS2FeHCH2CH2SCFeS2FeS2FeSFeS3HC3H3C2PHC6H5C6H3PCH2CFeC3H2CH5C6H4C6H4CHC5HC2H2CH3CH2CHC2HC5SC2HCH2C4H3C2PCHCHCSCH2CH4C2HCHC2HCHCH3C2HC2HC2HCH5C2HCH3C2HC7H2C4H3CH3C3FeC2HC3HCHCHPC6H3C4PC3HC2HCHCHC2SH3C2HCHCHC4HCH3C3H3CSC3HCHCHCHFeCSH4CHC4PH2CFeS2FeS2FeSFeS4CSHC2SFeS2FeS2FeSFeS3H2S2C6H2CHC6H8C6H4C2H2C6H4C6H4C6H3CH2CH2C6PC18H6SCH3CH8C3H4C4HCH2C2HC5PC7H5CHC3FeH3CH5C2HSCFeCH3CHCH3SCHCHCHC2HCH3CPH3C5HCPC4HPC12H7C2H6C2HC2FeCHCFeHC3H2CH3CH2C4HC8HFeCH2C2FeCHCHC2HSHC14H3C2H2CHFeC2HSHCSHC2H2CHCH2C4H2C2HCHC7SCHCHC2H3C2H3C3HCH2CPHCHSHPC3HC2HC2H2CHSHCHC3HCH2CH2C2H8CH2C3FeH3CFeC2HCH5CFeS2FeS2FeSFeS4FeS2FeS2FeSFeS3H7FeSFeC2H2C4HC6H4C6H5CH2C6H4C6H6C2H2C6SH3FeHCPCH2CH2CHCPCH2C2HC4SH2C2HC6PCH4CHC5H7CHSH6CHC2H2CS2HCH2CH2C6H2C5PC4H2C3HC4HC3H3C2H2CH4CH2C6PC3H2C13H6CHCH8CH4C2HCHC11H8C5PC15SHCHCH14SCHC3SC6SH2C2H4CFeC2FeC4HSFeC3HC3H2C2HC2HSHCHCH6CH4FeH2C3HC4HC3HPC3HC4HCFeCHCFeS2FeS2FeSFeS3FeSHSHFeSFeCFeS2FeS2FeSFeS3C2HC11H4C6H3C5H2C4HC2H3C6H3C7H4C6H2CHCH2CHCSHCHCH2C4HC3HC2HCH3C5H5CPC2H2CHCHSHCSCH2C5H3SHC2H2CH2C2SC2H3SCHCHCH2CPHC2HC3H2PC4HCHCHCH2C6HC2HCFeHC2H3CPCHC2H2C6PC4SHC9HCH6CHCH10PC3H2C2HC2HCH4CH2CHCHC2H5CH2CHCSH3C4HC3SCHC2H2CPC6HC7H5CH8CH2CHC6HCHCHC2HC2HFeCH2C2H4C2H2C2HC4HC6HC2H2SH2C4HCFeCH2CH2C4H2C2HCHCP2CH3CH3CH2CH4CHCHCHFeH2CFeSCFeS2FeSFeS4FeSCSFeSFeSCFeS2FeS2FeSFeS3C4H2C6H4C2H2C8H3C6H4C6H4C6H4C3HCH3CH3CH2CHCH4CPCHC4HCH2C8PC18H20C6PC7HC2H2C5H4CH5CH2C2HCHC2HCHC2SC4SCHC16H3CH7C5HCH2CH2C2H3C4HCH3CH2CSH2C2SHSC2HSCH2C3H2PFeCH2C4HCH2PHC2H2PCHSC2HCHCH2CH3C6H3CH3PCH4C7HC5HC2HCH3CH6CHCHC3HC4HC2HC2H2CH3CH3CH2C2HCHC3H2C2H2CH3C6HSC3SH2C2HC8HCHFeS3FeSCFeS2FeSFeS3CSC2FeS2FeS2FeSFeS3CFeS4C6H4C4H3C6H4C6H4C6H4C3H2CSC3H4C3HCSC2SCHCHC2HC18H2PCH3C2PH4CH5C4H2C2H2C4H2CH2CH3CHSCHC3HCH2CHC2HC2HC3FeH3CHC6PC9H12C2FePHCH3CHCH3C3H2C3H3CHC6PC18H19CH5CH2C8HC2H2CH2CHCFeH2C2HCH2PHCH3CH2C2SHC4H2C3HCH3C2H4C4H3C5HC2H2FeC3HC2HC3H3PC2HC3HCHC2H2CFe2C4HC5HC2PHCHC4SCHCH3C3H6CH2CH6C4HC4HCSH3C2H2C2H3CHC2H2CFeSFeS2FeS2FeHFeS4FeS2FeSHFeCFeS3Fe2S2FeHS2HSHC6H5C6H4C6H5C6H2C3HCH4C3PC18H16CH2C2H2CH2C2HC2HC3HCFeCSC2H4C2H2C4H2CH4C4HC2HC2H3C2H3C2HC3SH2SHC6PC18H21C2PC4HSC7PCH3S2H2CH4CH2FeSC5HCH2C2H2FeC5H4C2H2CHSH3C3SH5SCH2C2SH3C2HCHCH2C2HSC4H2C5HSCH3CHC2HCHC2H3C3SC4HCHCHC2H4SHCFeS2FeS2FeSFeS3C2H2C2HC2HCFeS2HC2FeS2FeS2FeSFeS3FeSCFeS2FeSCSC7H4C9H4CHCHC6H4CHC2HC2H3C2H2CPC3HC3H2C6HCH2C6H4CHC6H4C6HCHC3H3C2HCPHCHC3HCHC3H8C3H2CHCH4C4HPC2HC11HC4H3CHC3H6CH2CH3C2HC3SCHC2H2C7PC9HC8H11CH3CH4CH2CH2C2H2CFeSH2CHCHCHCH2CH2C5PHCH3CHC5H5C3H2PCSC2H2CHS2C8HSHC2H5CH2CH6C4HPCPCHC2HC2HCHC7HCHC2HCH8C3H5C2H2CFeCHCH2CHCHSCHSH2SCHC2SHC3HCH2CH3CHC2H5C2HCSHC2H2SHCHS2FeS2FeS2FeSFeCS2C2H2FeSCHC2FeS2CHFeSCSFeS2FeS2FeSFeS3FeS2FeS2Fe3HS2C6H4C5H4C6H4C7H3C2HC6H5C3HCHC6H6C3HC3H2SH4C3PC23H15C2H2C5HSC9H2CHPH3CHC4H6CHCHC6PC12H14CHC2H4C3H2CH2CHCHC8H3C7HCHCHPC9H2C4H2C5H7CHCH2PH4C2H2PC9HSHC2HPH8C2HC2H3C2HCHC2HSC2HC3H2CH2PC3H2C6HC2SH4FeHCH5CH4C2H2CHPHCH2C2HC3H2C4HCHCHC2H3CSC2H2C2HC3H5CHCH3CFeHCHC3H2S2H2CHC3FeS2FeS2FeCFeS3FeS2FeSCFeSFeS2FeSFeS2FeSFeS3C2PHC7H2C6H7C6H4PC5H2CHC2H2C2HC4H2CH2CHC7H6C10H2C2HCH2C4HCHCH2C3HCHCHCPC12HC3H5C3H3CHC2HFeC8H7C6PC18H20PH2CHC2HC7H3CH4C2HC5H5CHCH3CH2SC4H2C2H2CHCHC3H5CH3C2HC4HC3HCH3C3HC3HCSC2H4CH3C2HCHPC2HPC3H2C5H2C7HCH2CHPC2H2C2H4CHSH2CH3C3HCH2C3H2C4H4CH2C2HFeSCSCHFeSFeS2FeCS2FeS2FeS2FeSFeCS2CFeS2FeS2FeSFeS3C2H5CHCHSC2HCHC7H3CFeC2HC3H3C6H4C6H5C5H4C4H5C7H6C4H4CHC5HSH2C2H3CHC3H3C6HCPHCH2C2H4C6HCHCHPC2HCHC2HCH4CSHC3HC4H2C4HC3HCSC5H2C2HCFeSCH2PH4C2HC2HC6PC18H18C3PCH2C2H2CHCHCH4CH5CHC4HCHCH4CH2C4H4SH2CPCH2C2H4C7PC7HC3HC6H7CH2CH4C9H2CPH2C2HC2FeCSHC3HPC3HC3SC4H3CH2C2H2CH2CHC2H3C5H3C2H2C5H4CHCHFeSHFeSCFeSFeS2H2SCFeS2FeS2FeSFeS3FeS2FeS2FeSFeSC4H2CH2C4H4C4H4C3H2C7H4C6H4CH3CHC2H4CH3CHCHPC2HC8H2C2SH4C4H3C3PHCH2CHC7HC2HC7H2CHCHSC2HC2HCH2CH2C4HCH2SFeHC9HCHCH3P2C4H5CHC5HC2H3CHCH2C4HC2HCH4CHCHC2H2CH2C2HSHCHC5PC4HC2HC2H8C2HC2HC5HSH2SCFeSFeS3HFeS2FeSFeSFeS3FeS2FeS2FeS2C3HC2H3CSC3HC6H5C5H2C6H9C2HC6H2CH7C3H2C2HCHCHC2HPH3CH2CHC3HCHCHCH2CHCH2C3HCHPCHC7HC4H3CHC4HC3HC8PC7HCH3C6H10CH2CHCHFeC2H2CHCH3C2HC2H3C2SC2H2C2HC3HC4PH3C2HCH2C4PC18HC2H13C3HCFeH2C3H5C2H4C3HFeS2FeH3CFeS2FeC2S2FeS2FeS2FeSFeCS3H2FeSHFeS2FeS2FeSFeS3H2C3HC2H4C6H4C6H4C6H4C3HC2H3C7H4C3HC4PC12H3CH8C2HC3PC3H2C11H3CH2FeC3H6C2H4C4HC2H2C4FeCH3CHSHC4H7SC6HC3HCPC7HC2HC5HCHC2H8CH2CH3CH3CSCH5CPHCSCHCH2C2H2CH3PC2H3CHC3FeHC6HCSFeHCH5SH5C2HC3PC3H2C13H2C2H16C6PC18HCHCH2PHC4HFeH2CHC2HC2H3CH2FeC4H2C2HC3H2CHCH2C2HC2SCH2CH2CFeS2HCFeSFeHS2CSH2SCFe2HCSHFeS2FeS2FeSFeS3CSFeSFeS2FeSFeS3CSC7H4C6H4PHFeC6H6SCHC2H4CHCH6C3H2C6H4C4H4C3PH2CHCH4C3HCSC3HCH4CHCH2CHCH4C2HC6PC18H19SHCH4C2HSHCHC6HCH2CH3C4H4C2H2CH2CHCH2C4PC18H2CH3CH14PC9SPCH5CFeH2SHC2H2C4HCHC7HCHC2H2CH6CHC2FeHC4H2CFeC2SCH2CHCHC2H2C3HC3H2CH2C3HSCHCFeC8H2SCHSFeCS2C7PCH4C4HPCHCHC3HC2HC4H3CHCH5C2H3CHPCSCH2SCHC3H2C4HCHCHC3HCH3SHCH3C3H2CHC3SHCH3C5HC3HCH3CH2CHC5H2C3H3C4H6SHC
_chemical_formula_sum              "C4320 H3456 S576 Fe288 P144"
_cell_length_a       77.0509
_cell_length_b       76.5658
_cell_length_c       62.6933
_cell_angle_alpha    82.3885
_cell_angle_beta     82.3166
_cell_angle_gamma    104.377

_space_group_name_H-M_alt    "P 1"
_space_group_IT_number       1

loop_
  _space_group_symop_operation_xyz
  'x, y, z'

loop_
  _atom_site_type_symbol
  _atom_site_label
  _atom_site_symmetry_multiplicity
  _atom_site_fract_x
  _atom_site_fract_y
  _atom_site_fract_z
  _atom_site_occupancy
  C   C1        1.0  0.00990  0.19889  0.04120  1.0000
  C   C2        1.0  0.07542  0.26888  0.12451  1.0000
  H   H1        1.0  0.14057  0.29783  0.15950  1.0000
  H   H2        1.0  0.19284  0.32284  0.08690  1.0000
  S   S1        1.0  0.12764  0.31368  0.08427  1.0000
  Fe  Fe1       1.0  0.06250  0.30256  0.06912  1.0000
  H   H3        1.0  0.14007  0.31837  0.12568  1.0000
  S   S2        1.0  0.04163  0.27445  0.07922  1.0000
  H   H4        1.0  0.99990  0.27483  0.21794  1.0000
  C   C3        1.0  0.99702  0.29090  0.01977  1.0000
  H   H5        1.0  0.12324  0.29959  0.23357  1.0000
  C   C4        1.0  0.00057  0.28522  0.15508  1.0000
  S   S3        1.0  0.08976  0.30603  0.04838  1.0000
  S   S4        1.0  0.07603  0.31547  0.09496  1.0000
  C   C5        1.0  0.04938  0.26469  0.01969  1.0000
  H   H6        1.0  0.99093  0.23387  0.03032  1.0000
  H   H7        1.0  0.19502  0.29430  0.04897  1.0000
  P   P1        1.0  0.08554  0.31594  0.16436  1.0000
  H   H8        1.0  0.08834  0.28136  0.18847  1.0000
  C   C6        1.0  0.02581  0.23377  0.19134  1.0000
  C   C7        1.0  0.01895  0.26209  0.07775  1.0000
  C   C8        1.0  0.01399  0.24324  0.08552  1.0000
  H   H9        1.0  0.15429  0.31082  0.18952  1.0000
  H   H10       1.0  0.99911  0.22872  0.18318  1.0000
  H   H11       1.0  0.10850  0.26412  0.98729  1.0000
  C   C9        1.0  0.00591  0.26993  0.06958  1.0000
  H   H12       1.0  0.02376  0.23695  0.09195  1.0000
  H   H13       1.0  0.00054  0.30252  0.02803  1.0000
  C   C10       1.0  0.04100  0.24685  0.19464  1.0000
  H   H14       1.0  0.00945  0.28450  0.06373  1.0000
  H   H15       1.0  0.01745  0.27287  0.13475  1.0000
  H   H16       1.0  0.13174  0.30710  0.04092  1.0000
  C   C11       1.0  0.01066  0.23909  0.18575  1.0000
  H   H17       1.0  0.03961  0.25662  0.03379  1.0000
  H   H18       1.0  0.03588  0.19744  0.02516  1.0000
  C   C12       1.0  0.98592  0.27455  0.21712  1.0000
  H   H19       1.0  0.14280  0.27225  0.99569  1.0000
  H   H20       1.0  0.02577  0.21949  0.19305  1.0000
  C   C13       1.0  0.00436  0.31760  0.14265  1.0000
  H   H21       1.0  0.16030  0.30503  0.09389  1.0000
  C   C14       1.0  0.99602  0.30157  0.15773  1.0000
  C   C15       1.0  0.14620  0.31248  0.15791  1.0000
  H   H22       1.0  0.02635  0.28503  0.18458  1.0000
  H   H23       1.0  0.04218  0.22708  0.00050  1.0000
  H   H24       1.0  0.22408  0.30968  0.02389  1.0000
  C   C16       1.0  0.01764  0.31760  0.12517  1.0000
  C   C17       1.0  0.13924  0.28462  0.99880  1.0000
  P   P2        1.0  0.99145  0.26483  0.17561  1.0000
  C   C18       1.0  0.98820  0.25875  0.06905  1.0000
  H   H25       1.0  0.07949  0.24320  0.98395  1.0000
  C   C19       1.0  0.02211  0.30139  0.12222  1.0000
  C   C20       1.0  0.06694  0.27321  0.02255  1.0000
  C   C21       1.0  0.09658  0.29255  0.19464  1.0000
  H   H26       1.0  0.10471  0.27443  0.21830  1.0000
  H   H27       1.0  0.02370  0.28681  0.01707  1.0000
  H   H28       1.0  0.09314  0.29119  0.00708  1.0000
  C   C22       1.0  0.04107  0.26526  0.19235  1.0000
  H   H29       1.0  0.05267  0.29536  0.14949  1.0000
  C   C23       1.0  0.19550  0.30508  0.03564  1.0000
  C   C24       1.0  0.02943  0.22204  0.01187  1.0000
  C   C25       1.0  0.01670  0.23239  0.01277  1.0000
  H   H30       1.0  0.14011  0.27907  0.03323  1.0000
  C   C26       1.0  0.02597  0.20530  0.02589  1.0000
  H   H31       1.0  0.07050  0.27146  0.03869  1.0000
  P   P3        1.0  0.02208  0.25455  0.99540  1.0000
  C   C27       1.0  0.06101  0.27569  0.13222  1.0000
  H   H32       1.0  0.10908  0.29542  0.14520  1.0000
  H   H33       1.0  0.10397  0.27101  0.12291  1.0000
  H   H34       1.0  0.04782  0.27051  0.12778  1.0000
  C   C28       1.0  0.16425  0.31892  0.08501  1.0000
  Fe  Fe2       1.0  0.10303  0.32131  0.07266  1.0000
  C   C29       1.0  0.00557  0.26666  0.00311  1.0000
  H   H35       1.0  0.05285  0.27539  0.19482  1.0000
  C   C30       1.0  0.13290  0.30413  0.02447  1.0000
  C   C31       1.0  0.99734  0.20924  0.04251  1.0000
  C   C32       1.0  0.01013  0.28191  0.01353  1.0000
  H   H36       1.0  0.00728  0.18606  0.05232  1.0000
  H   H37       1.0  0.99324  0.21772  0.09113  1.0000
  C   C33       1.0  0.02602  0.27065  0.18657  1.0000
  H   H38       1.0  0.07326  0.25847  0.11424  1.0000
  C   C34       1.0  0.04450  0.26668  0.99890  1.0000
  C   C35       1.0  0.98786  0.26077  0.99866  1.0000
  C   C36       1.0  0.07964  0.28421  0.00482  1.0000
  C   C37       1.0  0.17988  0.31068  0.03298  1.0000
  H   H39       1.0  0.16731  0.30428  0.04434  1.0000
  C   C38       1.0  0.13767  0.28837  0.02008  1.0000
  C   C39       1.0  0.11622  0.30270  0.22028  1.0000
  C   C40       1.0  0.00072  0.22597  0.02846  1.0000
  C   C41       1.0  0.09267  0.27592  0.12942  1.0000
  C   C42       1.0  0.09794  0.31082  0.18590  1.0000
  C   C43       1.0  0.99659  0.23226  0.08500  1.0000
  C   C44       1.0  0.09553  0.28983  0.14198  1.0000
  H   H40       1.0  0.05273  0.24269  0.19892  1.0000
  C   C45       1.0  0.08122  0.29706  0.14942  1.0000
  C   C46       1.0  0.10578  0.28854  0.21166  1.0000
  C   C47       1.0  0.01363  0.28526  0.13712  1.0000
  C   C48       1.0  0.06388  0.28981  0.14452  1.0000
  C   C49       1.0  0.01066  0.25759  0.18335  1.0000
  C   C50       1.0  0.21189  0.31376  0.02149  1.0000
  H   H41       1.0  0.03537  0.31275  0.22445  1.0000
  H   H42       1.0  0.03231  0.30135  0.10851  1.0000
  C   C51       1.0  0.07480  0.28651  0.98417  1.0000
  C   C52       1.0  0.13082  0.31222  0.98639  1.0000
  H   H43       1.0  0.99908  0.32259  0.08379  1.0000
  C   C53       1.0  0.13603  0.29664  0.98173  1.0000
  H   H44       1.0  0.98505  0.20448  0.05473  1.0000
  H   H45       1.0  0.06430  0.30715  0.20913  1.0000
  C   C54       1.0  0.11750  0.32089  0.21186  1.0000
  C   C55       1.0  0.05725  0.31400  0.19839  1.0000
  C   C56       1.0  0.15393  0.31980  0.17480  1.0000
  C   C57       1.0  0.12950  0.31603  0.00766  1.0000
  C   C58       1.0  0.04080  0.31705  0.20716  1.0000
  C   C59       1.0  0.06449  0.32000  0.17607  1.0000
  H   H46       1.0  0.98757  0.25615  0.13119  1.0000
  C   C60       1.0  0.14594  0.32405  0.13885  1.0000
  H   H47       1.0  0.10731  0.32365  0.11988  1.0000
  H   H48       1.0  0.05793  0.32407  0.00122  1.0000
  C   C61       1.0  0.05735  0.27771  0.98113  1.0000
  H   H49       1.0  0.98504  0.18902  0.00422  1.0000
  H   H50       1.0  0.98625  0.30223  0.17151  1.0000
  C   C62       1.0  0.18062  0.32505  0.01629  1.0000
  C   C63       1.0  0.10840  0.32495  0.19478  1.0000
  H   H51       1.0  0.02510  0.27951  0.91800  1.0000
  S   S5        1.0  0.08003  0.29770  0.84058  1.0000
  H   H52       1.0  0.11997  0.28196  0.91751  1.0000
  S   S6        1.0  0.06896  0.28515  0.89269  1.0000
  H   H53       1.0  0.05326  0.29194  0.79553  1.0000
  Fe  Fe3       1.0  0.09434  0.30203  0.86929  1.0000
  S   S7        1.0  0.12091  0.29467  0.87451  1.0000
  Fe  Fe4       1.0  0.05408  0.28346  0.86413  1.0000
  S   S8        1.0  0.03549  0.25677  0.85808  1.0000
  C   C64       1.0  0.00149  0.26333  0.71151  1.0000
  S   S9        1.0  0.04562  0.30906  0.86686  1.0000
  H   H54       1.0  0.16980  0.31566  0.92479  1.0000
  C   C65       1.0  0.01202  0.24788  0.85655  1.0000
  C   C66       1.0  0.00681  0.23034  0.85128  1.0000
  C   C67       1.0  0.00195  0.17769  0.91338  1.0000
  C   C68       1.0  0.17207  0.28744  0.95785  1.0000
  C   C69       1.0  0.08844  0.25155  0.96942  1.0000
  C   C70       1.0  0.99859  0.25718  0.86047  1.0000
  H   H55       1.0  0.02467  0.22476  0.97030  1.0000
  H   H56       1.0  0.06833  0.25427  0.79070  1.0000
  C   C71       1.0  0.18688  0.26879  0.93750  1.0000
  H   H57       1.0  0.00237  0.27082  0.86434  1.0000
  C   C72       1.0  0.05852  0.26323  0.76163  1.0000
  C   C73       1.0  0.01428  0.30199  0.81537  1.0000
  H   H58       1.0  0.11229  0.31131  0.93888  1.0000
  H   H59       1.0  0.02575  0.27961  0.82385  1.0000
  H   H60       1.0  0.07170  0.26651  0.75122  1.0000
  C   C74       1.0  0.02468  0.26747  0.92954  1.0000
  C   C75       1.0  0.01518  0.20931  0.89627  1.0000
  C   C76       1.0  0.14470  0.30626  0.86798  1.0000
  C   C77       1.0  0.15710  0.29826  0.87750  1.0000
  C   C78       1.0  0.17608  0.30659  0.87247  1.0000
  C   C79       1.0  0.14075  0.31155  0.93439  1.0000
  H   H61       1.0  0.15198  0.28544  0.88873  1.0000
  H   H62       1.0  0.18534  0.30016  0.87987  1.0000
  H   H63       1.0  0.17277  0.29722  0.96892  1.0000
  H   H64       1.0  0.03817  0.24628  0.81439  1.0000
  C   C80       1.0  0.00817  0.28921  0.74742  1.0000
  H   H65       1.0  0.09091  0.26110  0.91430  1.0000
  H   H66       1.0  0.01441  0.21749  0.71100  1.0000
  C   C81       1.0  0.02629  0.26188  0.76633  1.0000
  P   P4        1.0  0.13732  0.29118  0.95452  1.0000
  C   C82       1.0  0.15641  0.28179  0.94857  1.0000
  C   C83       1.0  0.11639  0.27484  0.95257  1.0000
  C   C84       1.0  0.11124  0.27358  0.93210  1.0000
  C   C85       1.0  0.09475  0.26166  0.93028  1.0000
  C   C86       1.0  0.08325  0.25075  0.94896  1.0000
  H   H67       1.0  0.19919  0.28518  0.95969  1.0000
  H   H68       1.0  0.03913  0.31398  0.97346  1.0000
  C   C87       1.0  0.15624  0.26971  0.93355  1.0000
  C   C88       1.0  0.02502  0.30245  0.74126  1.0000
  H   H69       1.0  0.02975  0.25175  0.90457  1.0000
  C   C89       1.0  0.02446  0.25444  0.78854  1.0000
  S   S10       1.0  0.04818  0.31520  0.92703  1.0000
  C   C90       1.0  0.00691  0.25520  0.73000  1.0000
  H   H70       1.0  0.99925  0.22793  0.90261  1.0000
  C   C91       1.0  0.04340  0.26588  0.75288  1.0000
  C   C92       1.0  0.03960  0.25176  0.79719  1.0000
  C   C93       1.0  0.02729  0.29222  0.81283  1.0000
  C   C94       1.0  0.02739  0.25185  0.92197  1.0000
  C   C95       1.0  0.02213  0.26787  0.95194  1.0000
  C   C96       1.0  0.05663  0.25626  0.78382  1.0000
  C   C97       1.0  0.98679  0.18229  0.92350  1.0000
  C   C98       1.0  0.98580  0.20051  0.92024  1.0000
  C   C99       1.0  0.00575  0.23864  0.69265  1.0000
  H   H71       1.0  0.01695  0.22304  0.84789  1.0000
  H   H72       1.0  0.00285  0.29672  0.82867  1.0000
  H   H73       1.0  0.07033  0.24174  0.94753  1.0000
  C   C100      1.0  0.98856  0.22173  0.85098  1.0000
  C   C101      1.0  0.10496  0.26353  0.97125  1.0000
  H   H74       1.0  0.14455  0.26547  0.92574  1.0000
  C   C102      1.0  0.17144  0.26329  0.92801  1.0000
  P   P5        1.0  0.00686  0.26517  0.75454  1.0000
  H   H75       1.0  0.00531  0.23226  0.67822  1.0000
  C   C103      1.0  0.01091  0.23034  0.71110  1.0000
  H   H76       1.0  0.01148  0.25060  0.79939  1.0000
  H   H77       1.0  0.00259  0.16361  0.91588  1.0000
  H   H78       1.0  0.02082  0.28042  0.95741  1.0000
  C   C104      1.0  0.04508  0.31556  0.78278  1.0000
  H   H79       1.0  0.04506  0.27100  0.73557  1.0000
  H   H80       1.0  0.99684  0.26145  0.67864  1.0000
  C   C105      1.0  0.02463  0.23680  0.95924  1.0000
  C   C106      1.0  0.04278  0.29909  0.79674  1.0000
  C   C107      1.0  0.18302  0.32291  0.85737  1.0000
  H   H81       1.0  0.02791  0.18770  0.89186  1.0000
  H   H82       1.0  0.20594  0.32183  0.96375  1.0000
  C   C108      1.0  0.15810  0.32049  0.92217  1.0000
  H   H83       1.0  0.17132  0.25420  0.91612  1.0000
  H   H84       1.0  0.03763  0.29879  0.74170  1.0000
  H   H85       1.0  0.19868  0.26389  0.93304  1.0000
  H   H86       1.0  0.01516  0.23178  0.74405  1.0000
  C   C109      1.0  0.02728  0.23650  0.93682  1.0000
  C   C110      1.0  0.02233  0.25261  0.96697  1.0000
  H   H87       1.0  0.02953  0.22445  0.93093  1.0000
  H   H88       1.0  0.05404  0.27985  0.96493  1.0000
  H   H89       1.0  0.99196  0.27282  0.79641  1.0000
  C   C111      1.0  0.01619  0.19123  0.89983  1.0000
  C   C112      1.0  0.01140  0.23853  0.72976  1.0000
  C   C113      1.0  0.15162  0.32278  0.85327  1.0000
  H   H90       1.0  0.02614  0.21979  0.88557  1.0000
  C   C114      1.0  0.99994  0.21393  0.90619  1.0000
  Fe  Fe5       1.0  0.06202  0.31176  0.89411  1.0000
  H   H91       1.0  0.98654  0.27320  0.92663  1.0000
  C   C115      1.0  0.18716  0.28079  0.95249  1.0000
  C   C116      1.0  0.99210  0.29468  0.74658  1.0000
  H   H92       1.0  0.12760  0.32139  0.97379  1.0000
  H   H93       1.0  0.08452  0.29531  0.97049  1.0000
  C   C117      1.0  0.00100  0.25510  0.69288  1.0000
  C   C118      1.0  0.12586  0.31804  0.92992  1.0000
  H   H94       1.0  0.99754  0.27596  0.71137  1.0000
  C   C119      1.0  0.98584  0.25448  0.77329  1.0000
  C   C120      1.0  0.02578  0.32080  0.73432  1.0000
  C   C121      1.0  0.05360  0.32020  0.96856  1.0000
  C   C122      1.0  0.01664  0.31880  0.80164  1.0000
  H   H95       1.0  0.98754  0.24158  0.93910  1.0000
  H   H96       1.0  0.12396  0.31703  0.75212  1.0000
  C   C123      1.0  0.06169  0.32235  0.94657  1.0000
  H   H97       1.0  0.98630  0.19017  0.96456  1.0000
  C   C124      1.0  0.99293  0.31303  0.73964  1.0000
  H   H98       1.0  0.20992  0.31551  0.92612  1.0000
  Fe  Fe6       1.0  0.07227  0.32370  0.84490  1.0000
  H   H99       1.0  0.05742  0.32121  0.77081  1.0000
  H   H100      1.0  0.98492  0.20795  0.84746  1.0000
  Fe  Fe7       1.0  0.16556  0.48111  0.33168  1.0000
  S   S11       1.0  0.18353  0.50942  0.31838  1.0000
  S   S12       1.0  0.14047  0.46960  0.31732  1.0000
  Fe  Fe8       1.0  0.18235  0.47862  0.37352  1.0000
  S   S13       1.0  0.20158  0.50659  0.36321  1.0000
  S   S14       1.0  0.18227  0.46257  0.40662  1.0000
  Fe  Fe9       1.0  0.17785  0.51489  0.35242  1.0000
  S   S15       1.0  0.16774  0.53810  0.36252  1.0000
  Fe  Fe10      1.0  0.20579  0.49859  0.33024  1.0000
  S   S16       1.0  0.15824  0.48752  0.36512  1.0000
  S   S17       1.0  0.18826  0.46955  0.34111  1.0000
  H   H101      1.0  0.16676  0.49296  0.41024  1.0000
  Fe  Fe11      1.0  0.19590  0.63734  0.33243  1.0000
  S   S18       1.0  0.16596  0.62599  0.34511  1.0000
  S   S19       1.0  0.21421  0.61907  0.32562  1.0000
  Fe  Fe12      1.0  0.16282  0.64933  0.32177  1.0000
  S   S20       1.0  0.13783  0.64385  0.30554  1.0000
  H   H102      1.0  0.16847  0.32945  0.01496  1.0000
  C   C125      1.0  0.99701  0.62743  0.09496  1.0000
  C   C126      1.0  0.01145  0.63486  0.03147  1.0000
  C   C127      1.0  0.17468  0.35483  0.06271  1.0000
  C   C128      1.0  0.99970  0.45362  0.19740  1.0000
  Fe  Fe13      1.0  0.08542  0.45409  0.20094  1.0000
  S   S21       1.0  0.08498  0.43607  0.23223  1.0000
  S   S22       1.0  0.07553  0.47893  0.20586  1.0000
  Fe  Fe14      1.0  0.09693  0.42757  0.17314  1.0000
  S   S23       1.0  0.09748  0.40754  0.20258  1.0000
  S   S24       1.0  0.10580  0.42372  0.13835  1.0000
  Fe  Fe15      1.0  0.07128  0.41314  0.21639  1.0000
  S   S25       1.0  0.04573  0.39346  0.23623  1.0000
  Fe  Fe16      1.0  0.11120  0.43244  0.21585  1.0000
  S   S26       1.0  0.13664  0.43426  0.23115  1.0000
  S   S27       1.0  0.06969  0.43130  0.18610  1.0000
  S   S28       1.0  0.11269  0.45218  0.18530  1.0000
  Fe  Fe17      1.0  0.11508  0.61116  0.19458  1.0000
  S   S29       1.0  0.12402  0.60964  0.15929  1.0000
  S   S30       1.0  0.13880  0.62562  0.20952  1.0000
  Fe  Fe18      1.0  0.07685  0.58701  0.19518  1.0000
  S   S31       1.0  0.08338  0.58350  0.16041  1.0000
  S   S32       1.0  0.04952  0.57138  0.21571  1.0000
  Fe  Fe19      1.0  0.10963  0.57981  0.16887  1.0000
  S   S33       1.0  0.12213  0.55799  0.15833  1.0000
  Fe  Fe20      1.0  0.09696  0.61379  0.15411  1.0000
  S   S34       1.0  0.09118  0.62864  0.12314  1.0000
  S   S35       1.0  0.10223  0.58092  0.20429  1.0000
  S   S36       1.0  0.08885  0.61766  0.18868  1.0000
  C   C129      1.0  0.18275  0.32897  0.08103  1.0000
  C   C130      1.0  0.16816  0.48724  0.42643  1.0000
  C   C131      1.0  0.09850  0.48809  0.39434  1.0000
  C   C132      1.0  0.00365  0.55627  0.17637  1.0000
  C   C133      1.0  0.00132  0.54798  0.19821  1.0000
  C   C134      1.0  0.01548  0.55264  0.21025  1.0000
  C   C135      1.0  0.03212  0.56516  0.20029  1.0000
  C   C136      1.0  0.03453  0.57293  0.17829  1.0000
  C   C137      1.0  0.02037  0.56849  0.16639  1.0000
  H   H103      1.0  0.21668  0.44490  0.34147  1.0000
  H   H104      1.0  0.01354  0.54672  0.22732  1.0000
  H   H105      1.0  0.04700  0.58302  0.17061  1.0000
  H   H106      1.0  0.02226  0.57494  0.14950  1.0000
  C   C138      1.0  0.08895  0.50069  0.19254  1.0000
  C   C139      1.0  0.08287  0.51600  0.19613  1.0000
  C   C140      1.0  0.09298  0.53359  0.18564  1.0000
  C   C141      1.0  0.10928  0.53597  0.17139  1.0000
  C   C142      1.0  0.11537  0.52066  0.16764  1.0000
  C   C143      1.0  0.10530  0.50302  0.17836  1.0000
  H   H107      1.0  0.07031  0.51426  0.20708  1.0000
  H   H108      1.0  0.08809  0.54530  0.18846  1.0000
  H   H109      1.0  0.12792  0.52249  0.15649  1.0000
  H   H110      1.0  0.11014  0.49129  0.17560  1.0000
  C   C144      1.0  0.09260  0.40585  0.12737  1.0000
  C   C145      1.0  0.09929  0.40249  0.10677  1.0000
  C   C146      1.0  0.08974  0.38758  0.09820  1.0000
  H   H111      1.0  0.13751  0.60257  0.43702  1.0000
  C   C147      1.0  0.06632  0.37980  0.13033  1.0000
  C   C148      1.0  0.07604  0.39447  0.13911  1.0000
  H   H112      1.0  0.11209  0.41124  0.09761  1.0000
  H   H113      1.0  0.09507  0.38503  0.08240  1.0000
  H   H114      1.0  0.07073  0.39697  0.15494  1.0000
  C   C149      1.0  0.00708  0.36154  0.19700  1.0000
  C   C150      1.0  0.00074  0.36315  0.21841  1.0000
  C   C151      1.0  0.01266  0.37312  0.23035  1.0000
  C   C152      1.0  0.03080  0.38182  0.22074  1.0000
  C   C153      1.0  0.03695  0.38071  0.19910  1.0000
  C   C154      1.0  0.02515  0.37044  0.18733  1.0000
  C   C155      1.0  0.11816  0.43855  0.36364  1.0000
  H   H115      1.0  0.00789  0.37397  0.24711  1.0000
  H   H116      1.0  0.05094  0.38737  0.19164  1.0000
  H   H117      1.0  0.03012  0.36936  0.17076  1.0000
  H   H118      1.0  0.20679  0.54892  0.28550  1.0000
  C   C156      1.0  0.13833  0.63752  0.27940  1.0000
  C   C157      1.0  0.15473  0.64027  0.26520  1.0000
  C   C158      1.0  0.15459  0.63639  0.24390  1.0000
  C   C159      1.0  0.13812  0.62933  0.23681  1.0000
  C   C160      1.0  0.12172  0.62595  0.25127  1.0000
  C   C161      1.0  0.12184  0.63022  0.27244  1.0000
  S   S37       1.0  0.98572  0.55291  0.16135  1.0000
  H   H119      1.0  0.99098  0.50151  0.18637  1.0000
  H   H120      1.0  0.10898  0.62060  0.24592  1.0000
  H   H121      1.0  0.10911  0.62815  0.28334  1.0000
  C   C162      1.0  0.22350  0.36890  0.14329  1.0000
  H   H122      1.0  0.09389  0.51088  0.37384  1.0000
  P   P6        1.0  0.02631  0.62067  0.11372  1.0000
  H   H123      1.0  0.05884  0.63413  0.02899  1.0000
  H   H124      1.0  0.16698  0.59947  0.44590  1.0000
  C   C163      1.0  0.18192  0.56018  0.35303  1.0000
  C   C164      1.0  0.19748  0.56361  0.33710  1.0000
  C   C165      1.0  0.20799  0.58174  0.32922  1.0000
  C   C166      1.0  0.20295  0.59627  0.33747  1.0000
  C   C167      1.0  0.18797  0.59256  0.35418  1.0000
  C   C168      1.0  0.17728  0.57463  0.36167  1.0000
  H   H125      1.0  0.20115  0.55240  0.33052  1.0000
  C   C169      1.0  0.13471  0.44711  0.39938  1.0000
  H   H126      1.0  0.18458  0.60351  0.36144  1.0000
  H   H127      1.0  0.16543  0.57199  0.37427  1.0000
  C   C170      1.0  0.14015  0.45999  0.29323  1.0000
  C   C171      1.0  0.15572  0.45724  0.28148  1.0000
  C   C172      1.0  0.15452  0.44916  0.26258  1.0000
  C   C173      1.0  0.13787  0.44423  0.25505  1.0000
  C   C174      1.0  0.12242  0.44713  0.26680  1.0000
  C   C175      1.0  0.12351  0.45475  0.28590  1.0000
  H   H128      1.0  0.16860  0.46112  0.28708  1.0000
  H   H129      1.0  0.16654  0.44684  0.25369  1.0000
  H   H130      1.0  0.10951  0.44320  0.26145  1.0000
  H   H131      1.0  0.11133  0.45648  0.29508  1.0000
  C   C176      1.0  0.17549  0.47233  0.42924  1.0000
  C   C177      1.0  0.14185  0.59053  0.43417  1.0000
  H   H132      1.0  0.01358  0.38956  0.05780  1.0000
  C   C178      1.0  0.99256  0.47561  0.13440  1.0000
  H   H133      1.0  0.13210  0.37302  0.99975  1.0000
  Fe  Fe21      1.0  0.07366  0.34197  0.07730  1.0000
  H   H134      1.0  0.99402  0.48948  0.13734  1.0000
  H   H135      1.0  0.14617  0.35090  0.06059  1.0000
  C   C179      1.0  0.04179  0.51762  0.15864  1.0000
  C   C180      1.0  0.02874  0.52409  0.14898  1.0000
  C   C181      1.0  0.01045  0.51803  0.15893  1.0000
  C   C182      1.0  0.00520  0.50589  0.17885  1.0000
  C   C183      1.0  0.01836  0.49987  0.18898  1.0000
  C   C184      1.0  0.03658  0.50537  0.17843  1.0000
  P   P7        1.0  0.01223  0.48495  0.21514  1.0000
  H   H136      1.0  0.21394  0.43091  0.07987  1.0000
  C   C185      1.0  0.01242  0.46243  0.20933  1.0000
  C   C186      1.0  0.98832  0.50242  0.23438  1.0000
  C   C187      1.0  0.12087  0.46705  0.47827  1.0000
  C   C188      1.0  0.01210  0.42741  0.20005  1.0000
  C   C189      1.0  0.02527  0.43639  0.21110  1.0000
  C   C190      1.0  0.02566  0.45395  0.21540  1.0000
  C   C191      1.0  0.05078  0.44759  0.43916  1.0000
  H   H137      1.0  0.11218  0.43598  0.34927  1.0000
  C   C192      1.0  0.11968  0.36930  0.11901  1.0000
  H   H138      1.0  0.05290  0.62583  0.18090  1.0000
  C   C193      1.0  0.19338  0.63864  0.45616  1.0000
  C   C194      1.0  0.02772  0.49414  0.23275  1.0000
  C   C195      1.0  0.03642  0.51302  0.22919  1.0000
  C   C196      1.0  0.04753  0.52042  0.24347  1.0000
  C   C197      1.0  0.04998  0.50909  0.26154  1.0000
  C   C198      1.0  0.04102  0.49039  0.26556  1.0000
  C   C199      1.0  0.02968  0.48300  0.25145  1.0000
  H   H139      1.0  0.05601  0.52236  0.15106  1.0000
  H   H140      1.0  0.03280  0.53396  0.13393  1.0000
  H   H141      1.0  0.12517  0.35205  0.09597  1.0000
  C   C200      1.0  0.15624  0.34470  0.06636  1.0000
  H   H142      1.0  0.04685  0.50059  0.18585  1.0000
  H   H143      1.0  0.05444  0.60324  0.12742  1.0000
  H   H144      1.0  0.08658  0.47842  0.39136  1.0000
  H   H145      1.0  0.01191  0.41379  0.19680  1.0000
  H   H146      1.0  0.03529  0.42975  0.21628  1.0000
  H   H147      1.0  0.03650  0.46084  0.22313  1.0000
  C   C201      1.0  0.11000  0.48229  0.40764  1.0000
  C   C202      1.0  0.16348  0.63600  0.44640  1.0000
  H   H148      1.0  0.00474  0.63740  0.04660  1.0000
  H   H149      1.0  0.03465  0.52221  0.21544  1.0000
  H   H150      1.0  0.05427  0.53498  0.24032  1.0000
  H   H151      1.0  0.05877  0.51483  0.27242  1.0000
  H   H152      1.0  0.04283  0.48159  0.27962  1.0000
  H   H153      1.0  0.02244  0.46861  0.25516  1.0000
  C   C203      1.0  0.16088  0.40975  0.09090  1.0000
  C   C204      1.0  0.08496  0.58302  0.27507  1.0000
  C   C205      1.0  0.08204  0.57071  0.26050  1.0000
  C   C206      1.0  0.09100  0.55692  0.26066  1.0000
  C   C207      1.0  0.10278  0.55537  0.27552  1.0000
  C   C208      1.0  0.10552  0.56749  0.29054  1.0000
  C   C209      1.0  0.09671  0.58150  0.28998  1.0000
  P   P8        1.0  0.12218  0.56651  0.30812  1.0000
  C   C210      1.0  0.11746  0.57650  0.33206  1.0000
  C   C211      1.0  0.12151  0.54285  0.31702  1.0000
  C   C212      1.0  0.13711  0.53805  0.32200  1.0000
  C   C213      1.0  0.13635  0.51976  0.32918  1.0000
  C   C214      1.0  0.12002  0.50615  0.33183  1.0000
  C   C215      1.0  0.10430  0.51083  0.32740  1.0000
  C   C216      1.0  0.10500  0.52910  0.32013  1.0000
  C   C217      1.0  0.12254  0.59559  0.33056  1.0000
  C   C218      1.0  0.11965  0.60352  0.34909  1.0000
  C   C219      1.0  0.11191  0.59247  0.36936  1.0000
  C   C220      1.0  0.10674  0.57343  0.37105  1.0000
  C   C221      1.0  0.10941  0.56545  0.35246  1.0000
  C   C222      1.0  0.14434  0.57972  0.29325  1.0000
  C   C223      1.0  0.14699  0.58576  0.27058  1.0000
  C   C224      1.0  0.16397  0.59647  0.25927  1.0000
  C   C225      1.0  0.17835  0.60162  0.27052  1.0000
  C   C226      1.0  0.17576  0.59601  0.29309  1.0000
  C   C227      1.0  0.15886  0.58511  0.30447  1.0000
  H   H154      1.0  0.07845  0.59407  0.27443  1.0000
  H   H155      1.0  0.07318  0.57216  0.24870  1.0000
  H   H156      1.0  0.08918  0.54778  0.24883  1.0000
  H   H157      1.0  0.11002  0.54494  0.27496  1.0000
  H   H158      1.0  0.09918  0.59156  0.30062  1.0000
  H   H159      1.0  0.14985  0.54832  0.32075  1.0000
  H   H160      1.0  0.14842  0.51614  0.33300  1.0000
  H   H161      1.0  0.11961  0.49201  0.33746  1.0000
  H   H162      1.0  0.09163  0.50024  0.32952  1.0000
  H   H163      1.0  0.09263  0.53250  0.31707  1.0000
  H   H164      1.0  0.12891  0.60441  0.31506  1.0000
  H   H165      1.0  0.12370  0.61831  0.34772  1.0000
  H   H166      1.0  0.11006  0.59875  0.38371  1.0000
  H   H167      1.0  0.10076  0.56488  0.38678  1.0000
  H   H168      1.0  0.10540  0.55071  0.35416  1.0000
  H   H169      1.0  0.13592  0.58276  0.26158  1.0000
  H   H170      1.0  0.16579  0.60132  0.24185  1.0000
  H   H171      1.0  0.19139  0.61030  0.26184  1.0000
  H   H172      1.0  0.18680  0.60045  0.30181  1.0000
  H   H173      1.0  0.15709  0.58123  0.32206  1.0000
  C   C228      1.0  0.03694  0.64366  0.00129  1.0000
  H   H174      1.0  0.08463  0.42121  0.41789  1.0000
  C   C229      1.0  0.99291  0.65716  0.98466  1.0000
  C   C230      1.0  0.99029  0.48578  0.22878  1.0000
  C   C231      1.0  0.10902  0.44493  0.38046  1.0000
  C   C232      1.0  0.02838  0.64648  0.02124  1.0000
  C   C233      1.0  0.17814  0.36089  0.98656  1.0000
  C   C234      1.0  0.18806  0.34708  0.07003  1.0000
  C   C235      1.0  0.02444  0.61134  0.18849  1.0000
  H   H175      1.0  0.02432  0.60853  0.20592  1.0000
  H   H176      1.0  0.17243  0.40434  0.21709  1.0000
  H   H177      1.0  0.22601  0.58421  0.43643  1.0000
  C   C236      1.0  0.23024  0.48938  0.47160  1.0000
  C   C237      1.0  0.99216  0.36440  0.06804  1.0000
  H   H178      1.0  0.16802  0.54686  0.47952  1.0000
  Fe  Fe22      1.0  0.17058  0.64542  0.36889  1.0000
  C   C238      1.0  0.22104  0.37339  0.00685  1.0000
  H   H179      1.0  0.99622  0.59701  0.19090  1.0000
  S   S38       1.0  0.21081  0.36110  0.06640  1.0000
  C   C239      1.0  0.98786  0.34547  0.07571  1.0000
  H   H180      1.0  0.98684  0.35624  0.22602  1.0000
  C   C240      1.0  0.19602  0.37929  0.14763  1.0000
  C   C241      1.0  0.15751  0.40162  0.13019  1.0000
  C   C242      1.0  0.15453  0.41231  0.11188  1.0000
  C   C243      1.0  0.20687  0.39734  0.14546  1.0000
  H   H181      1.0  0.98927  0.42929  0.18422  1.0000
  C   C244      1.0  0.11386  0.45573  0.44510  1.0000
  H   H182      1.0  0.99901  0.58551  0.11930  1.0000
  C   C245      1.0  0.20453  0.36512  0.14609  1.0000
  H   H183      1.0  0.15259  0.40416  0.14616  1.0000
  H   H184      1.0  0.14709  0.42247  0.11404  1.0000
  H   H185      1.0  0.20066  0.40856  0.14579  1.0000
  H   H186      1.0  0.13100  0.42646  0.47655  1.0000
  H   H187      1.0  0.98989  0.46026  0.19159  1.0000
  C   C246      1.0  0.05504  0.32904  0.16268  1.0000
  H   H188      1.0  0.19669  0.35117  0.14671  1.0000
  C   C247      1.0  0.07707  0.46075  0.13095  1.0000
  C   C248      1.0  0.07412  0.46861  0.14951  1.0000
  C   C249      1.0  0.05645  0.46823  0.15867  1.0000
  C   C250      1.0  0.04176  0.46041  0.14904  1.0000
  C   C251      1.0  0.04472  0.45356  0.12959  1.0000
  C   C252      1.0  0.06242  0.45321  0.12102  1.0000
  P   P9        1.0  0.02601  0.44400  0.11641  1.0000
  C   C253      1.0  0.03199  0.45177  0.08729  1.0000
  C   C254      1.0  0.02179  0.41949  0.12290  1.0000
  C   C255      1.0  0.03137  0.41022  0.10980  1.0000
  C   C256      1.0  0.02791  0.39118  0.11480  1.0000
  C   C257      1.0  0.01497  0.38134  0.13292  1.0000
  C   C258      1.0  0.00581  0.39057  0.14636  1.0000
  C   C259      1.0  0.00950  0.40958  0.14167  1.0000
  C   C260      1.0  0.02308  0.44145  0.07308  1.0000
  C   C261      1.0  0.02747  0.44756  0.05049  1.0000
  C   C262      1.0  0.04061  0.46411  0.04198  1.0000
  C   C263      1.0  0.04926  0.47464  0.05608  1.0000
  C   C264      1.0  0.04489  0.46858  0.07867  1.0000
  C   C265      1.0  0.00609  0.45163  0.12458  1.0000
  H   H189      1.0  0.01884  0.32861  0.20057  1.0000
  C   C266      1.0  0.06939  0.45647  0.43380  1.0000
  C   C267      1.0  0.11419  0.46897  0.45868  1.0000
  C   C268      1.0  0.04703  0.59236  0.07017  1.0000
  C   C269      1.0  0.11851  0.51895  0.38697  1.0000
  H   H190      1.0  0.09068  0.46019  0.12455  1.0000
  H   H191      1.0  0.08542  0.47434  0.15733  1.0000
  H   H192      1.0  0.05409  0.47360  0.17357  1.0000
  H   H193      1.0  0.02819  0.45970  0.15696  1.0000
  H   H194      1.0  0.06492  0.44703  0.10675  1.0000
  H   H195      1.0  0.04169  0.41766  0.09593  1.0000
  H   H196      1.0  0.03554  0.38407  0.10492  1.0000
  H   H197      1.0  0.01241  0.36661  0.13697  1.0000
  C   C270      1.0  0.18745  0.57342  0.46808  1.0000
  H   H198      1.0  0.00275  0.41650  0.15274  1.0000
  H   H199      1.0  0.01271  0.42872  0.07948  1.0000
  H   H200      1.0  0.02064  0.43951  0.03956  1.0000
  H   H201      1.0  0.04401  0.46885  0.02448  1.0000
  H   H202      1.0  0.05932  0.48756  0.04951  1.0000
  H   H203      1.0  0.05153  0.47706  0.08935  1.0000
  H   H204      1.0  0.11824  0.57868  0.42081  1.0000
  C   C271      1.0  0.03670  0.60255  0.08039  1.0000
  C   C272      1.0  0.15345  0.34295  0.13654  1.0000
  H   H205      1.0  0.11144  0.38302  0.14484  1.0000
  C   C273      1.0  0.15856  0.58877  0.43912  1.0000
  C   C274      1.0  0.09791  0.50743  0.24947  1.0000
  C   C275      1.0  0.09597  0.49667  0.26991  1.0000
  C   C276      1.0  0.11123  0.49665  0.27970  1.0000
  C   C277      1.0  0.12845  0.50731  0.26908  1.0000
  C   C278      1.0  0.13048  0.51827  0.24862  1.0000
  C   C279      1.0  0.11511  0.51813  0.23878  1.0000
  P   P10       1.0  0.15279  0.52882  0.23277  1.0000
  C   C280      1.0  0.16963  0.53423  0.25007  1.0000
  C   C281      1.0  0.15616  0.51207  0.21610  1.0000
  C   C282      1.0  0.15116  0.51293  0.19533  1.0000
  C   C283      1.0  0.15184  0.49887  0.18335  1.0000
  C   C284      1.0  0.15726  0.48375  0.19214  1.0000
  C   C285      1.0  0.16198  0.48268  0.21291  1.0000
  C   C286      1.0  0.16117  0.49661  0.22503  1.0000
  C   C287      1.0  0.16625  0.54331  0.26761  1.0000
  C   C288      1.0  0.17967  0.54868  0.28024  1.0000
  C   C289      1.0  0.19999  0.53602  0.25805  1.0000
  C   C290      1.0  0.18671  0.53089  0.24517  1.0000
  C   C291      1.0  0.15351  0.55056  0.21707  1.0000
  C   C292      1.0  0.14305  0.56144  0.22560  1.0000
  C   C293      1.0  0.14428  0.57875  0.21412  1.0000
  C   C294      1.0  0.15572  0.58524  0.19390  1.0000
  C   C295      1.0  0.16634  0.57456  0.18538  1.0000
  C   C296      1.0  0.16549  0.55740  0.19709  1.0000
  H   H206      1.0  0.08626  0.50675  0.24135  1.0000
  H   H207      1.0  0.08276  0.48781  0.27774  1.0000
  H   H208      1.0  0.10993  0.48776  0.29510  1.0000
  H   H209      1.0  0.14019  0.50628  0.27646  1.0000
  H   H210      1.0  0.11650  0.52559  0.22240  1.0000
  H   H211      1.0  0.14610  0.52409  0.18867  1.0000
  H   H212      1.0  0.15726  0.47258  0.18318  1.0000
  H   H213      1.0  0.16564  0.47067  0.21991  1.0000
  H   H214      1.0  0.16386  0.49499  0.24161  1.0000
  H   H215      1.0  0.15332  0.54640  0.27138  1.0000
  H   H216      1.0  0.21303  0.53311  0.25452  1.0000
  H   H217      1.0  0.18991  0.52450  0.23131  1.0000
  H   H218      1.0  0.13406  0.55665  0.24117  1.0000
  H   H219      1.0  0.13633  0.58721  0.22083  1.0000
  H   H220      1.0  0.15630  0.59854  0.18488  1.0000
  H   H221      1.0  0.17514  0.57959  0.16964  1.0000
  H   H222      1.0  0.17409  0.54948  0.19050  1.0000
  C   C297      1.0  0.20078  0.52419  0.43809  1.0000
  C   C298      1.0  0.20203  0.52294  0.41595  1.0000
  C   C299      1.0  0.19833  0.53644  0.40143  1.0000
  C   C300      1.0  0.19362  0.55124  0.40892  1.0000
  C   C301      1.0  0.19214  0.55255  0.43113  1.0000
  C   C302      1.0  0.19576  0.53889  0.44575  1.0000
  C   C303      1.0  0.16121  0.35043  0.15346  1.0000
  C   C304      1.0  0.01030  0.37493  0.06342  1.0000
  H   H223      1.0  0.13404  0.36890  0.17153  1.0000
  C   C305      1.0  0.16673  0.38808  0.12767  1.0000
  C   C306      1.0  0.17025  0.39650  0.08822  1.0000
  C   C307      1.0  0.04102  0.62388  0.15183  1.0000
  S   S39       1.0  0.23411  0.50758  0.31029  1.0000
  C   C308      1.0  0.17476  0.63660  0.46236  1.0000
  H   H224      1.0  0.15847  0.41800  0.07674  1.0000
  C   C309      1.0  0.00196  0.33717  0.07810  1.0000
  C   C310      1.0  0.17085  0.63782  0.42422  1.0000
  H   H225      1.0  0.19926  0.53569  0.38426  1.0000
  H   H226      1.0  0.19111  0.56171  0.39730  1.0000
  C   C311      1.0  0.00864  0.60486  0.18002  1.0000
  H   H227      1.0  0.00086  0.33018  0.14489  1.0000
  C   C312      1.0  0.14257  0.37639  0.18153  1.0000
  H   H228      1.0  0.21964  0.58455  0.31631  1.0000
  C   C313      1.0  0.17523  0.37070  0.00350  1.0000
  H   H229      1.0  0.04528  0.63998  0.06974  1.0000
  H   H230      1.0  0.17527  0.39457  0.07196  1.0000
  H   H231      1.0  0.11864  0.42933  0.44231  1.0000
  H   H232      1.0  0.14182  0.45128  0.41241  1.0000
  H   H233      1.0  0.98850  0.53837  0.20590  1.0000
  H   H234      1.0  0.12846  0.55130  0.41372  1.0000
  H   H235      1.0  0.15740  0.43935  0.38319  1.0000
  H   H236      1.0  0.10965  0.48099  0.45400  1.0000
  P   P11       1.0  0.17151  0.37470  0.15110  1.0000
  C   C314      1.0  0.17323  0.38576  0.10651  1.0000
  H   H237      1.0  0.16905  0.63526  0.47942  1.0000
  H   H238      1.0  0.05377  0.63121  0.14116  1.0000
  H   H239      1.0  0.18705  0.39429  0.18526  1.0000
  C   C315      1.0  0.12999  0.51319  0.40011  1.0000
  H   H240      1.0  0.14280  0.43200  0.35130  1.0000
  H   H241      1.0  0.20541  0.60096  0.46275  1.0000
  H   H242      1.0  0.17712  0.55574  0.29371  1.0000
  H   H243      1.0  0.19479  0.53936  0.46298  1.0000
  C   C316      1.0  0.16303  0.49512  0.44446  1.0000
  H   H244      1.0  0.15758  0.50682  0.44206  1.0000
  C   C317      1.0  0.17765  0.46530  0.45027  1.0000
  H   H245      1.0  0.18314  0.45362  0.45259  1.0000
  H   H246      1.0  0.14762  0.49945  0.16752  1.0000
  C   C318      1.0  0.14502  0.36985  0.99597  1.0000
  C   C319      1.0  0.10266  0.50644  0.38426  1.0000
  C   C320      1.0  0.13549  0.43633  0.36474  1.0000
  C   C321      1.0  0.06248  0.59034  0.10117  1.0000
  C   C322      1.0  0.07528  0.42881  0.42345  1.0000
  C   C323      1.0  0.19649  0.54498  0.27551  1.0000
  H   H247      1.0  0.09220  0.35474  0.16848  1.0000
  C   C324      1.0  0.14372  0.44052  0.38265  1.0000
  H   H248      1.0  0.05347  0.37116  0.13943  1.0000
  C   C325      1.0  0.07322  0.37616  0.10999  1.0000
  H   H249      1.0  0.19523  0.64117  0.40134  1.0000
  H   H250      1.0  0.03835  0.37468  0.06278  1.0000
  H   H251      1.0  0.22600  0.46925  0.30877  1.0000
  H   H252      1.0  0.18553  0.37471  0.01336  1.0000
  H   H253      1.0  0.16748  0.64589  0.27039  1.0000
  C   C326      1.0  0.11712  0.44900  0.39864  1.0000
  H   H254      1.0  0.02999  0.42247  0.44074  1.0000
  C   C327      1.0  0.98855  0.43989  0.12641  1.0000
  C   C328      1.0  0.23038  0.44833  0.33227  1.0000
  C   C329      1.0  0.15353  0.55992  0.42584  1.0000
  S   S40       1.0  0.20079  0.65518  0.35777  1.0000
  S   S41       1.0  0.15661  0.63727  0.40434  1.0000
  C   C330      1.0  0.22259  0.59305  0.42376  1.0000
  H   H255      1.0  0.20309  0.51337  0.44946  1.0000
  H   H256      1.0  0.99964  0.51457  0.23015  1.0000
  S   S42       1.0  0.05869  0.32876  0.05238  1.0000
  C   C331      1.0  0.03149  0.32604  0.19374  1.0000
  H   H257      1.0  0.21843  0.47575  0.42482  1.0000
  H   H258      1.0  0.22993  0.57044  0.37558  1.0000
  H   H259      1.0  0.99665  0.60229  0.15140  1.0000
  H   H260      1.0  0.03091  0.34138  0.07541  1.0000
  C   C332      1.0  0.02006  0.34775  0.07330  1.0000
  H   H261      1.0  0.04500  0.58915  0.05422  1.0000
  H   H262      1.0  0.18064  0.37562  0.10412  1.0000
  C   C333      1.0  0.09979  0.35384  0.15301  1.0000
  C   C334      1.0  0.16161  0.38103  0.17574  1.0000
  H   H263      1.0  0.11973  0.37881  0.20384  1.0000
  C   C335      1.0  0.03758  0.64451  0.10266  1.0000
  C   C336      1.0  0.20065  0.64019  0.43408  1.0000
  H   H264      1.0  0.15643  0.38237  0.02154  1.0000
  H   H265      1.0  0.12734  0.38182  0.10820  1.0000
  C   C337      1.0  0.13442  0.38195  0.19978  1.0000
  C   C338      1.0  0.05667  0.41996  0.42882  1.0000
  S   S43       1.0  0.06026  0.35798  0.09925  1.0000
  H   H266      1.0  0.02127  0.47937  0.12564  1.0000
  C   C339      1.0  0.16465  0.57362  0.43467  1.0000
  C   C340      1.0  0.08170  0.44727  0.42538  1.0000
  C   C341      1.0  0.04441  0.42937  0.43656  1.0000
  C   C342      1.0  0.00291  0.62038  0.02183  1.0000
  C   C343      1.0  0.09881  0.33682  0.14643  1.0000
  H   H267      1.0  0.13890  0.39682  0.22634  1.0000
  C   C344      1.0  0.14522  0.39208  0.21250  1.0000
  H   H268      1.0  0.12556  0.32812  0.01124  1.0000
  C   C345      1.0  0.11832  0.35255  0.11204  1.0000
  C   C346      1.0  0.11056  0.36995  0.13956  1.0000
  C   C347      1.0  0.13681  0.56172  0.42091  1.0000
  H   H269      1.0  0.03184  0.65430  0.13308  1.0000
  C   C348      1.0  0.22310  0.40672  0.08661  1.0000
  H   H270      1.0  0.02678  0.60717  0.07208  1.0000
  S   S44       1.0  0.10155  0.34882  0.05664  1.0000
  H   H271      1.0  0.22599  0.64482  0.28151  1.0000
  C   C349      1.0  0.18946  0.63996  0.41820  1.0000
  H   H272      1.0  0.17864  0.36881  0.05418  1.0000
  C   C350      1.0  0.99387  0.59587  0.11066  1.0000
  H   H273      1.0  0.98751  0.56771  0.24094  1.0000
  C   C351      1.0  0.02425  0.36660  0.06613  1.0000
  H   H274      1.0  0.15315  0.35147  0.12152  1.0000
  H   H275      1.0  0.21501  0.64164  0.42919  1.0000
  H   H276      1.0  0.00431  0.60673  0.99401  1.0000
  H   H277      1.0  0.15771  0.54794  0.42251  1.0000
  C   C352      1.0  0.03927  0.60683  0.10109  1.0000
  H   H278      1.0  0.22699  0.53536  0.46471  1.0000
  C   C353      1.0  0.15087  0.32672  0.07780  1.0000
  C   C354      1.0  0.16416  0.39639  0.20719  1.0000
  C   C355      1.0  0.17238  0.39080  0.18895  1.0000
  H   H279      1.0  0.16741  0.34418  0.18581  1.0000
  S   S45       1.0  0.09677  0.34208  0.99691  1.0000
  H   H280      1.0  0.18619  0.60047  0.40215  1.0000
  C   C356      1.0  0.10807  0.33637  0.12575  1.0000
  C   C357      1.0  0.02529  0.61710  0.14309  1.0000
  C   C358      1.0  0.00399  0.61435  0.10627  1.0000
  C   C359      1.0  0.01119  0.61769  0.00174  1.0000
  H   H281      1.0  0.04130  0.45479  0.44545  1.0000
  H   H282      1.0  0.09585  0.44710  0.37898  1.0000
  C   C360      1.0  0.12582  0.49494  0.41021  1.0000
  C   C361      1.0  0.16135  0.33870  0.17263  1.0000
  H   H283      1.0  0.14907  0.63434  0.45121  1.0000
  C   C362      1.0  0.20430  0.59114  0.42192  1.0000
  H   H284      1.0  0.05177  0.40576  0.42709  1.0000
  C   C363      1.0  0.00901  0.60777  0.15743  1.0000
  C   C364      1.0  0.04058  0.62096  0.17439  1.0000
  H   H285      1.0  0.06813  0.57857  0.07260  1.0000
  C   C365      1.0  0.20012  0.60197  0.40451  1.0000
  C   C366      1.0  0.05999  0.58633  0.08052  1.0000
  H   H286      1.0  0.99607  0.38304  0.16071  1.0000
  P   P12       1.0  0.18696  0.57258  0.43947  1.0000
  H   H287      1.0  0.20991  0.39731  0.08746  1.0000
  H   H288      1.0  0.06039  0.33389  0.14540  1.0000
  C   C367      1.0  0.13103  0.57708  0.42494  1.0000
  C   C368      1.0  0.00795  0.46975  0.12792  1.0000
  H   H289      1.0  0.20540  0.51128  0.41013  1.0000
  H   H290      1.0  0.07265  0.58589  0.10922  1.0000
  C   C369      1.0  0.05211  0.60042  0.11147  1.0000
  C   C370      1.0  0.22210  0.47811  0.45789  1.0000
  H   H291      1.0  0.12228  0.53298  0.37844  1.0000
  C   C371      1.0  0.21406  0.61461  0.38939  1.0000
  H   H292      1.0  0.00451  0.64175  0.09118  1.0000
  C   C372      1.0  0.21272  0.32821  0.00486  1.0000
  H   H293      1.0  0.00036  0.52308  0.15143  1.0000
  C   C373      1.0  0.23220  0.61666  0.39158  1.0000
  H   H294      1.0  0.21159  0.36486  0.02088  1.0000
  C   C374      1.0  0.15870  0.37507  0.00823  1.0000
  H   H295      1.0  0.13517  0.49059  0.41964  1.0000
  C   C375      1.0  0.99940  0.43610  0.19302  1.0000
  C   C376      1.0  0.16589  0.48862  0.46533  1.0000
  C   C377      1.0  0.19710  0.33400  0.00216  1.0000
  H   H296      1.0  0.14251  0.52271  0.40189  1.0000
  P   P13       1.0  0.10573  0.45848  0.41945  1.0000
  C   C378      1.0  0.11930  0.44002  0.45211  1.0000
  H   H297      1.0  0.03159  0.33940  0.16128  1.0000
  S   S46       1.0  0.99293  0.34774  0.18242  1.0000
  C   C379      1.0  0.17318  0.47362  0.46822  1.0000
  C   C380      1.0  0.03865  0.33209  0.17155  1.0000
  C   C381      1.0  0.06422  0.32591  0.98430  1.0000
  H   H298      1.0  0.07418  0.47048  0.43628  1.0000
  H   H299      1.0  0.08753  0.65041  0.08460  1.0000
  H   H300      1.0  0.10950  0.33911  0.18881  1.0000
  C   C382      1.0  0.22548  0.42561  0.08218  1.0000
  H   H301      1.0  0.16732  0.63904  0.23278  1.0000
  Fe  Fe23      1.0  0.08677  0.33311  0.03331  1.0000
  H   H302      1.0  0.21079  0.62262  0.37569  1.0000
  H   H303      1.0  0.21371  0.46439  0.46468  1.0000
  C   C383      1.0  0.02803  0.62945  0.99129  1.0000
  H   H304      1.0  0.98967  0.61153  0.02968  1.0000
  C   C384      1.0  0.09680  0.65265  0.11519  1.0000
  C   C385      1.0  0.12611  0.43822  0.47165  1.0000
  H   H305      1.0  0.08096  0.63464  0.05399  1.0000
  H   H306      1.0  0.06580  0.62412  0.98216  1.0000
  C   C386      1.0  0.04575  0.64989  0.08054  1.0000
  H   H307      1.0  0.02465  0.33024  0.11414  1.0000
  H   H308      1.0  0.99325  0.65423  0.00196  1.0000
  H   H309      1.0  0.12549  0.33190  0.21863  1.0000
  S   S47       1.0  0.20805  0.63871  0.47535  1.0000
  H   H310      1.0  0.98661  0.42618  0.12280  1.0000
  C   C387      1.0  0.07113  0.64529  0.02574  1.0000
  C   C388      1.0  0.08372  0.64543  0.03990  1.0000
  H   H311      1.0  0.23005  0.35799  0.14186  1.0000
  C   C389      1.0  0.03828  0.65790  0.11609  1.0000
  C   C390      1.0  0.22584  0.40103  0.14292  1.0000
  C   C391      1.0  0.22480  0.48452  0.43545  1.0000
  H   H312      1.0  0.23415  0.41497  0.14131  1.0000
  C   C392      1.0  0.21811  0.37133  0.98559  1.0000
  H   H313      1.0  0.22566  0.33525  0.99452  1.0000
  H   H314      1.0  0.23197  0.48948  0.35441  1.0000
  P   P14       1.0  0.19880  0.35368  0.98178  1.0000
  C   C393      1.0  0.23210  0.56192  0.47344  1.0000
  C   C394      1.0  0.19776  0.58903  0.47463  1.0000
  H   H315      1.0  0.03477  0.65779  0.02876  1.0000
  C   C395      1.0  0.23414  0.38679  0.14197  1.0000
  Fe  Fe24      1.0  0.17419  0.51139  0.56033  1.0000
  S   S48       1.0  0.15178  0.49078  0.55096  1.0000
  S   S49       1.0  0.16450  0.53133  0.57856  1.0000
  H   H316      1.0  0.10804  0.61947  0.64337  1.0000
  S   S50       1.0  0.18283  0.47235  0.53090  1.0000
  Fe  Fe25      1.0  0.17042  0.49456  0.51905  1.0000
  C   C396      1.0  0.14783  0.36023  0.97898  1.0000
  Fe  Fe26      1.0  0.16602  0.47057  0.56390  1.0000
  S   S51       1.0  0.14728  0.44487  0.58530  1.0000
  S   S52       1.0  0.19164  0.51739  0.52725  1.0000
  S   S53       1.0  0.18759  0.49113  0.57522  1.0000
  Fe  Fe27      1.0  0.20908  0.62897  0.55359  1.0000
  S   S54       1.0  0.18448  0.62067  0.53791  1.0000
  H   H317      1.0  0.02977  0.63823  0.75459  1.0000
  C   C397      1.0  0.99608  0.56400  0.68604  1.0000
  H   H318      1.0  0.20563  0.60183  0.50177  1.0000
  C   C398      1.0  0.99527  0.45585  0.73835  1.0000
  C   C399      1.0  0.12579  0.41626  0.73242  1.0000
  C   C400      1.0  0.07269  0.45943  0.60993  1.0000
  C   C401      1.0  0.10591  0.37171  0.71398  1.0000
  Fe  Fe28      1.0  0.09517  0.43869  0.70073  1.0000
  S   S55       1.0  0.08532  0.45443  0.72527  1.0000
  S   S56       1.0  0.12471  0.44934  0.68510  1.0000
  Fe  Fe29      1.0  0.05740  0.41277  0.70436  1.0000
  S   S57       1.0  0.04437  0.42728  0.72794  1.0000
  S   S58       1.0  0.04200  0.38576  0.69692  1.0000
  Fe  Fe30      1.0  0.06232  0.45321  0.70671  1.0000
  S   S59       1.0  0.05429  0.47862  0.69418  1.0000
  Fe  Fe31      1.0  0.06852  0.42711  0.74438  1.0000
  S   S60       1.0  0.06422  0.41941  0.78131  1.0000
  S   S61       1.0  0.07289  0.43855  0.68126  1.0000
  S   S62       1.0  0.08087  0.41150  0.72165  1.0000
  H   H319      1.0  0.16053  0.65416  0.75568  1.0000
  Fe  Fe32      1.0  0.10401  0.60941  0.69330  1.0000
  S   S63       1.0  0.09964  0.59999  0.72961  1.0000
  S   S64       1.0  0.13284  0.62031  0.67492  1.0000
  Fe  Fe33      1.0  0.06361  0.59942  0.69200  1.0000
  S   S65       1.0  0.05577  0.58927  0.72807  1.0000
  S   S66       1.0  0.04606  0.60114  0.66631  1.0000
  Fe  Fe34      1.0  0.07750  0.61430  0.73131  1.0000
  S   S67       1.0  0.07007  0.63097  0.75687  1.0000
  Fe  Fe35      1.0  0.07856  0.57593  0.72333  1.0000
  S   S68       1.0  0.07706  0.54759  0.74049  1.0000
  S   S69       1.0  0.08343  0.62557  0.69538  1.0000
  S   S70       1.0  0.08479  0.58425  0.68693  1.0000
  H   H320      1.0  0.11427  0.62806  0.60285  1.0000
  C   C402      1.0  0.01417  0.57416  0.68598  1.0000
  C   C403      1.0  0.02345  0.58796  0.66818  1.0000
  C   C404      1.0  0.01463  0.59161  0.65071  1.0000
  C   C405      1.0  0.99679  0.58164  0.65079  1.0000
  H   H321      1.0  0.02095  0.57133  0.69950  1.0000
  H   H322      1.0  0.02168  0.60223  0.63693  1.0000
  C   C406      1.0  0.06118  0.49787  0.70677  1.0000
  C   C407      1.0  0.05923  0.51481  0.69746  1.0000
  C   C408      1.0  0.06444  0.53032  0.70734  1.0000
  C   C409      1.0  0.07132  0.52883  0.72684  1.0000
  C   C410      1.0  0.07347  0.51195  0.73598  1.0000
  C   C411      1.0  0.06851  0.49655  0.72592  1.0000
  H   H323      1.0  0.05344  0.51588  0.68276  1.0000
  H   H324      1.0  0.06280  0.54330  0.70008  1.0000
  H   H325      1.0  0.07891  0.51075  0.75098  1.0000
  H   H326      1.0  0.07002  0.48360  0.73329  1.0000
  C   C412      1.0  0.06472  0.39680  0.79095  1.0000
  C   C413      1.0  0.06375  0.38406  0.77687  1.0000
  C   C414      1.0  0.06598  0.36671  0.78390  1.0000
  C   C415      1.0  0.06887  0.36175  0.80518  1.0000
  C   C416      1.0  0.06902  0.37414  0.81972  1.0000
  C   C417      1.0  0.06690  0.39166  0.81260  1.0000
  H   H327      1.0  0.06157  0.38763  0.76041  1.0000
  H   H328      1.0  0.06585  0.35718  0.77264  1.0000
  H   H329      1.0  0.07135  0.37046  0.83615  1.0000
  H   H330      1.0  0.06760  0.40144  0.82364  1.0000
  S   S71       1.0  0.16020  0.49970  0.48719  1.0000
  H   H331      1.0  0.01074  0.43426  0.63334  1.0000
  C   C418      1.0  0.20198  0.34866  0.95440  1.0000
  C   C419      1.0  0.02143  0.38505  0.68745  1.0000
  C   C420      1.0  0.01666  0.40109  0.68059  1.0000
  C   C421      1.0  0.04371  0.42516  0.61806  1.0000
  H   H332      1.0  0.02152  0.65741  0.89818  1.0000
  C   C422      1.0  0.02752  0.62688  0.78826  1.0000
  H   H333      1.0  0.02574  0.41426  0.68106  1.0000
  H   H334      1.0  0.03881  0.33097  0.72954  1.0000
  C   C423      1.0  0.98549  0.61868  0.76731  1.0000
  C   C424      1.0  0.08516  0.46065  0.59087  1.0000
  C   C425      1.0  0.14338  0.63365  0.60020  1.0000
  C   C426      1.0  0.12545  0.62840  0.61171  1.0000
  C   C427      1.0  0.12190  0.62351  0.63464  1.0000
  C   C428      1.0  0.13634  0.62433  0.64619  1.0000
  C   C429      1.0  0.15418  0.62910  0.63470  1.0000
  C   C430      1.0  0.15765  0.63359  0.61183  1.0000
  H   H335      1.0  0.16042  0.56663  0.57973  1.0000
  H   H336      1.0  0.16539  0.62955  0.64350  1.0000
  C   C431      1.0  0.98959  0.40891  0.81392  1.0000
  H   H337      1.0  0.13285  0.45073  0.49942  1.0000
  S   S72       1.0  0.07366  0.34050  0.81176  1.0000
  C   C432      1.0  0.10672  0.36571  0.69372  1.0000
  H   H338      1.0  0.17529  0.46838  0.48426  1.0000
  H   H339      1.0  0.02202  0.32791  0.84260  1.0000
  C   C433      1.0  0.12132  0.42847  0.74551  1.0000
  H   H340      1.0  0.11613  0.34112  0.72818  1.0000
  C   C434      1.0  0.14078  0.44640  0.61292  1.0000
  C   C435      1.0  0.12447  0.43464  0.62512  1.0000
  C   C436      1.0  0.11906  0.43579  0.64714  1.0000
  C   C437      1.0  0.13021  0.44838  0.65718  1.0000
  C   C438      1.0  0.14655  0.45998  0.64506  1.0000
  C   C439      1.0  0.15172  0.45915  0.62296  1.0000
  H   H341      1.0  0.11592  0.42478  0.61744  1.0000
  H   H342      1.0  0.10648  0.42670  0.65642  1.0000
  H   H343      1.0  0.15524  0.46960  0.65281  1.0000
  H   H344      1.0  0.16436  0.46814  0.61381  1.0000
  C   C440      1.0  0.18079  0.55217  0.57672  1.0000
  C   C441      1.0  0.19940  0.55345  0.57442  1.0000
  C   C442      1.0  0.19490  0.55253  0.73752  1.0000
  C   C443      1.0  0.20590  0.58632  0.57349  1.0000
  C   C444      1.0  0.18730  0.58486  0.57580  1.0000
  C   C445      1.0  0.17479  0.56778  0.57790  1.0000
  H   H345      1.0  0.20414  0.54135  0.57349  1.0000
  H   H346      1.0  0.15078  0.42076  0.65151  1.0000
  H   H347      1.0  0.18249  0.59688  0.57613  1.0000
  H   H348      1.0  0.16867  0.54794  0.51864  1.0000
  C   C446      1.0  0.14926  0.35432  0.76852  1.0000
  C   C447      1.0  0.00590  0.45263  0.72008  1.0000
  H   H349      1.0  0.03490  0.38078  0.86128  1.0000
  H   H350      1.0  0.03399  0.49280  0.65876  1.0000
  C   C448      1.0  0.00474  0.45301  0.65360  1.0000
  H   H351      1.0  0.10758  0.64883  0.65597  1.0000
  P   P15       1.0  0.00182  0.47751  0.74780  1.0000
  C   C449      1.0  0.00675  0.49580  0.72447  1.0000
  H   H352      1.0  0.99092  0.44472  0.65988  1.0000
  H   H353      1.0  0.12215  0.58217  0.67741  1.0000
  H   H354      1.0  0.04415  0.44229  0.53440  1.0000
  H   H355      1.0  0.14724  0.35272  0.88764  1.0000
  H   H356      1.0  0.99329  0.37448  0.72840  1.0000
  C   C450      1.0  0.03418  0.47689  0.55817  1.0000
  C   C451      1.0  0.01854  0.51311  0.72416  1.0000
  C   C452      1.0  0.02024  0.52756  0.70709  1.0000
  C   C453      1.0  0.01029  0.52481  0.69020  1.0000
  H   H357      1.0  0.01358  0.35562  0.69136  1.0000
  Fe  Fe36      1.0  0.20009  0.64277  0.50993  1.0000
  C   C454      1.0  0.02112  0.47851  0.76172  1.0000
  C   C455      1.0  0.03026  0.46474  0.76161  1.0000
  C   C456      1.0  0.04497  0.46536  0.77265  1.0000
  C   C457      1.0  0.05085  0.47986  0.78364  1.0000
  C   C458      1.0  0.04196  0.49369  0.78375  1.0000
  C   C459      1.0  0.02710  0.49298  0.77297  1.0000
  H   H358      1.0  0.22977  0.38049  0.95114  1.0000
  H   H359      1.0  0.23046  0.51148  0.57150  1.0000
  C   C460      1.0  0.08657  0.64021  0.92936  1.0000
  C   C461      1.0  0.03642  0.46623  0.54210  1.0000
  H   H360      1.0  0.01786  0.46311  0.71151  1.0000
  C   C462      1.0  0.14169  0.33593  0.76749  1.0000
  C   C463      1.0  0.16419  0.35552  0.97446  1.0000
  C   C464      1.0  0.01129  0.37076  0.75112  1.0000
  C   C465      1.0  0.99870  0.34616  0.78233  1.0000
  C   C466      1.0  0.08412  0.64903  0.76708  1.0000
  H   H361      1.0  0.02650  0.51568  0.73686  1.0000
  H   H362      1.0  0.02924  0.54093  0.70699  1.0000
  C   C467      1.0  0.98762  0.64286  0.97316  1.0000
  H   H363      1.0  0.99674  0.41240  0.66684  1.0000
  H   H364      1.0  0.06143  0.65269  0.78832  1.0000
  H   H365      1.0  0.02626  0.45358  0.75284  1.0000
  H   H366      1.0  0.05213  0.45483  0.77222  1.0000
  H   H367      1.0  0.06254  0.48056  0.79170  1.0000
  H   H368      1.0  0.04681  0.50517  0.79184  1.0000
  H   H369      1.0  0.02033  0.50377  0.77342  1.0000
  C   C468      1.0  0.06621  0.56647  0.64169  1.0000
  C   C469      1.0  0.04934  0.55351  0.64741  1.0000
  C   C470      1.0  0.04780  0.53544  0.64447  1.0000
  C   C471      1.0  0.06317  0.53036  0.63580  1.0000
  C   C472      1.0  0.08015  0.54340  0.62961  1.0000
  C   C473      1.0  0.08154  0.56150  0.63289  1.0000
  P   P16       1.0  0.09970  0.53717  0.61660  1.0000
  C   C474      1.0  0.09424  0.52506  0.59440  1.0000
  C   C475      1.0  0.11729  0.55799  0.60522  1.0000
  C   C476      1.0  0.11952  0.56583  0.58311  1.0000
  C   C477      1.0  0.13214  0.58276  0.57491  1.0000
  C   C478      1.0  0.14242  0.59200  0.58872  1.0000
  C   C479      1.0  0.14004  0.58447  0.61080  1.0000
  C   C480      1.0  0.12773  0.56738  0.61898  1.0000
  C   C481      1.0  0.10660  0.51648  0.58459  1.0000
  C   C482      1.0  0.10290  0.50778  0.56682  1.0000
  C   C483      1.0  0.08677  0.50735  0.55881  1.0000
  C   C484      1.0  0.07453  0.51608  0.56819  1.0000
  C   C485      1.0  0.07834  0.52512  0.58571  1.0000
  C   C486      1.0  0.10840  0.52303  0.63563  1.0000
  C   C487      1.0  0.09703  0.51186  0.65445  1.0000
  C   C488      1.0  0.10368  0.50010  0.66821  1.0000
  C   C489      1.0  0.12165  0.49926  0.66323  1.0000
  C   C490      1.0  0.13303  0.51033  0.64457  1.0000
  C   C491      1.0  0.12654  0.52231  0.63098  1.0000
  H   H370      1.0  0.06736  0.58050  0.64390  1.0000
  H   H371      1.0  0.03752  0.55762  0.65398  1.0000
  H   H372      1.0  0.03468  0.52542  0.64891  1.0000
  H   H373      1.0  0.06177  0.51634  0.63356  1.0000
  H   H374      1.0  0.09428  0.57205  0.62842  1.0000
  H   H375      1.0  0.11145  0.55907  0.57220  1.0000
  H   H376      1.0  0.13395  0.58881  0.55784  1.0000
  H   H377      1.0  0.15234  0.60496  0.58221  1.0000
  H   H378      1.0  0.14755  0.59204  0.62158  1.0000
  H   H379      1.0  0.12585  0.56176  0.63616  1.0000
  H   H380      1.0  0.11933  0.51680  0.59024  1.0000
  H   H381      1.0  0.11270  0.50150  0.55917  1.0000
  H   H382      1.0  0.08395  0.50054  0.54506  1.0000
  H   H383      1.0  0.06225  0.51619  0.56160  1.0000
  H   H384      1.0  0.06904  0.53245  0.59204  1.0000
  H   H385      1.0  0.08300  0.51197  0.65854  1.0000
  H   H386      1.0  0.09478  0.49135  0.68257  1.0000
  H   H387      1.0  0.12662  0.48976  0.67359  1.0000
  H   H388      1.0  0.14681  0.50940  0.64034  1.0000
  H   H389      1.0  0.13564  0.53068  0.61652  1.0000
  C   C492      1.0  0.11437  0.39145  0.76328  1.0000
  C   C493      1.0  0.11027  0.40377  0.77641  1.0000
  C   C494      1.0  0.11347  0.42222  0.76748  1.0000
  C   C495      1.0  0.08889  0.37029  0.72629  1.0000
  C   C496      1.0  0.07295  0.36379  0.71810  1.0000
  S   S73       1.0  0.22152  0.60800  0.56931  1.0000
  C   C497      1.0  0.99888  0.50759  0.69012  1.0000
  H   H390      1.0  0.11102  0.37707  0.77041  1.0000
  H   H391      1.0  0.10410  0.39889  0.79342  1.0000
  H   H392      1.0  0.10955  0.43157  0.77751  1.0000
  H   H393      1.0  0.08791  0.37485  0.74185  1.0000
  H   H394      1.0  0.05993  0.36367  0.72724  1.0000
  C   C498      1.0  0.09090  0.33648  0.95598  1.0000
  H   H395      1.0  0.23315  0.39527  0.80598  1.0000
  C   C499      1.0  0.20455  0.54805  0.71948  1.0000
  H   H396      1.0  0.01738  0.54643  0.74745  1.0000
  C   C500      1.0  0.18948  0.60140  0.62321  1.0000
  C   C501      1.0  0.20474  0.61248  0.62911  1.0000
  C   C502      1.0  0.21143  0.60625  0.64746  1.0000
  C   C503      1.0  0.20271  0.58901  0.66004  1.0000
  C   C504      1.0  0.18730  0.57776  0.65420  1.0000
  C   C505      1.0  0.18104  0.58394  0.63535  1.0000
  P   P17       1.0  0.17490  0.55611  0.67132  1.0000
  C   C506      1.0  0.17815  0.53675  0.65910  1.0000
  C   C507      1.0  0.18265  0.55472  0.69730  1.0000
  H   H397      1.0  0.16573  0.34745  0.96176  1.0000
  C   C508      1.0  0.01182  0.34818  0.82443  1.0000
  H   H398      1.0  0.12190  0.47770  0.48821  1.0000
  C   C509      1.0  0.99729  0.49318  0.70706  1.0000
  C   C510      1.0  0.17314  0.55940  0.71544  1.0000
  C   C511      1.0  0.17514  0.51961  0.67242  1.0000
  C   C512      1.0  0.17761  0.50452  0.66327  1.0000
  C   C513      1.0  0.18314  0.50638  0.64076  1.0000
  C   C514      1.0  0.18610  0.52331  0.62740  1.0000
  C   C515      1.0  0.18363  0.53847  0.63645  1.0000
  C   C516      1.0  0.15093  0.55482  0.67675  1.0000
  C   C517      1.0  0.14502  0.57082  0.67418  1.0000
  H   H399      1.0  0.18430  0.60639  0.60908  1.0000
  H   H400      1.0  0.99092  0.50543  0.67721  1.0000
  S   S74       1.0  0.19959  0.64987  0.57029  1.0000
  H   H401      1.0  0.20801  0.58463  0.67433  1.0000
  H   H402      1.0  0.16943  0.57535  0.63027  1.0000
  H   H403      1.0  0.20882  0.33863  0.89507  1.0000
  H   H404      1.0  0.00925  0.43379  0.69831  1.0000
  C   C518      1.0  0.11031  0.47192  0.60926  1.0000
  H   H405      1.0  0.04420  0.63893  0.68316  1.0000
  H   H406      1.0  0.16098  0.56391  0.71426  1.0000
  H   H407      1.0  0.17080  0.51783  0.68991  1.0000
  H   H408      1.0  0.20359  0.36816  0.90169  1.0000
  H   H409      1.0  0.18491  0.49468  0.63355  1.0000
  H   H410      1.0  0.19006  0.52455  0.60993  1.0000
  H   H411      1.0  0.18595  0.55136  0.62561  1.0000
  H   H412      1.0  0.15450  0.58418  0.66846  1.0000
  P   P18       1.0  0.00142  0.33289  0.80724  1.0000
  C   C519      1.0  0.02814  0.37162  0.85132  1.0000
  H   H413      1.0  0.09145  0.35510  0.66963  1.0000
  H   H414      1.0  0.18749  0.57533  0.52986  1.0000
  C   C520      1.0  0.00977  0.32607  0.73350  1.0000
  C   C521      1.0  0.00133  0.60724  0.72238  1.0000
  S   S75       1.0  0.08812  0.32896  0.87238  1.0000
  H   H415      1.0  0.98814  0.63937  0.78789  1.0000
  H   H416      1.0  0.98889  0.55333  0.69970  1.0000
  H   H417      1.0  0.00380  0.37170  0.81000  1.0000
  H   H418      1.0  0.01142  0.38603  0.61603  1.0000
  C   C522      1.0  0.99337  0.36700  0.67870  1.0000
  C   C523      1.0  0.07093  0.63364  0.96691  1.0000
  C   C524      1.0  0.19786  0.58963  0.49683  1.0000
  C   C525      1.0  0.18752  0.57477  0.51266  1.0000
  C   C526      1.0  0.17688  0.55937  0.50632  1.0000
  C   C527      1.0  0.14551  0.34157  0.90103  1.0000
  C   C528      1.0  0.20512  0.33198  0.95050  1.0000
  C   C529      1.0  0.99477  0.36670  0.74349  1.0000
  C   C530      1.0  0.12215  0.39759  0.74110  1.0000
  C   C531      1.0  0.98880  0.38302  0.67127  1.0000
  Fe  Fe37      1.0  0.20316  0.49502  0.54111  1.0000
  H   H419      1.0  0.17361  0.34166  0.89542  1.0000
  H   H420      1.0  0.12363  0.44274  0.73842  1.0000
  H   H421      1.0  0.01401  0.57733  0.73840  1.0000
  C   C532      1.0  0.01000  0.64867  0.89327  1.0000
  P   P19       1.0  0.12656  0.38142  0.72390  1.0000
  S   S76       1.0  0.22535  0.64961  0.52480  1.0000
  S   S77       1.0  0.14755  0.63996  0.57139  1.0000
  C   C533      1.0  0.14425  0.39269  0.70068  1.0000
  C   C534      1.0  0.14038  0.40374  0.68316  1.0000
  H   H422      1.0  0.12696  0.40593  0.68357  1.0000
  H   H423      1.0  0.01130  0.53602  0.67721  1.0000
  H   H424      1.0  0.06151  0.35404  0.69100  1.0000
  H   H425      1.0  0.14221  0.52551  0.68833  1.0000
  C   C535      1.0  0.13810  0.53799  0.68551  1.0000
  C   C536      1.0  0.16182  0.39031  0.69966  1.0000
  C   C537      1.0  0.17528  0.39887  0.68141  1.0000
  C   C538      1.0  0.17129  0.40982  0.66407  1.0000
  C   C539      1.0  0.15385  0.41224  0.66496  1.0000
  H   H426      1.0  0.20273  0.63965  0.69853  1.0000
  H   H427      1.0  0.16520  0.38184  0.71282  1.0000
  H   H428      1.0  0.18881  0.39700  0.68067  1.0000
  H   H429      1.0  0.01892  0.60794  0.74658  1.0000
  Fe  Fe38      1.0  0.17587  0.64306  0.55292  1.0000
  H   H430      1.0  0.13171  0.42147  0.71547  1.0000
  H   H431      1.0  0.18167  0.41648  0.64991  1.0000
  C   C540      1.0  0.01783  0.61283  0.72992  1.0000
  C   C541      1.0  0.14489  0.36808  0.75501  1.0000
  H   H432      1.0  0.03360  0.47014  0.52594  1.0000
  C   C542      1.0  0.04027  0.47455  0.63730  1.0000
  C   C543      1.0  0.11971  0.53716  0.69129  1.0000
  C   C544      1.0  0.04983  0.39842  0.63783  1.0000
  C   C545      1.0  0.12659  0.56983  0.67956  1.0000
  H   H433      1.0  0.09325  0.63588  0.91547  1.0000
  C   C546      1.0  0.99830  0.62341  0.87494  1.0000
  C   C547      1.0  0.13277  0.36352  0.74047  1.0000
  C   C548      1.0  0.02897  0.35347  0.85393  1.0000
  C   C549      1.0  0.19849  0.54918  0.69941  1.0000
  C   C550      1.0  0.02841  0.64089  0.77105  1.0000
  H   H434      1.0  0.17507  0.49130  0.67361  1.0000
  H   H435      1.0  0.03386  0.62753  0.97539  1.0000
  H   H436      1.0  0.02959  0.48906  0.55447  1.0000
  C   C551      1.0  0.12545  0.34502  0.73926  1.0000
  H   H437      1.0  0.15070  0.38227  0.75618  1.0000
  P   P20       1.0  0.04857  0.44977  0.61087  1.0000
  C   C552      1.0  0.08036  0.33040  0.94039  1.0000
  C   C553      1.0  0.00048  0.61331  0.70048  1.0000
  C   C554      1.0  0.98745  0.56770  0.66823  1.0000
  C   C555      1.0  0.02832  0.41367  0.61247  1.0000
  H   H438      1.0  0.23082  0.42324  0.78279  1.0000
  H   H439      1.0  0.99285  0.62826  0.75286  1.0000
  C   C556      1.0  0.16041  0.33539  0.90553  1.0000
  C   C557      1.0  0.02511  0.64746  0.81391  1.0000
  H   H440      1.0  0.02267  0.38175  0.74194  1.0000
  H   H441      1.0  0.12482  0.47665  0.60905  1.0000
  H   H442      1.0  0.13707  0.35608  0.96967  1.0000
  H   H443      1.0  0.06603  0.42580  0.63603  1.0000
  C   C558      1.0  0.01317  0.36077  0.77061  1.0000
  C   C559      1.0  0.01077  0.36639  0.82216  1.0000
  C   C560      1.0  0.00103  0.43600  0.71258  1.0000
  H   H444      1.0  0.02592  0.36456  0.77656  1.0000
  H   H445      1.0  0.14489  0.32528  0.77822  1.0000
  H   H446      1.0  0.14236  0.32912  0.84572  1.0000
  H   H447      1.0  0.08650  0.33231  0.92344  1.0000
  C   C561      1.0  0.12704  0.45181  0.48462  1.0000
  C   C562      1.0  0.07935  0.46409  0.62878  1.0000
  C   C563      1.0  0.00190  0.56616  0.74390  1.0000
  H   H448      1.0  0.03632  0.34854  0.86596  1.0000
  C   C564      1.0  0.06919  0.65158  0.96518  1.0000
  C   C565      1.0  0.09806  0.47019  0.62842  1.0000
  S   S78       1.0  0.20690  0.33367  0.84913  1.0000
  C   C566      1.0  0.01117  0.46951  0.66075  1.0000
  C   C567      1.0  0.03317  0.62444  0.71591  1.0000
  C   C568      1.0  0.21098  0.65328  0.69102  1.0000
  C   C569      1.0  0.00758  0.41798  0.80428  1.0000
  H   H449      1.0  0.10957  0.64899  0.74814  1.0000
  C   C570      1.0  0.00041  0.40005  0.67233  1.0000
  H   H450      1.0  0.21672  0.54366  0.72105  1.0000
  C   C571      1.0  0.03207  0.32536  0.78517  1.0000
  C   C572      1.0  0.03213  0.63061  0.69428  1.0000
  C   C573      1.0  0.02892  0.48026  0.65267  1.0000
  H   H451      1.0  0.01653  0.42628  0.81324  1.0000
  H   H452      1.0  0.04598  0.62831  0.72173  1.0000
  H   H453      1.0  0.03060  0.37254  0.63838  1.0000
  C   C574      1.0  0.00389  0.54851  0.74900  1.0000
  H   H454      1.0  0.07017  0.46254  0.64396  1.0000
  C   C575      1.0  0.03412  0.45764  0.63054  1.0000
  H   H455      1.0  0.10311  0.47297  0.64322  1.0000
  C   C576      1.0  0.01613  0.44708  0.63858  1.0000
  C   C577      1.0  0.03779  0.47186  0.57905  1.0000
  C   C578      1.0  0.04589  0.44542  0.56777  1.0000
  H   H456      1.0  0.01957  0.41935  0.60309  1.0000
  C   C579      1.0  0.20114  0.36156  0.93668  1.0000
  C   C580      1.0  0.21193  0.57049  0.57355  1.0000
  C   C581      1.0  0.02091  0.34181  0.84052  1.0000
  C   C582      1.0  0.10388  0.46682  0.59061  1.0000
  H   H457      1.0  0.19955  0.55156  0.75310  1.0000
  C   C583      1.0  0.05436  0.41736  0.63093  1.0000
  H   H458      1.0  0.08061  0.45652  0.57630  1.0000
  H   H459      1.0  0.03457  0.33833  0.77461  1.0000
  C   C584      1.0  0.16306  0.64311  0.70478  1.0000
  C   C585      1.0  0.12828  0.33295  0.91324  1.0000
  H   H460      1.0  0.99023  0.58465  0.63705  1.0000
  C   C586      1.0  0.11395  0.55304  0.68811  1.0000
  H   H461      1.0  0.19882  0.37456  0.93932  1.0000
  C   C587      1.0  0.01579  0.62509  0.68659  1.0000
  H   H462      1.0  0.11351  0.46735  0.57608  1.0000
  C   C588      1.0  0.20741  0.32833  0.92918  1.0000
  H   H463      1.0  0.09974  0.55238  0.69267  1.0000
  C   C589      1.0  0.00980  0.36803  0.68641  1.0000
  C   C590      1.0  0.20681  0.34135  0.91163  1.0000
  H   H464      1.0  0.99005  0.51997  0.76001  1.0000
  C   C591      1.0  0.17923  0.55823  0.73549  1.0000
  H   H465      1.0  0.21144  0.62578  0.61924  1.0000
  H   H466      1.0  0.20615  0.54574  0.68554  1.0000
  C   C592      1.0  0.98854  0.53364  0.75613  1.0000
  H   H467      1.0  0.05788  0.39256  0.64817  1.0000
  H   H468      1.0  0.10985  0.52425  0.69851  1.0000
  C   C593      1.0  0.04355  0.45600  0.58405  1.0000
  C   C594      1.0  0.03445  0.38713  0.63231  1.0000
  H   H469      1.0  0.03612  0.48038  0.59124  1.0000
  H   H470      1.0  0.01525  0.62919  0.66953  1.0000
  C   C595      1.0  0.01907  0.37808  0.83543  1.0000
  C   C596      1.0  0.01286  0.63486  0.88180  1.0000
  H   H471      1.0  0.17574  0.34351  0.83619  1.0000
  H   H472      1.0  0.05065  0.43332  0.57113  1.0000
  C   C597      1.0  0.02368  0.39475  0.61968  1.0000
  H   H473      1.0  0.05384  0.48327  0.63094  1.0000
  C   C598      1.0  0.04232  0.45052  0.54689  1.0000
  C   C599      1.0  0.17061  0.33092  0.84790  1.0000
  H   H474      1.0  0.00749  0.40570  0.75422  1.0000
  H   H475      1.0  0.22336  0.61480  0.65193  1.0000
  H   H476      1.0  0.21678  0.55899  0.52924  1.0000
  C   C600      1.0  0.00258  0.40621  0.77107  1.0000
  C   C601      1.0  0.10297  0.65531  0.76008  1.0000
  H   H477      1.0  0.98832  0.47999  0.70684  1.0000
  H   H478      1.0  0.02849  0.61361  0.78488  1.0000
  H   H479      1.0  0.02810  0.42336  0.77558  1.0000
  H   H480      1.0  0.11968  0.36640  0.68402  1.0000
  H   H481      1.0  0.17171  0.56168  0.74948  1.0000
  C   C602      1.0  0.08291  0.33418  0.97800  1.0000
  C   C603      1.0  0.98687  0.64661  0.95091  1.0000
  C   C604      1.0  0.20374  0.35798  0.91538  1.0000
  H   H482      1.0  0.16595  0.62946  0.73590  1.0000
  C   C605      1.0  0.17662  0.55879  0.48413  1.0000
  C   C606      1.0  0.16349  0.64154  0.72714  1.0000
  H   H483      1.0  0.21951  0.55840  0.48510  1.0000
  H   H484      1.0  0.22630  0.57147  0.57212  1.0000
  H   H485      1.0  0.16507  0.63220  0.69617  1.0000
  H   H486      1.0  0.10529  0.34306  0.95097  1.0000
  C   C607      1.0  0.07946  0.62794  0.94899  1.0000
  H   H487      1.0  0.21002  0.64807  0.65832  1.0000
  C   C608      1.0  0.16036  0.65540  0.73829  1.0000
  C   C609      1.0  0.23152  0.56341  0.52608  1.0000
  H   H488      1.0  0.01887  0.39228  0.83310  1.0000
  C   C610      1.0  0.01412  0.41645  0.78296  1.0000
  C   C611      1.0  0.07387  0.35840  0.69765  1.0000
  H   H489      1.0  0.98822  0.60869  0.69383  1.0000
  H   H490      1.0  0.02539  0.61941  0.82302  1.0000
  H   H491      1.0  0.15833  0.35787  0.78004  1.0000
  C   C612      1.0  0.02586  0.63017  0.80971  1.0000
  C   C613      1.0  0.09074  0.35917  0.68556  1.0000
  H   H492      1.0  0.99321  0.47831  0.79535  1.0000
  H   H493      1.0  0.00237  0.47387  0.67262  1.0000
  H   H494      1.0  0.00053  0.61290  0.86578  1.0000
  C   C614      1.0  0.12987  0.33130  0.75280  1.0000
  H   H495      1.0  0.01044  0.34026  0.72796  1.0000
  H   H496      1.0  0.08071  0.61408  0.95036  1.0000
  H   H497      1.0  0.22822  0.48435  0.48901  1.0000
  H   H498      1.0  0.02399  0.65004  0.83051  1.0000
  H   H499      1.0  0.11673  0.33755  0.90927  1.0000
  H   H500      1.0  0.17142  0.63731  0.60337  1.0000
  H   H501      1.0  0.02644  0.63321  0.87798  1.0000
  S   S79       1.0  0.23301  0.49816  0.52988  1.0000
  C   C615      1.0  0.23104  0.38214  0.96775  1.0000
  C   C616      1.0  0.99253  0.65125  0.89787  1.0000
  H   H502      1.0  0.98448  0.35381  0.67787  1.0000
  C   C617      1.0  0.98469  0.39683  0.78074  1.0000
  H   H503      1.0  0.98465  0.41062  0.83029  1.0000
  C   C618      1.0  0.98544  0.42242  0.72323  1.0000
  H   H504      1.0  0.23289  0.59125  0.52982  1.0000
  C   C619      1.0  0.98451  0.56911  0.74584  1.0000
  C   C620      1.0  0.02791  0.65832  0.77505  1.0000
  C   C621      1.0  0.08533  0.65822  0.92772  1.0000
  C   C622      1.0  0.21513  0.65810  0.66826  1.0000
  C   C623      1.0  0.15917  0.65836  0.69362  1.0000
  C   C624      1.0  0.07587  0.65748  0.78262  1.0000
  H   H505      1.0  0.01773  0.67142  0.05547  1.0000
  H   H506      1.0  0.20573  0.87605  0.01217  1.0000
  H   H507      1.0  0.16622  0.67339  0.44144  1.0000
  C   C625      1.0  0.17146  0.91073  0.98443  1.0000
  C   C626      1.0  0.00127  0.70138  0.02473  1.0000
  S   S80       1.0  0.19938  0.84971  0.05869  1.0000
  H   H508      1.0  0.22983  0.86740  0.98975  1.0000
  H   H509      1.0  0.09450  0.68353  0.98884  1.0000
  Fe  Fe39      1.0  0.11883  0.76467  0.02938  1.0000
  S   S81       1.0  0.12988  0.74018  0.03333  1.0000
  S   S82       1.0  0.14087  0.79264  0.01879  1.0000
  Fe  Fe40      1.0  0.07927  0.73851  0.03258  1.0000
  S   S83       1.0  0.08891  0.71306  0.03656  1.0000
  S   S84       1.0  0.04947  0.73684  0.02973  1.0000
  Fe  Fe41      1.0  0.10561  0.72694  0.05944  1.0000
  S   S85       1.0  0.11020  0.71478  0.09250  1.0000
  Fe  Fe42      1.0  0.11217  0.72909  0.00997  1.0000
  C   C627      1.0  0.19454  0.68721  0.42967  1.0000
  S   S86       1.0  0.09494  0.75193  0.05698  1.0000
  S   S87       1.0  0.10186  0.75383  0.00458  1.0000
  H   H510      1.0  0.23134  0.77072  0.44807  1.0000
  C   C628      1.0  0.03182  0.71629  0.03117  1.0000
  C   C629      1.0  0.01616  0.71708  0.02219  1.0000
  C   C630      1.0  0.01735  0.68400  0.04567  1.0000
  C   C631      1.0  0.03252  0.69948  0.04231  1.0000
  H   H511      1.0  0.01547  0.72997  0.01342  1.0000
  H   H512      1.0  0.04442  0.69868  0.04928  1.0000
  Fe  Fe43      1.0  0.22746  0.87146  0.04900  1.0000
  C   C632      1.0  0.10830  0.68378  0.12142  1.0000
  C   C633      1.0  0.10516  0.69083  0.10085  1.0000
  C   C634      1.0  0.09794  0.67872  0.08745  1.0000
  P   P21       1.0  0.23101  0.70636  0.41390  1.0000
  H   H513      1.0  0.11386  0.69308  0.13191  1.0000
  H   H514      1.0  0.09558  0.68398  0.07155  1.0000
  C   C635      1.0  0.18362  0.83358  0.04726  1.0000
  C   C636      1.0  0.18680  0.83114  0.02547  1.0000
  C   C637      1.0  0.17376  0.81844  0.01726  1.0000
  C   C638      1.0  0.15740  0.80764  0.03065  1.0000
  C   C639      1.0  0.15439  0.80981  0.05255  1.0000
  C   C640      1.0  0.16730  0.82274  0.06069  1.0000
  H   H515      1.0  0.19930  0.83904  0.01489  1.0000
  H   H516      1.0  0.17647  0.81696  0.00039  1.0000
  H   H517      1.0  0.14189  0.80187  0.06310  1.0000
  H   H518      1.0  0.16459  0.82437  0.07759  1.0000
  H   H519      1.0  0.16492  0.85553  0.98929  1.0000
  C   C641      1.0  0.22513  0.75839  0.40632  1.0000
  H   H520      1.0  0.21522  0.76510  0.41264  1.0000
  H   H521      1.0  0.11567  0.76082  0.09249  1.0000
  H   H522      1.0  0.11878  0.85948  0.05040  1.0000
  H   H523      1.0  0.20173  0.77973  0.98167  1.0000
  H   H524      1.0  0.14508  0.88627  0.03543  1.0000
  H   H525      1.0  0.16836  0.77238  0.00423  1.0000
  H   H526      1.0  0.12141  0.80689  0.98687  1.0000
  C   C642      1.0  0.14952  0.78814  0.11228  1.0000
  C   C643      1.0  0.13205  0.78058  0.10827  1.0000
  C   C644      1.0  0.16158  0.76925  0.08919  1.0000
  C   C645      1.0  0.16419  0.78227  0.10312  1.0000
  P   P22       1.0  0.17991  0.76001  0.07939  1.0000
  C   C646      1.0  0.10425  0.66473  0.12854  1.0000
  H   H527      1.0  0.02901  0.70989  0.08728  1.0000
  C   C647      1.0  0.20174  0.77672  0.07552  1.0000
  H   H528      1.0  0.23165  0.81767  0.01686  1.0000
  H   H529      1.0  0.19699  0.92859  0.00859  1.0000
  C   C648      1.0  0.06055  0.69546  0.99204  1.0000
  H   H530      1.0  0.98939  0.70229  0.01772  1.0000
  H   H531      1.0  0.19705  0.75237  0.11770  1.0000
  C   C649      1.0  0.17702  0.73969  0.09923  1.0000
  C   C650      1.0  0.16316  0.72386  0.09896  1.0000
  C   C651      1.0  0.16001  0.70833  0.11494  1.0000
  H   H532      1.0  0.22824  0.72429  0.45296  1.0000
  C   C652      1.0  0.22010  0.80835  0.06553  1.0000
  H   H533      1.0  0.22655  0.67506  0.26196  1.0000
  H   H534      1.0  0.15168  0.79839  0.12274  1.0000
  H   H535      1.0  0.17748  0.78779  0.10711  1.0000
  H   H536      1.0  0.21263  0.78664  0.01559  1.0000
  Fe  Fe44      1.0  0.19485  0.67635  0.33388  1.0000
  H   H537      1.0  0.22135  0.70014  0.28894  1.0000
  C   C653      1.0  0.18707  0.74001  0.11634  1.0000
  C   C654      1.0  0.09120  0.67297  0.00323  1.0000
  C   C655      1.0  0.00522  0.71756  0.07960  1.0000
  H   H538      1.0  0.15448  0.72358  0.08666  1.0000
  H   H539      1.0  0.14921  0.69621  0.11464  1.0000
  H   H540      1.0  0.17974  0.71342  0.25613  1.0000
  H   H541      1.0  0.06365  0.69542  0.07971  1.0000
  C   C656      1.0  0.17805  0.75460  0.05255  1.0000
  H   H542      1.0  0.17430  0.74380  0.99422  1.0000
  C   C657      1.0  0.19379  0.71318  0.25574  1.0000
  C   C658      1.0  0.15476  0.85687  0.00219  1.0000
  C   C659      1.0  0.98533  0.68393  0.10501  1.0000
  H   H543      1.0  0.22102  0.82277  0.06095  1.0000
  C   C660      1.0  0.20760  0.69713  0.41151  1.0000
  H   H544      1.0  0.06750  0.69382  0.00572  1.0000
  H   H545      1.0  0.11559  0.83082  0.03494  1.0000
  H   H546      1.0  0.00113  0.68633  0.98306  1.0000
  H   H547      1.0  0.14237  0.90186  0.99625  1.0000
  C   C661      1.0  0.22682  0.81465  0.00193  1.0000
  H   H548      1.0  0.16783  0.69652  0.14403  1.0000
  C   C662      1.0  0.18402  0.69444  0.38909  1.0000
  H   H549      1.0  0.13863  0.82923  0.00430  1.0000
  C   C663      1.0  0.00155  0.68483  0.03706  1.0000
  H   H550      1.0  0.12064  0.78491  0.11560  1.0000
  C   C664      1.0  0.22628  0.76208  0.46388  1.0000
  H   H551      1.0  0.18597  0.72934  0.05816  1.0000
  C   C665      1.0  0.23006  0.71214  0.25480  1.0000
  P   P23       1.0  0.05880  0.65898  0.98867  1.0000
  H   H552      1.0  0.17688  0.87344  0.04491  1.0000
  C   C666      1.0  0.05492  0.66823  0.07223  1.0000
  C   C667      1.0  0.20621  0.87745  0.99469  1.0000
  C   C668      1.0  0.13982  0.84183  0.01069  1.0000
  C   C669      1.0  0.20805  0.75177  0.46877  1.0000
  C   C670      1.0  0.20321  0.79537  0.06890  1.0000
  H   H553      1.0  0.10678  0.65941  0.14436  1.0000
  H   H554      1.0  0.01133  0.68010  0.11002  1.0000
  C   C671      1.0  0.00432  0.68913  0.10233  1.0000
  C   C672      1.0  0.17577  0.74702  0.01029  1.0000
  C   C673      1.0  0.18392  0.72440  0.13229  1.0000
  H   H555      1.0  0.20588  0.91666  0.07425  1.0000
  C   C674      1.0  0.15349  0.91195  0.98544  1.0000
  H   H556      1.0  0.21208  0.70861  0.37715  1.0000
  H   H557      1.0  0.18007  0.69703  0.37326  1.0000
  C   C675      1.0  0.19927  0.70619  0.27466  1.0000
  C   C676      1.0  0.01426  0.70594  0.08965  1.0000
  C   C677      1.0  0.23395  0.70653  0.47878  1.0000
  C   C678      1.0  0.22281  0.73977  0.41372  1.0000
  H   H558      1.0  0.18956  0.70115  0.28979  1.0000
  C   C679      1.0  0.17629  0.68118  0.42750  1.0000
  H   H559      1.0  0.20961  0.93873  0.04033  1.0000
  H   H560      1.0  0.06271  0.72378  0.99361  1.0000
  C   C680      1.0  0.18067  0.73493  0.02558  1.0000
  C   C681      1.0  0.05603  0.68131  0.08592  1.0000
  C   C682      1.0  0.17360  0.76687  0.03696  1.0000
  C   C683      1.0  0.18199  0.73877  0.04660  1.0000
  C   C684      1.0  0.17242  0.76308  0.01592  1.0000
  H   H561      1.0  0.04888  0.68630  0.11844  1.0000
  C   C685      1.0  0.10367  0.67317  0.01755  1.0000
  C   C686      1.0  0.12926  0.76716  0.09505  1.0000
  C   C687      1.0  0.17106  0.68454  0.40717  1.0000
  H   H562      1.0  0.18953  0.88396  0.07636  1.0000
  C   C688      1.0  0.19366  0.88467  0.98478  1.0000
  C   C689      1.0  0.20643  0.71984  0.23637  1.0000
  C   C690      1.0  0.04772  0.67616  0.10781  1.0000
  C   C691      1.0  0.05755  0.71246  0.98549  1.0000
  H   H563      1.0  0.15704  0.67913  0.40533  1.0000
  C   C692      1.0  0.23426  0.70051  0.44168  1.0000
  C   C693      1.0  0.23138  0.82825  0.98337  1.0000
  C   C694      1.0  0.98623  0.71240  0.08222  1.0000
  H   H564      1.0  0.17084  0.77924  0.04120  1.0000
  H   H565      1.0  0.19920  0.75260  0.45684  1.0000
  H   H566      1.0  0.01303  0.73045  0.06945  1.0000
  H   H567      1.0  0.14142  0.75082  0.07573  1.0000
  C   C695      1.0  0.22455  0.71942  0.23589  1.0000
  C   C696      1.0  0.23178  0.71167  0.45725  1.0000
  C   C697      1.0  0.21731  0.70568  0.27418  1.0000
  H   H568      1.0  0.22409  0.67706  0.38725  1.0000
  H   H569      1.0  0.06157  0.67228  0.05530  1.0000
  H   H570      1.0  0.21088  0.73218  0.42560  1.0000
  P   P24       1.0  0.17667  0.89218  0.00107  1.0000
  C   C698      1.0  0.15677  0.87309  0.01090  1.0000
  C   C699      1.0  0.18549  0.90026  0.02441  1.0000
  C   C700      1.0  0.18350  0.88785  0.04379  1.0000
  C   C701      1.0  0.19063  0.89378  0.06176  1.0000
  C   C702      1.0  0.19985  0.91216  0.06057  1.0000
  C   C703      1.0  0.20194  0.92461  0.04137  1.0000
  C   C704      1.0  0.19482  0.91873  0.02334  1.0000
  C   C705      1.0  0.14360  0.87399  0.02822  1.0000
  C   C706      1.0  0.12871  0.85885  0.03675  1.0000
  C   C707      1.0  0.12686  0.84274  0.02803  1.0000
  H   H571      1.0  0.19832  0.68395  0.44544  1.0000
  C   C708      1.0  0.20219  0.70086  0.39129  1.0000
  H   H572      1.0  0.20216  0.72530  0.22173  1.0000
  C   C709      1.0  0.17044  0.70855  0.13154  1.0000
  C   C710      1.0  0.14395  0.76155  0.08550  1.0000
  H   H573      1.0  0.19133  0.79995  0.06633  1.0000
  C   C711      1.0  0.20989  0.79336  0.98189  1.0000
  S   S88       1.0  0.16481  0.66800  0.34674  1.0000
  S   S89       1.0  0.21053  0.70586  0.33158  1.0000
  H   H574      1.0  0.18323  0.72246  0.02121  1.0000
  S   S90       1.0  0.12529  0.71805  0.98219  1.0000
  C   C712      1.0  0.23401  0.70940  0.33156  1.0000
  H   H575      1.0  0.11630  0.68398  0.01433  1.0000
  C   C713      1.0  0.21612  0.79719  0.00118  1.0000
  H   H576      1.0  0.23410  0.72467  0.22075  1.0000
  H   H577      1.0  0.21696  0.75678  0.08122  1.0000
  C   C714      1.0  0.07462  0.65931  0.00752  1.0000
  S   S91       1.0  0.19260  0.65946  0.30702  1.0000
  H   H578      1.0  0.19169  0.72468  0.14548  1.0000
  C   C715      1.0  0.21762  0.77115  0.07728  1.0000
  C   C716      1.0  0.09991  0.65946  0.03591  1.0000
  H   H579      1.0  0.10961  0.65967  0.04699  1.0000
  C   C717      1.0  0.09353  0.65973  0.09476  1.0000
  S   S92       1.0  0.23349  0.89955  0.02854  1.0000
  C   C718      1.0  0.21960  0.87199  0.98208  1.0000
  C   C719      1.0  0.05464  0.68094  0.98093  1.0000
  Fe  Fe45      1.0  0.21315  0.66977  0.53964  1.0000
  C   C720      1.0  0.00353  0.67240  0.75168  1.0000
  H   H580      1.0  0.12193  0.65859  0.68682  1.0000
  C   C721      1.0  0.18819  0.84605  0.91058  1.0000
  H   H581      1.0  0.18387  0.88992  0.95434  1.0000
  S   S93       1.0  0.20898  0.82908  0.84341  1.0000
  H   H582      1.0  0.09521  0.73038  0.96788  1.0000
  Fe  Fe46      1.0  0.07384  0.72765  0.82964  1.0000
  S   S94       1.0  0.07989  0.70135  0.84176  1.0000
  S   S95       1.0  0.04551  0.72813  0.82197  1.0000
  Fe  Fe47      1.0  0.11386  0.75104  0.83086  1.0000
  S   S96       1.0  0.12184  0.72557  0.84290  1.0000
  S   S97       1.0  0.13257  0.78089  0.82419  1.0000
  Fe  Fe48      1.0  0.10632  0.71246  0.81823  1.0000
  S   S98       1.0  0.11844  0.69646  0.79471  1.0000
  Fe  Fe49      1.0  0.09453  0.71705  0.86507  1.0000
  S   S99       1.0  0.08645  0.70535  0.90117  1.0000
  S   S100      1.0  0.09984  0.73840  0.80473  1.0000
  S   S101      1.0  0.08703  0.74288  0.85431  1.0000
  C   C722      1.0  0.02548  0.70933  0.82573  1.0000
  C   C723      1.0  0.01034  0.71182  0.81654  1.0000
  C   C724      1.0  0.99568  0.66351  0.73567  1.0000
  C   C725      1.0  0.19382  0.88502  0.96227  1.0000
  C   C726      1.0  0.00769  0.67803  0.84129  1.0000
  C   C727      1.0  0.02398  0.69228  0.83823  1.0000
  H   H583      1.0  0.01119  0.72496  0.80704  1.0000
  H   H584      1.0  0.07661  0.67813  0.94405  1.0000
  C   C728      1.0  0.14307  0.69604  0.64761  1.0000
  H   H585      1.0  0.03526  0.69014  0.84583  1.0000
  C   C729      1.0  0.19267  0.81990  0.93358  1.0000
  C   C730      1.0  0.07684  0.66395  0.94560  1.0000
  C   C731      1.0  0.19201  0.67485  0.63158  1.0000
  C   C732      1.0  0.12024  0.81847  0.95397  1.0000
  H   H586      1.0  0.06056  0.68954  0.76979  1.0000
  C   C733      1.0  0.10096  0.72409  0.95526  1.0000
  C   C734      1.0  0.20927  0.68354  0.61888  1.0000
  C   C735      1.0  0.20125  0.74020  0.48895  1.0000
  C   C736      1.0  0.12988  0.78778  0.94203  1.0000
  C   C737      1.0  0.13489  0.69029  0.63018  1.0000
  C   C738      1.0  0.09983  0.71314  0.92049  1.0000
  C   C739      1.0  0.09278  0.72175  0.93669  1.0000
  C   C740      1.0  0.06751  0.66765  0.70881  1.0000
  C   C741      1.0  0.11605  0.71751  0.95791  1.0000
  C   C742      1.0  0.12350  0.70950  0.94135  1.0000
  C   C743      1.0  0.11542  0.70731  0.92272  1.0000
  H   H587      1.0  0.08053  0.72596  0.93527  1.0000
  H   H588      1.0  0.13509  0.70425  0.94335  1.0000
  H   H589      1.0  0.12064  0.70015  0.91067  1.0000
  C   C744      1.0  0.18823  0.81566  0.83678  1.0000
  C   C745      1.0  0.17729  0.82348  0.82447  1.0000
  C   C746      1.0  0.16046  0.81265  0.82089  1.0000
  C   C747      1.0  0.15431  0.79369  0.82905  1.0000
  C   C748      1.0  0.16553  0.78576  0.84077  1.0000
  C   C749      1.0  0.18221  0.79665  0.84474  1.0000
  H   H590      1.0  0.18158  0.83799  0.81807  1.0000
  H   H591      1.0  0.15209  0.81907  0.81172  1.0000
  H   H592      1.0  0.16131  0.77121  0.84687  1.0000
  H   H593      1.0  0.19046  0.79027  0.85414  1.0000
  H   H594      1.0  0.21419  0.74915  0.65661  1.0000
  C   C750      1.0  0.01619  0.72023  0.87507  1.0000
  C   C751      1.0  0.21734  0.66606  0.70411  1.0000
  H   H595      1.0  0.18440  0.75608  0.66418  1.0000
  C   C752      1.0  0.19741  0.83259  0.91396  1.0000
  C   C753      1.0  0.14970  0.92635  0.97234  1.0000
  C   C754      1.0  0.19070  0.77956  0.94330  1.0000
  C   C755      1.0  0.99277  0.68031  0.83161  1.0000
  H   H596      1.0  0.15303  0.70920  0.64477  1.0000
  C   C756      1.0  0.18169  0.93846  0.95703  1.0000
  H   H597      1.0  0.19047  0.66756  0.64793  1.0000
  H   H598      1.0  0.12787  0.67441  0.76363  1.0000
  C   C757      1.0  0.17423  0.84701  0.92669  1.0000
  C   C758      1.0  0.16976  0.83477  0.94645  1.0000
  C   C759      1.0  0.17906  0.82142  0.94996  1.0000
  C   C760      1.0  0.23138  0.80274  0.87781  1.0000
  C   C761      1.0  0.22496  0.82457  0.96415  1.0000
  C   C762      1.0  0.99633  0.67910  0.95179  1.0000
  P   P25       1.0  0.98900  0.66972  0.91179  1.0000
  C   C763      1.0  0.03000  0.71249  0.75538  1.0000
  H   H599      1.0  0.20751  0.72980  0.51987  1.0000
  H   H600      1.0  0.16710  0.85742  0.92395  1.0000
  H   H601      1.0  0.15917  0.83565  0.95915  1.0000
  H   H602      1.0  0.14661  0.75384  0.95894  1.0000
  H   H603      1.0  0.11607  0.66859  0.61959  1.0000
  C   C764      1.0  0.05643  0.66803  0.72820  1.0000
  S   S102      1.0  0.18888  0.66448  0.52293  1.0000
  C   C765      1.0  0.12215  0.67325  0.63319  1.0000
  H   H604      1.0  0.07241  0.67439  0.67369  1.0000
  H   H605      1.0  0.10977  0.68550  0.70005  1.0000
  P   P26       1.0  0.02735  0.67576  0.75297  1.0000
  H   H606      1.0  0.22768  0.72021  0.62323  1.0000
  C   C766      1.0  0.03774  0.69784  0.75914  1.0000
  H   H607      1.0  0.13856  0.69895  0.61424  1.0000
  C   C767      1.0  0.12556  0.66769  0.67115  1.0000
  H   H608      1.0  0.06126  0.74538  0.77209  1.0000
  H   H609      1.0  0.13581  0.92725  0.97320  1.0000
  C   C768      1.0  0.06281  0.71779  0.77131  1.0000
  S   S103      1.0  0.22686  0.69925  0.54041  1.0000
  H   H610      1.0  0.04468  0.73419  0.87051  1.0000
  C   C769      1.0  0.99223  0.67662  0.76858  1.0000
  H   H611      1.0  0.13028  0.85868  0.85842  1.0000
  C   C770      1.0  0.22710  0.87258  0.69263  1.0000
  C   C771      1.0  0.04118  0.67483  0.72772  1.0000
  H   H612      1.0  0.21146  0.84643  0.71140  1.0000
  H   H613      1.0  0.99790  0.68270  0.78162  1.0000
  C   C772      1.0  0.06382  0.67471  0.68873  1.0000
  C   C773      1.0  0.04904  0.68220  0.68809  1.0000
  C   C774      1.0  0.03785  0.68243  0.70754  1.0000
  C   C775      1.0  0.15648  0.67067  0.72717  1.0000
  C   C776      1.0  0.16933  0.74311  0.95019  1.0000
  H   H614      1.0  0.07895  0.66186  0.70953  1.0000
  C   C777      1.0  0.23231  0.68845  0.67165  1.0000
  C   C778      1.0  0.21794  0.80186  0.89556  1.0000
  H   H615      1.0  0.16522  0.68345  0.59470  1.0000
  C   C779      1.0  0.08614  0.67204  0.79106  1.0000
  H   H616      1.0  0.19444  0.73627  0.94113  1.0000
  C   C780      1.0  0.10497  0.67820  0.78431  1.0000
  P   P27       1.0  0.20492  0.80286  0.93882  1.0000
  H   H617      1.0  0.07525  0.71970  0.77800  1.0000
  C   C781      1.0  0.04185  0.70050  0.95748  1.0000
  C   C782      1.0  0.11738  0.66208  0.65370  1.0000
  C   C783      1.0  0.16940  0.72789  0.67574  1.0000
  H   H618      1.0  0.23322  0.69341  0.70461  1.0000
  C   C784      1.0  0.22461  0.85648  0.70747  1.0000
  H   H619      1.0  0.16508  0.78576  0.95274  1.0000
  H   H620      1.0  0.08491  0.78693  0.84767  1.0000
  H   H621      1.0  0.04628  0.68788  0.67254  1.0000
  H   H622      1.0  0.02673  0.68868  0.70683  1.0000
  C   C785      1.0  0.18518  0.74205  0.66734  1.0000
  H   H623      1.0  0.22859  0.83529  0.94988  1.0000
  C   C786      1.0  0.99412  0.69746  0.81944  1.0000
  C   C787      1.0  0.99136  0.66477  0.94004  1.0000
  H   H624      1.0  0.09112  0.66789  0.91265  1.0000
  H   H625      1.0  0.15406  0.68115  0.73620  1.0000
  P   P28       1.0  0.14977  0.69150  0.69058  1.0000
  C   C788      1.0  0.13857  0.68470  0.66823  1.0000
  C   C789      1.0  0.13491  0.69956  0.70952  1.0000
  C   C790      1.0  0.11595  0.69434  0.71059  1.0000
  C   C791      1.0  0.10466  0.70031  0.72575  1.0000
  C   C792      1.0  0.11217  0.71143  0.73997  1.0000
  C   C793      1.0  0.13098  0.71672  0.73899  1.0000
  C   C794      1.0  0.14232  0.71088  0.72381  1.0000
  C   C795      1.0  0.99727  0.67528  0.97399  1.0000
  C   C796      1.0  0.19881  0.76531  0.94028  1.0000
  C   C797      1.0  0.03855  0.72964  0.75991  1.0000
  C   C798      1.0  0.16120  0.75713  0.95362  1.0000
  H   H626      1.0  0.16799  0.81763  0.87954  1.0000
  C   C799      1.0  0.17030  0.70968  0.68004  1.0000
  H   H627      1.0  0.07950  0.67835  0.80297  1.0000
  C   C800      1.0  0.17744  0.68398  0.60168  1.0000
  H   H628      1.0  0.15648  0.73115  0.67884  1.0000
  C   C801      1.0  0.20292  0.72006  0.66713  1.0000
  C   C802      1.0  0.18717  0.70582  0.67553  1.0000
  H   H629      1.0  0.23111  0.67123  0.58562  1.0000
  H   H630      1.0  0.21340  0.76819  0.93533  1.0000
  C   C803      1.0  0.00242  0.70452  0.88512  1.0000
  C   C804      1.0  0.22000  0.87281  0.95962  1.0000
  H   H631      1.0  0.02765  0.68287  0.91433  1.0000
  H   H632      1.0  0.03476  0.70257  0.94400  1.0000
  H   H633      1.0  0.09004  0.69602  0.72691  1.0000
  H   H634      1.0  0.10341  0.71549  0.75228  1.0000
  H   H635      1.0  0.13666  0.72483  0.75060  1.0000
  H   H636      1.0  0.15685  0.71486  0.72366  1.0000
  H   H637      1.0  0.20393  0.79937  0.89318  1.0000
  H   H638      1.0  0.03233  0.74082  0.75763  1.0000
  H   H639      1.0  0.15857  0.65906  0.67637  1.0000
  H   H640      1.0  0.11532  0.82787  0.87946  1.0000
  C   C805      1.0  0.12324  0.80544  0.96983  1.0000
  C   C806      1.0  0.20702  0.87917  0.94974  1.0000
  H   H641      1.0  0.23044  0.86865  0.94984  1.0000
  C   C807      1.0  0.03393  0.72232  0.87899  1.0000
  H   H642      1.0  0.21593  0.71712  0.66383  1.0000
  H   H643      1.0  0.18822  0.69190  0.67848  1.0000
  C   C808      1.0  0.21030  0.69305  0.59780  1.0000
  C   C809      1.0  0.12835  0.79030  0.96379  1.0000
  H   H644      1.0  0.19953  0.92348  0.96906  1.0000
  C   C810      1.0  0.03791  0.70883  0.89323  1.0000
  C   C811      1.0  0.00631  0.69068  0.89925  1.0000
  C   C812      1.0  0.05431  0.70065  0.76689  1.0000
  C   C813      1.0  0.18814  0.74719  0.94361  1.0000
  C   C814      1.0  0.02420  0.69312  0.90335  1.0000
  H   H645      1.0  0.19546  0.69987  0.57257  1.0000
  C   C815      1.0  0.19447  0.69313  0.58920  1.0000
  H   H646      1.0  0.21589  0.87503  0.68504  1.0000
  H   H647      1.0  0.20743  0.87981  0.93229  1.0000
  C   C816      1.0  0.21263  0.73905  0.50437  1.0000
  H   H648      1.0  0.02508  0.67470  0.80023  1.0000
  C   C817      1.0  0.15537  0.67205  0.70486  1.0000
  C   C818      1.0  0.05494  0.73228  0.76787  1.0000
  H   H649      1.0  0.18721  0.73199  0.49261  1.0000
  C   C819      1.0  0.22265  0.80478  0.91595  1.0000
  H   H650      1.0  0.05174  0.71042  0.89608  1.0000
  C   C820      1.0  0.04493  0.68347  0.96385  1.0000
  H   H651      1.0  0.19205  0.85585  0.89547  1.0000
  C   C821      1.0  0.20195  0.73815  0.66305  1.0000
  H   H652      1.0  0.17566  0.81229  0.96552  1.0000
  H   H653      1.0  0.16395  0.86922  0.84847  1.0000
  C   C822      1.0  0.08672  0.78550  0.86461  1.0000
  C   C823      1.0  0.07205  0.77625  0.88120  1.0000
  C   C824      1.0  0.07466  0.77367  0.90292  1.0000
  C   C825      1.0  0.09190  0.78051  0.90810  1.0000
  C   C826      1.0  0.10662  0.79012  0.89154  1.0000
  C   C827      1.0  0.10398  0.79220  0.86972  1.0000
  P   P29       1.0  0.12921  0.79781  0.89771  1.0000
  C   C828      1.0  0.12722  0.80096  0.92589  1.0000
  C   C829      1.0  0.14094  0.78032  0.89407  1.0000
  C   C830      1.0  0.15829  0.78207  0.89967  1.0000
  C   C831      1.0  0.16670  0.76792  0.89835  1.0000
  C   C832      1.0  0.15758  0.75160  0.89246  1.0000
  C   C833      1.0  0.14017  0.74954  0.88743  1.0000
  C   C834      1.0  0.13196  0.76386  0.88793  1.0000
  C   C835      1.0  0.12232  0.81631  0.93205  1.0000
  H   H654      1.0  0.01738  0.71073  0.74911  1.0000
  C   C836      1.0  0.13843  0.84969  0.86334  1.0000
  H   H655      1.0  0.20841  0.83252  0.90132  1.0000
  C   C837      1.0  0.17180  0.77528  0.95017  1.0000
  C   C838      1.0  0.14042  0.82015  0.88127  1.0000
  C   C839      1.0  0.15944  0.82633  0.87557  1.0000
  C   C840      1.0  0.16783  0.84402  0.86401  1.0000
  C   C841      1.0  0.15736  0.85566  0.85779  1.0000
  C   C842      1.0  0.02594  0.66145  0.79668  1.0000
  C   C843      1.0  0.13000  0.83209  0.87511  1.0000
  C   C844      1.0  0.17621  0.67515  0.62300  1.0000
  H   H656      1.0  0.05879  0.77069  0.87711  1.0000
  H   H657      1.0  0.06339  0.76610  0.91570  1.0000
  H   H658      1.0  0.09375  0.77798  0.92494  1.0000
  H   H659      1.0  0.11536  0.79872  0.85657  1.0000
  H   H660      1.0  0.16515  0.79409  0.90563  1.0000
  H   H661      1.0  0.18018  0.76942  0.90228  1.0000
  H   H662      1.0  0.16393  0.74051  0.89185  1.0000
  H   H663      1.0  0.13297  0.73680  0.88314  1.0000
  H   H664      1.0  0.11851  0.76178  0.88376  1.0000
  H   H665      1.0  0.11980  0.82646  0.92004  1.0000
  H   H666      1.0  0.18252  0.84851  0.85932  1.0000
  H   H667      1.0  0.16101  0.72907  0.95286  1.0000
  H   H668      1.0  0.22337  0.70001  0.58769  1.0000
  H   H669      1.0  0.13291  0.77544  0.93798  1.0000
  H   H670      1.0  0.03996  0.67235  0.95529  1.0000
  H   H671      1.0  0.11618  0.83017  0.95872  1.0000
  H   H672      1.0  0.16295  0.66801  0.63262  1.0000
  H   H673      1.0  0.16084  0.95074  0.94801  1.0000
  H   H674      1.0  0.00667  0.66504  0.85113  1.0000
  H   H675      1.0  0.01327  0.73050  0.86350  1.0000
  H   H676      1.0  0.23208  0.71501  0.49091  1.0000
  C   C845      1.0  0.22552  0.67586  0.65839  1.0000
  H   H677      1.0  0.05989  0.66314  0.74360  1.0000
  C   C846      1.0  0.21411  0.80709  0.96328  1.0000
  H   H678      1.0  0.99919  0.69322  0.94392  1.0000
  S   S104      1.0  0.23313  0.87110  0.87176  1.0000
  C   C847      1.0  0.16378  0.93959  0.95815  1.0000
  C   C848      1.0  0.11333  0.66973  0.76884  1.0000
  H   H679      1.0  0.22770  0.80114  0.86194  1.0000
  H   H680      1.0  0.19264  0.94873  0.94603  1.0000
  Fe  Fe50      1.0  0.23217  0.85532  0.84359  1.0000
  H   H681      1.0  0.00390  0.65911  0.72318  1.0000
  H   H682      1.0  0.21400  0.66235  0.72177  1.0000
  H   H683      1.0  0.04584  0.72821  0.96340  1.0000
  H   H684      1.0  0.13095  0.78038  0.97608  1.0000
  C   C849      1.0  0.04812  0.71498  0.96834  1.0000
  C   C850      1.0  0.23082  0.74938  0.49957  1.0000
  H   H685      1.0  0.98896  0.70334  0.88146  1.0000
  H   H686      1.0  0.23189  0.84887  0.79594  1.0000
  C   C851      1.0  0.18554  0.92411  0.97010  1.0000
  P   P30       1.0  0.23001  0.68221  0.62895  1.0000
  C   C852      1.0  0.22810  0.68358  0.69443  1.0000
  H   H687      1.0  0.34124  0.03788  0.15143  1.0000
  Fe  Fe51      1.0  0.31917  0.04251  0.06076  1.0000
  S   S105      1.0  0.34732  0.03898  0.05474  1.0000
  S   S106      1.0  0.29286  0.01904  0.06916  1.0000
  Fe  Fe52      1.0  0.33411  0.08500  0.05899  1.0000
  S   S107      1.0  0.36321  0.08384  0.05269  1.0000
  S   S108      1.0  0.32464  0.11094  0.06200  1.0000
  Fe  Fe53      1.0  0.35348  0.06461  0.02963  1.0000
  H   H688      1.0  0.47733  0.05962  0.09339  1.0000
  Fe  Fe54      1.0  0.35418  0.05830  0.07833  1.0000
  S   S109      1.0  0.36464  0.05031  0.10940  1.0000
  S   S110      1.0  0.32492  0.06727  0.03429  1.0000
  S   S111      1.0  0.32550  0.06047  0.08596  1.0000
  Fe  Fe55      1.0  0.46218  0.06779  0.20449  1.0000
  C   C853      1.0  0.29856  0.18969  0.00687  1.0000
  C   C854      1.0  0.45624  0.17205  0.47173  1.0000
  Fe  Fe56      1.0  0.43385  0.03107  0.20856  1.0000
  S   S112      1.0  0.44690  0.02442  0.17784  1.0000
  S   S113      1.0  0.40765  0.01308  0.22907  1.0000
  Fe  Fe57      1.0  0.44963  0.05367  0.16378  1.0000
  S   S114      1.0  0.44523  0.06201  0.12917  1.0000
  S   S115      1.0  0.45982  0.03950  0.22200  1.0000
  S   S116      1.0  0.43488  0.05988  0.19396  1.0000
  H   H689      1.0  0.47140  0.00129  0.33120  1.0000
  S   S117      1.0  0.26230  0.29831  0.07330  1.0000
  C   C855      1.0  0.37604  0.01529  0.99973  1.0000
  C   C856      1.0  0.47426  0.03025  0.32810  1.0000
  Fe  Fe58      1.0  0.34732  0.24796  0.07150  1.0000
  S   S118      1.0  0.37249  0.27149  0.06112  1.0000
  S   S119      1.0  0.31761  0.24849  0.07588  1.0000
  Fe  Fe59      1.0  0.36886  0.21867  0.07288  1.0000
  S   S120      1.0  0.39561  0.24059  0.06320  1.0000
  S   S121      1.0  0.37118  0.18904  0.07662  1.0000
  Fe  Fe60      1.0  0.38436  0.25667  0.08675  1.0000
  S   S122      1.0  0.39620  0.26898  0.11531  1.0000
  Fe  Fe61      1.0  0.38163  0.25346  0.03856  1.0000
  S   S123      1.0  0.39519  0.26348  0.00285  1.0000
  S   S124      1.0  0.35842  0.23369  0.09821  1.0000
  S   S125      1.0  0.35566  0.23100  0.04735  1.0000
  C   C857      1.0  0.37322  0.06067  0.20947  1.0000
  H   H690      1.0  0.43679  0.00192  0.24805  1.0000
  H   H691      1.0  0.28384  0.32087  0.99077  1.0000
  C   C858      1.0  0.44660  0.17200  0.45420  1.0000
  H   H692      1.0  0.38552  0.15390  0.01982  1.0000
  H   H693      1.0  0.38759  0.18285  0.03402  1.0000
  H   H694      1.0  0.38153  0.02606  0.98558  1.0000
  H   H695      1.0  0.37939  0.07257  0.21621  1.0000
  C   C859      1.0  0.38753  0.32392  0.12713  1.0000
  C   C860      1.0  0.38863  0.19864  0.98053  1.0000
  C   C861      1.0  0.35903  0.28473  0.00026  1.0000
  C   C862      1.0  0.34470  0.27902  0.01797  1.0000
  C   C863      1.0  0.43038  0.13443  0.99718  1.0000
  H   H696      1.0  0.33086  0.30851  0.02572  1.0000
  C   C864      1.0  0.44195  0.29721  0.21462  1.0000
  H   H697      1.0  0.24900  0.26659  0.04496  1.0000
  C   C865      1.0  0.45867  0.11765  0.41317  1.0000
  H   H698      1.0  0.36223  0.23460  0.00357  1.0000
  C   C866      1.0  0.35287  0.00138  0.03165  1.0000
  C   C867      1.0  0.41501  0.28634  0.12010  1.0000
  C   C868      1.0  0.42949  0.29622  0.10352  1.0000
  C   C869      1.0  0.44414  0.30955  0.10829  1.0000
  C   C870      1.0  0.44462  0.31331  0.12966  1.0000
  C   C871      1.0  0.42996  0.30370  0.14620  1.0000
  C   C872      1.0  0.41535  0.29030  0.14144  1.0000
  H   H699      1.0  0.42949  0.29348  0.08704  1.0000
  C   C873      1.0  0.47442  0.25690  0.29803  1.0000
  H   H700      1.0  0.42988  0.30651  0.16264  1.0000
  H   H701      1.0  0.40420  0.28289  0.15440  1.0000
  C   C874      1.0  0.27912  0.28609  0.07456  1.0000
  C   C875      1.0  0.27283  0.26705  0.08054  1.0000
  C   C876      1.0  0.28494  0.25614  0.08080  1.0000
  C   C877      1.0  0.30374  0.26395  0.07543  1.0000
  C   C878      1.0  0.31036  0.28313  0.06971  1.0000
  C   C879      1.0  0.29802  0.29421  0.06922  1.0000
  H   H702      1.0  0.25836  0.26059  0.08484  1.0000
  H   H703      1.0  0.27965  0.24143  0.08525  1.0000
  H   H704      1.0  0.32486  0.28935  0.06574  1.0000
  H   H705      1.0  0.30304  0.30891  0.06478  1.0000
  H   H706      1.0  0.46343  0.07097  0.29434  1.0000
  H   H707      1.0  0.30766  0.17422  0.03238  1.0000
  H   H708      1.0  0.40831  0.27136  0.33763  1.0000
  C   C880      1.0  0.28159  0.99606  0.06702  1.0000
  C   C881      1.0  0.46840  0.08102  0.25972  1.0000
  H   H709      1.0  0.47643  0.20115  0.44263  1.0000
  C   C882      1.0  0.42861  0.28685  0.28433  1.0000
  H   H710      1.0  0.40214  0.99517  0.12361  1.0000
  H   H711      1.0  0.46052  0.06838  0.25592  1.0000
  C   C883      1.0  0.40663  0.10589  0.00598  1.0000
  H   H712      1.0  0.43383  0.10886  0.01255  1.0000
  C   C884      1.0  0.35721  0.02957  0.19239  1.0000
  H   H713      1.0  0.39087  0.99239  0.06094  1.0000
  H   H714      1.0  0.44984  0.99838  0.14891  1.0000
  C   C885      1.0  0.35989  0.01489  0.01309  1.0000
  C   C886      1.0  0.33797  0.13308  0.06427  1.0000
  C   C887      1.0  0.32961  0.14740  0.06593  1.0000
  C   C888      1.0  0.33957  0.16485  0.06894  1.0000
  C   C889      1.0  0.35802  0.16812  0.07052  1.0000
  C   C890      1.0  0.36639  0.15394  0.06828  1.0000
  C   C891      1.0  0.35653  0.13661  0.06502  1.0000
  H   H715      1.0  0.31525  0.14486  0.06535  1.0000
  H   H716      1.0  0.33287  0.17555  0.07071  1.0000
  H   H717      1.0  0.38064  0.15643  0.06920  1.0000
  H   H718      1.0  0.36312  0.12580  0.06366  1.0000
  H   H719      1.0  0.35407  0.01329  0.13496  1.0000
  H   H720      1.0  0.46465  0.29740  0.31099  1.0000
  C   C892      1.0  0.44082  0.18688  0.37164  1.0000
  H   H721      1.0  0.39454  0.30668  0.08042  1.0000
  H   H722      1.0  0.33411  0.01435  0.10411  1.0000
  H   H723      1.0  0.39521  0.04828  0.21266  1.0000
  C   C893      1.0  0.39311  0.27953  0.23739  1.0000
  H   H724      1.0  0.33182  0.04677  0.99851  1.0000
  C   C894      1.0  0.38726  0.05469  0.11438  1.0000
  C   C895      1.0  0.40231  0.06200  0.09765  1.0000
  C   C896      1.0  0.42004  0.06429  0.10240  1.0000
  C   C897      1.0  0.42281  0.05925  0.12382  1.0000
  C   C898      1.0  0.40774  0.05217  0.14055  1.0000
  C   C899      1.0  0.39008  0.05007  0.13584  1.0000
  H   H725      1.0  0.40030  0.06567  0.08108  1.0000
  H   H726      1.0  0.43165  0.06988  0.08941  1.0000
  H   H727      1.0  0.40967  0.04831  0.15712  1.0000
  H   H728      1.0  0.37853  0.04464  0.14889  1.0000
  C   C900      1.0  0.32875  0.02689  0.15522  1.0000
  C   C901      1.0  0.48010  0.09889  0.28687  1.0000
  H   H729      1.0  0.29791  0.28071  0.99750  1.0000
  C   C902      1.0  0.38672  0.16606  0.98621  1.0000
  C   C903      1.0  0.44656  0.29353  0.28763  1.0000
  C   C904      1.0  0.25914  0.26237  0.03467  1.0000
  H   H730      1.0  0.45728  0.10730  0.46785  1.0000
  H   H731      1.0  0.45728  0.30034  0.27395  1.0000
  H   H732      1.0  0.33455  0.04159  0.19128  1.0000
  C   C905      1.0  0.38221  0.04710  0.20732  1.0000
  H   H733      1.0  0.45594  0.30179  0.18130  1.0000
  H   H734      1.0  0.35641  0.00326  0.08141  1.0000
  P   P31       1.0  0.30468  0.24518  0.99420  1.0000
  H   H735      1.0  0.27631  0.08991  0.99309  1.0000
  H   H736      1.0  0.47327  0.26609  0.22765  1.0000
  H   H737      1.0  0.42193  0.17609  0.44387  1.0000
  H   H738      1.0  0.33442  0.16814  0.98345  1.0000
  H   H739      1.0  0.40200  0.09136  0.01261  1.0000
  C   C906      1.0  0.36315  0.00305  0.16424  1.0000
  H   H740      1.0  0.28689  0.01578  0.14074  1.0000
  H   H741      1.0  0.34909  0.06914  0.20521  1.0000
  C   C907      1.0  0.43700  0.28376  0.32669  1.0000
  C   C908      1.0  0.45670  0.13343  0.45080  1.0000
  C   C909      1.0  0.39565  0.31659  0.09138  1.0000
  C   C910      1.0  0.32733  0.01101  0.17017  1.0000
  C   C911      1.0  0.31306  0.22021  0.02532  1.0000
  H   H742      1.0  0.44427  0.14207  0.99708  1.0000
  C   C912      1.0  0.32574  0.26136  0.99598  1.0000
  H   H743      1.0  0.38149  0.02125  0.19777  1.0000
  H   H744      1.0  0.37670  0.29780  0.11778  1.0000
  H   H745      1.0  0.43311  0.30567  0.21057  1.0000
  C   C913      1.0  0.40037  0.13341  0.98844  1.0000
  C   C914      1.0  0.47913  0.03931  0.11954  1.0000
  H   H746      1.0  0.27156  0.22410  0.02532  1.0000
  C   C915      1.0  0.34807  0.04312  0.19508  1.0000
  H   H747      1.0  0.38182  0.31888  0.22659  1.0000
  H   H748      1.0  0.44682  0.19727  0.35727  1.0000
  H   H749      1.0  0.31551  0.04081  0.13306  1.0000
  H   H750      1.0  0.27423  0.28997  0.02043  1.0000
  C   C916      1.0  0.28647  0.25170  0.00962  1.0000
  H   H751      1.0  0.45943  0.00225  0.27274  1.0000
  C   C917      1.0  0.27210  0.23848  0.02363  1.0000
  C   C918      1.0  0.33828  0.11696  0.11869  1.0000
  C   C919      1.0  0.33412  0.09802  0.11989  1.0000
  C   C920      1.0  0.34771  0.08904  0.12168  1.0000
  C   C921      1.0  0.36556  0.09901  0.12177  1.0000
  C   C922      1.0  0.36983  0.11808  0.12084  1.0000
  C   C923      1.0  0.35601  0.12696  0.11921  1.0000
  P   P32       1.0  0.39317  0.13126  0.11899  1.0000
  C   C924      1.0  0.40604  0.11727  0.13153  1.0000
  C   C925      1.0  0.40307  0.13878  0.09047  1.0000
  C   C926      1.0  0.41587  0.15590  0.08337  1.0000
  C   C927      1.0  0.42257  0.16218  0.06110  1.0000
  C   C928      1.0  0.41685  0.15128  0.04584  1.0000
  C   C929      1.0  0.40472  0.13390  0.05285  1.0000
  C   C930      1.0  0.39798  0.12757  0.07511  1.0000
  C   C931      1.0  0.39847  0.10535  0.15147  1.0000
  C   C932      1.0  0.40845  0.09448  0.16107  1.0000
  C   C933      1.0  0.42601  0.09548  0.15089  1.0000
  C   C934      1.0  0.43359  0.10719  0.13103  1.0000
  C   C935      1.0  0.42371  0.11812  0.12139  1.0000
  C   C936      1.0  0.39363  0.15094  0.13231  1.0000
  C   C937      1.0  0.38924  0.16621  0.12169  1.0000
  C   C938      1.0  0.38967  0.18157  0.13159  1.0000
  C   C939      1.0  0.39454  0.18189  0.15223  1.0000
  C   C940      1.0  0.39897  0.16679  0.16296  1.0000
  C   C941      1.0  0.39852  0.15136  0.15307  1.0000
  H   H752      1.0  0.32789  0.12401  0.11653  1.0000
  H   H753      1.0  0.32049  0.09039  0.11881  1.0000
  H   H754      1.0  0.34451  0.07438  0.12238  1.0000
  H   H755      1.0  0.37599  0.09178  0.12205  1.0000
  H   H756      1.0  0.35885  0.14165  0.11756  1.0000
  H   H757      1.0  0.42044  0.16459  0.09493  1.0000
  H   H758      1.0  0.43195  0.17567  0.05568  1.0000
  H   H759      1.0  0.42171  0.15642  0.02861  1.0000
  H   H760      1.0  0.40014  0.12544  0.04108  1.0000
  H   H761      1.0  0.38839  0.11417  0.08020  1.0000
  H   H762      1.0  0.38483  0.10440  0.15950  1.0000
  H   H763      1.0  0.40257  0.08508  0.17626  1.0000
  H   H764      1.0  0.43371  0.08693  0.15810  1.0000
  S   S126      1.0  0.47715  0.06375  0.17296  1.0000
  H   H765      1.0  0.42989  0.12708  0.10598  1.0000
  H   H766      1.0  0.38555  0.16633  0.10562  1.0000
  H   H767      1.0  0.39490  0.19386  0.15983  1.0000
  H   H768      1.0  0.40281  0.16708  0.17894  1.0000
  H   H769      1.0  0.40210  0.13992  0.16166  1.0000
  C   C942      1.0  0.37431  0.03166  0.19878  1.0000
  C   C943      1.0  0.35617  0.05871  0.20329  1.0000
  H   H770      1.0  0.42058  0.14801  0.42171  1.0000
  H   H771      1.0  0.39736  0.29313  0.22768  1.0000
  H   H772      1.0  0.41638  0.17581  0.35927  1.0000
  Fe  Fe62      1.0  0.47316  0.03499  0.18985  1.0000
  H   H773      1.0  0.37864  0.00830  0.10957  1.0000
  C   C944      1.0  0.45055  0.18528  0.38875  1.0000
  H   H774      1.0  0.37081  0.27055  0.22043  1.0000
  H   H775      1.0  0.45892  0.14374  0.39569  1.0000
  H   H776      1.0  0.37217  0.29299  0.00221  1.0000
  C   C945      1.0  0.32737  0.31919  0.01546  1.0000
  C   C946      1.0  0.47742  0.26213  0.31804  1.0000
  C   C947      1.0  0.28349  0.99278  0.99081  1.0000
  P   P33       1.0  0.34638  0.00872  0.18327  1.0000
  H   H777      1.0  0.31472  0.09504  0.99886  1.0000
  H   H778      1.0  0.37977  0.31954  0.14349  1.0000
  H   H779      1.0  0.46391  0.19465  0.38720  1.0000
  C   C948      1.0  0.30518  0.22254  0.00655  1.0000
  C   C949      1.0  0.47642  0.09601  0.24300  1.0000
  H   H780      1.0  0.35285  0.02519  0.00917  1.0000
  H   H781      1.0  0.40329  0.15128  0.39162  1.0000
  H   H782      1.0  0.34017  0.00124  0.04152  1.0000
  C   C950      1.0  0.33227  0.12006  0.00438  1.0000
  C   C951      1.0  0.34956  0.13241  0.99881  1.0000
  H   H783      1.0  0.45622  0.13904  0.46567  1.0000
  C   C952      1.0  0.42076  0.31375  0.25430  1.0000
  C   C953      1.0  0.41478  0.27910  0.30255  1.0000
  H   H784      1.0  0.32008  0.20125  0.04900  1.0000
  C   C954      1.0  0.38492  0.00177  0.00454  1.0000
  C   C955      1.0  0.42453  0.11574  0.00587  1.0000
  H   H785      1.0  0.25111  0.30757  0.99381  1.0000
  H   H786      1.0  0.29294  0.17785  0.99975  1.0000
  C   C956      1.0  0.39457  0.11466  0.99738  1.0000
  H   H787      1.0  0.45923  0.09337  0.43440  1.0000
  H   H788      1.0  0.24770  0.23365  0.04736  1.0000
  C   C957      1.0  0.42375  0.17472  0.37272  1.0000
  C   C958      1.0  0.37817  0.26671  0.23307  1.0000
  H   H789      1.0  0.32662  0.30528  0.98794  1.0000
  S   S127      1.0  0.36951  0.06714  0.99577  1.0000
  C   C959      1.0  0.47916  0.01479  0.32265  1.0000
  H   H790      1.0  0.38081  0.10662  0.99772  1.0000
  H   H791      1.0  0.32245  0.12182  0.01743  1.0000
  H   H792      1.0  0.35279  0.14358  0.00781  1.0000
  H   H793      1.0  0.25662  0.99848  0.08466  1.0000
  H   H794      1.0  0.46605  0.26221  0.33019  1.0000
  C   C960      1.0  0.38762  0.18264  0.01678  1.0000
  C   C961      1.0  0.38302  0.24361  0.26018  1.0000
  C   C962      1.0  0.45074  0.29196  0.30868  1.0000
  C   C963      1.0  0.45715  0.11517  0.45222  1.0000
  C   C964      1.0  0.31389  0.20285  0.03456  1.0000
  C   C965      1.0  0.40281  0.27464  0.25359  1.0000
  C   C966      1.0  0.39802  0.25641  0.26446  1.0000
  P   P34       1.0  0.42320  0.29075  0.25727  1.0000
  C   C967      1.0  0.44059  0.28861  0.23623  1.0000
  C   C968      1.0  0.28691  0.27030  0.00811  1.0000
  H   H795      1.0  0.44706  0.10751  0.12301  1.0000
  C   C969      1.0  0.32805  0.26762  0.01576  1.0000
  C   C970      1.0  0.38511  0.25346  0.98196  1.0000
  C   C971      1.0  0.38561  0.31155  0.11254  1.0000
  C   C972      1.0  0.45171  0.27706  0.24077  1.0000
  C   C973      1.0  0.46449  0.27475  0.22404  1.0000
  C   C974      1.0  0.46605  0.28374  0.20267  1.0000
  H   H796      1.0  0.44024  0.28270  0.34303  1.0000
  C   C975      1.0  0.31419  0.02859  0.14475  1.0000
  H   H797      1.0  0.36159  0.23879  0.24099  1.0000
  C   C976      1.0  0.47927  0.18267  0.41972  1.0000
  C   C977      1.0  0.29756  0.20703  0.99769  1.0000
  H   H798      1.0  0.39184  0.30560  0.26702  1.0000
  H   H799      1.0  0.38901  0.21132  0.00927  1.0000
  C   C978      1.0  0.45475  0.29490  0.19794  1.0000
  H   H800      1.0  0.37933  0.22957  0.26863  1.0000
  C   C979      1.0  0.30682  0.18762  0.02524  1.0000
  C   C980      1.0  0.25848  0.24383  0.03609  1.0000
  H   H801      1.0  0.24878  0.10115  0.99258  1.0000
  H   H802      1.0  0.40604  0.25198  0.27591  1.0000
  H   H803      1.0  0.45981  0.11154  0.39860  1.0000
  C   C981      1.0  0.38847  0.19874  0.00281  1.0000
  H   H804      1.0  0.46956  0.16950  0.46982  1.0000
  H   H805      1.0  0.45058  0.26985  0.25715  1.0000
  C   C982      1.0  0.32785  0.10502  0.99379  1.0000
  C   C983      1.0  0.29808  0.01445  0.14907  1.0000
  H   H806      1.0  0.46273  0.02878  0.34083  1.0000
  C   C984      1.0  0.32487  0.31742  0.99407  1.0000
  H   H807      1.0  0.46474  0.03232  0.12219  1.0000
  C   C985      1.0  0.41640  0.16089  0.39093  1.0000
  H   H808      1.0  0.40070  0.27476  0.30057  1.0000
  C   C986      1.0  0.36870  0.23972  0.98690  1.0000
  H   H809      1.0  0.31719  0.26319  0.02981  1.0000
  C   C987      1.0  0.44334  0.17129  0.40702  1.0000
  H   H810      1.0  0.34657  0.28301  0.03363  1.0000
  H   H811      1.0  0.31857  0.23170  0.03302  1.0000
  P   P35       1.0  0.45648  0.16768  0.42820  1.0000
  C   C988      1.0  0.45830  0.13594  0.41163  1.0000
  H   H812      1.0  0.29085  0.20824  0.98369  1.0000
  C   C989      1.0  0.27340  0.27560  0.02078  1.0000
  H   H813      1.0  0.47596  0.28205  0.18969  1.0000
  H   H814      1.0  0.46070  0.25300  0.29462  1.0000
  C   C990      1.0  0.41833  0.14326  0.98857  1.0000
  C   C991      1.0  0.36384  0.00719  0.14158  1.0000
  C   C992      1.0  0.38662  0.16633  0.00860  1.0000
  H   H815      1.0  0.33456  0.00940  0.22978  1.0000
  C   C993      1.0  0.37781  0.00428  0.12699  1.0000
  C   C994      1.0  0.42220  0.17909  0.47732  1.0000
  C   C995      1.0  0.47014  0.08251  0.28152  1.0000
  S   S128      1.0  0.47387  0.09488  0.21545  1.0000
  H   H816      1.0  0.38621  0.19323  0.12313  1.0000
  C   C996      1.0  0.42618  0.15912  0.40798  1.0000
  C   C997      1.0  0.45737  0.14406  0.43045  1.0000
  C   C998      1.0  0.45821  0.10731  0.43341  1.0000
  C   C999      1.0  0.37304  0.24878  0.24456  1.0000
  C   C1000     1.0  0.41902  0.27736  0.32362  1.0000
  C   C1001     1.0  0.42955  0.17570  0.45711  1.0000
  C   C1002     1.0  0.37617  0.99508  0.17198  1.0000
  C   C1003     1.0  0.27618  0.10089  0.98032  1.0000
  C   C1004     1.0  0.33001  0.00098  0.09942  1.0000
  H   H817      1.0  0.45529  0.31690  0.09530  1.0000
  S   S129      1.0  0.48141  0.10002  0.31472  1.0000
  H   H818      1.0  0.42306  0.15772  0.98172  1.0000
  H   H819      1.0  0.48049  0.05971  0.32140  1.0000
  H   H820      1.0  0.28385  0.00667  0.99293  1.0000
  C   C1005     1.0  0.39106  0.99695  0.13488  1.0000
  C   C1006     1.0  0.36248  0.12992  0.98230  1.0000
  C   C1007     1.0  0.45830  0.99302  0.26100  1.0000
  H   H821      1.0  0.39722  0.00184  0.99387  1.0000
  C   C1008     1.0  0.29661  0.99847  0.16369  1.0000
  C   C1009     1.0  0.33365  0.99538  0.22784  1.0000
  C   C1010     1.0  0.31119  0.99672  0.17416  1.0000
  C   C1011     1.0  0.33876  0.04843  0.98191  1.0000
  C   C1012     1.0  0.44565  0.99295  0.24697  1.0000
  C   C1013     1.0  0.40377  0.31693  0.26054  1.0000
  C   C1014     1.0  0.34258  0.99468  0.08650  1.0000
  H   H822      1.0  0.30196  0.99579  0.11426  1.0000
  S   S130      1.0  0.48388  0.13326  0.35829  1.0000
  C   C1015     1.0  0.39010  0.99212  0.15735  1.0000
  C   C1016     1.0  0.48424  0.04768  0.31714  1.0000
  H   H823      1.0  0.40902  0.18188  0.47951  1.0000
  C   C1017     1.0  0.35668  0.27903  0.98033  1.0000
  H   H824      1.0  0.32783  0.30261  0.83221  1.0000
  Fe  Fe63      1.0  0.32078  0.02725  0.84845  1.0000
  S   S131      1.0  0.34200  0.02084  0.86717  1.0000
  C   C1018     1.0  0.33991  0.27832  0.79948  1.0000
  Fe  Fe64      1.0  0.33327  0.06914  0.85155  1.0000
  S   S132      1.0  0.35507  0.06506  0.87052  1.0000
  S   S133      1.0  0.32681  0.09670  0.84264  1.0000
  Fe  Fe65      1.0  0.36093  0.04671  0.84663  1.0000
  S   S134      1.0  0.39056  0.05085  0.83162  1.0000
  Fe  Fe66      1.0  0.33424  0.03982  0.88914  1.0000
  S   S135      1.0  0.32560  0.03210  0.92593  1.0000
  S   S136      1.0  0.34030  0.05223  0.82641  1.0000
  S   S137      1.0  0.31183  0.04474  0.87161  1.0000
  H   H825      1.0  0.43022  0.26173  0.70226  1.0000
  C   C1019     1.0  0.35648  0.05210  0.93882  1.0000
  Fe  Fe67      1.0  0.44166  0.02208  0.73034  1.0000
  S   S138      1.0  0.44341  0.02920  0.69408  1.0000
  S   S139      1.0  0.41411  0.01272  0.75265  1.0000
  Fe  Fe68      1.0  0.45983  0.00906  0.69119  1.0000
  H   H826      1.0  0.36025  0.01207  0.96009  1.0000
  C   C1020     1.0  0.32876  0.31453  0.94302  1.0000
  H   H827      1.0  0.33723  0.09075  0.96909  1.0000
  H   H828      1.0  0.40943  0.30426  0.72903  1.0000
  C   C1021     1.0  0.40160  0.05805  0.73167  1.0000
  H   H829      1.0  0.37801  0.06466  0.68534  1.0000
  H   H830      1.0  0.38027  0.06706  0.94995  1.0000
  S   S140      1.0  0.28238  0.30051  0.88472  1.0000
  C   C1022     1.0  0.34419  0.32119  0.80330  1.0000
  Fe  Fe69      1.0  0.34034  0.23452  0.85488  1.0000
  S   S141      1.0  0.36161  0.25582  0.86519  1.0000
  S   S142      1.0  0.31496  0.24098  0.84505  1.0000
  Fe  Fe70      1.0  0.36122  0.20476  0.86060  1.0000
  S   S143      1.0  0.38418  0.22454  0.87117  1.0000
  S   S144      1.0  0.36507  0.17574  0.86337  1.0000
  Fe  Fe71      1.0  0.36230  0.23299  0.89151  1.0000
  S   S145      1.0  0.35551  0.23134  0.92823  1.0000
  Fe  Fe72      1.0  0.38173  0.24577  0.84380  1.0000
  S   S146      1.0  0.40322  0.26272  0.81458  1.0000
  S   S147      1.0  0.33954  0.21219  0.88235  1.0000
  S   S148      1.0  0.36013  0.22538  0.83201  1.0000
  H   H831      1.0  0.35723  0.07748  0.62692  1.0000
  C   C1023     1.0  0.35030  0.25344  0.78696  1.0000
  C   C1024     1.0  0.31320  0.32051  0.81853  1.0000
  C   C1025     1.0  0.36016  0.23290  0.97017  1.0000
  H   H832      1.0  0.36783  0.11374  0.91130  1.0000
  H   H833      1.0  0.39220  0.05483  0.74705  1.0000
  H   H834      1.0  0.32166  0.23084  0.95819  1.0000
  C   C1026     1.0  0.34394  0.09115  0.91510  1.0000
  C   C1027     1.0  0.30864  0.23630  0.93087  1.0000
  P   P36       1.0  0.36352  0.31172  0.80409  1.0000
  H   H835      1.0  0.37549  0.05996  0.60759  1.0000
  C   C1028     1.0  0.29280  0.28601  0.87100  1.0000
  C   C1029     1.0  0.28564  0.27766  0.85437  1.0000
  C   C1030     1.0  0.29292  0.26425  0.84607  1.0000
  C   C1031     1.0  0.30748  0.25924  0.85416  1.0000
  C   C1032     1.0  0.31517  0.26826  0.87003  1.0000
  C   C1033     1.0  0.30773  0.28144  0.87854  1.0000
  H   H836      1.0  0.27402  0.28092  0.84858  1.0000
  H   H837      1.0  0.28690  0.25734  0.83377  1.0000
  H   H838      1.0  0.32633  0.26453  0.87645  1.0000
  H   H839      1.0  0.31331  0.28784  0.89138  1.0000
  H   H840      1.0  0.42474  0.99869  0.80689  1.0000
  C   C1034     1.0  0.43973  0.30929  0.78082  1.0000
  C   C1035     1.0  0.42606  0.29257  0.78661  1.0000
  C   C1036     1.0  0.41945  0.28448  0.80863  1.0000
  C   C1037     1.0  0.42652  0.29343  0.82490  1.0000
  C   C1038     1.0  0.44038  0.31006  0.81911  1.0000
  C   C1039     1.0  0.25280  0.30272  0.96060  1.0000
  H   H841      1.0  0.42069  0.28573  0.77393  1.0000
  H   H842      1.0  0.42183  0.28719  0.84188  1.0000
  H   H843      1.0  0.35153  0.08136  0.91197  1.0000
  P   P37       1.0  0.46431  0.28282  0.71297  1.0000
  C   C1040     1.0  0.29571  0.24410  0.92288  1.0000
  H   H844      1.0  0.39082  0.25824  0.92608  1.0000
  H   H845      1.0  0.36810  0.15752  0.94104  1.0000
  C   C1041     1.0  0.32495  0.08562  0.91886  1.0000
  Fe  Fe73      1.0  0.46997  0.04947  0.69432  1.0000
  C   C1042     1.0  0.31508  0.09836  0.92233  1.0000
  C   C1043     1.0  0.46707  0.28496  0.75654  1.0000
  C   C1044     1.0  0.39320  0.25992  0.95989  1.0000
  H   H846      1.0  0.29104  0.12629  0.85631  1.0000
  H   H847      1.0  0.28788  0.15792  0.84883  1.0000
  C   C1045     1.0  0.29399  0.13541  0.86798  1.0000
  H   H848      1.0  0.46939  0.31637  0.68130  1.0000
  H   H849      1.0  0.37451  0.01512  0.65652  1.0000
  H   H850      1.0  0.42309  0.07512  0.74422  1.0000
  H   H851      1.0  0.38519  0.29156  0.82730  1.0000
  H   H852      1.0  0.35713  0.19339  0.91690  1.0000
  C   C1046     1.0  0.33796  0.11866  0.84809  1.0000
  C   C1047     1.0  0.35224  0.12119  0.85998  1.0000
  C   C1048     1.0  0.36037  0.13875  0.86431  1.0000
  C   C1049     1.0  0.35422  0.15400  0.85711  1.0000
  C   C1050     1.0  0.34002  0.15152  0.84509  1.0000
  C   C1051     1.0  0.33212  0.13401  0.84041  1.0000
  H   H853      1.0  0.35704  0.10961  0.86579  1.0000
  H   H854      1.0  0.37148  0.14047  0.87336  1.0000
  H   H855      1.0  0.33521  0.16309  0.83925  1.0000
  H   H856      1.0  0.32132  0.13230  0.83086  1.0000
  C   C1052     1.0  0.39657  0.04077  0.80896  1.0000
  C   C1053     1.0  0.41352  0.04854  0.79524  1.0000
  C   C1054     1.0  0.41908  0.04023  0.77774  1.0000
  C   C1055     1.0  0.40779  0.02394  0.77409  1.0000
  C   C1056     1.0  0.39096  0.01610  0.78796  1.0000
  C   C1057     1.0  0.38525  0.02458  0.80515  1.0000
  H   H857      1.0  0.42242  0.06096  0.79827  1.0000
  H   H858      1.0  0.43218  0.04623  0.76734  1.0000
  H   H859      1.0  0.38235  0.00333  0.78549  1.0000
  H   H860      1.0  0.37227  0.01840  0.81576  1.0000
  C   C1058     1.0  0.40796  0.14557  0.93643  1.0000
  H   H861      1.0  0.44514  0.08184  0.70934  1.0000
  C   C1059     1.0  0.42490  0.23443  0.71996  1.0000
  C   C1060     1.0  0.45604  0.31318  0.69127  1.0000
  C   C1061     1.0  0.38044  0.30010  0.83789  1.0000
  C   C1062     1.0  0.43242  0.05969  0.63882  1.0000
  C   C1063     1.0  0.33806  0.04257  0.94468  1.0000
  H   H862      1.0  0.36341  0.05338  0.92227  1.0000
  C   C1064     1.0  0.36830  0.32154  0.86620  1.0000
  C   C1065     1.0  0.33780  0.16690  0.92137  1.0000
  H   H863      1.0  0.42612  0.18145  0.51037  1.0000
  H   H864      1.0  0.43646  0.06832  0.67792  1.0000
  C   C1066     1.0  0.37751  0.00877  0.67154  1.0000
  H   H865      1.0  0.31794  0.07147  0.91875  1.0000
  H   H866      1.0  0.32892  0.99364  0.81199  1.0000
  H   H867      1.0  0.37351  0.31491  0.93166  1.0000
  C   C1067     1.0  0.48018  0.09328  0.72948  1.0000
  H   H868      1.0  0.45642  0.17520  0.50530  1.0000
  H   H869      1.0  0.38328  0.31038  0.88865  1.0000
  C   C1068     1.0  0.45330  0.04451  0.62188  1.0000
  H   H870      1.0  0.45068  0.00157  0.77737  1.0000
  C   C1069     1.0  0.45310  0.03809  0.81507  1.0000
  C   C1070     1.0  0.34052  0.10258  0.97711  1.0000
  H   H871      1.0  0.35056  0.13628  0.91701  1.0000
  C   C1071     1.0  0.42231  0.30663  0.71826  1.0000
  C   C1072     1.0  0.38789  0.18244  0.97221  1.0000
  C   C1073     1.0  0.28868  0.25345  0.95777  1.0000
  C   C1074     1.0  0.45758  0.24705  0.73498  1.0000
  C   C1075     1.0  0.36924  0.31094  0.83122  1.0000
  S   S149      1.0  0.46699  0.04396  0.73110  1.0000
  C   C1076     1.0  0.26434  0.30435  0.94085  1.0000
  C   C1077     1.0  0.43101  0.22250  0.73412  1.0000
  H   H872      1.0  0.44480  0.31517  0.76379  1.0000
  C   C1078     1.0  0.47484  0.29281  0.77314  1.0000
  H   H873      1.0  0.41229  0.22949  0.71407  1.0000
  H   H874      1.0  0.35860  0.07968  0.66582  1.0000
  C   C1079     1.0  0.34289  0.01605  0.78625  1.0000
  C   C1080     1.0  0.35363  0.02148  0.76549  1.0000
  C   C1081     1.0  0.35863  0.00839  0.75427  1.0000
  C   C1082     1.0  0.34671  0.18255  0.95097  1.0000
  H   H875      1.0  0.23827  0.29714  0.96191  1.0000
  H   H876      1.0  0.45807  0.07499  0.78133  1.0000
  H   H877      1.0  0.37702  0.01770  0.92214  1.0000
  C   C1083     1.0  0.29153  0.10869  0.96411  1.0000
  C   C1084     1.0  0.36381  0.00781  0.92672  1.0000
  P   P38       1.0  0.38538  0.14478  0.97595  1.0000
  C   C1085     1.0  0.44292  0.02775  0.63433  1.0000
  H   H878      1.0  0.47792  0.02780  0.77167  1.0000
  C   C1086     1.0  0.42838  0.32192  0.70159  1.0000
  H   H879      1.0  0.45630  0.07349  0.61467  1.0000
  C   C1087     1.0  0.33706  0.99235  0.95389  1.0000
  S   S150      1.0  0.30041  0.00659  0.83388  1.0000
  C   C1088     1.0  0.38563  0.30011  0.85842  1.0000
  H   H880      1.0  0.38936  0.21121  0.96972  1.0000
  H   H881      1.0  0.42605  0.02228  0.83057  1.0000
  C   C1089     1.0  0.35889  0.31030  0.93270  1.0000
  H   H882      1.0  0.33888  0.02611  0.79500  1.0000
  H   H883      1.0  0.35818  0.03585  0.75826  1.0000
  H   H884      1.0  0.36723  0.01258  0.73838  1.0000
  H   H885      1.0  0.45217  0.21949  0.75238  1.0000
  C   C1090     1.0  0.37215  0.28136  0.79008  1.0000
  C   C1091     1.0  0.35113  0.29379  0.92617  1.0000
  H   H886      1.0  0.28793  0.00199  0.88339  1.0000
  C   C1092     1.0  0.30141  0.24530  0.96609  1.0000
  H   H887      1.0  0.32855  0.28326  0.80534  1.0000
  C   C1093     1.0  0.48033  0.28331  0.68890  1.0000
  C   C1094     1.0  0.40163  0.15610  0.90082  1.0000
  H   H888      1.0  0.44719  0.01541  0.63297  1.0000
  C   C1095     1.0  0.38569  0.15927  0.91084  1.0000
  H   H889      1.0  0.33911  0.26223  0.96301  1.0000
  C   C1096     1.0  0.36576  0.07075  0.63548  1.0000
  H   H890      1.0  0.25881  0.30006  0.92677  1.0000
  H   H891      1.0  0.48377  0.28713  0.63350  1.0000
  H   H892      1.0  0.45297  0.04859  0.82501  1.0000
  C   C1097     1.0  0.35717  0.05795  0.97613  1.0000
  C   C1098     1.0  0.44801  0.06045  0.62407  1.0000
  H   H893      1.0  0.35963  0.28555  0.91998  1.0000
  C   C1099     1.0  0.37946  0.31070  0.87263  1.0000
  C   C1100     1.0  0.36653  0.07198  0.65739  1.0000
  H   H894      1.0  0.40528  0.15901  0.88314  1.0000
  C   C1101     1.0  0.33228  0.28754  0.92821  1.0000
  C   C1102     1.0  0.38801  0.05346  0.65763  1.0000
  H   H895      1.0  0.37933  0.25790  0.77996  1.0000
  C   C1103     1.0  0.43772  0.02313  0.81831  1.0000
  H   H896      1.0  0.32216  0.25256  0.79627  1.0000
  H   H897      1.0  0.27560  0.14025  0.93480  1.0000
  H   H898      1.0  0.47824  0.10065  0.71437  1.0000
  H   H899      1.0  0.34731  0.23958  0.78361  1.0000
  H   H900      1.0  0.31509  0.03323  0.97097  1.0000
  C   C1104     1.0  0.32484  0.15268  0.95890  1.0000
  C   C1105     1.0  0.33728  0.99759  0.79589  1.0000
  H   H901      1.0  0.30037  0.09389  0.92487  1.0000
  C   C1106     1.0  0.29053  0.31766  0.95693  1.0000
  H   H902      1.0  0.39413  0.29151  0.86345  1.0000
  H   H903      1.0  0.45426  0.09306  0.74745  1.0000
  H   H904      1.0  0.31604  0.14144  0.97090  1.0000
  C   C1107     1.0  0.42637  0.06552  0.69255  1.0000
  C   C1108     1.0  0.34778  0.32063  0.94104  1.0000
  H   H905      1.0  0.30342  0.10364  0.96457  1.0000
  C   C1109     1.0  0.41909  0.06947  0.73011  1.0000
  C   C1110     1.0  0.41272  0.14914  0.91361  1.0000
  C   C1111     1.0  0.37603  0.06088  0.62460  1.0000
  C   C1112     1.0  0.35774  0.11503  0.97129  1.0000
  C   C1113     1.0  0.43504  0.25272  0.71342  1.0000
  C   C1114     1.0  0.40887  0.05383  0.69400  1.0000
  C   C1115     1.0  0.47544  0.29121  0.73458  1.0000
  H   H906      1.0  0.36758  0.11260  0.95877  1.0000
  H   H907      1.0  0.30490  0.16825  0.90936  1.0000
  C   C1116     1.0  0.34809  0.18202  0.92864  1.0000
  C   C1117     1.0  0.32110  0.29769  0.93684  1.0000
  C   C1118     1.0  0.39196  0.14889  0.94657  1.0000
  C   C1119     1.0  0.46888  0.07871  0.76723  1.0000
  H   H908      1.0  0.35455  0.19442  0.95647  1.0000
  H   H909      1.0  0.42309  0.20836  0.73929  1.0000
  H   H910      1.0  0.42502  0.14652  0.90581  1.0000
  C   C1120     1.0  0.30029  0.12951  0.88681  1.0000
  H   H911      1.0  0.24855  0.12631  0.96333  1.0000
  H   H912      1.0  0.37709  0.16468  0.90097  1.0000
  H   H913      1.0  0.40595  0.27052  0.95587  1.0000
  C   C1121     1.0  0.39420  0.00987  0.70164  1.0000
  C   C1122     1.0  0.29222  0.15321  0.86377  1.0000
  C   C1123     1.0  0.29629  0.16499  0.87871  1.0000
  Fe  Fe74      1.0  0.48185  0.02276  0.72517  1.0000
  C   C1124     1.0  0.38710  0.05225  0.63561  1.0000
  C   C1125     1.0  0.36601  0.05977  0.95453  1.0000
  H   H914      1.0  0.29176  0.31330  0.92342  1.0000
  C   C1126     1.0  0.36797  0.23960  0.94818  1.0000
  C   C1127     1.0  0.29150  0.12285  0.94744  1.0000
  C   C1128     1.0  0.43182  0.17888  0.49471  1.0000
  H   H915      1.0  0.30657  0.29215  0.93874  1.0000
  C   C1129     1.0  0.32843  0.31378  0.81927  1.0000
  H   H916      1.0  0.36803  0.28294  0.96688  1.0000
  C   C1130     1.0  0.37760  0.06339  0.66845  1.0000
  H   H917      1.0  0.47032  0.25166  0.74069  1.0000
  P   P39       1.0  0.40248  0.04232  0.67157  1.0000
  C   C1131     1.0  0.38467  0.25300  0.94300  1.0000
  C   C1132     1.0  0.39014  0.01878  0.68265  1.0000
  C   C1133     1.0  0.34327  0.12215  0.91812  1.0000
  C   C1134     1.0  0.35310  0.10939  0.91477  1.0000
  C   C1135     1.0  0.33527  0.16779  0.96612  1.0000
  C   C1136     1.0  0.39646  0.05035  0.71368  1.0000
  H   H918      1.0  0.46813  0.28817  0.79002  1.0000
  H   H919      1.0  0.33913  0.16673  0.90398  1.0000
  H   H920      1.0  0.38624  0.28895  0.78861  1.0000
  C   C1137     1.0  0.32577  0.15228  0.93643  1.0000
  C   C1138     1.0  0.32930  0.04069  0.96629  1.0000
  C   C1139     1.0  0.45126  0.25924  0.72127  1.0000
  C   C1140     1.0  0.32420  0.11675  0.92218  1.0000
  P   P40       1.0  0.31156  0.13328  0.92693  1.0000
  C   C1141     1.0  0.43694  0.00986  0.80491  1.0000
  C   C1142     1.0  0.45152  0.01154  0.78823  1.0000
  C   C1143     1.0  0.30215  0.15898  0.89785  1.0000
  H   H921      1.0  0.46560  0.04522  0.61077  1.0000
  C   C1144     1.0  0.44988  0.29759  0.70768  1.0000
  C   C1145     1.0  0.35601  0.99853  0.91113  1.0000
  H   H922      1.0  0.40429  0.01704  0.71016  1.0000
  C   C1146     1.0  0.43306  0.29455  0.72139  1.0000
  H   H923      1.0  0.42867  0.07223  0.64053  1.0000
  C   C1147     1.0  0.44720  0.31798  0.79705  1.0000
  H   H924      1.0  0.31654  0.22981  0.92038  1.0000
  C   C1148     1.0  0.28309  0.31182  0.93900  1.0000
  C   C1149     1.0  0.27592  0.12923  0.94734  1.0000
  S   S151      1.0  0.24237  0.32429  0.89102  1.0000
  H   H925      1.0  0.45428  0.27441  0.76090  1.0000
  H   H926      1.0  0.42841  0.28304  0.73473  1.0000
  H   H927      1.0  0.38292  0.04138  0.71526  1.0000
  C   C1150     1.0  0.38070  0.15536  0.93355  1.0000
  C   C1151     1.0  0.33614  0.26078  0.79407  1.0000
  H   H928      1.0  0.39497  0.04466  0.62691  1.0000
  C   C1152     1.0  0.35801  0.28879  0.79763  1.0000
  H   H929      1.0  0.32634  0.27467  0.92327  1.0000
  C   C1153     1.0  0.28591  0.25289  0.93621  1.0000
  H   H930      1.0  0.38825  0.18295  0.95487  1.0000
  C   C1154     1.0  0.35439  0.00461  0.94812  1.0000
  C   C1155     1.0  0.46802  0.03967  0.79865  1.0000
  C   C1156     1.0  0.36830  0.26376  0.78489  1.0000
  C   C1157     1.0  0.43144  0.07325  0.71055  1.0000
  H   H931      1.0  0.30203  0.11584  0.88929  1.0000
  C   C1158     1.0  0.30459  0.14130  0.90184  1.0000
  H   H932      1.0  0.29504  0.17885  0.87538  1.0000
  H   H933      1.0  0.27618  0.25928  0.92974  1.0000
  H   H934      1.0  0.30192  0.00115  0.96017  1.0000
  C   C1159     1.0  0.38316  0.32448  0.78385  1.0000
  C   C1160     1.0  0.42213  0.04297  0.65178  1.0000
  C   C1161     1.0  0.44739  0.22879  0.74152  1.0000
  H   H935      1.0  0.41673  0.14010  0.94590  1.0000
  H   H936      1.0  0.41978  0.01381  0.65886  1.0000
  H   H937      1.0  0.29340  0.24348  0.90626  1.0000
  C   C1162     1.0  0.42730  0.02692  0.64908  1.0000
  S   S152      1.0  0.45627  0.00037  0.72730  1.0000
  C   C1163     1.0  0.44886  0.17539  0.49188  1.0000
  C   C1164     1.0  0.31156  0.23698  0.95231  1.0000
  C   C1165     1.0  0.46693  0.02644  0.78502  1.0000
  H   H938      1.0  0.28079  0.26016  0.96781  1.0000
  C   C1166     1.0  0.27876  0.31608  0.97672  1.0000
  H   H939      1.0  0.36909  0.32017  0.75654  1.0000
  C   C1167     1.0  0.26056  0.12140  0.96356  1.0000
  H   H940      1.0  0.30769  0.99851  0.91058  1.0000
  C   C1168     1.0  0.47511  0.28466  0.66824  1.0000
  H   H941      1.0  0.26404  0.99205  0.82851  1.0000
  Fe  Fe75      1.0  0.26782  0.32095  0.87144  1.0000
  C   C1169     1.0  0.26002  0.30856  0.97854  1.0000
  S   S153      1.0  0.47698  0.07873  0.67636  1.0000
  H   H942      1.0  0.30105  0.31462  0.83078  1.0000
  H   H943      1.0  0.36330  0.00111  0.89452  1.0000
  H   H944      1.0  0.34726  0.22253  0.97439  1.0000
  H   H945      1.0  0.44614  0.31659  0.83181  1.0000
  C   C1170     1.0  0.46663  0.08886  0.74805  1.0000
  H   H946      1.0  0.46153  0.28545  0.66650  1.0000
  C   C1171     1.0  0.34019  0.26722  0.97823  1.0000
  C   C1172     1.0  0.36349  0.32196  0.84542  1.0000
  C   C1173     1.0  0.26069  0.10723  0.98003  1.0000
  C   C1174     1.0  0.47376  0.41574  0.24535  1.0000
  P   P41       1.0  0.43113  0.55087  0.42914  1.0000
  H   H947      1.0  0.31144  0.49888  0.30279  1.0000
  H   H948      1.0  0.32022  0.53025  0.28238  1.0000
  C   C1175     1.0  0.39440  0.57824  0.46979  1.0000
  Fe  Fe76      1.0  0.32418  0.51529  0.35741  1.0000
  S   S154      1.0  0.34260  0.49879  0.36912  1.0000
  S   S155      1.0  0.29409  0.50245  0.36905  1.0000
  Fe  Fe77      1.0  0.35610  0.54857  0.33795  1.0000
  S   S156      1.0  0.37643  0.53412  0.34759  1.0000
  S   S157      1.0  0.36809  0.57839  0.32357  1.0000
  Fe  Fe78      1.0  0.35954  0.51019  0.33560  1.0000
  S   S158      1.0  0.37331  0.49302  0.31562  1.0000
  Fe  Fe79      1.0  0.35735  0.52445  0.37974  1.0000
  S   S159      1.0  0.36860  0.53101  0.41022  1.0000
  S   S160      1.0  0.34036  0.52545  0.32339  1.0000
  S   S161      1.0  0.33783  0.54006  0.37035  1.0000
  S   S162      1.0  0.41641  0.61803  0.38668  1.0000
  C   C1176     1.0  0.28969  0.49122  0.25958  1.0000
  S   S163      1.0  0.26223  0.37883  0.05800  1.0000
  H   H949      1.0  0.23749  0.50677  0.40925  1.0000
  C   C1177     1.0  0.28985  0.44698  0.10296  1.0000
  C   C1178     1.0  0.26061  0.44393  0.32729  1.0000
  S   S164      1.0  0.28250  0.37850  0.11399  1.0000
  Fe  Fe80      1.0  0.36606  0.46089  0.20100  1.0000
  S   S165      1.0  0.37512  0.47510  0.16587  1.0000
  S   S166      1.0  0.35153  0.47485  0.22481  1.0000
  Fe  Fe81      1.0  0.38034  0.42850  0.19191  1.0000
  S   S167      1.0  0.39083  0.44056  0.15670  1.0000
  S   S168      1.0  0.38332  0.40036  0.20351  1.0000
  Fe  Fe82      1.0  0.40095  0.46703  0.16878  1.0000
  S   S169      1.0  0.43062  0.48316  0.15785  1.0000
  Fe  Fe83      1.0  0.36393  0.44717  0.15701  1.0000
  S   S170      1.0  0.34953  0.44260  0.12753  1.0000
  S   S171      1.0  0.39248  0.45428  0.20427  1.0000
  S   S172      1.0  0.35282  0.43368  0.19191  1.0000
  H   H950      1.0  0.36711  0.65681  0.45150  1.0000
  H   H951      1.0  0.32403  0.45410  0.29117  1.0000
  S   S173      1.0  0.46530  0.39807  0.19694  1.0000
  S   S174      1.0  0.46135  0.56823  0.15913  1.0000
  C   C1179     1.0  0.43868  0.50686  0.15839  1.0000
  C   C1180     1.0  0.42694  0.51806  0.16058  1.0000
  C   C1181     1.0  0.43402  0.53687  0.16079  1.0000
  C   C1182     1.0  0.45282  0.54453  0.15922  1.0000
  C   C1183     1.0  0.46451  0.53326  0.15736  1.0000
  C   C1184     1.0  0.45745  0.51458  0.15677  1.0000
  H   H952      1.0  0.41244  0.51228  0.16191  1.0000
  H   H953      1.0  0.42488  0.54550  0.16225  1.0000
  C   C1185     1.0  0.27542  0.49809  0.07080  1.0000
  H   H954      1.0  0.46659  0.50607  0.15515  1.0000
  C   C1186     1.0  0.40614  0.39963  0.20039  1.0000
  C   C1187     1.0  0.42019  0.41584  0.19653  1.0000
  C   C1188     1.0  0.43831  0.41514  0.19516  1.0000
  C   C1189     1.0  0.44252  0.39826  0.19716  1.0000
  C   C1190     1.0  0.42854  0.38205  0.20030  1.0000
  C   C1191     1.0  0.41033  0.38273  0.20221  1.0000
  H   H955      1.0  0.41709  0.42892  0.19487  1.0000
  H   H956      1.0  0.44908  0.42773  0.19240  1.0000
  H   H957      1.0  0.43173  0.36902  0.20167  1.0000
  H   H958      1.0  0.39947  0.37019  0.20505  1.0000
  H   H959      1.0  0.28113  0.48045  0.25306  1.0000
  H   H960      1.0  0.34049  0.65205  0.35805  1.0000
  H   H961      1.0  0.46413  0.46558  0.16689  1.0000
  H   H962      1.0  0.31578  0.59190  0.46981  1.0000
  C   C1192     1.0  0.33155  0.42385  0.12416  1.0000
  C   C1193     1.0  0.32034  0.41122  0.14189  1.0000
  C   C1194     1.0  0.30563  0.39727  0.13842  1.0000
  C   C1195     1.0  0.30217  0.39542  0.11720  1.0000
  C   C1196     1.0  0.31380  0.40760  0.09944  1.0000
  C   C1197     1.0  0.32829  0.42178  0.10294  1.0000
  H   H963      1.0  0.32272  0.41249  0.15830  1.0000
  H   H964      1.0  0.29679  0.38789  0.15230  1.0000
  H   H965      1.0  0.31142  0.40625  0.08306  1.0000
  H   H966      1.0  0.33710  0.43123  0.08913  1.0000
  C   C1198     1.0  0.35713  0.52111  0.43703  1.0000
  C   C1199     1.0  0.36176  0.53030  0.45429  1.0000
  H   H967      1.0  0.37138  0.54370  0.45077  1.0000
  H   H968      1.0  0.34090  0.49670  0.42845  1.0000
  C   C1200     1.0  0.36769  0.48893  0.28987  1.0000
  C   C1201     1.0  0.35450  0.49577  0.28099  1.0000
  C   C1202     1.0  0.34987  0.49153  0.26094  1.0000
  C   C1203     1.0  0.35837  0.48042  0.24953  1.0000
  C   C1204     1.0  0.37170  0.47373  0.25831  1.0000
  C   C1205     1.0  0.37640  0.47809  0.27830  1.0000
  H   H969      1.0  0.34770  0.50414  0.28966  1.0000
  H   H970      1.0  0.33958  0.49683  0.25429  1.0000
  H   H971      1.0  0.37830  0.46512  0.24974  1.0000
  H   H972      1.0  0.38667  0.47289  0.28501  1.0000
  C   C1206     1.0  0.38152  0.58935  0.34115  1.0000
  C   C1207     1.0  0.39768  0.60300  0.33241  1.0000
  C   C1208     1.0  0.40854  0.61172  0.34630  1.0000
  C   C1209     1.0  0.40316  0.60705  0.36900  1.0000
  C   C1210     1.0  0.38687  0.59361  0.37775  1.0000
  C   C1211     1.0  0.37621  0.58462  0.36388  1.0000
  H   H973      1.0  0.40192  0.60665  0.31488  1.0000
  H   H974      1.0  0.42095  0.62222  0.33938  1.0000
  H   H975      1.0  0.38269  0.58980  0.39529  1.0000
  H   H976      1.0  0.36381  0.57411  0.37082  1.0000
  C   C1212     1.0  0.25096  0.50579  0.32624  1.0000
  C   C1213     1.0  0.26940  0.51413  0.31758  1.0000
  C   C1214     1.0  0.28284  0.51329  0.33055  1.0000
  C   C1215     1.0  0.27789  0.50380  0.35205  1.0000
  C   C1216     1.0  0.25951  0.49521  0.36052  1.0000
  C   C1217     1.0  0.24609  0.49623  0.34770  1.0000
  H   H977      1.0  0.27324  0.52149  0.30096  1.0000
  H   H978      1.0  0.29698  0.52010  0.32405  1.0000
  H   H979      1.0  0.25561  0.48780  0.37713  1.0000
  C   C1218     1.0  0.31733  0.34644  0.98970  1.0000
  H   H980      1.0  0.32675  0.33587  0.04055  1.0000
  H   H981      1.0  0.38609  0.58476  0.47962  1.0000
  C   C1219     1.0  0.40801  0.55322  0.46632  1.0000
  H   H982      1.0  0.42072  0.42685  0.24660  1.0000
  H   H983      1.0  0.46472  0.52115  0.26270  1.0000
  C   C1220     1.0  0.37060  0.55729  0.27221  1.0000
  C   C1221     1.0  0.36149  0.55373  0.25477  1.0000
  C   C1222     1.0  0.37056  0.54983  0.23592  1.0000
  C   C1223     1.0  0.38868  0.54931  0.23459  1.0000
  C   C1224     1.0  0.39769  0.55212  0.25242  1.0000
  C   C1225     1.0  0.38869  0.55668  0.27101  1.0000
  P   P42       1.0  0.42099  0.55107  0.25062  1.0000
  C   C1226     1.0  0.42637  0.54502  0.27732  1.0000
  C   C1227     1.0  0.42430  0.53291  0.23623  1.0000
  C   C1228     1.0  0.44157  0.53382  0.22484  1.0000
  C   C1229     1.0  0.44401  0.51990  0.21338  1.0000
  C   C1230     1.0  0.42930  0.50493  0.21339  1.0000
  C   C1231     1.0  0.41223  0.50366  0.22520  1.0000
  C   C1232     1.0  0.40976  0.51741  0.23693  1.0000
  C   C1233     1.0  0.44368  0.55263  0.28212  1.0000
  C   C1234     1.0  0.44750  0.54817  0.30304  1.0000
  C   C1235     1.0  0.43429  0.53560  0.31906  1.0000
  C   C1236     1.0  0.41733  0.52737  0.31409  1.0000
  C   C1237     1.0  0.41339  0.53201  0.29330  1.0000
  C   C1238     1.0  0.43507  0.57330  0.23685  1.0000
  C   C1239     1.0  0.44005  0.58750  0.24879  1.0000
  C   C1240     1.0  0.45174  0.60443  0.23838  1.0000
  C   C1241     1.0  0.45804  0.60750  0.21589  1.0000
  C   C1242     1.0  0.45241  0.59376  0.20373  1.0000
  C   C1243     1.0  0.44084  0.57676  0.21409  1.0000
  H   H984      1.0  0.36365  0.56059  0.28670  1.0000
  H   H985      1.0  0.34748  0.55418  0.25581  1.0000
  H   H986      1.0  0.36357  0.54718  0.22231  1.0000
  H   H987      1.0  0.39558  0.54649  0.21973  1.0000
  H   H988      1.0  0.39551  0.55972  0.28465  1.0000
  H   H989      1.0  0.45309  0.54542  0.22442  1.0000
  S   S175      1.0  0.29036  0.37751  0.00185  1.0000
  C   C1244     1.0  0.36868  0.61796  0.44187  1.0000
  H   H990      1.0  0.40080  0.49220  0.22482  1.0000
  H   H991      1.0  0.39643  0.51598  0.24623  1.0000
  H   H992      1.0  0.45421  0.56220  0.26987  1.0000
  C   C1245     1.0  0.37234  0.33039  0.19876  1.0000
  H   H993      1.0  0.43710  0.53231  0.33537  1.0000
  H   H994      1.0  0.40706  0.51755  0.32643  1.0000
  H   H995      1.0  0.40013  0.52554  0.28979  1.0000
  H   H996      1.0  0.43516  0.58544  0.26620  1.0000
  H   H997      1.0  0.45611  0.61512  0.24779  1.0000
  H   H998      1.0  0.46737  0.62051  0.20792  1.0000
  H   H999      1.0  0.45716  0.59618  0.18624  1.0000
  H   H1000     1.0  0.43662  0.56636  0.20426  1.0000
  C   C1246     1.0  0.39547  0.34540  0.16694  1.0000
  C   C1247     1.0  0.32379  0.56810  0.46310  1.0000
  C   C1248     1.0  0.41612  0.56125  0.44463  1.0000
  H   H1001     1.0  0.47022  0.46685  0.13023  1.0000
  H   H1002     1.0  0.35967  0.60751  0.47633  1.0000
  H   H1003     1.0  0.46571  0.57989  0.41358  1.0000
  H   H1004     1.0  0.25056  0.60719  0.41030  1.0000
  C   C1249     1.0  0.43613  0.32874  0.24713  1.0000
  C   C1250     1.0  0.23564  0.46208  0.31384  1.0000
  C   C1251     1.0  0.27950  0.50386  0.04816  1.0000
  C   C1252     1.0  0.38568  0.32618  0.20996  1.0000
  H   H1005     1.0  0.43604  0.48716  0.43646  1.0000
  C   C1253     1.0  0.37045  0.61660  0.46391  1.0000
  H   H1006     1.0  0.28781  0.46546  0.03255  1.0000
  H   H1007     1.0  0.27918  0.51750  0.04121  1.0000
  C   C1254     1.0  0.40243  0.58633  0.44825  1.0000
  C   C1255     1.0  0.42230  0.52631  0.43454  1.0000
  H   H1008     1.0  0.44949  0.32661  0.24317  1.0000
  C   C1256     1.0  0.24599  0.55470  0.36029  1.0000
  C   C1257     1.0  0.25698  0.54289  0.36341  1.0000
  C   C1258     1.0  0.26056  0.53768  0.38426  1.0000
  C   C1259     1.0  0.25306  0.54423  0.40224  1.0000
  C   C1260     1.0  0.24200  0.55610  0.39896  1.0000
  P   P43       1.0  0.25724  0.53695  0.42929  1.0000
  C   C1261     1.0  0.24352  0.51385  0.44042  1.0000
  C   C1262     1.0  0.28107  0.53772  0.42691  1.0000
  C   C1263     1.0  0.28671  0.52379  0.43865  1.0000
  C   C1264     1.0  0.30510  0.52416  0.43597  1.0000
  C   C1265     1.0  0.31802  0.53856  0.42188  1.0000
  C   C1266     1.0  0.31258  0.55257  0.41035  1.0000
  C   C1267     1.0  0.29417  0.55202  0.41256  1.0000
  H   H1009     1.0  0.38889  0.33728  0.26287  1.0000
  H   H1010     1.0  0.43898  0.63007  0.42800  1.0000
  H   H1011     1.0  0.44437  0.46628  0.20039  1.0000
  H   H1012     1.0  0.44627  0.35815  0.23888  1.0000
  H   H1013     1.0  0.24289  0.62640  0.37968  1.0000
  C   C1268     1.0  0.25254  0.55319  0.44634  1.0000
  H   H1014     1.0  0.45719  0.52103  0.20389  1.0000
  C   C1269     1.0  0.43406  0.51495  0.43349  1.0000
  C   C1270     1.0  0.39721  0.56171  0.47882  1.0000
  C   C1271     1.0  0.23645  0.54880  0.46179  1.0000
  Fe  Fe84      1.0  0.48307  0.63174  0.38842  1.0000
  H   H1015     1.0  0.24301  0.55845  0.34415  1.0000
  H   H1016     1.0  0.26258  0.53757  0.34967  1.0000
  H   H1017     1.0  0.26899  0.52833  0.38635  1.0000
  C   C1272     1.0  0.48356  0.49484  0.20851  1.0000
  H   H1018     1.0  0.27705  0.51240  0.44957  1.0000
  H   H1019     1.0  0.30935  0.51319  0.44473  1.0000
  H   H1020     1.0  0.33226  0.53873  0.41968  1.0000
  H   H1021     1.0  0.32263  0.56351  0.39909  1.0000
  H   H1022     1.0  0.29016  0.56253  0.40266  1.0000
  C   C1273     1.0  0.23864  0.56144  0.37802  1.0000
  C   C1274     1.0  0.28443  0.47445  0.04344  1.0000
  H   H1023     1.0  0.44866  0.52081  0.42984  1.0000
  S   S176      1.0  0.28925  0.35193  0.06147  1.0000
  C   C1275     1.0  0.37814  0.63884  0.32129  1.0000
  Fe  Fe85      1.0  0.47827  0.62004  0.34393  1.0000
  C   C1276     1.0  0.30150  0.63248  0.47830  1.0000
  H   H1024     1.0  0.41002  0.54040  0.47362  1.0000
  H   H1025     1.0  0.40044  0.59922  0.44117  1.0000
  H   H1026     1.0  0.27255  0.47620  0.09737  1.0000
  C   C1277     1.0  0.33716  0.49563  0.46349  1.0000
  H   H1027     1.0  0.36402  0.42270  0.26292  1.0000
  C   C1278     1.0  0.44805  0.60893  0.44533  1.0000
  H   H1028     1.0  0.33615  0.64485  0.42652  1.0000
  H   H1029     1.0  0.41997  0.58490  0.41941  1.0000
  H   H1030     1.0  0.45054  0.46274  0.31733  1.0000
  S   S177      1.0  0.46394  0.60823  0.37840  1.0000
  C   C1279     1.0  0.23781  0.65634  0.28023  1.0000
  H   H1031     1.0  0.26857  0.59795  0.45125  1.0000
  C   C1280     1.0  0.40981  0.42904  0.25773  1.0000
  H   H1032     1.0  0.41430  0.32835  0.20834  1.0000
  C   C1281     1.0  0.44871  0.59948  0.46572  1.0000
  H   H1033     1.0  0.45185  0.44876  0.23707  1.0000
  C   C1282     1.0  0.31464  0.57775  0.47597  1.0000
  C   C1283     1.0  0.38052  0.43384  0.28569  1.0000
  H   H1034     1.0  0.43098  0.49448  0.20384  1.0000
  C   C1284     1.0  0.43439  0.34662  0.24496  1.0000
  H   H1035     1.0  0.40255  0.47342  0.44397  1.0000
  H   H1036     1.0  0.30966  0.53712  0.24726  1.0000
  H   H1037     1.0  0.34502  0.45271  0.31727  1.0000
  C   C1285     1.0  0.29478  0.50915  0.24800  1.0000
  P   P44       1.0  0.28924  0.46404  0.29418  1.0000
  H   H1038     1.0  0.27637  0.57500  0.43062  1.0000
  H   H1039     1.0  0.24737  0.51553  0.47387  1.0000
  H   H1040     1.0  0.43673  0.57267  0.33735  1.0000
  C   C1286     1.0  0.25784  0.43075  0.08285  1.0000
  C   C1287     1.0  0.23787  0.39983  0.08969  1.0000
  C   C1288     1.0  0.23557  0.50225  0.42670  1.0000
  C   C1289     1.0  0.38655  0.62615  0.46986  1.0000
  C   C1290     1.0  0.43992  0.62335  0.44396  1.0000
  H   H1041     1.0  0.31787  0.36006  0.01762  1.0000
  C   C1291     1.0  0.40913  0.34671  0.09907  1.0000
  P   P45       1.0  0.40162  0.35777  0.13926  1.0000
  C   C1292     1.0  0.38673  0.37227  0.13478  1.0000
  C   C1293     1.0  0.39903  0.63861  0.43172  1.0000
  C   C1294     1.0  0.46800  0.42978  0.23437  1.0000
  C   C1295     1.0  0.23648  0.38604  0.01026  1.0000
  H   H1042     1.0  0.25209  0.64053  0.29854  1.0000
  P   P46       1.0  0.42247  0.64756  0.46116  1.0000
  C   C1296     1.0  0.41733  0.34967  0.25037  1.0000
  C   C1297     1.0  0.38121  0.38139  0.15139  1.0000
  C   C1298     1.0  0.37012  0.39303  0.14784  1.0000
  C   C1299     1.0  0.36449  0.39568  0.12769  1.0000
  C   C1300     1.0  0.36974  0.38655  0.11114  1.0000
  C   C1301     1.0  0.38085  0.37489  0.11463  1.0000
  C   C1302     1.0  0.42474  0.37192  0.13566  1.0000
  C   C1303     1.0  0.42837  0.38926  0.14192  1.0000
  C   C1304     1.0  0.44626  0.40018  0.13912  1.0000
  C   C1305     1.0  0.46063  0.39395  0.12995  1.0000
  C   C1306     1.0  0.45716  0.37660  0.12404  1.0000
  C   C1307     1.0  0.43934  0.36549  0.12723  1.0000
  H   H1043     1.0  0.32023  0.45008  0.06883  1.0000
  H   H1044     1.0  0.39730  0.65409  0.36829  1.0000
  H   H1045     1.0  0.45928  0.50997  0.08796  1.0000
  H   H1046     1.0  0.23879  0.42866  0.35338  1.0000
  H   H1047     1.0  0.41813  0.36035  0.09349  1.0000
  H   H1048     1.0  0.27191  0.50724  0.08140  1.0000
  H   H1049     1.0  0.44232  0.53658  0.46901  1.0000
  C   C1308     1.0  0.39639  0.49944  0.44168  1.0000
  C   C1309     1.0  0.48275  0.57650  0.43723  1.0000
  H   H1050     1.0  0.35822  0.32636  0.20669  1.0000
  H   H1051     1.0  0.38560  0.37968  0.16705  1.0000
  H   H1052     1.0  0.36521  0.38860  0.09560  1.0000
  H   H1053     1.0  0.38483  0.36805  0.10153  1.0000
  H   H1054     1.0  0.41753  0.39436  0.14925  1.0000
  H   H1055     1.0  0.44897  0.41339  0.14433  1.0000
  C   C1310     1.0  0.28063  0.46867  0.06618  1.0000
  C   C1311     1.0  0.40206  0.33484  0.25842  1.0000
  H   H1056     1.0  0.43708  0.35184  0.12329  1.0000
  C   C1312     1.0  0.31686  0.42404  0.02902  1.0000
  C   C1313     1.0  0.32473  0.43504  0.04318  1.0000
  Fe  Fe86      1.0  0.47517  0.34310  0.16272  1.0000
  C   C1314     1.0  0.27588  0.48053  0.07980  1.0000
  H   H1057     1.0  0.45510  0.58838  0.46675  1.0000
  C   C1315     1.0  0.46823  0.41025  0.26792  1.0000
  Fe  Fe87      1.0  0.47483  0.37352  0.18979  1.0000
  H   H1058     1.0  0.36919  0.43598  0.29630  1.0000
  C   C1316     1.0  0.43311  0.62899  0.46303  1.0000
  C   C1317     1.0  0.43320  0.47971  0.27457  1.0000
  C   C1318     1.0  0.36038  0.62748  0.32596  1.0000
  H   H1059     1.0  0.35613  0.40489  0.12487  1.0000
  H   H1060     1.0  0.42779  0.42244  0.37512  1.0000
  C   C1319     1.0  0.25349  0.46708  0.30234  1.0000
  H   H1061     1.0  0.33803  0.46015  0.35414  1.0000
  H   H1062     1.0  0.36602  0.40013  0.16068  1.0000
  H   H1063     1.0  0.46075  0.55605  0.39177  1.0000
  C   C1320     1.0  0.41911  0.56550  0.36870  1.0000
  H   H1064     1.0  0.27274  0.42351  0.04380  1.0000
  H   H1065     1.0  0.31044  0.44973  0.15625  1.0000
  C   C1321     1.0  0.40351  0.51843  0.43813  1.0000
  C   C1322     1.0  0.40085  0.63744  0.45382  1.0000
  C   C1323     1.0  0.37758  0.42639  0.26691  1.0000
  C   C1324     1.0  0.26415  0.57103  0.44278  1.0000
  H   H1066     1.0  0.35713  0.61490  0.31929  1.0000
  C   C1325     1.0  0.28946  0.43470  0.14089  1.0000
  C   C1326     1.0  0.28231  0.43347  0.12161  1.0000
  C   C1327     1.0  0.41341  0.57801  0.43580  1.0000
  C   C1328     1.0  0.46952  0.55261  0.46862  1.0000
  C   C1329     1.0  0.45861  0.47389  0.19763  1.0000
  C   C1330     1.0  0.30434  0.44924  0.14164  1.0000
  C   C1331     1.0  0.24101  0.50712  0.46293  1.0000
  C   C1332     1.0  0.31383  0.44179  0.05789  1.0000
  H   H1067     1.0  0.41572  0.41000  0.31305  1.0000
  Fe  Fe88      1.0  0.27399  0.36551  0.08458  1.0000
  C   C1333     1.0  0.46674  0.57176  0.42858  1.0000
  H   H1068     1.0  0.28397  0.42395  0.15500  1.0000
  H   H1069     1.0  0.32521  0.41848  0.01790  1.0000
  C   C1334     1.0  0.42947  0.42646  0.35756  1.0000
  C   C1335     1.0  0.41776  0.56015  0.39120  1.0000
  Fe  Fe89      1.0  0.27522  0.36331  0.03568  1.0000
  C   C1336     1.0  0.45218  0.55699  0.43957  1.0000
  H   H1070     1.0  0.25730  0.47821  0.28859  1.0000
  C   C1337     1.0  0.34454  0.50388  0.44165  1.0000
  H   H1071     1.0  0.45388  0.60513  0.43053  1.0000
  C   C1338     1.0  0.45679  0.41871  0.27951  1.0000
  C   C1339     1.0  0.40389  0.33142  0.19967  1.0000
  H   H1072     1.0  0.23591  0.38514  0.09327  1.0000
  S   S178      1.0  0.24914  0.34116  0.09374  1.0000
  H   H1073     1.0  0.47200  0.43369  0.21678  1.0000
  C   C1340     1.0  0.38298  0.62894  0.42580  1.0000
  C   C1341     1.0  0.42696  0.49590  0.43708  1.0000
  C   C1342     1.0  0.28073  0.41924  0.26354  1.0000
  C   C1343     1.0  0.27890  0.43117  0.27828  1.0000
  C   C1344     1.0  0.30445  0.46211  0.31335  1.0000
  C   C1345     1.0  0.30078  0.46666  0.33415  1.0000
  C   C1346     1.0  0.31265  0.46557  0.34895  1.0000
  C   C1347     1.0  0.32850  0.46036  0.34294  1.0000
  C   C1348     1.0  0.33239  0.45608  0.32216  1.0000
  C   C1349     1.0  0.32045  0.45695  0.30737  1.0000
  C   C1350     1.0  0.29557  0.48726  0.27948  1.0000
  C   C1351     1.0  0.30580  0.52322  0.25617  1.0000
  C   C1352     1.0  0.31177  0.51938  0.27591  1.0000
  C   C1353     1.0  0.30670  0.50148  0.28751  1.0000
  H   H1074     1.0  0.26806  0.42658  0.29229  1.0000
  H   H1075     1.0  0.28893  0.47142  0.33887  1.0000
  H   H1076     1.0  0.30972  0.46927  0.36489  1.0000
  C   C1354     1.0  0.32500  0.33461  0.02389  1.0000
  C   C1355     1.0  0.44911  0.55894  0.38564  1.0000
  H   H1077     1.0  0.27007  0.43667  0.33269  1.0000
  H   H1078     1.0  0.27135  0.40571  0.26625  1.0000
  C   C1356     1.0  0.46370  0.47597  0.27187  1.0000
  H   H1079     1.0  0.33302  0.62370  0.34234  1.0000
  Fe  Fe90      1.0  0.44645  0.62717  0.37303  1.0000
  C   C1357     1.0  0.30505  0.45409  0.25661  1.0000
  C   C1358     1.0  0.24285  0.43923  0.33898  1.0000
  H   H1080     1.0  0.38208  0.62923  0.40864  1.0000
  S   S179      1.0  0.45915  0.63726  0.33785  1.0000
  H   H1081     1.0  0.29621  0.41549  0.23400  1.0000
  C   C1359     1.0  0.29098  0.44876  0.27483  1.0000
  S   S180      1.0  0.46435  0.64983  0.38576  1.0000
  H   H1082     1.0  0.46061  0.55469  0.30691  1.0000
  C   C1360     1.0  0.47426  0.48105  0.12238  1.0000
  C   C1361     1.0  0.25257  0.65391  0.28982  1.0000
  H   H1083     1.0  0.35654  0.60997  0.43717  1.0000
  H   H1084     1.0  0.32391  0.47359  0.12363  1.0000
  C   C1362     1.0  0.29814  0.42005  0.02930  1.0000
  H   H1085     1.0  0.38988  0.41810  0.23854  1.0000
  C   C1363     1.0  0.46339  0.48701  0.10845  1.0000
  H   H1086     1.0  0.23562  0.56095  0.41255  1.0000
  H   H1087     1.0  0.29014  0.51212  0.23271  1.0000
  C   C1364     1.0  0.26614  0.45802  0.30897  1.0000
  C   C1365     1.0  0.25979  0.58413  0.45452  1.0000
  C   C1366     1.0  0.24383  0.57954  0.46997  1.0000
  C   C1367     1.0  0.28395  0.49203  0.03450  1.0000
  H   H1088     1.0  0.35743  0.64806  0.39214  1.0000
  H   H1089     1.0  0.40010  0.44503  0.30496  1.0000
  C   C1368     1.0  0.47088  0.49503  0.26720  1.0000
  C   C1369     1.0  0.24932  0.39662  0.99245  1.0000
  H   H1090     1.0  0.32769  0.48214  0.46704  1.0000
  C   C1370     1.0  0.42269  0.41954  0.32249  1.0000
  H   H1091     1.0  0.24439  0.45219  0.07634  1.0000
  C   C1371     1.0  0.32004  0.34824  0.01098  1.0000
  C   C1372     1.0  0.29470  0.42473  0.24537  1.0000
  C   C1373     1.0  0.35120  0.64836  0.34815  1.0000
  C   C1374     1.0  0.43297  0.55751  0.39996  1.0000
  C   C1375     1.0  0.45361  0.54762  0.45984  1.0000
  C   C1376     1.0  0.29492  0.43742  0.05872  1.0000
  C   C1377     1.0  0.28721  0.42679  0.04396  1.0000
  S   S181      1.0  0.45975  0.34366  0.19566  1.0000
  C   C1378     1.0  0.32291  0.54988  0.47081  1.0000
  H   H1092     1.0  0.40481  0.55818  0.40170  1.0000
  C   C1379     1.0  0.42072  0.41430  0.34510  1.0000
  H   H1093     1.0  0.41598  0.36354  0.24835  1.0000
  C   C1380     1.0  0.43343  0.43703  0.31216  1.0000
  C   C1381     1.0  0.39951  0.34154  0.12062  1.0000
  H   H1094     1.0  0.43135  0.50747  0.26969  1.0000
  H   H1095     1.0  0.31479  0.46743  0.25377  1.0000
  H   H1096     1.0  0.39440  0.52706  0.43796  1.0000
  C   C1382     1.0  0.48378  0.51750  0.10156  1.0000
  C   C1383     1.0  0.44025  0.44385  0.34740  1.0000
  H   H1097     1.0  0.47286  0.46735  0.27285  1.0000
  H   H1098     1.0  0.36666  0.34297  0.16881  1.0000
  H   H1099     1.0  0.29570  0.63821  0.46512  1.0000
  C   C1384     1.0  0.31981  0.33107  0.98103  1.0000
  C   C1385     1.0  0.45075  0.43270  0.26852  1.0000
  C   C1386     1.0  0.45923  0.50639  0.26630  1.0000
  H   H1100     1.0  0.46318  0.56631  0.35223  1.0000
  C   C1387     1.0  0.30685  0.44213  0.24194  1.0000
  H   H1101     1.0  0.44688  0.45333  0.35711  1.0000
  H   H1102     1.0  0.46830  0.37148  0.11744  1.0000
  C   C1388     1.0  0.30469  0.46168  0.10398  1.0000
  P   P47       1.0  0.28064  0.44583  0.07792  1.0000
  H   H1103     1.0  0.31091  0.47219  0.08981  1.0000
  C   C1389     1.0  0.41295  0.43679  0.27643  1.0000
  H   H1104     1.0  0.40740  0.56786  0.36215  1.0000
  S   S182      1.0  0.46392  0.32999  0.13456  1.0000
  H   H1105     1.0  0.31782  0.44637  0.22796  1.0000
  P   P48       1.0  0.43559  0.44358  0.28296  1.0000
  C   C1390     1.0  0.39220  0.42390  0.25306  1.0000
  C   C1391     1.0  0.31196  0.46270  0.12319  1.0000
  C   C1392     1.0  0.45046  0.56442  0.36314  1.0000
  H   H1106     1.0  0.42294  0.34474  0.17041  1.0000
  C   C1393     1.0  0.43555  0.56799  0.35471  1.0000
  C   C1394     1.0  0.25518  0.41176  0.08786  1.0000
  H   H1107     1.0  0.45256  0.41408  0.29692  1.0000
  C   C1395     1.0  0.44228  0.44914  0.32477  1.0000
  C   C1396     1.0  0.44042  0.49871  0.27010  1.0000
  H   H1108     1.0  0.27119  0.42176  0.12137  1.0000
  H   H1109     1.0  0.26659  0.40612  0.08987  1.0000
  C   C1397     1.0  0.45659  0.43825  0.24589  1.0000
  H   H1110     1.0  0.41521  0.33801  0.06823  1.0000
  S   S183      1.0  0.25061  0.33936  0.04161  1.0000
  H   H1111     1.0  0.41859  0.47423  0.27740  1.0000
  C   C1398     1.0  0.39810  0.43902  0.29047  1.0000
  H   H1112     1.0  0.41227  0.40085  0.35300  1.0000
  C   C1399     1.0  0.40811  0.48814  0.44128  1.0000
  C   C1400     1.0  0.46535  0.48465  0.21257  1.0000
  C   C1401     1.0  0.44477  0.46815  0.27555  1.0000
  H   H1113     1.0  0.24886  0.38960  0.13961  1.0000
  C   C1402     1.0  0.34685  0.63237  0.33913  1.0000
  H   H1114     1.0  0.33925  0.43806  0.04306  1.0000
  H   H1115     1.0  0.33175  0.57469  0.44721  1.0000
  C   C1403     1.0  0.46994  0.47362  0.17841  1.0000
  H   H1116     1.0  0.28705  0.49648  0.01694  1.0000
  H   H1117     1.0  0.29205  0.41149  0.01833  1.0000
  C   C1404     1.0  0.37719  0.33991  0.17731  1.0000
  C   C1405     1.0  0.24280  0.43763  0.08026  1.0000
  H   H1118     1.0  0.47900  0.53898  0.15609  1.0000
  H   H1119     1.0  0.47252  0.39917  0.27632  1.0000
  H   H1120     1.0  0.23864  0.38727  0.02677  1.0000
  H   H1121     1.0  0.45634  0.48536  0.22703  1.0000
  H   H1122     1.0  0.45098  0.47757  0.10620  1.0000
  H   H1123     1.0  0.33032  0.54251  0.46115  1.0000
  H   H1124     1.0  0.38855  0.63512  0.31086  1.0000
  H   H1125     1.0  0.41031  0.64625  0.41894  1.0000
  C   C1406     1.0  0.40736  0.33419  0.08461  1.0000
  H   H1126     1.0  0.26167  0.40588  0.99510  1.0000
  H   H1127     1.0  0.38176  0.49359  0.44449  1.0000
  C   C1407     1.0  0.35434  0.52210  0.47609  1.0000
  C   C1408     1.0  0.38254  0.65481  0.33027  1.0000
  C   C1409     1.0  0.46803  0.50527  0.09823  1.0000
  Fe  Fe91      1.0  0.23811  0.35384  0.06595  1.0000
  H   H1128     1.0  0.47448  0.40239  0.12789  1.0000
  H   H1129     1.0  0.48217  0.40884  0.23620  1.0000
  H   H1130     1.0  0.26018  0.34848  0.99382  1.0000
  C   C1410     1.0  0.40878  0.34089  0.17816  1.0000
  Fe  Fe92      1.0  0.26381  0.32866  0.06872  1.0000
  C   C1411     1.0  0.48413  0.56701  0.45726  1.0000
  C   C1412     1.0  0.23649  0.60588  0.40881  1.0000
  H   H1131     1.0  0.45924  0.65808  0.43457  1.0000
  C   C1413     1.0  0.34154  0.65811  0.41608  1.0000
  H   H1132     1.0  0.31287  0.35687  0.98022  1.0000
  H   H1133     1.0  0.24030  0.58972  0.47891  1.0000
  H   H1134     1.0  0.28490  0.60508  0.48002  1.0000
  H   H1135     1.0  0.31585  0.56478  0.59668  1.0000
  H   H1136     1.0  0.30127  0.39551  0.95755  1.0000
  C   C1414     1.0  0.46618  0.42449  0.83699  1.0000
  Fe  Fe93      1.0  0.33960  0.50986  0.53491  1.0000
  S   S184      1.0  0.32994  0.53491  0.53703  1.0000
  S   S185      1.0  0.33351  0.49353  0.50799  1.0000
  Fe  Fe94      1.0  0.35459  0.51165  0.57783  1.0000
  S   S186      1.0  0.34592  0.53685  0.58321  1.0000
  S   S187      1.0  0.37016  0.49764  0.59970  1.0000
  Fe  Fe95      1.0  0.32004  0.52290  0.57244  1.0000
  S   S188      1.0  0.29206  0.52208  0.58946  1.0000
  Fe  Fe96      1.0  0.35653  0.54643  0.54723  1.0000
  S   S189      1.0  0.37283  0.57537  0.53304  1.0000
  S   S190      1.0  0.32783  0.49691  0.56985  1.0000
  S   S191      1.0  0.36721  0.52222  0.54239  1.0000
  S   S192      1.0  0.44064  0.58913  0.58109  1.0000
  Fe  Fe97      1.0  0.38141  0.48357  0.71969  1.0000
  S   S193      1.0  0.38786  0.48748  0.75309  1.0000
  S   S194      1.0  0.36661  0.50092  0.70093  1.0000
  Fe  Fe98      1.0  0.39670  0.45077  0.71927  1.0000
  S   S195      1.0  0.40455  0.45173  0.75229  1.0000
  S   S196      1.0  0.39870  0.43097  0.69622  1.0000
  Fe  Fe99      1.0  0.37725  0.45674  0.76202  1.0000
  S   S197      1.0  0.36017  0.44333  0.79529  1.0000
  Fe  Fe100     1.0  0.41456  0.48226  0.74087  1.0000
  S   S198      1.0  0.44275  0.49598  0.74678  1.0000
  S   S199      1.0  0.36859  0.45344  0.72975  1.0000
  S   S200      1.0  0.40897  0.48071  0.70681  1.0000
  H   H1137     1.0  0.46950  0.52890  0.66781  1.0000
  H   H1138     1.0  0.30113  0.44114  0.59088  1.0000
  H   H1139     1.0  0.32983  0.35435  0.77431  1.0000
  H   H1140     1.0  0.38990  0.36881  0.74106  1.0000
  H   H1141     1.0  0.44728  0.46174  0.77776  1.0000
  H   H1142     1.0  0.45370  0.47486  0.71037  1.0000
  H   H1143     1.0  0.32932  0.58028  0.52706  1.0000
  Fe  Fe101     1.0  0.27484  0.35701  0.84050  1.0000
  S   S201      1.0  0.29285  0.37278  0.80841  1.0000
  Fe  Fe102     1.0  0.25874  0.35324  0.88905  1.0000
  C   C1415     1.0  0.45143  0.51995  0.74477  1.0000
  C   C1416     1.0  0.47017  0.52718  0.74373  1.0000
  H   H1144     1.0  0.35508  0.45966  0.64025  1.0000
  H   H1145     1.0  0.28365  0.56374  0.59525  1.0000
  C   C1417     1.0  0.44808  0.55093  0.74184  1.0000
  C   C1418     1.0  0.44031  0.53188  0.74404  1.0000
  C   C1419     1.0  0.39726  0.33461  0.74561  1.0000
  C   C1420     1.0  0.27239  0.40569  0.65797  1.0000
  H   H1146     1.0  0.42579  0.52646  0.74519  1.0000
  C   C1421     1.0  0.41204  0.41535  0.69758  1.0000
  C   C1422     1.0  0.42349  0.41422  0.71307  1.0000
  C   C1423     1.0  0.43341  0.40094  0.71336  1.0000
  C   C1424     1.0  0.43164  0.38881  0.69830  1.0000
  C   C1425     1.0  0.42022  0.39013  0.68300  1.0000
  C   C1426     1.0  0.41063  0.40337  0.68252  1.0000
  H   H1147     1.0  0.42447  0.42333  0.72491  1.0000
  H   H1148     1.0  0.44204  0.39979  0.72541  1.0000
  H   H1149     1.0  0.41879  0.38082  0.67137  1.0000
  H   H1150     1.0  0.40195  0.40417  0.67046  1.0000
  C   C1427     1.0  0.34177  0.42343  0.79876  1.0000
  C   C1428     1.0  0.33631  0.41571  0.78093  1.0000
  C   C1429     1.0  0.32154  0.39998  0.78425  1.0000
  C   C1430     1.0  0.31188  0.39200  0.80537  1.0000
  C   C1431     1.0  0.31737  0.39966  0.82323  1.0000
  C   C1432     1.0  0.33229  0.41531  0.81992  1.0000
  H   H1151     1.0  0.34328  0.42198  0.76456  1.0000
  H   H1152     1.0  0.31741  0.39413  0.77033  1.0000
  H   H1153     1.0  0.31004  0.39363  0.83956  1.0000
  H   H1154     1.0  0.33638  0.42124  0.83379  1.0000
  H   H1155     1.0  0.43948  0.56011  0.74128  1.0000
  C   C1433     1.0  0.26649  0.35755  0.97858  1.0000
  H   H1156     1.0  0.23436  0.53668  0.52222  1.0000
  H   H1157     1.0  0.28766  0.39148  0.92434  1.0000
  C   C1434     1.0  0.36936  0.49939  0.62761  1.0000
  C   C1435     1.0  0.35824  0.50873  0.63809  1.0000
  C   C1436     1.0  0.35776  0.50945  0.66050  1.0000
  C   C1437     1.0  0.36794  0.50037  0.67267  1.0000
  C   C1438     1.0  0.37903  0.49102  0.66217  1.0000
  C   C1439     1.0  0.37998  0.49083  0.63966  1.0000
  H   H1158     1.0  0.35002  0.51538  0.62895  1.0000
  H   H1159     1.0  0.34924  0.51681  0.66847  1.0000
  H   H1160     1.0  0.38692  0.48397  0.67135  1.0000
  H   H1161     1.0  0.38859  0.48356  0.63167  1.0000
  C   C1440     1.0  0.39238  0.57956  0.54511  1.0000
  C   C1441     1.0  0.40460  0.59704  0.54144  1.0000
  C   C1442     1.0  0.41981  0.60021  0.55202  1.0000
  C   C1443     1.0  0.42270  0.58586  0.56622  1.0000
  C   C1444     1.0  0.41075  0.56840  0.56923  1.0000
  C   C1445     1.0  0.39558  0.56527  0.55891  1.0000
  H   H1162     1.0  0.40212  0.60814  0.53079  1.0000
  H   H1163     1.0  0.42909  0.61372  0.54944  1.0000
  H   H1164     1.0  0.41313  0.55727  0.57976  1.0000
  H   H1165     1.0  0.38629  0.55176  0.56187  1.0000
  H   H1166     1.0  0.45512  0.53830  0.70001  1.0000
  H   H1167     1.0  0.44366  0.43601  0.65111  1.0000
  C   C1446     1.0  0.47185  0.45824  0.70307  1.0000
  C   C1447     1.0  0.32066  0.46189  0.65998  1.0000
  H   H1168     1.0  0.35169  0.36323  0.88624  1.0000
  H   H1169     1.0  0.35128  0.39350  0.65547  1.0000
  C   C1448     1.0  0.24904  0.50522  0.54672  1.0000
  C   C1449     1.0  0.24431  0.51111  0.56636  1.0000
  C   C1450     1.0  0.25757  0.51644  0.57941  1.0000
  C   C1451     1.0  0.27555  0.51584  0.57288  1.0000
  C   C1452     1.0  0.28022  0.51009  0.55318  1.0000
  C   C1453     1.0  0.26706  0.50494  0.54009  1.0000
  S   S202      1.0  0.47641  0.58207  0.73752  1.0000
  H   H1170     1.0  0.25389  0.52091  0.59462  1.0000
  H   H1171     1.0  0.29391  0.50926  0.54813  1.0000
  H   H1172     1.0  0.27079  0.50037  0.52494  1.0000
  Fe  Fe103     1.0  0.47465  0.65449  0.58323  1.0000
  H   H1173     1.0  0.43499  0.44453  0.82215  1.0000
  C   C1454     1.0  0.28826  0.42019  0.65272  1.0000
  P   P49       1.0  0.32157  0.44024  0.62736  1.0000
  C   C1455     1.0  0.26043  0.55643  0.51805  1.0000
  H   H1174     1.0  0.27927  0.38363  0.61522  1.0000
  H   H1175     1.0  0.32515  0.45184  0.67003  1.0000
  C   C1456     1.0  0.33918  0.43245  0.63895  1.0000
  H   H1176     1.0  0.32127  0.47932  0.68435  1.0000
  H   H1177     1.0  0.39098  0.55550  0.49556  1.0000
  C   C1457     1.0  0.35257  0.37049  0.82361  1.0000
  H   H1178     1.0  0.24200  0.64717  0.57030  1.0000
  C   C1458     1.0  0.44644  0.45079  0.64745  1.0000
  P   P50       1.0  0.29434  0.58185  0.51472  1.0000
  C   C1459     1.0  0.33158  0.38542  0.91056  1.0000
  H   H1179     1.0  0.25679  0.38136  0.64843  1.0000
  H   H1180     1.0  0.29068  0.43016  0.66342  1.0000
  C   C1460     1.0  0.35402  0.44519  0.64378  1.0000
  C   C1461     1.0  0.40020  0.33120  0.78985  1.0000
  H   H1181     1.0  0.37695  0.41626  0.66472  1.0000
  C   C1462     1.0  0.36752  0.43936  0.65318  1.0000
  C   C1463     1.0  0.24062  0.58159  0.52625  1.0000
  C   C1464     1.0  0.28156  0.37238  0.97805  1.0000
  C   C1465     1.0  0.27839  0.48029  0.70983  1.0000
  S   S203      1.0  0.47033  0.38096  0.74626  1.0000
  H   H1182     1.0  0.29637  0.54392  0.52032  1.0000
  H   H1183     1.0  0.44537  0.35143  0.82310  1.0000
  C   C1466     1.0  0.45559  0.45241  0.77499  1.0000
  C   C1467     1.0  0.32944  0.34284  0.78665  1.0000
  H   H1184     1.0  0.41623  0.34096  0.84900  1.0000
  C   C1468     1.0  0.43928  0.53709  0.57740  1.0000
  C   C1469     1.0  0.42415  0.52351  0.57497  1.0000
  C   C1470     1.0  0.41875  0.50681  0.58932  1.0000
  C   C1471     1.0  0.42831  0.50373  0.60626  1.0000
  C   C1472     1.0  0.44367  0.51723  0.60875  1.0000
  C   C1473     1.0  0.44896  0.53403  0.59422  1.0000
  P   P51       1.0  0.45529  0.51332  0.63148  1.0000
  C   C1474     1.0  0.44466  0.52055  0.65487  1.0000
  H   H1185     1.0  0.47876  0.51807  0.74466  1.0000
  H   H1186     1.0  0.42840  0.65756  0.63537  1.0000
  H   H1187     1.0  0.44427  0.44484  0.74691  1.0000
  H   H1188     1.0  0.45974  0.61689  0.67143  1.0000
  C   C1475     1.0  0.38013  0.39265  0.74214  1.0000
  H   H1189     1.0  0.33536  0.39893  0.90062  1.0000
  C   C1476     1.0  0.45509  0.52760  0.67003  1.0000
  C   C1477     1.0  0.44690  0.53278  0.68849  1.0000
  C   C1478     1.0  0.42818  0.53081  0.69209  1.0000
  C   C1479     1.0  0.41764  0.52343  0.67731  1.0000
  C   C1480     1.0  0.42578  0.51807  0.65890  1.0000
  H   H1190     1.0  0.26190  0.38620  0.80168  1.0000
  H   H1191     1.0  0.46112  0.44655  0.70142  1.0000
  H   H1192     1.0  0.42873  0.34444  0.77845  1.0000
  H   H1193     1.0  0.44324  0.55025  0.56657  1.0000
  H   H1194     1.0  0.41637  0.52606  0.56226  1.0000
  H   H1195     1.0  0.40686  0.49639  0.58760  1.0000
  H   H1196     1.0  0.42348  0.49087  0.61756  1.0000
  C   C1481     1.0  0.45393  0.44294  0.75749  1.0000
  H   H1197     1.0  0.44288  0.48658  0.67269  1.0000
  S   S204      1.0  0.47126  0.34332  0.72561  1.0000
  H   H1198     1.0  0.41150  0.46017  0.83303  1.0000
  H   H1199     1.0  0.42607  0.34781  0.73940  1.0000
  H   H1200     1.0  0.32721  0.40357  0.63931  1.0000
  H   H1201     1.0  0.42181  0.53476  0.70646  1.0000
  H   H1202     1.0  0.40309  0.52167  0.68025  1.0000
  H   H1203     1.0  0.41731  0.51207  0.64788  1.0000
  C   C1482     1.0  0.47153  0.62859  0.66811  1.0000
  H   H1204     1.0  0.45759  0.42120  0.82497  1.0000
  C   C1483     1.0  0.46808  0.45005  0.78866  1.0000
  C   C1484     1.0  0.32217  0.63644  0.50422  1.0000
  H   H1205     1.0  0.25652  0.62755  0.59220  1.0000
  H   H1206     1.0  0.35230  0.37268  0.80626  1.0000
  C   C1485     1.0  0.38677  0.37847  0.75108  1.0000
  S   S205      1.0  0.25443  0.36748  0.91798  1.0000
  S   S206      1.0  0.44260  0.37122  0.69806  1.0000
  H   H1207     1.0  0.27757  0.49389  0.71201  1.0000
  C   C1486     1.0  0.25187  0.63818  0.59914  1.0000
  H   H1208     1.0  0.46913  0.45735  0.80227  1.0000
  H   H1209     1.0  0.26261  0.40464  0.67253  1.0000
  C   C1487     1.0  0.41554  0.33965  0.77382  1.0000
  H   H1210     1.0  0.46408  0.42436  0.73948  1.0000
  H   H1211     1.0  0.38812  0.62413  0.48688  1.0000
  C   C1488     1.0  0.38963  0.37697  0.77274  1.0000
  C   C1489     1.0  0.47339  0.57909  0.67506  1.0000
  C   C1490     1.0  0.41839  0.35245  0.83590  1.0000
  C   C1491     1.0  0.35199  0.36524  0.86875  1.0000
  C   C1492     1.0  0.29768  0.40830  0.62046  1.0000
  C   C1493     1.0  0.44113  0.60436  0.48477  1.0000
  H   H1212     1.0  0.47777  0.50082  0.71556  1.0000
  H   H1213     1.0  0.32176  0.61240  0.52619  1.0000
  C   C1494     1.0  0.35194  0.40793  0.65233  1.0000
  C   C1495     1.0  0.30458  0.56917  0.49674  1.0000
  C   C1496     1.0  0.36823  0.37428  0.85442  1.0000
  C   C1497     1.0  0.36879  0.37644  0.83170  1.0000
  C   C1498     1.0  0.30093  0.42170  0.63382  1.0000
  P   P52       1.0  0.39001  0.38802  0.81347  1.0000
  C   C1499     1.0  0.39712  0.41076  0.82005  1.0000
  C   C1500     1.0  0.40733  0.37600  0.81640  1.0000
  C   C1501     1.0  0.42367  0.38131  0.80123  1.0000
  C   C1502     1.0  0.43737  0.37256  0.80376  1.0000
  H   H1214     1.0  0.32344  0.35201  0.87163  1.0000
  H   H1215     1.0  0.34572  0.36042  0.95019  1.0000
  C   C1503     1.0  0.32126  0.35052  0.93688  1.0000
  C   C1504     1.0  0.38395  0.41967  0.82667  1.0000
  C   C1505     1.0  0.38915  0.43736  0.83139  1.0000
  H   H1216     1.0  0.31190  0.52692  0.49700  1.0000
  C   C1506     1.0  0.25963  0.58717  0.52267  1.0000
  C   C1507     1.0  0.41562  0.41985  0.81853  1.0000
  C   C1508     1.0  0.38632  0.38997  0.78546  1.0000
  C   C1509     1.0  0.47792  0.54612  0.74154  1.0000
  H   H1217     1.0  0.29774  0.34602  0.92054  1.0000
  C   C1510     1.0  0.37659  0.40548  0.75474  1.0000
  C   C1511     1.0  0.37968  0.40420  0.77629  1.0000
  C   C1512     1.0  0.46770  0.47418  0.70794  1.0000
  H   H1218     1.0  0.38040  0.37949  0.86104  1.0000
  H   H1219     1.0  0.42583  0.39222  0.78742  1.0000
  H   H1220     1.0  0.35406  0.33320  0.94637  1.0000
  C   C1513     1.0  0.24338  0.41921  0.78075  1.0000
  C   C1514     1.0  0.30361  0.55076  0.50415  1.0000
  H   H1221     1.0  0.46161  0.48623  0.60469  1.0000
  H   H1222     1.0  0.36960  0.41320  0.82756  1.0000
  C   C1515     1.0  0.44271  0.46047  0.66407  1.0000
  H   H1223     1.0  0.26782  0.48137  0.67966  1.0000
  H   H1224     1.0  0.45020  0.33743  0.67574  1.0000
  H   H1225     1.0  0.42614  0.41354  0.81338  1.0000
  H   H1226     1.0  0.37803  0.39391  0.72532  1.0000
  C   C1516     1.0  0.43479  0.35827  0.82120  1.0000
  H   H1227     1.0  0.37164  0.41658  0.74766  1.0000
  H   H1228     1.0  0.37685  0.41435  0.78566  1.0000
  C   C1517     1.0  0.38397  0.56198  0.62768  1.0000
  C   C1518     1.0  0.38996  0.54802  0.61949  1.0000
  C   C1519     1.0  0.40631  0.54481  0.62385  1.0000
  C   C1520     1.0  0.41683  0.55569  0.63621  1.0000
  C   C1521     1.0  0.41078  0.56954  0.64480  1.0000
  C   C1522     1.0  0.39424  0.57261  0.64048  1.0000
  P   P53       1.0  0.42276  0.58202  0.66335  1.0000
  C   C1523     1.0  0.41104  0.57242  0.69113  1.0000
  C   C1524     1.0  0.44636  0.58135  0.65986  1.0000
  C   C1525     1.0  0.45468  0.57728  0.67788  1.0000
  H   H1229     1.0  0.32367  0.35777  0.83180  1.0000
  H   H1230     1.0  0.44988  0.37653  0.79196  1.0000
  C   C1526     1.0  0.47574  0.58797  0.63612  1.0000
  C   C1527     1.0  0.45706  0.58630  0.63889  1.0000
  C   C1528     1.0  0.41714  0.57995  0.70896  1.0000
  C   C1529     1.0  0.40869  0.57184  0.73037  1.0000
  C   C1530     1.0  0.39414  0.55607  0.73425  1.0000
  C   C1531     1.0  0.38789  0.54851  0.71670  1.0000
  C   C1532     1.0  0.39622  0.55665  0.69526  1.0000
  C   C1533     1.0  0.42339  0.60578  0.65488  1.0000
  C   C1534     1.0  0.42013  0.61705  0.67009  1.0000
  C   C1535     1.0  0.42189  0.63564  0.66306  1.0000
  C   C1536     1.0  0.42661  0.64308  0.64083  1.0000
  C   C1537     1.0  0.42927  0.63188  0.62555  1.0000
  C   C1538     1.0  0.42762  0.61334  0.63250  1.0000
  H   H1231     1.0  0.37137  0.56452  0.62407  1.0000
  H   H1232     1.0  0.38214  0.53989  0.60934  1.0000
  H   H1233     1.0  0.41090  0.53406  0.61726  1.0000
  H   H1234     1.0  0.42960  0.55324  0.63908  1.0000
  H   H1235     1.0  0.38925  0.58316  0.64709  1.0000
  H   H1236     1.0  0.44706  0.57281  0.69424  1.0000
  C   C1539     1.0  0.24653  0.39475  0.97122  1.0000
  H   H1237     1.0  0.43690  0.45317  0.68051  1.0000
  C   C1540     1.0  0.45824  0.42094  0.85907  1.0000
  H   H1238     1.0  0.45107  0.58910  0.62461  1.0000
  H   H1239     1.0  0.42884  0.59176  0.70643  1.0000
  H   H1240     1.0  0.41373  0.57756  0.74401  1.0000
  H   H1241     1.0  0.38782  0.54960  0.75086  1.0000
  H   H1242     1.0  0.37674  0.53613  0.71966  1.0000
  H   H1243     1.0  0.39121  0.55020  0.68211  1.0000
  H   H1244     1.0  0.41627  0.61174  0.68732  1.0000
  H   H1245     1.0  0.41975  0.64435  0.67487  1.0000
  C   C1541     1.0  0.31255  0.54111  0.49110  1.0000
  H   H1246     1.0  0.26760  0.54627  0.51526  1.0000
  H   H1247     1.0  0.42973  0.60498  0.62026  1.0000
  H   H1248     1.0  0.27406  0.57138  0.56016  1.0000
  H   H1249     1.0  0.25674  0.40254  0.95738  1.0000
  C   C1542     1.0  0.41408  0.34143  0.75174  1.0000
  C   C1543     1.0  0.38191  0.32596  0.76156  1.0000
  H   H1250     1.0  0.37885  0.44432  0.83569  1.0000
  C   C1544     1.0  0.33733  0.36351  0.93847  1.0000
  H   H1251     1.0  0.42722  0.62222  0.49848  1.0000
  C   C1545     1.0  0.35240  0.46055  0.56643  1.0000
  C   C1546     1.0  0.33938  0.45913  0.55277  1.0000
  C   C1547     1.0  0.32095  0.45191  0.56168  1.0000
  C   C1548     1.0  0.31552  0.44599  0.58424  1.0000
  C   C1549     1.0  0.32857  0.44691  0.59805  1.0000
  C   C1550     1.0  0.34704  0.45450  0.58896  1.0000
  C   C1551     1.0  0.31764  0.45973  0.63873  1.0000
  C   C1552     1.0  0.31825  0.47736  0.66830  1.0000
  C   C1553     1.0  0.31244  0.49056  0.65571  1.0000
  C   C1554     1.0  0.30886  0.48823  0.63485  1.0000
  C   C1555     1.0  0.31138  0.47285  0.62643  1.0000
  H   H1252     1.0  0.36662  0.46687  0.55963  1.0000
  H   H1253     1.0  0.34350  0.46424  0.53537  1.0000
  H   H1254     1.0  0.31088  0.45157  0.55108  1.0000
  H   H1255     1.0  0.35736  0.45630  0.59920  1.0000
  H   H1256     1.0  0.31092  0.50272  0.66197  1.0000
  H   H1257     1.0  0.30443  0.49850  0.62497  1.0000
  H   H1258     1.0  0.30861  0.47140  0.61021  1.0000
  H   H1259     1.0  0.40187  0.32960  0.80677  1.0000
  C   C1556     1.0  0.27282  0.47322  0.69167  1.0000
  C   C1557     1.0  0.27373  0.45563  0.68894  1.0000
  C   C1558     1.0  0.28039  0.44517  0.70426  1.0000
  C   C1559     1.0  0.28639  0.45233  0.72229  1.0000
  C   C1560     1.0  0.28498  0.46984  0.72522  1.0000
  P   P54       1.0  0.29410  0.43840  0.74258  1.0000
  C   C1561     1.0  0.30576  0.42419  0.72866  1.0000
  C   C1562     1.0  0.31010  0.45275  0.75596  1.0000
  C   C1563     1.0  0.32277  0.46873  0.74400  1.0000
  C   C1564     1.0  0.33545  0.47952  0.75422  1.0000
  C   C1565     1.0  0.33561  0.47450  0.77641  1.0000
  C   C1566     1.0  0.32299  0.45876  0.78845  1.0000
  C   C1567     1.0  0.31036  0.44785  0.77829  1.0000
  C   C1568     1.0  0.32405  0.43123  0.71850  1.0000
  C   C1569     1.0  0.33311  0.42031  0.70776  1.0000
  C   C1570     1.0  0.32394  0.40232  0.70681  1.0000
  C   C1571     1.0  0.30563  0.39530  0.71641  1.0000
  C   C1572     1.0  0.29652  0.40620  0.72718  1.0000
  C   C1573     1.0  0.27465  0.42465  0.76251  1.0000
  C   C1574     1.0  0.27581  0.40887  0.77585  1.0000
  C   C1575     1.0  0.26087  0.39834  0.79139  1.0000
  S   S207      1.0  0.25916  0.32819  0.83920  1.0000
  H   H1260     1.0  0.35823  0.52918  0.48927  1.0000
  C   C1576     1.0  0.25831  0.42980  0.76517  1.0000
  H   H1261     1.0  0.43299  0.63767  0.60829  1.0000
  C   C1577     1.0  0.31044  0.35530  0.92193  1.0000
  H   H1262     1.0  0.26935  0.45019  0.67486  1.0000
  H   H1263     1.0  0.28079  0.43148  0.70208  1.0000
  H   H1264     1.0  0.28886  0.47540  0.73944  1.0000
  H   H1265     1.0  0.32317  0.47274  0.72668  1.0000
  H   H1266     1.0  0.34541  0.49162  0.74484  1.0000
  H   H1267     1.0  0.34579  0.48254  0.78420  1.0000
  H   H1268     1.0  0.32348  0.45461  0.80553  1.0000
  H   H1269     1.0  0.30119  0.43544  0.78794  1.0000
  H   H1270     1.0  0.33144  0.44513  0.71885  1.0000
  H   H1271     1.0  0.34734  0.42578  0.70035  1.0000
  H   H1272     1.0  0.33106  0.39382  0.69870  1.0000
  H   H1273     1.0  0.29851  0.38133  0.71571  1.0000
  H   H1274     1.0  0.28230  0.40051  0.73437  1.0000
  H   H1275     1.0  0.28830  0.40472  0.77442  1.0000
  S   S208      1.0  0.46532  0.33843  0.79056  1.0000
  C   C1578     1.0  0.30245  0.60620  0.50419  1.0000
  H   H1276     1.0  0.25702  0.44200  0.75538  1.0000
  C   C1579     1.0  0.43326  0.61897  0.48346  1.0000
  C   C1580     1.0  0.36647  0.42073  0.65745  1.0000
  C   C1581     1.0  0.33626  0.36192  0.83804  1.0000
  S   S209      1.0  0.47604  0.62675  0.59831  1.0000
  C   C1582     1.0  0.30105  0.57685  0.54088  1.0000
  C   C1583     1.0  0.28827  0.57223  0.56033  1.0000
  C   C1584     1.0  0.29367  0.56807  0.58039  1.0000
  C   C1585     1.0  0.31183  0.56861  0.58120  1.0000
  C   C1586     1.0  0.32463  0.57329  0.56195  1.0000
  C   C1587     1.0  0.31925  0.57719  0.54184  1.0000
  S   S210      1.0  0.25040  0.36353  0.85780  1.0000
  H   H1277     1.0  0.46037  0.54497  0.59571  1.0000
  H   H1278     1.0  0.44141  0.59689  0.50062  1.0000
  C   C1588     1.0  0.48151  0.48909  0.71056  1.0000
  C   C1589     1.0  0.26974  0.57469  0.51822  1.0000
  H   H1279     1.0  0.37883  0.44926  0.65718  1.0000
  H   H1280     1.0  0.30745  0.40897  0.60603  1.0000
  H   H1281     1.0  0.33866  0.57342  0.56253  1.0000
  H   H1282     1.0  0.48180  0.62030  0.69705  1.0000
  C   C1590     1.0  0.28178  0.39384  0.62570  1.0000
  Fe  Fe104     1.0  0.46639  0.37069  0.71503  1.0000
  C   C1591     1.0  0.25916  0.35489  0.95942  1.0000
  C   C1592     1.0  0.33830  0.41373  0.64315  1.0000
  Fe  Fe105     1.0  0.46117  0.61647  0.57218  1.0000
  C   C1593     1.0  0.42075  0.43751  0.82348  1.0000
  C   C1594     1.0  0.28211  0.38157  0.93918  1.0000
  C   C1595     1.0  0.26680  0.36706  0.93971  1.0000
  C   C1596     1.0  0.28964  0.38402  0.95813  1.0000
  H   H1283     1.0  0.35460  0.39091  0.92709  1.0000
  S   S211      1.0  0.28461  0.34950  0.87165  1.0000
  Fe  Fe106     1.0  0.47694  0.35428  0.75608  1.0000
  C   C1597     1.0  0.33604  0.35896  0.86054  1.0000
  C   C1598     1.0  0.44601  0.47949  0.65949  1.0000
  C   C1599     1.0  0.46693  0.55812  0.74056  1.0000
  H   H1284     1.0  0.44365  0.41532  0.86389  1.0000
  C   C1600     1.0  0.34241  0.38087  0.92542  1.0000
  C   C1601     1.0  0.45656  0.47919  0.62138  1.0000
  C   C1602     1.0  0.40753  0.44631  0.82975  1.0000
  H   H1285     1.0  0.39210  0.35619  0.84492  1.0000
  H   H1286     1.0  0.30703  0.37624  0.89758  1.0000
  C   C1603     1.0  0.42048  0.65614  0.48658  1.0000
  C   C1604     1.0  0.31567  0.37261  0.90877  1.0000
  H   H1287     1.0  0.39453  0.36576  0.77943  1.0000
  C   C1605     1.0  0.45347  0.46016  0.62612  1.0000
  C   C1606     1.0  0.45280  0.48899  0.63804  1.0000
  H   H1288     1.0  0.26633  0.60112  0.52386  1.0000
  S   S212      1.0  0.45710  0.64363  0.55953  1.0000
  H   H1289     1.0  0.47047  0.54545  0.48434  1.0000
  C   C1607     1.0  0.26912  0.39256  0.64442  1.0000
  H   H1290     1.0  0.35683  0.34274  0.77537  1.0000
  C   C1608     1.0  0.40469  0.36122  0.83350  1.0000
  H   H1291     1.0  0.47754  0.39814  0.79906  1.0000
  H   H1292     1.0  0.24700  0.34400  0.96008  1.0000
  H   H1293     1.0  0.46301  0.42150  0.89213  1.0000
  H   H1294     1.0  0.45622  0.45261  0.61320  1.0000
  H   H1295     1.0  0.30171  0.33990  0.80142  1.0000
  H   H1296     1.0  0.24964  0.65630  0.64568  1.0000
  C   C1609     1.0  0.46503  0.43142  0.75334  1.0000
  H   H1297     1.0  0.46477  0.64030  0.63821  1.0000
  H   H1298     1.0  0.36333  0.32961  0.87730  1.0000
  H   H1299     1.0  0.47975  0.57647  0.68917  1.0000
  H   H1300     1.0  0.35522  0.33083  0.84062  1.0000
  Fe  Fe107     1.0  0.23494  0.33421  0.85881  1.0000
  H   H1301     1.0  0.44756  0.65542  0.49184  1.0000
  H   H1302     1.0  0.33244  0.64525  0.51115  1.0000
  C   C1610     1.0  0.46915  0.42437  0.87499  1.0000
  C   C1611     1.0  0.47918  0.43837  0.78472  1.0000
  C   C1612     1.0  0.31601  0.61771  0.51276  1.0000
  H   H1303     1.0  0.47351  0.55248  0.62533  1.0000
  C   C1613     1.0  0.47907  0.52612  0.62497  1.0000
  C   C1614     1.0  0.47776  0.42932  0.76672  1.0000
  C   C1615     1.0  0.25408  0.64087  0.62033  1.0000
  C   C1616     1.0  0.34472  0.33613  0.78730  1.0000
  H   H1304     1.0  0.26082  0.63251  0.62973  1.0000
  C   C1617     1.0  0.24359  0.64920  0.58679  1.0000
  C   C1618     1.0  0.47440  0.64173  0.64937  1.0000
  C   C1619     1.0  0.44524  0.32520  0.68814  1.0000
  H   H1305     1.0  0.39621  0.33587  0.72844  1.0000
  P   P55       1.0  0.31476  0.32816  0.95418  1.0000
  C   C1620     1.0  0.31360  0.33482  0.80202  1.0000
  C   C1621     1.0  0.31491  0.64383  0.48702  1.0000
  C   C1622     1.0  0.24466  0.40348  0.79383  1.0000
  H   H1306     1.0  0.42031  0.33154  0.69932  1.0000
  C   C1623     1.0  0.29535  0.61374  0.48680  1.0000
  C   C1624     1.0  0.24143  0.55085  0.52209  1.0000
  C   C1625     1.0  0.24758  0.65428  0.62935  1.0000
  C   C1626     1.0  0.48391  0.63058  0.68255  1.0000
  H   H1307     1.0  0.31954  0.65838  0.48063  1.0000
  C   C1627     1.0  0.34219  0.50462  0.48077  1.0000
  Fe  Fe108     1.0  0.48338  0.64777  0.53660  1.0000
  C   C1628     1.0  0.48393  0.58463  0.65422  1.0000
  H   H1308     1.0  0.48394  0.59221  0.61989  1.0000
  C   C1629     1.0  0.48391  0.54530  0.62300  1.0000
  Fe  Fe109     1.0  0.31181  0.74587  0.33669  1.0000
  S   S213      1.0  0.30071  0.76455  0.35596  1.0000
  S   S214      1.0  0.29564  0.71987  0.32762  1.0000
  Fe  Fe110     1.0  0.35109  0.76675  0.33628  1.0000
  S   S215      1.0  0.34316  0.78681  0.35589  1.0000
  S   S216      1.0  0.38073  0.77040  0.32445  1.0000
  Fe  Fe111     1.0  0.32229  0.76246  0.37636  1.0000
  S   S217      1.0  0.31691  0.75196  0.41283  1.0000
  Fe  Fe112     1.0  0.32268  0.78718  0.33344  1.0000
  S   S218      1.0  0.31952  0.81465  0.31869  1.0000
  S   S219      1.0  0.33200  0.74230  0.35832  1.0000
  S   S220      1.0  0.33204  0.76850  0.31259  1.0000
  Fe  Fe113     1.0  0.44832  0.76369  0.39451  1.0000
  S   S221      1.0  0.42159  0.74304  0.39681  1.0000
  H   H1309     1.0  0.36884  0.74043  0.36085  1.0000
  S   S222      1.0  0.27563  0.90787  0.03797  1.0000
  H   H1310     1.0  0.38497  0.72984  0.38962  1.0000
  Fe  Fe114     1.0  0.26676  0.87996  0.05889  1.0000
  S   S223      1.0  0.28479  0.86768  0.07901  1.0000
  Fe  Fe115     1.0  0.25963  0.89440  0.01421  1.0000
  C   C1630     1.0  0.25235  0.75942  0.38152  1.0000
  Fe  Fe116     1.0  0.35794  0.87171  0.19924  1.0000
  S   S224      1.0  0.37013  0.87668  0.16334  1.0000
  S   S225      1.0  0.34526  0.84225  0.21612  1.0000
  Fe  Fe117     1.0  0.36785  0.91250  0.20125  1.0000
  S   S226      1.0  0.38060  0.92036  0.16600  1.0000
  S   S227      1.0  0.36397  0.93189  0.22457  1.0000
  Fe  Fe118     1.0  0.35636  0.89937  0.15967  1.0000
  S   S228      1.0  0.34273  0.90969  0.13199  1.0000
  Fe  Fe119     1.0  0.39307  0.89705  0.17282  1.0000
  S   S229      1.0  0.42299  0.90194  0.15933  1.0000
  S   S230      1.0  0.34270  0.89304  0.19491  1.0000
  S   S231      1.0  0.38185  0.89057  0.20876  1.0000
  C   C1631     1.0  0.37737  0.95429  0.22447  1.0000
  C   C1632     1.0  0.27845  0.93150  0.19026  1.0000
  H   H1311     1.0  0.33095  0.94495  0.22229  1.0000
  C   C1633     1.0  0.25020  0.67431  0.37425  1.0000
  C   C1634     1.0  0.25944  0.92802  0.19315  1.0000
  C   C1635     1.0  0.44294  0.85694  0.41026  1.0000
  C   C1636     1.0  0.34389  0.69055  0.40892  1.0000
  C   C1637     1.0  0.32458  0.76646  0.47119  1.0000
  C   C1638     1.0  0.30057  0.87964  0.09396  1.0000
  C   C1639     1.0  0.30550  0.89875  0.09166  1.0000
  C   C1640     1.0  0.31827  0.90768  0.10358  1.0000
  C   C1641     1.0  0.32631  0.89765  0.11790  1.0000
  C   C1642     1.0  0.32123  0.87855  0.12042  1.0000
  C   C1643     1.0  0.30850  0.86963  0.10843  1.0000
  H   H1312     1.0  0.29949  0.90667  0.08066  1.0000
  H   H1313     1.0  0.32189  0.92243  0.10168  1.0000
  H   H1314     1.0  0.32728  0.87064  0.13138  1.0000
  H   H1315     1.0  0.30482  0.85485  0.11035  1.0000
  C   C1644     1.0  0.26102  0.95979  0.06566  1.0000
  C   C1645     1.0  0.27963  0.96593  0.05626  1.0000
  C   C1646     1.0  0.40683  0.91511  0.24352  1.0000
  C   C1647     1.0  0.24083  0.67906  0.46964  1.0000
  C   C1648     1.0  0.33765  0.91902  0.04631  1.0000
  C   C1649     1.0  0.25309  0.97178  0.07589  1.0000
  H   H1316     1.0  0.28601  0.95685  0.04832  1.0000
  H   H1317     1.0  0.25807  0.76152  0.29780  1.0000
  H   H1318     1.0  0.24454  0.66361  0.36544  1.0000
  C   C1650     1.0  0.43806  0.87352  0.20985  1.0000
  C   C1651     1.0  0.42753  0.88070  0.19625  1.0000
  C   C1652     1.0  0.43583  0.89207  0.17627  1.0000
  C   C1653     1.0  0.45473  0.89576  0.16973  1.0000
  C   C1654     1.0  0.46529  0.88863  0.18345  1.0000
  H   H1319     1.0  0.41297  0.87730  0.20119  1.0000
  H   H1320     1.0  0.46119  0.90431  0.15415  1.0000
  C   C1655     1.0  0.43433  0.68860  0.36957  1.0000
  C   C1656     1.0  0.27188  0.71608  0.32976  1.0000
  C   C1657     1.0  0.26152  0.69943  0.32572  1.0000
  C   C1658     1.0  0.23828  0.68389  0.44824  1.0000
  H   H1321     1.0  0.45690  0.81655  0.44089  1.0000
  C   C1659     1.0  0.40536  0.66800  0.36762  1.0000
  C   C1660     1.0  0.26317  0.72928  0.33521  1.0000
  H   H1322     1.0  0.26813  0.68901  0.32217  1.0000
  H   H1323     1.0  0.32423  0.96457  0.03550  1.0000
  H   H1324     1.0  0.27103  0.74221  0.33820  1.0000
  C   C1661     1.0  0.32174  0.76551  0.43313  1.0000
  C   C1662     1.0  0.32448  0.78452  0.42939  1.0000
  C   C1663     1.0  0.32638  0.79429  0.44690  1.0000
  C   C1664     1.0  0.45300  0.66897  0.43103  1.0000
  C   C1665     1.0  0.27250  0.97805  0.00635  1.0000
  C   C1666     1.0  0.42347  0.67087  0.37050  1.0000
  H   H1325     1.0  0.32447  0.79156  0.41326  1.0000
  H   H1326     1.0  0.32777  0.80886  0.44413  1.0000
  H   H1327     1.0  0.39242  0.91424  0.24689  1.0000
  C   C1667     1.0  0.26904  0.68077  0.37266  1.0000
  C   C1668     1.0  0.32743  0.82241  0.29026  1.0000
  C   C1669     1.0  0.32773  0.81000  0.27581  1.0000
  C   C1670     1.0  0.33318  0.81634  0.25321  1.0000
  C   C1671     1.0  0.33874  0.83517  0.24476  1.0000
  C   C1672     1.0  0.33867  0.84766  0.25917  1.0000
  C   C1673     1.0  0.33284  0.84127  0.28181  1.0000
  H   H1328     1.0  0.32328  0.79548  0.28196  1.0000
  H   H1329     1.0  0.33309  0.80660  0.24218  1.0000
  H   H1330     1.0  0.34285  0.86219  0.25284  1.0000
  H   H1331     1.0  0.33255  0.85098  0.29283  1.0000
  C   C1674     1.0  0.39138  0.76352  0.34574  1.0000
  C   C1675     1.0  0.40918  0.77322  0.34648  1.0000
  C   C1676     1.0  0.41822  0.76735  0.36278  1.0000
  C   C1677     1.0  0.40961  0.75149  0.37802  1.0000
  C   C1678     1.0  0.39167  0.74198  0.37765  1.0000
  C   C1679     1.0  0.38251  0.74804  0.36153  1.0000
  H   H1332     1.0  0.41604  0.78525  0.33436  1.0000
  H   H1333     1.0  0.43201  0.77489  0.36315  1.0000
  C   C1680     1.0  0.39080  0.69878  0.42301  1.0000
  H   H1334     1.0  0.26349  0.73825  0.46065  1.0000
  C   C1681     1.0  0.27319  0.73200  0.21509  1.0000
  H   H1335     1.0  0.36064  0.95591  0.25408  1.0000
  H   H1336     1.0  0.27060  0.71335  0.40477  1.0000
  C   C1682     1.0  0.38563  0.70967  0.43752  1.0000
  H   H1337     1.0  0.40345  0.88738  0.25892  1.0000
  C   C1683     1.0  0.27277  0.93242  0.13936  1.0000
  S   S232      1.0  0.46247  0.78283  0.46185  1.0000
  H   H1338     1.0  0.34333  0.69122  0.34767  1.0000
  C   C1684     1.0  0.29390  0.74857  0.27363  1.0000
  H   H1339     1.0  0.27972  0.69744  0.27749  1.0000
  C   C1685     1.0  0.26508  0.69912  0.21656  1.0000
  H   H1340     1.0  0.41391  0.98899  0.19703  1.0000
  H   H1341     1.0  0.29093  0.70021  0.38190  1.0000
  C   C1686     1.0  0.36419  0.75793  0.42761  1.0000
  C   C1687     1.0  0.36669  0.77284  0.43860  1.0000
  C   C1688     1.0  0.46671  0.82625  0.25544  1.0000
  C   C1689     1.0  0.41306  0.90000  0.25033  1.0000
  H   H1342     1.0  0.40028  0.70513  0.40800  1.0000
  C   C1690     1.0  0.38768  0.98012  0.07310  1.0000
  C   C1691     1.0  0.36924  0.65936  0.34442  1.0000
  C   C1692     1.0  0.27631  0.69487  0.38362  1.0000
  H   H1343     1.0  0.39151  0.72436  0.43360  1.0000
  C   C1693     1.0  0.47651  0.93595  0.19091  1.0000
  C   C1694     1.0  0.27652  0.90192  0.13915  1.0000
  H   H1344     1.0  0.27804  0.67525  0.36237  1.0000
  C   C1695     1.0  0.44398  0.91741  0.23442  1.0000
  H   H1345     1.0  0.36202  0.75969  0.41079  1.0000
  H   H1346     1.0  0.36642  0.78611  0.43036  1.0000
  H   H1347     1.0  0.32250  0.95275  0.25861  1.0000
  C   C1696     1.0  0.34687  0.93427  0.05428  1.0000
  C   C1697     1.0  0.32187  0.75659  0.45407  1.0000
  C   C1698     1.0  0.42728  0.95319  0.15849  1.0000
  C   C1699     1.0  0.45297  0.82789  0.43252  1.0000
  C   C1700     1.0  0.32625  0.78523  0.46798  1.0000
  H   H1348     1.0  0.39640  0.66343  0.32635  1.0000
  H   H1349     1.0  0.32428  0.98504  0.26225  1.0000
  H   H1350     1.0  0.23883  0.96733  0.08320  1.0000
  H   H1351     1.0  0.31988  0.74194  0.45711  1.0000
  H   H1352     1.0  0.41885  0.94297  0.15108  1.0000
  C   C1701     1.0  0.36646  0.68248  0.46179  1.0000
  P   P56       1.0  0.45302  0.95341  0.21139  1.0000
  C   C1702     1.0  0.26544  0.75398  0.28832  1.0000
  C   C1703     1.0  0.27196  0.96011  0.00355  1.0000
  H   H1353     1.0  0.27467  0.94490  0.14617  1.0000
  H   H1354     1.0  0.47159  0.83014  0.23797  1.0000
  C   C1704     1.0  0.47495  0.95155  0.19954  1.0000
  H   H1355     1.0  0.45977  0.98904  0.18359  1.0000
  C   C1705     1.0  0.41252  0.77260  0.44191  1.0000
  H   H1356     1.0  0.42140  0.85209  0.43763  1.0000
  S   S233      1.0  0.24635  0.93778  0.06508  1.0000
  H   H1357     1.0  0.45830  0.91804  0.23142  1.0000
  C   C1706     1.0  0.24265  0.69605  0.32661  1.0000
  S   S234      1.0  0.46977  0.86931  0.22183  1.0000
  C   C1707     1.0  0.43269  0.94784  0.17816  1.0000
  H   H1358     1.0  0.28136  0.89053  0.14546  1.0000
  H   H1359     1.0  0.44855  0.69078  0.37103  1.0000
  C   C1708     1.0  0.28522  0.78278  0.40825  1.0000
  C   C1709     1.0  0.36612  0.73810  0.46049  1.0000
  C   C1710     1.0  0.26795  0.90064  0.12090  1.0000
  C   C1711     1.0  0.41191  0.75916  0.45956  1.0000
  C   C1712     1.0  0.45560  0.96953  0.23006  1.0000
  H   H1360     1.0  0.23764  0.73635  0.33987  1.0000
  H   H1361     1.0  0.28141  0.94292  0.98307  1.0000
  H   H1362     1.0  0.34023  0.70247  0.41364  1.0000
  S   S235      1.0  0.45035  0.79101  0.40409  1.0000
  H   H1363     1.0  0.46220  0.83938  0.47020  1.0000
  C   C1713     1.0  0.28984  0.98415  0.05666  1.0000
  C   C1714     1.0  0.26433  0.93111  0.12101  1.0000
  H   H1364     1.0  0.43570  0.77574  0.27101  1.0000
  H   H1365     1.0  0.41034  0.76878  0.42623  1.0000
  C   C1715     1.0  0.43164  0.90119  0.24587  1.0000
  H   H1366     1.0  0.43903  0.86815  0.40153  1.0000
  H   H1367     1.0  0.30987  0.98417  0.18518  1.0000
  C   C1716     1.0  0.36869  0.77042  0.46052  1.0000
  C   C1717     1.0  0.36855  0.75322  0.47135  1.0000
  S   S236      1.0  0.47109  0.77408  0.36586  1.0000
  C   C1718     1.0  0.26477  0.71429  0.22685  1.0000
  C   C1719     1.0  0.35581  0.69240  0.38936  1.0000
  H   H1368     1.0  0.24881  0.81293  0.06564  1.0000
  H   H1369     1.0  0.41400  0.94279  0.22663  1.0000
  H   H1370     1.0  0.39145  0.81106  0.44773  1.0000
  S   S237      1.0  0.47591  0.82730  0.35574  1.0000
  C   C1720     1.0  0.42686  0.70346  0.36673  1.0000
  H   H1371     1.0  0.43150  0.86476  0.22528  1.0000
  C   C1721     1.0  0.27883  0.91776  0.14869  1.0000
  H   H1372     1.0  0.30960  0.94776  0.13390  1.0000
  C   C1722     1.0  0.44404  0.96078  0.18773  1.0000
  H   H1373     1.0  0.35769  0.93293  0.06315  1.0000
  H   H1374     1.0  0.38479  0.97765  0.02652  1.0000
  C   C1723     1.0  0.44827  0.73498  0.47575  1.0000
  P   P57       1.0  0.42432  0.81998  0.46750  1.0000
  H   H1375     1.0  0.37725  0.98749  0.25559  1.0000
  C   C1724     1.0  0.26957  0.80602  0.41344  1.0000
  C   C1725     1.0  0.33134  0.95899  0.22377  1.0000
  H   H1376     1.0  0.28939  0.72126  0.16672  1.0000
  C   C1726     1.0  0.44459  0.71854  0.46778  1.0000
  C   C1727     1.0  0.23812  0.67362  0.26940  1.0000
  C   C1728     1.0  0.24427  0.72597  0.33603  1.0000
  H   H1377     1.0  0.26329  0.94869  0.01554  1.0000
  H   H1378     1.0  0.28865  0.74819  0.18458  1.0000
  P   P58       1.0  0.35317  0.97074  0.06116  1.0000
  C   C1729     1.0  0.33712  0.97782  0.07941  1.0000
  C   C1730     1.0  0.34192  0.95076  0.05086  1.0000
  C   C1731     1.0  0.32818  0.95194  0.03854  1.0000
  C   C1732     1.0  0.45542  0.69937  0.41199  1.0000
  H   H1379     1.0  0.41687  0.80121  0.43038  1.0000
  C   C1733     1.0  0.33662  0.67338  0.42218  1.0000
  H   H1380     1.0  0.46328  0.86288  0.27925  1.0000
  C   C1734     1.0  0.31912  0.96695  0.08630  1.0000
  H   H1381     1.0  0.43516  0.71718  0.36665  1.0000
  C   C1735     1.0  0.28248  0.71932  0.18344  1.0000
  H   H1382     1.0  0.34091  0.96922  0.18959  1.0000
  H   H1383     1.0  0.25555  0.91430  0.09753  1.0000
  C   C1736     1.0  0.37049  0.96737  0.07685  1.0000
  C   C1737     1.0  0.27112  0.74039  0.47379  1.0000
  C   C1738     1.0  0.32827  0.70504  0.47200  1.0000
  C   C1739     1.0  0.40229  0.98173  0.20944  1.0000
  C   C1740     1.0  0.37979  0.94949  0.10603  1.0000
  C   C1741     1.0  0.36647  0.95240  0.09396  1.0000
  H   H1384     1.0  0.46543  0.85839  0.38486  1.0000
  C   C1742     1.0  0.26802  0.68612  0.27781  1.0000
  C   C1743     1.0  0.32660  0.96340  0.24427  1.0000
  H   H1385     1.0  0.45370  0.91359  0.29173  1.0000
  C   C1744     1.0  0.26775  0.66874  0.28838  1.0000
  Fe  Fe120     1.0  0.46952  0.78409  0.42558  1.0000
  H   H1386     1.0  0.47980  0.89136  0.17838  1.0000
  C   C1745     1.0  0.23862  0.68225  0.38637  1.0000
  C   C1746     1.0  0.41618  0.79099  0.44438  1.0000
  H   H1387     1.0  0.44222  0.74565  0.47002  1.0000
  H   H1388     1.0  0.31453  0.95374  0.08148  1.0000
  H   H1389     1.0  0.24170  0.78261  0.38433  1.0000
  C   C1747     1.0  0.26475  0.70256  0.39616  1.0000
  P   P59       1.0  0.37529  0.67940  0.35710  1.0000
  C   C1748     1.0  0.39710  0.96174  0.10154  1.0000
  H   H1390     1.0  0.46329  0.71174  0.40084  1.0000
  C   C1749     1.0  0.47622  0.81744  0.26872  1.0000
  C   C1750     1.0  0.27935  0.95312  0.21548  1.0000
  H   H1391     1.0  0.37666  0.93761  0.11885  1.0000
  H   H1392     1.0  0.35306  0.94283  0.09793  1.0000
  C   C1751     1.0  0.39138  0.84045  0.25749  1.0000
  C   C1752     1.0  0.38184  0.82220  0.25851  1.0000
  C   C1753     1.0  0.38637  0.80827  0.27150  1.0000
  C   C1754     1.0  0.40042  0.81258  0.28352  1.0000
  C   C1755     1.0  0.40962  0.83091  0.28327  1.0000
  C   C1756     1.0  0.40528  0.84481  0.26975  1.0000
  P   P60       1.0  0.42764  0.83617  0.29911  1.0000
  C   C1757     1.0  0.41982  0.82734  0.32799  1.0000
  C   C1758     1.0  0.44555  0.82709  0.28747  1.0000
  C   C1759     1.0  0.45470  0.81746  0.30064  1.0000
  C   C1760     1.0  0.43324  0.97146  0.14812  1.0000
  S   S238      1.0  0.46563  0.75595  0.41758  1.0000
  H   H1393     1.0  0.32733  0.67201  0.43726  1.0000
  C   C1761     1.0  0.45136  0.83094  0.26473  1.0000
  C   C1762     1.0  0.43196  0.83102  0.34270  1.0000
  C   C1763     1.0  0.42650  0.82363  0.36493  1.0000
  C   C1764     1.0  0.40868  0.81297  0.37281  1.0000
  C   C1765     1.0  0.39625  0.80993  0.35848  1.0000
  C   C1766     1.0  0.40173  0.81714  0.33619  1.0000
  C   C1767     1.0  0.43626  0.86069  0.29684  1.0000
  C   C1768     1.0  0.42492  0.87063  0.30581  1.0000
  C   C1769     1.0  0.43120  0.88965  0.30397  1.0000
  H   H1394     1.0  0.30293  0.94682  0.19985  1.0000
  C   C1770     1.0  0.45408  0.87004  0.28628  1.0000
  H   H1395     1.0  0.38793  0.85116  0.24715  1.0000
  H   H1396     1.0  0.37099  0.81889  0.24912  1.0000
  H   H1397     1.0  0.37891  0.79411  0.27239  1.0000
  H   H1398     1.0  0.40392  0.80163  0.29332  1.0000
  H   H1399     1.0  0.41265  0.85898  0.26841  1.0000
  H   H1400     1.0  0.45048  0.81395  0.31815  1.0000
  C   C1771     1.0  0.32378  0.92023  0.03442  1.0000
  H   H1401     1.0  0.25967  0.94239  0.11371  1.0000
  C   C1772     1.0  0.37211  0.67158  0.44752  1.0000
  H   H1402     1.0  0.44457  0.83843  0.25424  1.0000
  H   H1403     1.0  0.44586  0.83922  0.33688  1.0000
  H   H1404     1.0  0.43624  0.82593  0.37593  1.0000
  H   H1405     1.0  0.40453  0.80697  0.38995  1.0000
  H   H1406     1.0  0.38244  0.80159  0.36449  1.0000
  H   H1407     1.0  0.39178  0.81442  0.32556  1.0000
  H   H1408     1.0  0.41115  0.86366  0.31401  1.0000
  H   H1409     1.0  0.42230  0.89726  0.31067  1.0000
  H   H1410     1.0  0.30402  0.98893  0.04915  1.0000
  H   H1411     1.0  0.24121  0.73593  0.28247  1.0000
  P   P61       1.0  0.26163  0.77319  0.47299  1.0000
  C   C1773     1.0  0.44535  0.75646  0.31846  1.0000
  C   C1774     1.0  0.43528  0.76297  0.30383  1.0000
  C   C1775     1.0  0.23453  0.78418  0.07379  1.0000
  H   H1412     1.0  0.46756  0.77690  0.25826  1.0000
  H   H1413     1.0  0.43437  0.98129  0.22100  1.0000
  C   C1776     1.0  0.46362  0.75738  0.31145  1.0000
  C   C1777     1.0  0.46032  0.88903  0.28453  1.0000
  H   H1414     1.0  0.29208  0.72678  0.25510  1.0000
  C   C1778     1.0  0.26878  0.78261  0.44419  1.0000
  C   C1779     1.0  0.26044  0.94971  0.21814  1.0000
  H   H1415     1.0  0.43651  0.88946  0.25098  1.0000
  C   C1780     1.0  0.45700  0.87780  0.20372  1.0000
  H   H1416     1.0  0.42841  0.93346  0.18547  1.0000
  H   H1417     1.0  0.23581  0.93442  0.20914  1.0000
  H   H1418     1.0  0.40045  0.70833  0.47967  1.0000
  H   H1419     1.0  0.29384  0.77696  0.39786  1.0000
  C   C1781     1.0  0.45786  0.85155  0.40090  1.0000
  H   H1420     1.0  0.25849  0.68534  0.22515  1.0000
  H   H1421     1.0  0.37000  0.78175  0.46940  1.0000
  C   C1782     1.0  0.30658  0.97338  0.09909  1.0000
  H   H1422     1.0  0.28709  0.96273  0.22425  1.0000
  C   C1783     1.0  0.31919  0.93676  0.03033  1.0000
  H   H1423     1.0  0.40325  0.71235  0.36143  1.0000
  C   C1784     1.0  0.40288  0.82576  0.47206  1.0000
  C   C1785     1.0  0.26383  0.79822  0.43555  1.0000
  H   H1424     1.0  0.43898  0.75066  0.33524  1.0000
  H   H1425     1.0  0.42111  0.76223  0.30915  1.0000
  H   H1426     1.0  0.44973  0.69207  0.46898  1.0000
  H   H1427     1.0  0.29175  0.76963  0.29267  1.0000
  H   H1428     1.0  0.47111  0.75208  0.32297  1.0000
  C   C1786     1.0  0.33874  0.99106  0.20724  1.0000
  H   H1429     1.0  0.42917  0.97557  0.13280  1.0000
  H   H1430     1.0  0.40935  0.74501  0.45751  1.0000
  C   C1787     1.0  0.32770  0.98159  0.24630  1.0000
  H   H1431     1.0  0.36105  0.72922  0.42983  1.0000
  C   C1788     1.0  0.37216  0.96304  0.24146  1.0000
  S   S239      1.0  0.25317  0.86584  0.03341  1.0000
  H   H1432     1.0  0.40739  0.95923  0.11081  1.0000
  H   H1433     1.0  0.28401  0.76327  0.43633  1.0000
  H   H1434     1.0  0.39666  0.95696  0.19516  1.0000
  C   C1789     1.0  0.26322  0.98956  0.07666  1.0000
  C   C1790     1.0  0.46294  0.83712  0.41211  1.0000
  C   C1791     1.0  0.26195  0.91524  0.11181  1.0000
  C   C1792     1.0  0.33723  0.97275  0.20532  1.0000
  H   H1435     1.0  0.26629  0.88841  0.11352  1.0000
  C   C1793     1.0  0.28034  0.79832  0.39979  1.0000
  C   C1794     1.0  0.46782  0.96916  0.24475  1.0000
  C   C1795     1.0  0.38164  0.98096  0.24237  1.0000
  S   S240      1.0  0.24068  0.88376  0.07578  1.0000
  C   C1796     1.0  0.28832  0.94405  0.20161  1.0000
  H   H1436     1.0  0.28509  0.80448  0.38271  1.0000
  C   C1797     1.0  0.40099  0.97718  0.08524  1.0000
  C   C1798     1.0  0.41909  0.93126  0.23189  1.0000
  H   H1437     1.0  0.32175  0.91487  0.98440  1.0000
  H   H1438     1.0  0.47441  0.83286  0.40473  1.0000
  C   C1799     1.0  0.25049  0.93715  0.20700  1.0000
  P   P62       1.0  0.28996  0.91976  0.17224  1.0000
  C   C1800     1.0  0.28916  0.89736  0.18657  1.0000
  C   C1801     1.0  0.27770  0.88986  0.20681  1.0000
  C   C1802     1.0  0.27780  0.87278  0.21795  1.0000
  C   C1803     1.0  0.28923  0.86305  0.20894  1.0000
  C   C1804     1.0  0.30049  0.87033  0.18872  1.0000
  C   C1805     1.0  0.30057  0.88746  0.17768  1.0000
  H   H1439     1.0  0.43174  0.70919  0.41815  1.0000
  C   C1806     1.0  0.42759  0.68198  0.43637  1.0000
  C   C1807     1.0  0.31346  0.93281  0.16389  1.0000
  C   C1808     1.0  0.31907  0.94582  0.14459  1.0000
  C   C1809     1.0  0.33717  0.95635  0.13881  1.0000
  C   C1810     1.0  0.34984  0.95373  0.15201  1.0000
  C   C1811     1.0  0.34433  0.94092  0.17131  1.0000
  C   C1812     1.0  0.32620  0.93060  0.17734  1.0000
  H   H1440     1.0  0.26884  0.89716  0.21421  1.0000
  H   H1441     1.0  0.26915  0.86713  0.23369  1.0000
  H   H1442     1.0  0.28957  0.84996  0.21769  1.0000
  H   H1443     1.0  0.30954  0.86290  0.18181  1.0000
  H   H1444     1.0  0.30968  0.89306  0.16228  1.0000
  C   C1813     1.0  0.40876  0.70065  0.36370  1.0000
  H   H1445     1.0  0.26434  0.98052  0.02052  1.0000
  H   H1446     1.0  0.34147  0.96634  0.12392  1.0000
  H   H1447     1.0  0.36393  0.96153  0.14729  1.0000
  H   H1448     1.0  0.35407  0.93912  0.18177  1.0000
  H   H1449     1.0  0.32216  0.92092  0.19253  1.0000
  H   H1450     1.0  0.27916  0.66689  0.29594  1.0000
  H   H1451     1.0  0.46457  0.92476  0.19157  1.0000
  H   H1452     1.0  0.47747  0.80605  0.30162  1.0000
  C   C1814     1.0  0.25309  0.68878  0.26848  1.0000
  H   H1453     1.0  0.26594  0.81819  0.40692  1.0000
  H   H1454     1.0  0.23993  0.84164  0.98392  1.0000
  C   C1815     1.0  0.38921  0.81919  0.46011  1.0000
  H   H1455     1.0  0.27421  0.68990  0.18713  1.0000
  C   C1816     1.0  0.37264  0.69799  0.33789  1.0000
  C   C1817     1.0  0.35524  0.70049  0.33715  1.0000
  C   C1818     1.0  0.35306  0.71523  0.32303  1.0000
  C   C1819     1.0  0.36819  0.72744  0.30932  1.0000
  C   C1820     1.0  0.38544  0.72465  0.30930  1.0000
  C   C1821     1.0  0.38766  0.70983  0.32329  1.0000
  H   H1456     1.0  0.47874  0.85387  0.31769  1.0000
  C   C1822     1.0  0.43778  0.83300  0.44188  1.0000
  H   H1457     1.0  0.25348  0.95671  0.22894  1.0000
  C   C1823     1.0  0.37277  0.70165  0.45656  1.0000
  H   H1458     1.0  0.47245  0.69705  0.28751  1.0000
  C   C1824     1.0  0.39810  0.68297  0.36319  1.0000
  C   C1825     1.0  0.41458  0.76406  0.47980  1.0000
  H   H1459     1.0  0.27669  0.71412  0.47565  1.0000
  C   C1826     1.0  0.27948  0.77494  0.43030  1.0000
  C   C1827     1.0  0.25012  0.74081  0.38893  1.0000
  H   H1460     1.0  0.25154  0.91821  0.18476  1.0000
  Fe  Fe121     1.0  0.24917  0.91129  0.05354  1.0000
  C   C1828     1.0  0.47199  0.76480  0.28971  1.0000
  H   H1461     1.0  0.47159  0.72701  0.29680  1.0000
  H   H1462     1.0  0.36133  0.70583  0.37935  1.0000
  C   C1829     1.0  0.43759  0.69785  0.42173  1.0000
  C   C1830     1.0  0.26533  0.72930  0.26751  1.0000
  H   H1463     1.0  0.33965  0.71736  0.32286  1.0000
  H   H1464     1.0  0.36656  0.73917  0.29882  1.0000
  H   H1465     1.0  0.39710  0.73414  0.29856  1.0000
  H   H1466     1.0  0.40109  0.70778  0.32272  1.0000
  C   C1831     1.0  0.45033  0.97903  0.17697  1.0000
  C   C1832     1.0  0.28441  0.75852  0.28548  1.0000
  H   H1467     1.0  0.29249  0.96545  0.10333  1.0000
  H   H1468     1.0  0.38810  0.67145  0.41654  1.0000
  C   C1833     1.0  0.47006  0.81278  0.29126  1.0000
  C   C1834     1.0  0.27395  0.70166  0.19495  1.0000
  H   H1469     1.0  0.28422  0.98739  0.16678  1.0000
  C   C1835     1.0  0.41925  0.79609  0.46458  1.0000
  C   C1836     1.0  0.46168  0.77120  0.27512  1.0000
  C   C1837     1.0  0.43769  0.93241  0.22684  1.0000
  C   C1838     1.0  0.43296  0.84777  0.43073  1.0000
  H   H1470     1.0  0.24673  0.77988  0.07546  1.0000
  C   C1839     1.0  0.38393  0.67977  0.42787  1.0000
  C   C1840     1.0  0.24583  0.69669  0.39710  1.0000
  C   C1841     1.0  0.39252  0.96364  0.20835  1.0000
  C   C1842     1.0  0.44430  0.98125  0.23157  1.0000
  C   C1843     1.0  0.46307  0.68488  0.41656  1.0000
  C   C1844     1.0  0.37230  0.82282  0.46430  1.0000
  H   H1471     1.0  0.43562  0.71658  0.45593  1.0000
  C   C1845     1.0  0.44349  0.77047  0.28224  1.0000
  C   C1846     1.0  0.28445  0.73413  0.26452  1.0000
  H   H1472     1.0  0.30861  0.75199  0.27167  1.0000
  H   H1473     1.0  0.30844  0.93776  0.02111  1.0000
  S   S241      1.0  0.48376  0.68756  0.33418  1.0000
  H   H1474     1.0  0.33218  0.71262  0.45548  1.0000
  H   H1475     1.0  0.41421  0.68134  0.44473  1.0000
  C   C1847     1.0  0.23781  0.76092  0.47925  1.0000
  C   C1848     1.0  0.28243  0.95690  0.98524  1.0000
  C   C1849     1.0  0.37792  0.98819  0.02311  1.0000
  C   C1850     1.0  0.44889  0.89884  0.29333  1.0000
  H   H1476     1.0  0.47584  0.72178  0.33435  1.0000
  C   C1851     1.0  0.36364  0.74060  0.43855  1.0000
  Fe  Fe122     1.0  0.47490  0.80104  0.37758  1.0000
  C   C1852     1.0  0.28207  0.73448  0.19350  1.0000
  H   H1477     1.0  0.26354  0.76697  0.36863  1.0000
  H   H1478     1.0  0.31643  0.90826  0.02865  1.0000
  C   C1853     1.0  0.43512  0.66728  0.44088  1.0000
  H   H1479     1.0  0.34101  0.90610  0.04973  1.0000
  H   H1480     1.0  0.25961  0.73433  0.38121  1.0000
  C   C1854     1.0  0.48155  0.72647  0.28319  1.0000
  C   C1855     1.0  0.36223  0.98834  0.03728  1.0000
  C   C1856     1.0  0.31195  0.99046  0.10539  1.0000
  C   C1857     1.0  0.46931  0.98103  0.25999  1.0000
  H   H1481     1.0  0.47687  0.68599  0.40889  1.0000
  H   H1482     1.0  0.29995  0.69683  0.46924  1.0000
  C   C1858     1.0  0.25590  0.73934  0.27958  1.0000
  C   C1859     1.0  0.39676  0.99041  0.22652  1.0000
  H   H1483     1.0  0.29449  0.80225  0.47087  1.0000
  C   C1860     1.0  0.44485  0.98434  0.15727  1.0000
  H   H1484     1.0  0.47401  0.89612  0.27612  1.0000
  C   C1861     1.0  0.45248  0.70481  0.47517  1.0000
  P   P63       1.0  0.36509  0.71558  0.47493  1.0000
  P   P64       1.0  0.25328  0.71119  0.25470  1.0000
  C   C1862     1.0  0.23542  0.73083  0.40535  1.0000
  H   H1485     1.0  0.23919  0.67446  0.43695  1.0000
  H   H1486     1.0  0.40030  0.98630  0.16346  1.0000
  H   H1487     1.0  0.25572  0.80450  0.44600  1.0000
  C   C1863     1.0  0.36025  0.67701  0.38267  1.0000
  H   H1488     1.0  0.41432  0.98689  0.08200  1.0000
  H   H1489     1.0  0.27288  0.74392  0.22257  1.0000
  H   H1490     1.0  0.24376  0.66615  0.47459  1.0000
  C   C1864     1.0  0.23996  0.76823  0.39030  1.0000
  H   H1491     1.0  0.42921  0.65932  0.37300  1.0000
  H   H1492     1.0  0.35711  0.67595  0.47682  1.0000
  C   C1865     1.0  0.23574  0.80279  0.06812  1.0000
  H   H1493     1.0  0.23485  0.68320  0.32321  1.0000
  H   H1494     1.0  0.48147  0.73646  0.44658  1.0000
  H   H1495     1.0  0.47624  0.95974  0.24437  1.0000
  H   H1496     1.0  0.36159  0.81722  0.45555  1.0000
  C   C1866     1.0  0.47409  0.79496  0.47990  1.0000
  H   H1497     1.0  0.47898  0.98091  0.27101  1.0000
  C   C1867     1.0  0.48194  0.70939  0.27790  1.0000
  H   H1498     1.0  0.48411  0.70535  0.44340  1.0000
  C   C1868     1.0  0.35353  0.65995  0.39654  1.0000
  H   H1499     1.0  0.31726  0.94593  0.98010  1.0000
  Fe  Fe123     1.0  0.47861  0.65852  0.35097  1.0000
  H   H1500     1.0  0.26994  0.86793  0.98017  1.0000
  H   H1501     1.0  0.37572  0.99144  0.18935  1.0000
  C   C1869     1.0  0.30992  0.69601  0.47973  1.0000
  Fe  Fe124     1.0  0.33145  0.78305  0.52260  1.0000
  S   S242      1.0  0.34181  0.75825  0.52282  1.0000
  C   C1870     1.0  0.36885  0.99024  0.67962  1.0000
  Fe  Fe125     1.0  0.33168  0.78246  0.57183  1.0000
  S   S243      1.0  0.34209  0.75743  0.57494  1.0000
  S   S244      1.0  0.32454  0.79127  0.60443  1.0000
  Fe  Fe126     1.0  0.36080  0.77140  0.54357  1.0000
  S   S245      1.0  0.39007  0.77229  0.53352  1.0000
  Fe  Fe127     1.0  0.32194  0.74676  0.55395  1.0000
  S   S246      1.0  0.30709  0.71664  0.56000  1.0000
  S   S247      1.0  0.35197  0.79725  0.54161  1.0000
  S   S248      1.0  0.31000  0.77076  0.55272  1.0000
  S   S249      1.0  0.43465  0.76748  0.61026  1.0000
  Fe  Fe128     1.0  0.25000  0.89634  0.84773  1.0000
  S   S250      1.0  0.27672  0.89119  0.85180  1.0000
  C   C1871     1.0  0.26526  0.85041  0.75334  1.0000
  S   S251      1.0  0.25876  0.84856  0.84684  1.0000
  Fe  Fe129     1.0  0.26002  0.86527  0.87381  1.0000
  S   S252      1.0  0.26592  0.85419  0.90652  1.0000
  Fe  Fe130     1.0  0.27276  0.87516  0.82438  1.0000
  S   S253      1.0  0.29623  0.88383  0.79566  1.0000
  C   C1872     1.0  0.36881  0.92870  0.76073  1.0000
  Fe  Fe131     1.0  0.40359  0.86454  0.69632  1.0000
  S   S254      1.0  0.40095  0.88625  0.67002  1.0000
  S   S255      1.0  0.43071  0.85759  0.69300  1.0000
  Fe  Fe132     1.0  0.36350  0.85594  0.71683  1.0000
  S   S256      1.0  0.35777  0.87661  0.69180  1.0000
  S   S257      1.0  0.34138  0.83856  0.74435  1.0000
  Fe  Fe133     1.0  0.37486  0.86609  0.66725  1.0000
  S   S258      1.0  0.37026  0.86340  0.63259  1.0000
  Fe  Fe134     1.0  0.38421  0.89476  0.69674  1.0000
  S   S259      1.0  0.38471  0.92304  0.70382  1.0000
  S   S260      1.0  0.37851  0.84381  0.69188  1.0000
  S   S261      1.0  0.38892  0.87466  0.72338  1.0000
  C   C1873     1.0  0.40430  0.94118  0.69310  1.0000
  C   C1874     1.0  0.40696  0.95711  0.70235  1.0000
  C   C1875     1.0  0.43254  0.95499  0.66751  1.0000
  C   C1876     1.0  0.41707  0.94015  0.67556  1.0000
  H   H1502     1.0  0.39713  0.95784  0.71597  1.0000
  H   H1503     1.0  0.41502  0.92798  0.66819  1.0000
  C   C1877     1.0  0.30905  0.87076  0.78274  1.0000
  C   C1878     1.0  0.30526  0.85178  0.78881  1.0000
  C   C1879     1.0  0.31537  0.84195  0.77716  1.0000
  C   C1880     1.0  0.32945  0.85110  0.75961  1.0000
  C   C1881     1.0  0.33351  0.87013  0.75398  1.0000
  C   C1882     1.0  0.32332  0.87988  0.76546  1.0000
  H   H1504     1.0  0.29442  0.84469  0.80227  1.0000
  H   H1505     1.0  0.31221  0.82724  0.78166  1.0000
  H   H1506     1.0  0.34436  0.87737  0.74060  1.0000
  H   H1507     1.0  0.32649  0.89458  0.76083  1.0000
  C   C1883     1.0  0.26262  0.94730  0.84515  1.0000
  C   C1884     1.0  0.28023  0.95008  0.85039  1.0000
  H   H1508     1.0  0.35999  0.72724  0.51777  1.0000
  H   H1509     1.0  0.28476  0.93837  0.85634  1.0000
  C   C1885     1.0  0.26834  0.86195  0.94760  1.0000
  C   C1886     1.0  0.26662  0.86858  0.92624  1.0000
  C   C1887     1.0  0.25103  0.85517  0.76566  1.0000
  C   C1888     1.0  0.45449  0.86300  0.74709  1.0000
  C   C1889     1.0  0.44153  0.86184  0.73306  1.0000
  C   C1890     1.0  0.44660  0.86091  0.71104  1.0000
  C   C1891     1.0  0.46467  0.86136  0.70322  1.0000
  C   C1892     1.0  0.43555  0.97063  0.67738  1.0000
  H   H1510     1.0  0.42755  0.86112  0.73941  1.0000
  H   H1511     1.0  0.46858  0.85983  0.68651  1.0000
  H   H1512     1.0  0.45044  0.86320  0.76423  1.0000
  C   C1893     1.0  0.28435  0.71147  0.55602  1.0000
  C   C1894     1.0  0.27608  0.69414  0.55163  1.0000
  C   C1895     1.0  0.25839  0.69025  0.54679  1.0000
  C   C1896     1.0  0.24885  0.70358  0.54671  1.0000
  C   C1897     1.0  0.25688  0.72066  0.55180  1.0000
  C   C1898     1.0  0.27455  0.72455  0.55657  1.0000
  H   H1513     1.0  0.28348  0.68386  0.55156  1.0000
  H   H1514     1.0  0.25222  0.67703  0.54295  1.0000
  H   H1515     1.0  0.24949  0.73097  0.55189  1.0000
  H   H1516     1.0  0.28067  0.73779  0.56036  1.0000
  C   C1899     1.0  0.33788  0.81113  0.61204  1.0000
  C   C1900     1.0  0.35005  0.82513  0.59652  1.0000
  C   C1901     1.0  0.35971  0.84115  0.60302  1.0000
  C   C1902     1.0  0.35773  0.84309  0.62513  1.0000
  C   C1903     1.0  0.34573  0.82903  0.64067  1.0000
  C   C1904     1.0  0.33571  0.81318  0.63413  1.0000
  H   H1517     1.0  0.35173  0.82379  0.57946  1.0000
  H   H1518     1.0  0.36889  0.85204  0.59088  1.0000
  H   H1519     1.0  0.34399  0.83058  0.65764  1.0000
  H   H1520     1.0  0.32624  0.80247  0.64621  1.0000
  C   C1905     1.0  0.40229  0.77107  0.55502  1.0000
  C   C1906     1.0  0.42129  0.77539  0.55037  1.0000
  C   C1907     1.0  0.43132  0.77480  0.56738  1.0000
  C   C1908     1.0  0.42231  0.76917  0.58900  1.0000
  C   C1909     1.0  0.40330  0.76447  0.59365  1.0000
  C   C1910     1.0  0.39330  0.76569  0.57669  1.0000
  H   H1521     1.0  0.42831  0.77948  0.53365  1.0000
  H   H1522     1.0  0.44598  0.77841  0.56374  1.0000
  H   H1523     1.0  0.39629  0.75995  0.61034  1.0000
  H   H1524     1.0  0.37867  0.76224  0.58040  1.0000
  C   C1911     1.0  0.42703  0.81765  0.51180  1.0000
  C   C1912     1.0  0.31724  0.68562  0.51470  1.0000
  C   C1913     1.0  0.30437  0.68643  0.50115  1.0000
  H   H1525     1.0  0.29845  0.74726  0.52090  1.0000
  C   C1914     1.0  0.34131  0.70441  0.48556  1.0000
  H   H1526     1.0  0.45135  0.85079  0.65513  1.0000
  H   H1527     1.0  0.24080  0.70204  0.66451  1.0000
  H   H1528     1.0  0.29006  0.67992  0.50739  1.0000
  C   C1915     1.0  0.24098  0.80824  0.91839  1.0000
  H   H1529     1.0  0.30461  0.97849  0.79175  1.0000
  H   H1530     1.0  0.48027  0.71936  0.65307  1.0000
  H   H1531     1.0  0.27898  0.83207  0.52004  1.0000
  C   C1916     1.0  0.43608  0.82089  0.52940  1.0000
  H   H1532     1.0  0.30891  0.90947  0.92061  1.0000
  H   H1533     1.0  0.24766  0.81130  0.52761  1.0000
  C   C1917     1.0  0.29191  0.96816  0.84809  1.0000
  H   H1534     1.0  0.29880  0.91870  0.75487  1.0000
  C   C1918     1.0  0.47269  0.86394  0.73903  1.0000
  H   H1535     1.0  0.46230  0.75056  0.49724  1.0000
  H   H1536     1.0  0.43859  0.74014  0.57597  1.0000
  H   H1537     1.0  0.26382  0.83830  0.69363  1.0000
  H   H1538     1.0  0.35561  0.83553  0.48391  1.0000
  C   C1919     1.0  0.43221  0.81261  0.63558  1.0000
  P   P65       1.0  0.30639  0.96780  0.94523  1.0000
  C   C1920     1.0  0.34998  0.96858  0.85570  1.0000
  H   H1539     1.0  0.46156  0.83286  0.53921  1.0000
  C   C1921     1.0  0.30268  0.93313  0.79600  1.0000
  C   C1922     1.0  0.40018  0.72140  0.52936  1.0000
  C   C1923     1.0  0.23868  0.66504  0.61724  1.0000
  C   C1924     1.0  0.28821  0.72907  0.49949  1.0000
  H   H1540     1.0  0.47086  0.91227  0.60616  1.0000
  C   C1925     1.0  0.27348  0.73791  0.60895  1.0000
  H   H1541     1.0  0.29293  0.72215  0.60548  1.0000
  H   H1542     1.0  0.26951  0.84815  0.95164  1.0000
  C   C1926     1.0  0.48417  0.72795  0.60443  1.0000
  C   C1927     1.0  0.24298  0.84530  0.78653  1.0000
  C   C1928     1.0  0.33696  0.75067  0.63591  1.0000
  C   C1929     1.0  0.33818  0.73269  0.64032  1.0000
  C   C1930     1.0  0.35048  0.72848  0.65333  1.0000
  C   C1931     1.0  0.36183  0.74232  0.66158  1.0000
  C   C1932     1.0  0.36124  0.76055  0.65636  1.0000
  C   C1933     1.0  0.34828  0.76451  0.64409  1.0000
  P   P66       1.0  0.37584  0.77874  0.66651  1.0000
  C   C1934     1.0  0.36225  0.78304  0.68999  1.0000
  C   C1935     1.0  0.39612  0.77365  0.67400  1.0000
  C   C1936     1.0  0.40390  0.78136  0.69080  1.0000
  C   C1937     1.0  0.42018  0.77836  0.69584  1.0000
  C   C1938     1.0  0.42911  0.76811  0.68375  1.0000
  C   C1939     1.0  0.42165  0.76069  0.66676  1.0000
  C   C1940     1.0  0.40528  0.76353  0.66178  1.0000
  C   C1941     1.0  0.35356  0.79709  0.68789  1.0000
  C   C1942     1.0  0.34389  0.80103  0.70632  1.0000
  C   C1943     1.0  0.34252  0.79077  0.72691  1.0000
  C   C1944     1.0  0.35047  0.77622  0.72902  1.0000
  C   C1945     1.0  0.36019  0.77226  0.71060  1.0000
  C   C1946     1.0  0.38416  0.79881  0.64548  1.0000
  C   C1947     1.0  0.38489  0.79737  0.62328  1.0000
  C   C1948     1.0  0.39094  0.81307  0.60721  1.0000
  C   C1949     1.0  0.39661  0.83026  0.61316  1.0000
  C   C1950     1.0  0.39659  0.83173  0.63514  1.0000
  C   C1951     1.0  0.39059  0.81605  0.65122  1.0000
  H   H1543     1.0  0.32737  0.75404  0.62594  1.0000
  H   H1544     1.0  0.32955  0.72205  0.63367  1.0000
  H   H1545     1.0  0.35127  0.71450  0.65696  1.0000
  H   H1546     1.0  0.37107  0.73877  0.67188  1.0000
  H   H1547     1.0  0.34712  0.77838  0.64046  1.0000
  H   H1548     1.0  0.39766  0.79005  0.69974  1.0000
  H   H1549     1.0  0.42604  0.78427  0.70887  1.0000
  H   H1550     1.0  0.44201  0.76626  0.68720  1.0000
  H   H1551     1.0  0.42886  0.75323  0.65690  1.0000
  H   H1552     1.0  0.40023  0.75839  0.64788  1.0000
  H   H1553     1.0  0.35454  0.80522  0.67211  1.0000
  H   H1554     1.0  0.33777  0.81232  0.70476  1.0000
  H   H1555     1.0  0.33539  0.79423  0.74119  1.0000
  H   H1556     1.0  0.34929  0.76819  0.74499  1.0000
  H   H1557     1.0  0.36637  0.76102  0.71248  1.0000
  H   H1558     1.0  0.38068  0.78422  0.61823  1.0000
  H   H1559     1.0  0.39095  0.81189  0.59017  1.0000
  H   H1560     1.0  0.40074  0.84245  0.60076  1.0000
  H   H1561     1.0  0.40094  0.84507  0.63980  1.0000
  H   H1562     1.0  0.39090  0.81742  0.66813  1.0000
  C   C1952     1.0  0.31312  0.83864  0.70069  1.0000
  C   C1953     1.0  0.30467  0.82867  0.68602  1.0000
  C   C1954     1.0  0.28686  0.82854  0.68367  1.0000
  C   C1955     1.0  0.27753  0.83849  0.69585  1.0000
  C   C1956     1.0  0.28605  0.84874  0.71041  1.0000
  C   C1957     1.0  0.30380  0.84847  0.71299  1.0000
  P   P67       1.0  0.27458  0.86231  0.72567  1.0000
  C   C1958     1.0  0.28854  0.81852  0.49477  1.0000
  C   C1959     1.0  0.29051  0.88417  0.72532  1.0000
  C   C1960     1.0  0.30474  0.89183  0.70743  1.0000
  C   C1961     1.0  0.31672  0.90900  0.70673  1.0000
  C   C1962     1.0  0.31441  0.91882  0.72365  1.0000
  C   C1963     1.0  0.30032  0.91133  0.74145  1.0000
  C   C1964     1.0  0.28842  0.89407  0.74233  1.0000
  H   H1563     1.0  0.35700  0.98006  0.75476  1.0000
  C   C1965     1.0  0.37277  0.72364  0.51555  1.0000
  C   C1966     1.0  0.28316  0.75904  0.49954  1.0000
  H   H1564     1.0  0.37912  0.73108  0.54614  1.0000
  H   H1565     1.0  0.46287  0.94654  0.78185  1.0000
  C   C1967     1.0  0.45462  0.83423  0.48656  1.0000
  C   C1968     1.0  0.25438  0.80908  0.90059  1.0000
  C   C1969     1.0  0.25607  0.86640  0.71262  1.0000
  C   C1970     1.0  0.48324  0.89508  0.66251  1.0000
  C   C1971     1.0  0.27340  0.75673  0.48225  1.0000
  H   H1566     1.0  0.29397  0.71853  0.50633  1.0000
  H   H1567     1.0  0.32696  0.83893  0.70250  1.0000
  H   H1568     1.0  0.31194  0.82113  0.67640  1.0000
  H   H1569     1.0  0.28037  0.82085  0.67221  1.0000
  C   C1972     1.0  0.29615  0.98718  0.91021  1.0000
  H   H1570     1.0  0.31059  0.85611  0.72428  1.0000
  H   H1571     1.0  0.30662  0.88461  0.69394  1.0000
  H   H1572     1.0  0.32788  0.91464  0.69312  1.0000
  H   H1573     1.0  0.32363  0.93216  0.72302  1.0000
  H   H1574     1.0  0.46246  0.95137  0.72198  1.0000
  C   C1973     1.0  0.43421  0.66629  0.51709  1.0000
  H   H1575     1.0  0.35983  0.97877  0.86154  1.0000
  H   H1576     1.0  0.37700  0.92141  0.75198  1.0000
  C   C1974     1.0  0.31046  0.95199  0.79444  1.0000
  C   C1975     1.0  0.23904  0.85335  0.71736  1.0000
  H   H1577     1.0  0.26009  0.80753  0.86643  1.0000
  C   C1976     1.0  0.28482  0.98931  0.89497  1.0000
  H   H1578     1.0  0.27151  0.89270  0.69340  1.0000
  C   C1977     1.0  0.27855  0.72665  0.48231  1.0000
  C   C1978     1.0  0.47774  0.86331  0.71698  1.0000
  H   H1579     1.0  0.30541  0.97020  0.85208  1.0000
  C   C1979     1.0  0.30824  0.93507  0.93100  1.0000
  H   H1580     1.0  0.23970  0.78584  0.50727  1.0000
  C   C1980     1.0  0.45235  0.84915  0.62082  1.0000
  C   C1981     1.0  0.45655  0.90604  0.60652  1.0000
  S   S262      1.0  0.45583  0.98834  0.66855  1.0000
  C   C1982     1.0  0.34891  0.97051  0.83344  1.0000
  C   C1983     1.0  0.25696  0.96273  0.83781  1.0000
  C   C1984     1.0  0.26866  0.98048  0.83488  1.0000
  C   C1985     1.0  0.27868  0.72164  0.60982  1.0000
  S   S263      1.0  0.48284  0.77848  0.62356  1.0000
  C   C1986     1.0  0.47288  0.71011  0.60661  1.0000
  H   H1581     1.0  0.44244  0.95413  0.65401  1.0000
  C   C1987     1.0  0.42397  0.90069  0.76901  1.0000
  C   C1988     1.0  0.43098  0.93966  0.76477  1.0000
  C   C1989     1.0  0.42646  0.94031  0.78708  1.0000
  C   C1990     1.0  0.41856  0.95378  0.79365  1.0000
  C   C1991     1.0  0.41470  0.96640  0.77801  1.0000
  C   C1992     1.0  0.41865  0.96549  0.75588  1.0000
  C   C1993     1.0  0.42674  0.95219  0.74925  1.0000
  C   C1994     1.0  0.40602  0.89819  0.76530  1.0000
  C   C1995     1.0  0.39262  0.88211  0.77501  1.0000
  C   C1996     1.0  0.39711  0.86829  0.78819  1.0000
  C   C1997     1.0  0.41497  0.87065  0.79195  1.0000
  C   C1998     1.0  0.42836  0.88686  0.78253  1.0000
  C   C1999     1.0  0.44550  0.92354  0.72738  1.0000
  C   C2000     1.0  0.45569  0.92559  0.68222  1.0000
  C   C2001     1.0  0.44389  0.90957  0.69481  1.0000
  C   C2002     1.0  0.43885  0.90849  0.71732  1.0000
  H   H1582     1.0  0.42912  0.93041  0.79936  1.0000
  H   H1583     1.0  0.41532  0.95436  0.81084  1.0000
  H   H1584     1.0  0.44963  0.93176  0.60500  1.0000
  C   C2003     1.0  0.46837  0.72435  0.49794  1.0000
  H   H1585     1.0  0.40247  0.90860  0.75461  1.0000
  H   H1586     1.0  0.37879  0.88020  0.77194  1.0000
  H   H1587     1.0  0.38675  0.85570  0.79537  1.0000
  H   H1588     1.0  0.41847  0.85989  0.80210  1.0000
  H   H1589     1.0  0.45938  0.92647  0.66476  1.0000
  H   H1590     1.0  0.43863  0.89793  0.68716  1.0000
  H   H1591     1.0  0.42996  0.89582  0.72673  1.0000
  C   C2004     1.0  0.46370  0.81275  0.69229  1.0000
  C   C2005     1.0  0.45236  0.81707  0.70889  1.0000
  C   C2006     1.0  0.45586  0.81507  0.73024  1.0000
  C   C2007     1.0  0.46561  0.72154  0.54343  1.0000
  C   C2008     1.0  0.24406  0.88554  0.68762  1.0000
  H   H1592     1.0  0.41795  0.67707  0.53983  1.0000
  C   C2009     1.0  0.48279  0.80543  0.71806  1.0000
  H   H1593     1.0  0.33249  0.97966  0.90438  1.0000
  H   H1594     1.0  0.46324  0.74913  0.54390  1.0000
  C   C2010     1.0  0.26954  0.97509  0.89449  1.0000
  H   H1595     1.0  0.42469  0.98388  0.70213  1.0000
  H   H1596     1.0  0.26855  0.81506  0.79047  1.0000
  C   C2011     1.0  0.41838  0.78242  0.48225  1.0000
  C   C2012     1.0  0.47900  0.76266  0.73118  1.0000
  H   H1597     1.0  0.25881  0.93309  0.79356  1.0000
  H   H1598     1.0  0.28523  0.77137  0.50661  1.0000
  H   H1599     1.0  0.25373  0.94768  0.90879  1.0000
  C   C2013     1.0  0.33856  0.98644  0.91675  1.0000
  C   C2014     1.0  0.26551  0.95874  0.90932  1.0000
  C   C2015     1.0  0.44390  0.69803  0.57073  1.0000
  C   C2016     1.0  0.29055  0.74526  0.50798  1.0000
  H   H1600     1.0  0.31728  0.89649  0.95484  1.0000
  C   C2017     1.0  0.46240  0.94060  0.69212  1.0000
  H   H1601     1.0  0.46136  0.81457  0.67559  1.0000
  H   H1602     1.0  0.44106  0.82230  0.70517  1.0000
  H   H1603     1.0  0.44723  0.81876  0.74303  1.0000
  C   C2018     1.0  0.31812  0.92058  0.96944  1.0000
  H   H1604     1.0  0.33004  0.99009  0.97057  1.0000
  H   H1605     1.0  0.37038  0.75203  0.48819  1.0000
  C   C2019     1.0  0.43138  0.87924  0.60870  1.0000
  S   S264      1.0  0.24662  0.92531  0.84762  1.0000
  H   H1606     1.0  0.46090  0.73547  0.73615  1.0000
  H   H1607     1.0  0.46799  0.76891  0.73446  1.0000
  C   C2020     1.0  0.45836  0.70308  0.55310  1.0000
  C   C2021     1.0  0.33586  0.95766  0.82573  1.0000
  S   S265      1.0  0.48265  0.77539  0.57169  1.0000
  H   H1608     1.0  0.47319  0.80750  0.75160  1.0000
  S   S266      1.0  0.24633  0.88129  0.81914  1.0000
  C   C2022     1.0  0.30981  0.94518  0.94813  1.0000
  C   C2023     1.0  0.27329  0.93841  0.79316  1.0000
  H   H1609     1.0  0.23689  0.84075  0.72876  1.0000
  S   S267      1.0  0.32736  0.79738  0.49018  1.0000
  C   C2024     1.0  0.42259  0.97177  0.69462  1.0000
  H   H1610     1.0  0.26475  0.91150  0.93289  1.0000
  H   H1611     1.0  0.45760  0.88586  0.65207  1.0000
  C   C2025     1.0  0.26530  0.88647  0.92100  1.0000
  C   C2026     1.0  0.26572  0.89766  0.93707  1.0000
  C   C2027     1.0  0.33567  0.69432  0.50688  1.0000
  H   H1612     1.0  0.26399  0.89171  0.90456  1.0000
  H   H1613     1.0  0.42895  0.81542  0.54598  1.0000
  P   P68       1.0  0.48227  0.72771  0.51879  1.0000
  Fe  Fe135     1.0  0.46447  0.78109  0.59930  1.0000
  C   C2028     1.0  0.46411  0.70756  0.49046  1.0000
  H   H1614     1.0  0.39378  0.66024  0.48539  1.0000
  H   H1615     1.0  0.27781  0.88847  0.75648  1.0000
  C   C2029     1.0  0.38352  0.72567  0.53183  1.0000
  C   C2030     1.0  0.40501  0.66157  0.49429  1.0000
  C   C2031     1.0  0.31537  0.93807  0.96706  1.0000
  C   C2032     1.0  0.39965  0.83691  0.48742  1.0000
  H   H1616     1.0  0.45838  0.70747  0.61179  1.0000
  C   C2033     1.0  0.41863  0.67129  0.52496  1.0000
  H   H1617     1.0  0.24607  0.86646  0.75912  1.0000
  H   H1618     1.0  0.34533  0.69326  0.51766  1.0000
  P   P69       1.0  0.44075  0.92185  0.75669  1.0000
  H   H1619     1.0  0.46964  0.69653  0.49647  1.0000
  C   C2034     1.0  0.32554  0.94060  0.86278  1.0000
  C   C2035     1.0  0.37867  0.71742  0.49648  1.0000
  H   H1620     1.0  0.26092  0.97672  0.88248  1.0000
  H   H1621     1.0  0.42948  0.95166  0.73204  1.0000
  P   P70       1.0  0.46525  0.87267  0.61097  1.0000
  C   C2036     1.0  0.44459  0.91711  0.60586  1.0000
  H   H1622     1.0  0.38858  0.98490  0.72463  1.0000
  S   S268      1.0  0.46545  0.67375  0.60370  1.0000
  C   C2037     1.0  0.43703  0.82412  0.65059  1.0000
  C   C2038     1.0  0.48020  0.69580  0.60168  1.0000
  H   H1623     1.0  0.31640  0.92902  0.87411  1.0000
  C   C2039     1.0  0.27542  0.82108  0.51082  1.0000
  H   H1624     1.0  0.26995  0.69238  0.61579  1.0000
  C   C2040     1.0  0.43676  0.71138  0.57893  1.0000
  H   H1625     1.0  0.24514  0.81069  0.93378  1.0000
  H   H1626     1.0  0.47018  0.89431  0.56674  1.0000
  C   C2041     1.0  0.43520  0.65887  0.49792  1.0000
  H   H1627     1.0  0.33908  0.95217  0.88762  1.0000
  H   H1628     1.0  0.42589  0.70753  0.59296  1.0000
  H   H1629     1.0  0.43286  0.81899  0.66792  1.0000
  C   C2042     1.0  0.35430  0.93297  0.75212  1.0000
  C   C2043     1.0  0.28417  0.92642  0.79544  1.0000
  C   C2044     1.0  0.46357  0.83759  0.50422  1.0000
  C   C2045     1.0  0.43667  0.81948  0.61326  1.0000
  C   C2046     1.0  0.47815  0.88453  0.56606  1.0000
  C   C2047     1.0  0.46988  0.93661  0.77743  1.0000
  H   H1630     1.0  0.30459  0.94047  0.91591  1.0000
  H   H1631     1.0  0.43860  0.68380  0.57843  1.0000
  H   H1632     1.0  0.41553  0.97523  0.74381  1.0000
  C   C2048     1.0  0.32881  0.98354  0.93807  1.0000
  H   H1633     1.0  0.28373  0.75098  0.60418  1.0000
  H   H1634     1.0  0.41010  0.84276  0.49635  1.0000
  H   H1635     1.0  0.30233  0.82733  0.49167  1.0000
  P   P71       1.0  0.33406  0.96040  0.79706  1.0000
  C   C2049     1.0  0.40605  0.71491  0.51065  1.0000
  H   H1636     1.0  0.27816  0.91185  0.79722  1.0000
  H   H1637     1.0  0.35146  0.92888  0.73676  1.0000
  H   H1638     1.0  0.32486  0.75935  0.48703  1.0000
  H   H1639     1.0  0.44204  0.88841  0.78581  1.0000
  C   C2050     1.0  0.44397  0.72978  0.56940  1.0000
  C   C2051     1.0  0.26850  0.87307  0.96376  1.0000
  C   C2052     1.0  0.28093  0.95720  0.79135  1.0000
  C   C2053     1.0  0.40404  0.66896  0.51355  1.0000
  C   C2054     1.0  0.47211  0.88734  0.64840  1.0000
  C   C2055     1.0  0.45437  0.83078  0.52562  1.0000
  C   C2056     1.0  0.24961  0.80635  0.88033  1.0000
  H   H1640     1.0  0.28263  0.83204  0.75358  1.0000
  C   C2057     1.0  0.27149  0.83584  0.76244  1.0000
  C   C2058     1.0  0.29371  0.97164  0.96971  1.0000
  C   C2059     1.0  0.25851  0.88248  0.69753  1.0000
  C   C2060     1.0  0.28617  0.98351  0.84011  1.0000
  C   C2061     1.0  0.44644  0.83776  0.60587  1.0000
  H   H1641     1.0  0.23954  0.74801  0.51158  1.0000
  C   C2062     1.0  0.26719  0.89096  0.95851  1.0000
  C   C2063     1.0  0.45732  0.93957  0.71459  1.0000
  H   H1642     1.0  0.24072  0.68677  0.50146  1.0000
  C   C2064     1.0  0.41947  0.89034  0.60794  1.0000
  H   H1643     1.0  0.26858  0.81254  0.90234  1.0000
  H   H1644     1.0  0.35820  0.98211  0.82233  1.0000
  H   H1645     1.0  0.41903  0.71169  0.50880  1.0000
  C   C2065     1.0  0.47252  0.91125  0.75901  1.0000
  H   H1646     1.0  0.42482  0.79842  0.64113  1.0000
  H   H1647     1.0  0.44567  0.66827  0.52569  1.0000
  H   H1648     1.0  0.36635  0.96717  0.70482  1.0000
  H   H1649     1.0  0.47121  0.95322  0.68236  1.0000
  H   H1650     1.0  0.43263  0.81053  0.60170  1.0000
  H   H1651     1.0  0.41285  0.80987  0.51507  1.0000
  C   C2066     1.0  0.33828  0.95365  0.87037  1.0000
  H   H1652     1.0  0.24600  0.89802  0.67610  1.0000
  C   C2067     1.0  0.35286  0.98987  0.76376  1.0000
  H   H1653     1.0  0.46729  0.90112  0.74926  1.0000
  C   C2068     1.0  0.47085  0.80901  0.73491  1.0000
  C   C2069     1.0  0.44998  0.88698  0.60815  1.0000
  C   C2070     1.0  0.24922  0.83080  0.79543  1.0000
  H   H1654     1.0  0.40866  0.72344  0.54180  1.0000
  C   C2071     1.0  0.34746  0.94762  0.78315  1.0000
  C   C2072     1.0  0.32438  0.94254  0.84056  1.0000
  C   C2073     1.0  0.25334  0.79488  0.50353  1.0000
  C   C2074     1.0  0.45819  0.73485  0.55150  1.0000
  H   H1655     1.0  0.44966  0.84284  0.58846  1.0000
  C   C2075     1.0  0.31099  0.91758  0.93343  1.0000
  C   C2076     1.0  0.24699  0.70400  0.62039  1.0000
  H   H1656     1.0  0.45518  0.77813  0.50785  1.0000
  C   C2077     1.0  0.26554  0.70475  0.61553  1.0000
  C   C2078     1.0  0.29937  0.96397  0.79223  1.0000
  H   H1657     1.0  0.42596  0.86464  0.61010  1.0000
  H   H1658     1.0  0.41667  0.91773  0.60652  1.0000
  C   C2079     1.0  0.36216  0.94334  0.79165  1.0000
  H   H1659     1.0  0.24302  0.82332  0.81171  1.0000
  H   H1660     1.0  0.31431  0.93230  0.83514  1.0000
  H   H1661     1.0  0.40506  0.88425  0.60872  1.0000
  C   C2080     1.0  0.42603  0.90924  0.60667  1.0000
  H   H1662     1.0  0.25109  0.74995  0.61286  1.0000
  H   H1663     1.0  0.27317  0.94403  0.93651  1.0000
  H   H1664     1.0  0.24348  0.96093  0.83377  1.0000
  C   C2081     1.0  0.47647  0.79772  0.51765  1.0000
  H   H1665     1.0  0.33238  0.94559  0.75642  1.0000
  H   H1666     1.0  0.47115  0.79322  0.53484  1.0000
  C   C2082     1.0  0.44731  0.84226  0.64327  1.0000
  C   C2083     1.0  0.23717  0.66268  0.59569  1.0000
  H   H1667     1.0  0.41404  0.75377  0.49365  1.0000
  C   C2084     1.0  0.29235  0.97066  0.92492  1.0000
  H   H1668     1.0  0.38392  0.93035  0.78717  1.0000
  C   C2085     1.0  0.28407  0.80423  0.48302  1.0000
  C   C2086     1.0  0.27670  0.95662  0.92473  1.0000
  C   C2087     1.0  0.25780  0.80933  0.51511  1.0000
  H   H1669     1.0  0.36551  0.94735  0.80683  1.0000
  H   H1670     1.0  0.31078  0.92350  0.79815  1.0000
  C   C2088     1.0  0.47493  0.74368  0.73216  1.0000
  C   C2089     1.0  0.37270  0.93380  0.78052  1.0000
  H   H1671     1.0  0.31290  0.67853  0.53147  1.0000
  H   H1672     1.0  0.27239  0.96647  0.79027  1.0000
  C   C2090     1.0  0.46241  0.92320  0.76544  1.0000
  H   H1673     1.0  0.46385  0.69259  0.54705  1.0000
  H   H1674     1.0  0.40852  0.97684  0.78294  1.0000
  H   H1675     1.0  0.42092  0.78578  0.49788  1.0000
  C   C2091     1.0  0.34358  0.94233  0.76329  1.0000
  C   C2092     1.0  0.46740  0.78925  0.50229  1.0000
  C   C2093     1.0  0.26349  0.82610  0.78342  1.0000
  C   C2094     1.0  0.31572  0.91026  0.95274  1.0000
  C   C2095     1.0  0.34213  0.98432  0.78470  1.0000
  C   C2096     1.0  0.25507  0.73729  0.61381  1.0000
  H   H1676     1.0  0.47732  0.89924  0.67702  1.0000
  S   S269      1.0  0.47508  0.81147  0.58986  1.0000
  C   C2097     1.0  0.47872  0.80681  0.69687  1.0000
  C   C2098     1.0  0.24187  0.72042  0.61962  1.0000
  C   C2099     1.0  0.43625  0.82417  0.49018  1.0000
  S   S270      1.0  0.26788  0.90551  0.97805  1.0000
  H   H1677     1.0  0.47784  0.84499  0.50134  1.0000
  H   H1678     1.0  0.39203  0.67297  0.51961  1.0000
  C   C2100     1.0  0.47883  0.87288  0.58504  1.0000
  C   C2101     1.0  0.45993  0.73782  0.49095  1.0000
  H   H1679     1.0  0.47831  0.73896  0.60780  1.0000
  C   C2102     1.0  0.47961  0.88130  0.62998  1.0000
  C   C2103     1.0  0.23879  0.69045  0.48485  1.0000
  C   C2104     1.0  0.26654  0.79218  0.48749  1.0000
  C   C2105     1.0  0.36894  0.83323  0.48026  1.0000
  C   C2106     1.0  0.37276  0.98160  0.69877  1.0000
  C   C2107     1.0  0.38268  0.84045  0.49165  1.0000
  C   C2108     1.0  0.29387  0.98960  0.97241  1.0000
  C   C2109     1.0  0.39541  0.71299  0.49421  1.0000
  H   H1680     1.0  0.35931  0.98248  0.67085  1.0000
  C   C2110     1.0  0.38534  0.99149  0.70985  1.0000
  H   H1681     1.0  0.38006  0.84857  0.50399  1.0000
  Fe  Fe136     1.0  0.54890  0.28640  0.35189  1.0000
  S   S271      1.0  0.55230  0.25890  0.34587  1.0000
  S   S272      1.0  0.56227  0.31110  0.32604  1.0000
  S   S273      1.0  0.56378  0.29780  0.37755  1.0000
  Fe  Fe137     1.0  0.61318  0.02560  0.21489  1.0000
  S   S274      1.0  0.60614  0.02931  0.18133  1.0000
  C   C2111     1.0  0.51252  0.28980  0.21499  1.0000
  Fe  Fe138     1.0  0.63195  0.06612  0.21199  1.0000
  S   S275      1.0  0.62679  0.07262  0.17771  1.0000
  S   S276      1.0  0.64407  0.09181  0.22524  1.0000
  Fe  Fe139     1.0  0.59874  0.05416  0.19056  1.0000
  S   S277      1.0  0.57588  0.06607  0.18263  1.0000
  Fe  Fe140     1.0  0.63480  0.04730  0.17175  1.0000
  S   S278      1.0  0.65077  0.04214  0.14136  1.0000
  S   S279      1.0  0.60335  0.04899  0.22515  1.0000
  S   S280      1.0  0.64237  0.04214  0.20489  1.0000
  C   C2112     1.0  0.48847  0.11380  0.27011  1.0000
  S   S281      1.0  0.49451  0.01915  0.18860  1.0000
  C   C2113     1.0  0.52462  0.09969  0.15983  1.0000
  C   C2114     1.0  0.67786  0.15639  0.46305  1.0000
  Fe  Fe141     1.0  0.67166  0.11915  0.33386  1.0000
  S   S282      1.0  0.65863  0.14182  0.32554  1.0000
  S   S283      1.0  0.67725  0.09890  0.31221  1.0000
  Fe  Fe142     1.0  0.67678  0.12904  0.37928  1.0000
  S   S284      1.0  0.66395  0.15210  0.37397  1.0000
  S   S285      1.0  0.68748  0.12199  0.41041  1.0000
  Fe  Fe143     1.0  0.64350  0.13282  0.36017  1.0000
  S   S286      1.0  0.61409  0.12782  0.37466  1.0000
  Fe  Fe144     1.0  0.68075  0.15895  0.34033  1.0000
  S   S287      1.0  0.69753  0.18767  0.32385  1.0000
  S   S288      1.0  0.65511  0.10904  0.36759  1.0000
  S   S289      1.0  0.69467  0.13677  0.34639  1.0000
  C   C2115     1.0  0.50369  0.14418  0.42698  1.0000
  Fe  Fe145     1.0  0.53435  0.14751  0.33137  1.0000
  S   S290      1.0  0.51938  0.11845  0.34552  1.0000
  S   S291      1.0  0.56374  0.15676  0.31516  1.0000
  S   S292      1.0  0.51263  0.15267  0.31271  1.0000
  S   S293      1.0  0.52484  0.15851  0.36089  1.0000
  C   C2116     1.0  0.60048  0.13610  0.35787  1.0000
  C   C2117     1.0  0.60797  0.15079  0.34063  1.0000
  C   C2118     1.0  0.59658  0.15727  0.32772  1.0000
  C   C2119     1.0  0.57783  0.14885  0.33170  1.0000
  C   C2120     1.0  0.57043  0.13424  0.34901  1.0000
  C   C2121     1.0  0.58173  0.12789  0.36207  1.0000
  H   H1682     1.0  0.62244  0.15730  0.33749  1.0000
  H   H1683     1.0  0.60226  0.16899  0.31491  1.0000
  H   H1684     1.0  0.55599  0.12779  0.35239  1.0000
  H   H1685     1.0  0.57592  0.11654  0.37543  1.0000
  C   C2122     1.0  0.67690  0.16240  0.44131  1.0000
  C   C2123     1.0  0.68026  0.15207  0.42526  1.0000
  C   C2124     1.0  0.68444  0.13550  0.43066  1.0000
  C   C2125     1.0  0.68608  0.12972  0.45235  1.0000
  H   H1686     1.0  0.67341  0.17508  0.43685  1.0000
  H   H1687     1.0  0.67979  0.15708  0.40866  1.0000
  H   H1688     1.0  0.68947  0.11698  0.45667  1.0000
  C   C2126     1.0  0.65252  0.09293  0.24998  1.0000
  C   C2127     1.0  0.65365  0.10883  0.25922  1.0000
  C   C2128     1.0  0.66073  0.11058  0.27860  1.0000
  C   C2129     1.0  0.66733  0.09669  0.28852  1.0000
  C   C2130     1.0  0.66659  0.08094  0.27899  1.0000
  C   C2131     1.0  0.65893  0.07892  0.25997  1.0000
  H   H1689     1.0  0.64882  0.11975  0.25147  1.0000
  H   H1690     1.0  0.66135  0.12280  0.28569  1.0000
  H   H1691     1.0  0.67179  0.07020  0.28650  1.0000
  H   H1692     1.0  0.65833  0.06673  0.25280  1.0000
  C   C2132     1.0  0.55338  0.05240  0.18552  1.0000
  C   C2133     1.0  0.54917  0.03334  0.18746  1.0000
  C   C2134     1.0  0.53108  0.02320  0.18829  1.0000
  C   C2135     1.0  0.51712  0.03199  0.18771  1.0000
  C   C2136     1.0  0.52140  0.05098  0.18605  1.0000
  C   C2137     1.0  0.53948  0.06112  0.18470  1.0000
  H   H1693     1.0  0.55985  0.02649  0.18794  1.0000
  H   H1694     1.0  0.52793  0.00853  0.18951  1.0000
  H   H1695     1.0  0.51080  0.05790  0.18570  1.0000
  H   H1696     1.0  0.54275  0.07584  0.18312  1.0000
  C   C2138     1.0  0.67247  0.05685  0.12996  1.0000
  C   C2139     1.0  0.68292  0.05236  0.11246  1.0000
  C   C2140     1.0  0.70051  0.06353  0.10342  1.0000
  C   C2141     1.0  0.70758  0.07948  0.11154  1.0000
  C   C2142     1.0  0.69691  0.08417  0.12869  1.0000
  C   C2143     1.0  0.67951  0.07278  0.13808  1.0000
  H   H1697     1.0  0.67751  0.04005  0.10611  1.0000
  H   H1698     1.0  0.70859  0.05977  0.09023  1.0000
  H   H1699     1.0  0.70207  0.09669  0.13469  1.0000
  H   H1700     1.0  0.67146  0.07643  0.15140  1.0000
  C   C2144     1.0  0.53465  0.23920  0.34588  1.0000
  C   C2145     1.0  0.53952  0.22381  0.34013  1.0000
  C   C2146     1.0  0.52622  0.20774  0.33950  1.0000
  H   H1701     1.0  0.55369  0.22437  0.33615  1.0000
  H   H1702     1.0  0.53025  0.19602  0.33487  1.0000
  C   C2147     1.0  0.56443  0.13214  0.46836  1.0000
  S   S294      1.0  0.52409  0.29599  0.36139  1.0000
  C   C2148     1.0  0.57119  0.20635  0.47644  1.0000
  C   C2149     1.0  0.54142  0.24790  0.42859  1.0000
  C   C2150     1.0  0.72499  0.99504  0.06713  1.0000
  H   H1703     1.0  0.72792  0.09699  0.15134  1.0000
  H   H1704     1.0  0.62031  0.13329  0.23831  1.0000
  H   H1705     1.0  0.71725  0.18228  0.46814  1.0000
  H   H1706     1.0  0.62818  0.06759  0.29902  1.0000
  C   C2151     1.0  0.50281  0.22231  0.35058  1.0000
  C   C2152     1.0  0.54475  0.21554  0.26105  1.0000
  C   C2153     1.0  0.55710  0.11172  0.14768  1.0000
  H   H1707     1.0  0.58016  0.30811  0.44813  1.0000
  C   C2154     1.0  0.51469  0.22288  0.28471  1.0000
  S   S295      1.0  0.50565  0.11428  0.40785  1.0000
  C   C2155     1.0  0.50150  0.11637  0.45163  1.0000
  C   C2156     1.0  0.51624  0.23843  0.35132  1.0000
  S   S296      1.0  0.72968  0.09377  0.10087  1.0000
  C   C2157     1.0  0.52323  0.05519  0.25282  1.0000
  H   H1708     1.0  0.53110  0.10552  0.27060  1.0000
  C   C2158     1.0  0.72250  0.01718  0.98355  1.0000
  H   H1709     1.0  0.52991  0.00381  0.15124  1.0000
  C   C2159     1.0  0.55655  0.09949  0.13289  1.0000
  C   C2160     1.0  0.62086  0.10900  0.47665  1.0000
  H   H1710     1.0  0.53317  0.18759  0.27745  1.0000
  C   C2161     1.0  0.51412  0.27946  0.19845  1.0000
  C   C2162     1.0  0.71000  0.12393  0.25052  1.0000
  C   C2163     1.0  0.56621  0.22272  0.47678  1.0000
  C   C2164     1.0  0.71835  0.02962  0.02332  1.0000
  C   C2165     1.0  0.52772  0.23717  0.27023  1.0000
  C   C2166     1.0  0.56559  0.05803  0.13042  1.0000
  C   C2167     1.0  0.70379  0.10884  0.18071  1.0000
  C   C2168     1.0  0.70319  0.07505  0.20987  1.0000
  C   C2169     1.0  0.69575  0.06329  0.19609  1.0000
  C   C2170     1.0  0.68616  0.04513  0.20461  1.0000
  C   C2171     1.0  0.68358  0.03868  0.22704  1.0000
  C   C2172     1.0  0.51668  0.20509  0.28715  1.0000
  C   C2173     1.0  0.73079  0.02889  0.12203  1.0000
  C   C2174     1.0  0.68471  0.10291  0.18431  1.0000
  C   C2175     1.0  0.67491  0.11139  0.17105  1.0000
  C   C2176     1.0  0.68405  0.12586  0.15412  1.0000
  C   C2177     1.0  0.70303  0.13212  0.15074  1.0000
  C   C2178     1.0  0.71287  0.12380  0.16417  1.0000
  H   H1711     1.0  0.71982  0.00305  0.11262  1.0000
  H   H1712     1.0  0.48857  0.22168  0.35484  1.0000
  P   P72       1.0  0.53930  0.07172  0.11198  1.0000
  C   C2179     1.0  0.53778  0.20881  0.46560  1.0000
  H   H1713     1.0  0.69823  0.20362  0.47113  1.0000
  H   H1714     1.0  0.55020  0.25497  0.29747  1.0000
  H   H1715     1.0  0.53640  0.11277  0.43523  1.0000
  C   C2180     1.0  0.50947  0.25914  0.43124  1.0000
  C   C2181     1.0  0.62921  0.16642  0.46360  1.0000
  P   P73       1.0  0.60062  0.13457  0.47197  1.0000
  H   H1716     1.0  0.51458  0.29207  0.24828  1.0000
  H   H1717     1.0  0.69724  0.06826  0.17877  1.0000
  H   H1718     1.0  0.68031  0.03618  0.19386  1.0000
  H   H1719     1.0  0.67567  0.02475  0.23370  1.0000
  C   C2182     1.0  0.55980  0.08206  0.06962  1.0000
  H   H1720     1.0  0.71164  0.31115  0.39997  1.0000
  H   H1721     1.0  0.67731  0.09181  0.19742  1.0000
  H   H1722     1.0  0.66017  0.10667  0.17400  1.0000
  H   H1723     1.0  0.67642  0.13222  0.14366  1.0000
  H   H1724     1.0  0.71013  0.14332  0.13758  1.0000
  C   C2183     1.0  0.54940  0.22403  0.47147  1.0000
  C   C2184     1.0  0.53229  0.24915  0.44908  1.0000
  C   C2185     1.0  0.54867  0.12678  0.45946  1.0000
  C   C2186     1.0  0.72538  0.21272  0.31265  1.0000
  H   H1725     1.0  0.55637  0.21264  0.25194  1.0000
  H   H1726     1.0  0.56609  0.11884  0.02954  1.0000
  C   C2187     1.0  0.68276  0.14017  0.46860  1.0000
  C   C2188     1.0  0.52102  0.26754  0.24008  1.0000
  H   H1727     1.0  0.48654  0.16855  0.39356  1.0000
  H   H1728     1.0  0.56983  0.18624  0.34014  1.0000
  C   C2189     1.0  0.70099  0.06836  0.23232  1.0000
  C   C2190     1.0  0.70816  0.22017  0.32613  1.0000
  C   C2191     1.0  0.69605  0.20813  0.35089  1.0000
  C   C2192     1.0  0.70053  0.18837  0.36203  1.0000
  H   H1729     1.0  0.56249  0.19414  0.30371  1.0000
  H   H1730     1.0  0.57572  0.09037  0.03718  1.0000
  C   C2193     1.0  0.71020  0.03974  0.14611  1.0000
  H   H1731     1.0  0.57679  0.00366  0.21474  1.0000
  H   H1732     1.0  0.51822  0.29467  0.46740  1.0000
  C   C2194     1.0  0.53740  0.31350  0.44108  1.0000
  H   H1733     1.0  0.70495  0.23232  0.31886  1.0000
  H   H1734     1.0  0.68537  0.21282  0.35933  1.0000
  H   H1735     1.0  0.69306  0.18101  0.37777  1.0000
  C   C2195     1.0  0.56636  0.09374  0.04945  1.0000
  H   H1736     1.0  0.49745  0.26413  0.43215  1.0000
  S   S297      1.0  0.52580  0.30466  0.42071  1.0000
  C   C2196     1.0  0.71889  0.22693  0.45250  1.0000
  H   H1737     1.0  0.56900  0.09978  0.12233  1.0000
  C   C2197     1.0  0.49102  0.17964  0.40233  1.0000
  C   C2198     1.0  0.50872  0.04297  0.13018  1.0000
  C   C2199     1.0  0.55050  0.04062  0.10543  1.0000
  H   H1738     1.0  0.72503  0.28161  0.46896  1.0000
  C   C2200     1.0  0.54905  0.11424  0.06105  1.0000
  H   H1739     1.0  0.56993  0.12107  0.14875  1.0000
  H   H1740     1.0  0.57621  0.31740  0.25398  1.0000
  C   C2201     1.0  0.50610  0.06996  0.23003  1.0000
  H   H1741     1.0  0.65151  0.19075  0.45764  1.0000
  C   C2202     1.0  0.57704  0.29601  0.46059  1.0000
  C   C2203     1.0  0.51486  0.20557  0.40674  1.0000
  H   H1742     1.0  0.65271  0.09815  0.44151  1.0000
  C   C2204     1.0  0.51601  0.05854  0.11387  1.0000
  C   C2205     1.0  0.56113  0.02836  0.10815  1.0000
  H   H1743     1.0  0.72112  0.17470  0.42841  1.0000
  C   C2206     1.0  0.60058  0.17051  0.45513  1.0000
  C   C2207     1.0  0.60873  0.18925  0.44816  1.0000
  C   C2208     1.0  0.62708  0.19659  0.44905  1.0000
  Fe  Fe146     1.0  0.53999  0.30911  0.38563  1.0000
  H   H1744     1.0  0.50649  0.06332  0.29218  1.0000
  H   H1745     1.0  0.60071  0.19803  0.44226  1.0000
  H   H1746     1.0  0.63338  0.21111  0.44388  1.0000
  C   C2209     1.0  0.57211  0.27953  0.29140  1.0000
  H   H1747     1.0  0.53242  0.05254  0.31348  1.0000
  C   C2210     1.0  0.61819  0.09734  0.33128  1.0000
  C   C2211     1.0  0.62504  0.08332  0.32459  1.0000
  C   C2212     1.0  0.62259  0.07826  0.30436  1.0000
  C   C2213     1.0  0.61354  0.08739  0.29064  1.0000
  C   C2214     1.0  0.60674  0.10160  0.29721  1.0000
  C   C2215     1.0  0.60914  0.10648  0.31763  1.0000
  P   P74       1.0  0.59546  0.11399  0.27960  1.0000
  C   C2216     1.0  0.59882  0.10860  0.25246  1.0000
  C   C2217     1.0  0.57115  0.10776  0.28944  1.0000
  C   C2218     1.0  0.56393  0.10057  0.31154  1.0000
  C   C2219     1.0  0.60541  0.13821  0.27780  1.0000
  C   C2220     1.0  0.62378  0.14481  0.27964  1.0000
  C   C2221     1.0  0.63183  0.16363  0.27702  1.0000
  C   C2222     1.0  0.62168  0.17601  0.27227  1.0000
  C   C2223     1.0  0.60341  0.16954  0.27036  1.0000
  C   C2224     1.0  0.59528  0.15071  0.27314  1.0000
  H   H1748     1.0  0.62007  0.10129  0.34696  1.0000
  H   H1749     1.0  0.63257  0.07663  0.33489  1.0000
  H   H1750     1.0  0.61234  0.08355  0.27479  1.0000
  H   H1751     1.0  0.60416  0.11752  0.32288  1.0000
  H   H1752     1.0  0.57269  0.09931  0.32340  1.0000
  H   H1753     1.0  0.55173  0.06938  0.24889  1.0000
  H   H1754     1.0  0.52590  0.24429  0.22627  1.0000
  H   H1755     1.0  0.63194  0.13543  0.28298  1.0000
  H   H1756     1.0  0.64592  0.16857  0.27880  1.0000
  H   H1757     1.0  0.62785  0.19057  0.27050  1.0000
  H   H1758     1.0  0.59531  0.17903  0.26740  1.0000
  H   H1759     1.0  0.58104  0.14598  0.27201  1.0000
  C   C2225     1.0  0.54454  0.05021  0.30487  1.0000
  C   C2226     1.0  0.53168  0.20141  0.27536  1.0000
  Fe  Fe147     1.0  0.50177  0.16148  0.34353  1.0000
  P   P75       1.0  0.54196  0.24449  0.47319  1.0000
  H   H1760     1.0  0.54779  0.29809  0.24683  1.0000
  C   C2227     1.0  0.50879  0.31613  0.29233  1.0000
  H   H1761     1.0  0.59219  0.11438  0.43556  1.0000
  H   H1762     1.0  0.56447  0.10530  0.42002  1.0000
  H   H1763     1.0  0.57864  0.27464  0.30436  1.0000
  C   C2228     1.0  0.65491  0.99581  0.07373  1.0000
  H   H1764     1.0  0.72117  0.16888  0.35598  1.0000
  C   C2229     1.0  0.52236  0.25709  0.22342  1.0000
  H   H1765     1.0  0.55897  0.27990  0.44326  1.0000
  H   H1766     1.0  0.52002  0.25498  0.18988  1.0000
  H   H1767     1.0  0.69471  0.25976  0.47819  1.0000
  C   C2230     1.0  0.51894  0.26307  0.20270  1.0000
  C   C2231     1.0  0.54509  0.09497  0.31866  1.0000
  C   C2232     1.0  0.58034  0.12768  0.46009  1.0000
  H   H1768     1.0  0.52858  0.21435  0.40167  1.0000
  H   H1769     1.0  0.71025  0.23607  0.45332  1.0000
  C   C2233     1.0  0.58956  0.08834  0.22696  1.0000
  C   C2234     1.0  0.55915  0.10960  0.27473  1.0000
  C   C2235     1.0  0.52163  0.08435  0.22163  1.0000
  H   H1770     1.0  0.72232  0.18771  0.28368  1.0000
  H   H1771     1.0  0.53650  0.13025  0.46605  1.0000
  H   H1772     1.0  0.70745  0.05042  0.15458  1.0000
  C   C2236     1.0  0.52266  0.01601  0.26370  1.0000
  H   H1773     1.0  0.62936  0.00035  0.18130  1.0000
  C   C2237     1.0  0.60709  0.24383  0.40809  1.0000
  C   C2238     1.0  0.59634  0.25582  0.40433  1.0000
  C   C2239     1.0  0.58478  0.25329  0.38897  1.0000
  C   C2240     1.0  0.58389  0.23876  0.37745  1.0000
  C   C2241     1.0  0.59500  0.22693  0.38067  1.0000
  C   C2242     1.0  0.60643  0.22942  0.39632  1.0000
  P   P76       1.0  0.59295  0.20756  0.36661  1.0000
  C   C2243     1.0  0.61421  0.20133  0.36270  1.0000
  C   C2244     1.0  0.57541  0.18855  0.38304  1.0000
  C   C2245     1.0  0.57596  0.17051  0.38186  1.0000
  C   C2246     1.0  0.56305  0.15582  0.39552  1.0000
  C   C2247     1.0  0.54936  0.15900  0.41015  1.0000
  C   C2248     1.0  0.54833  0.17685  0.41098  1.0000
  C   C2249     1.0  0.56130  0.19161  0.39748  1.0000
  C   C2250     1.0  0.62590  0.20656  0.34235  1.0000
  C   C2251     1.0  0.64187  0.20097  0.33913  1.0000
  C   C2252     1.0  0.64629  0.19010  0.35611  1.0000
  C   C2253     1.0  0.63482  0.18486  0.37643  1.0000
  C   C2254     1.0  0.61888  0.19051  0.37978  1.0000
  C   C2255     1.0  0.58714  0.21329  0.34007  1.0000
  C   C2256     1.0  0.59459  0.23101  0.32783  1.0000
  C   C2257     1.0  0.59036  0.23541  0.30713  1.0000
  C   C2258     1.0  0.57883  0.22213  0.29841  1.0000
  C   C2259     1.0  0.57154  0.20445  0.31037  1.0000
  C   C2260     1.0  0.57568  0.20001  0.33113  1.0000
  H   H1774     1.0  0.61594  0.24571  0.42012  1.0000
  H   H1775     1.0  0.59690  0.26705  0.41333  1.0000
  H   H1776     1.0  0.57644  0.26256  0.38595  1.0000
  H   H1777     1.0  0.57440  0.23674  0.36611  1.0000
  H   H1778     1.0  0.61474  0.22022  0.39957  1.0000
  H   H1779     1.0  0.58641  0.16773  0.37052  1.0000
  H   H1780     1.0  0.56357  0.14192  0.39473  1.0000
  H   H1781     1.0  0.53946  0.14756  0.42067  1.0000
  H   H1782     1.0  0.53742  0.17916  0.42206  1.0000
  H   H1783     1.0  0.56025  0.20531  0.39843  1.0000
  H   H1784     1.0  0.62267  0.21467  0.32877  1.0000
  H   H1785     1.0  0.65073  0.20478  0.32334  1.0000
  H   H1786     1.0  0.65853  0.18559  0.35330  1.0000
  H   H1787     1.0  0.63806  0.17606  0.38947  1.0000
  H   H1788     1.0  0.61002  0.18603  0.39554  1.0000
  H   H1789     1.0  0.60365  0.24143  0.33429  1.0000
  H   H1790     1.0  0.59594  0.24914  0.29792  1.0000
  H   H1791     1.0  0.57545  0.22557  0.28248  1.0000
  H   H1792     1.0  0.50280  0.16766  0.44227  1.0000
  C   C2261     1.0  0.73140  0.20635  0.37164  1.0000
  H   H1793     1.0  0.53331  0.10631  0.09341  1.0000
  H   H1794     1.0  0.55324  0.24426  0.24766  1.0000
  H   H1795     1.0  0.54058  0.03845  0.09465  1.0000
  H   H1796     1.0  0.51240  0.25014  0.35621  1.0000
  H   H1797     1.0  0.51042  0.30553  0.30448  1.0000
  C   C2262     1.0  0.61074  0.15892  0.46306  1.0000
  H   H1798     1.0  0.49741  0.27132  0.33792  1.0000
  H   H1799     1.0  0.62382  0.13861  0.42970  1.0000
  C   C2263     1.0  0.53329  0.09666  0.30389  1.0000
  C   C2264     1.0  0.58023  0.11799  0.44252  1.0000
  C   C2265     1.0  0.55272  0.05565  0.11646  1.0000
  C   C2266     1.0  0.54114  0.11182  0.16115  1.0000
  C   C2267     1.0  0.61151  0.12078  0.23539  1.0000
  C   C2268     1.0  0.50694  0.26156  0.28686  1.0000
  C   C2269     1.0  0.50780  0.20689  0.34476  1.0000
  C   C2270     1.0  0.50232  0.15332  0.44488  1.0000
  H   H1800     1.0  0.52337  0.27055  0.31097  1.0000
  C   C2271     1.0  0.50328  0.12571  0.43026  1.0000
  C   C2272     1.0  0.72299  0.19655  0.46070  1.0000
  H   H1801     1.0  0.69300  0.10434  0.23533  1.0000
  H   H1802     1.0  0.53549  0.00459  0.28885  1.0000
  C   C2273     1.0  0.51585  0.28383  0.23571  1.0000
  H   H1803     1.0  0.69375  0.03484  0.01465  1.0000
  H   H1804     1.0  0.58115  0.07574  0.22369  1.0000
  C   C2274     1.0  0.71207  0.20859  0.46236  1.0000
  H   H1805     1.0  0.51115  0.07813  0.14451  1.0000
  C   C2275     1.0  0.53463  0.25236  0.40959  1.0000
  Fe  Fe148     1.0  0.50779  0.12975  0.37366  1.0000
  H   H1806     1.0  0.55390  0.24374  0.42731  1.0000
  H   H1807     1.0  0.53962  0.08962  0.33579  1.0000
  C   C2276     1.0  0.51866  0.25795  0.41092  1.0000
  C   C2277     1.0  0.58406  0.29701  0.47994  1.0000
  H   H1808     1.0  0.56433  0.11539  0.25767  1.0000
  C   C2278     1.0  0.64268  0.10493  0.44740  1.0000
  H   H1809     1.0  0.50546  0.15139  0.41053  1.0000
  H   H1810     1.0  0.54175  0.25158  0.39377  1.0000
  P   P77       1.0  0.52567  0.26038  0.26697  1.0000
  H   H1811     1.0  0.58836  0.05320  0.31075  1.0000
  C   C2279     1.0  0.57949  0.29713  0.27927  1.0000
  H   H1812     1.0  0.49236  0.29735  0.27542  1.0000
  H   H1813     1.0  0.50688  0.00234  0.12714  1.0000
  H   H1814     1.0  0.69419  0.01360  0.09157  1.0000
  C   C2280     1.0  0.69958  0.01039  0.13463  1.0000
  H   H1815     1.0  0.63738  0.15777  0.46941  1.0000
  H   H1816     1.0  0.58640  0.16524  0.45431  1.0000
  C   C2281     1.0  0.52409  0.08731  0.14526  1.0000
  C   C2282     1.0  0.55589  0.26843  0.28750  1.0000
  S   S298      1.0  0.60693  0.99729  0.23460  1.0000
  H   H1817     1.0  0.59185  0.30582  0.28270  1.0000
  C   C2283     1.0  0.70530  0.02967  0.00985  1.0000
  C   C2284     1.0  0.49903  0.04967  0.30061  1.0000
  C   C2285     1.0  0.51463  0.01263  0.24532  1.0000
  C   C2286     1.0  0.69631  0.02390  0.14653  1.0000
  H   H1818     1.0  0.51352  0.26162  0.39620  1.0000
  H   H1819     1.0  0.63672  0.08954  0.48004  1.0000
  C   C2287     1.0  0.57062  0.30367  0.26321  1.0000
  C   C2288     1.0  0.54773  0.08637  0.08564  1.0000
  C   C2289     1.0  0.71695  0.01306  0.12229  1.0000
  H   H1820     1.0  0.48654  0.25226  0.26718  1.0000
  C   C2290     1.0  0.56502  0.27981  0.45788  1.0000
  H   H1821     1.0  0.50662  0.19412  0.29841  1.0000
  H   H1822     1.0  0.50309  0.22530  0.29441  1.0000
  H   H1823     1.0  0.68297  0.02261  0.15561  1.0000
  C   C2291     1.0  0.54009  0.08689  0.13189  1.0000
  C   C2292     1.0  0.48531  0.19781  0.42989  1.0000
  H   H1824     1.0  0.58874  0.04221  0.27521  1.0000
  H   H1825     1.0  0.52083  0.09559  0.20971  1.0000
  H   H1826     1.0  0.68893  0.04533  0.25829  1.0000
  H   H1827     1.0  0.49280  0.12404  0.23545  1.0000
  C   C2293     1.0  0.57602  0.04561  0.13334  1.0000
  C   C2294     1.0  0.50061  0.14407  0.46619  1.0000
  C   C2295     1.0  0.49037  0.03336  0.13290  1.0000
  C   C2296     1.0  0.48911  0.25658  0.28250  1.0000
  H   H1828     1.0  0.49346  0.06992  0.22439  1.0000
  H   H1829     1.0  0.51707  0.03855  0.14125  1.0000
  H   H1830     1.0  0.56042  0.05899  0.32924  1.0000
  C   C2297     1.0  0.61714  0.12295  0.46256  1.0000
  C   C2298     1.0  0.56056  0.04084  0.27431  1.0000
  C   C2299     1.0  0.63730  0.18517  0.45675  1.0000
  C   C2300     1.0  0.50020  0.12554  0.46958  1.0000
  C   C2301     1.0  0.55939  0.19120  0.47100  1.0000
  H   H1831     1.0  0.49775  0.00461  0.30241  1.0000
  C   C2302     1.0  0.57640  0.04449  0.28346  1.0000
  C   C2303     1.0  0.50679  0.05557  0.24576  1.0000
  H   H1832     1.0  0.60325  0.09739  0.19361  1.0000
  H   H1833     1.0  0.50765  0.99383  0.22335  1.0000
  Fe  Fe149     1.0  0.53882  0.32187  0.33756  1.0000
  C   C2304     1.0  0.63898  0.11874  0.43330  1.0000
  C   C2305     1.0  0.68052  0.00520  0.09217  1.0000
  C   C2306     1.0  0.53893  0.06944  0.24389  1.0000
  H   H1834     1.0  0.50914  0.02260  0.23667  1.0000
  C   C2307     1.0  0.50415  0.03422  0.29514  1.0000
  C   C2308     1.0  0.54032  0.10400  0.28194  1.0000
  H   H1835     1.0  0.50923  0.25642  0.46571  1.0000
  C   C2309     1.0  0.56006  0.26432  0.47452  1.0000
  C   C2310     1.0  0.50983  0.26683  0.30699  1.0000
  C   C2311     1.0  0.67247  0.00665  0.07353  1.0000
  H   H1836     1.0  0.70688  0.07698  0.24330  1.0000
  H   H1837     1.0  0.55030  0.09494  0.22151  1.0000
  H   H1838     1.0  0.65094  0.00473  0.14689  1.0000
  P   P78       1.0  0.71640  0.09806  0.19806  1.0000
  C   C2312     1.0  0.61308  0.11674  0.21422  1.0000
  C   C2313     1.0  0.55437  0.29261  0.25926  1.0000
  H   H1839     1.0  0.72756  0.12887  0.16143  1.0000
  C   C2314     1.0  0.52938  0.99489  0.13914  1.0000
  C   C2315     1.0  0.54684  0.27487  0.27141  1.0000
  C   C2316     1.0  0.51629  0.25486  0.45027  1.0000
  H   H1840     1.0  0.55935  0.01681  0.09959  1.0000
  C   C2317     1.0  0.58816  0.09219  0.24817  1.0000
  H   H1841     1.0  0.56087  0.03583  0.25890  1.0000
  C   C2318     1.0  0.69100  0.05029  0.24088  1.0000
  C   C2319     1.0  0.53811  0.08403  0.22842  1.0000
  H   H1842     1.0  0.62314  0.12592  0.20118  1.0000
  H   H1843     1.0  0.56750  0.06922  0.13942  1.0000
  C   C2320     1.0  0.60200  0.10060  0.20998  1.0000
  Fe  Fe150     1.0  0.57517  0.32335  0.35253  1.0000
  Fe  Fe151     1.0  0.49681  0.12404  0.32889  1.0000
  C   C2321     1.0  0.57382  0.03080  0.12222  1.0000
  C   C2322     1.0  0.57625  0.05080  0.30338  1.0000
  C   C2323     1.0  0.50881  0.19090  0.39612  1.0000
  C   C2324     1.0  0.54862  0.11697  0.44217  1.0000
  H   H1844     1.0  0.64602  0.12247  0.41651  1.0000
  C   C2325     1.0  0.70736  0.02340  0.98997  1.0000
  C   C2326     1.0  0.63368  0.10011  0.46908  1.0000
  C   C2327     1.0  0.62645  0.12789  0.44087  1.0000
  C   C2328     1.0  0.56042  0.05390  0.31391  1.0000
  C   C2329     1.0  0.70667  0.11282  0.23469  1.0000
  H   H1845     1.0  0.57871  0.08243  0.26128  1.0000
  C   C2330     1.0  0.72375  0.32055  0.38996  1.0000
  C   C2331     1.0  0.53031  0.30608  0.46317  1.0000
  P   P79       1.0  0.52364  0.03708  0.27418  1.0000
  H   H1846     1.0  0.71678  0.03451  0.03871  1.0000
  C   C2332     1.0  0.54272  0.19245  0.46551  1.0000
  H   H1847     1.0  0.53327  0.18048  0.46216  1.0000
  C   C2333     1.0  0.48654  0.11237  0.24828  1.0000
  C   C2334     1.0  0.54441  0.04334  0.28518  1.0000
  C   C2335     1.0  0.71792  0.18096  0.34861  1.0000
  C   C2336     1.0  0.50466  0.06434  0.10034  1.0000
  S   S299      1.0  0.49102  0.18649  0.34465  1.0000
  C   C2337     1.0  0.54250  0.10262  0.08123  1.0000
  H   H1848     1.0  0.52451  0.20930  0.46205  1.0000
  C   C2338     1.0  0.72091  0.11258  0.21830  1.0000
  H   H1849     1.0  0.50114  0.10202  0.45429  1.0000
  H   H1850     1.0  0.54493  0.12674  0.05777  1.0000
  H   H1851     1.0  0.54155  0.12125  0.17264  1.0000
  C   C2339     1.0  0.56444  0.11271  0.43361  1.0000
  C   C2340     1.0  0.73197  0.17073  0.41915  1.0000
  C   C2341     1.0  0.49864  0.31156  0.27581  1.0000
  H   H1852     1.0  0.63157  0.31931  0.47298  1.0000
  H   H1853     1.0  0.71435  0.15726  0.39885  1.0000
  H   H1854     1.0  0.56436  0.06985  0.07259  1.0000
  H   H1855     1.0  0.58193  0.02122  0.12462  1.0000
  H   H1856     1.0  0.51218  0.09974  0.17024  1.0000
  H   H1857     1.0  0.50972  0.07646  0.08793  1.0000
  C   C2342     1.0  0.54289  0.23339  0.25863  1.0000
  H   H1858     1.0  0.69904  0.12371  0.26343  1.0000
  H   H1859     1.0  0.51786  0.18829  0.38292  1.0000
  C   C2343     1.0  0.51378  0.99620  0.23758  1.0000
  H   H1860     1.0  0.51869  0.09267  0.30954  1.0000
  H   H1861     1.0  0.56284  0.17827  0.47189  1.0000
  H   H1862     1.0  0.58573  0.04748  0.14445  1.0000
  H   H1863     1.0  0.71902  0.00630  0.06431  1.0000
  H   H1864     1.0  0.51157  0.28416  0.18236  1.0000
  H   H1865     1.0  0.49444  0.04478  0.25241  1.0000
  C   C2344     1.0  0.56097  0.10980  0.04515  1.0000
  C   C2345     1.0  0.65162  0.99503  0.16079  1.0000
  C   C2346     1.0  0.63934  0.99256  0.18023  1.0000
  C   C2347     1.0  0.49410  0.01674  0.30628  1.0000
  H   H1866     1.0  0.67993  0.01613  0.05892  1.0000
  C   C2348     1.0  0.52946  0.00247  0.27443  1.0000
  C   C2349     1.0  0.72739  0.04228  0.13382  1.0000
  C   C2350     1.0  0.48627  0.05475  0.10325  1.0000
  C   C2351     1.0  0.51644  0.99414  0.12547  1.0000
  H   H1867     1.0  0.50859  0.30245  0.21180  1.0000
  C   C2352     1.0  0.49510  0.26718  0.32245  1.0000
  S   S300      1.0  0.48448  0.31889  0.23874  1.0000
  H   H1868     1.0  0.72497  0.19318  0.38171  1.0000
  H   H1869     1.0  0.49616  0.12648  0.27400  1.0000
  H   H1870     1.0  0.64876  0.99683  0.05922  1.0000
  C   C2353     1.0  0.53857  0.31356  0.47986  1.0000
  C   C2354     1.0  0.72800  0.16069  0.40249  1.0000
  H   H1871     1.0  0.48472  0.02163  0.14587  1.0000
  H   H1872     1.0  0.50760  0.22032  0.43194  1.0000
  C   C2355     1.0  0.50308  0.20900  0.42362  1.0000
  C   C2356     1.0  0.72722  0.21232  0.34983  1.0000
  H   H1873     1.0  0.72555  0.15284  0.31058  1.0000
  H   H1874     1.0  0.72528  0.12088  0.32364  1.0000
  H   H1875     1.0  0.72269  0.18625  0.24470  1.0000
  C   C2357     1.0  0.72743  0.13524  0.24979  1.0000
  H   H1876     1.0  0.73262  0.07200  0.00017  1.0000
  C   C2358     1.0  0.73346  0.02328  0.01699  1.0000
  C   C2359     1.0  0.73046  0.19338  0.32414  1.0000
  H   H1877     1.0  0.72993  0.14374  0.26217  1.0000
  H   H1878     1.0  0.73315  0.22045  0.29717  1.0000
  C   C2360     1.0  0.67098  0.99296  0.11123  1.0000
  Fe  Fe152     1.0  0.55790  0.29113  0.55986  1.0000
  S   S301      1.0  0.56495  0.26502  0.55451  1.0000
  Fe  Fe153     1.0  0.63774  0.05014  0.75077  1.0000
  S   S302      1.0  0.65228  0.04808  0.71803  1.0000
  S   S303      1.0  0.64700  0.04031  0.78216  1.0000
  Fe  Fe154     1.0  0.60603  0.05943  0.73071  1.0000
  S   S304      1.0  0.61818  0.05765  0.69683  1.0000
  S   S305      1.0  0.58077  0.06947  0.73349  1.0000
  Fe  Fe155     1.0  0.62464  0.03259  0.71296  1.0000
  H   H1879     1.0  0.50263  0.01947  0.60155  1.0000
  Fe  Fe156     1.0  0.64431  0.07328  0.70511  1.0000
  S   S306      1.0  0.66231  0.09919  0.68342  1.0000
  S   S307      1.0  0.61046  0.03315  0.74637  1.0000
  S   S308      1.0  0.63187  0.07667  0.73836  1.0000
  S   S309      1.0  0.50291  0.01508  0.74347  1.0000
  Fe  Fe157     1.0  0.67566  0.14209  0.56171  1.0000
  S   S310      1.0  0.68171  0.16691  0.57765  1.0000
  S   S311      1.0  0.67006  0.11318  0.58017  1.0000
  Fe  Fe158     1.0  0.67609  0.16461  0.51737  1.0000
  S   S312      1.0  0.68163  0.19098  0.53039  1.0000
  H   H1880     1.0  0.48680  0.09796  0.79593  1.0000
  Fe  Fe159     1.0  0.70183  0.18029  0.54696  1.0000
  C   C2361     1.0  0.60380  0.22318  0.54158  1.0000
  Fe  Fe160     1.0  0.66104  0.17508  0.55944  1.0000
  S   S313      1.0  0.63729  0.18348  0.57526  1.0000
  S   S314      1.0  0.69751  0.15466  0.53212  1.0000
  S   S315      1.0  0.65378  0.14957  0.54517  1.0000
  Fe  Fe161     1.0  0.51763  0.16638  0.55883  1.0000
  Fe  Fe162     1.0  0.54899  0.15867  0.53037  1.0000
  S   S316      1.0  0.53111  0.13374  0.52142  1.0000
  S   S317      1.0  0.57833  0.16979  0.51367  1.0000
  Fe  Fe163     1.0  0.51138  0.15060  0.51742  1.0000
  H   H1881     1.0  0.52004  0.21150  0.50489  1.0000
  S   S318      1.0  0.53027  0.17607  0.52367  1.0000
  S   S319      1.0  0.53785  0.15085  0.56634  1.0000
  H   H1882     1.0  0.62090  0.14650  0.50642  1.0000
  S   S320      1.0  0.53534  0.30200  0.54904  1.0000
  H   H1883     1.0  0.52814  0.27012  0.49673  1.0000
  C   C2362     1.0  0.62087  0.18042  0.55815  1.0000
  C   C2363     1.0  0.60236  0.17479  0.56719  1.0000
  C   C2364     1.0  0.58921  0.17169  0.55363  1.0000
  C   C2365     1.0  0.59451  0.17418  0.53097  1.0000
  C   C2366     1.0  0.61305  0.18015  0.52190  1.0000
  C   C2367     1.0  0.62622  0.18306  0.53546  1.0000
  H   H1884     1.0  0.59820  0.17237  0.58470  1.0000
  H   H1885     1.0  0.57500  0.16729  0.56069  1.0000
  H   H1886     1.0  0.61725  0.18208  0.50439  1.0000
  H   H1887     1.0  0.64050  0.18728  0.52834  1.0000
  H   H1888     1.0  0.71556  0.21284  0.57698  1.0000
  C   C2368     1.0  0.66169  0.10253  0.65514  1.0000
  C   C2369     1.0  0.65941  0.08791  0.64361  1.0000
  C   C2370     1.0  0.66146  0.09129  0.62064  1.0000
  C   C2371     1.0  0.66551  0.10924  0.60910  1.0000
  C   C2372     1.0  0.66680  0.12372  0.62080  1.0000
  C   C2373     1.0  0.66505  0.12039  0.64368  1.0000
  H   H1889     1.0  0.65679  0.07408  0.65229  1.0000
  H   H1890     1.0  0.66031  0.07999  0.61175  1.0000
  H   H1891     1.0  0.66974  0.13755  0.61227  1.0000
  H   H1892     1.0  0.66656  0.13177  0.65246  1.0000
  C   C2374     1.0  0.55998  0.05380  0.73263  1.0000
  C   C2375     1.0  0.55728  0.03499  0.73905  1.0000
  C   C2376     1.0  0.53979  0.02301  0.74150  1.0000
  C   C2377     1.0  0.52509  0.02975  0.73692  1.0000
  C   C2378     1.0  0.52810  0.04834  0.72881  1.0000
  C   C2379     1.0  0.54545  0.06041  0.72709  1.0000
  H   H1893     1.0  0.56841  0.02978  0.74333  1.0000
  H   H1894     1.0  0.53753  0.00858  0.74756  1.0000
  H   H1895     1.0  0.51688  0.05349  0.72476  1.0000
  H   H1896     1.0  0.54755  0.07494  0.72189  1.0000
  H   H1897     1.0  0.48960  0.05687  0.64607  1.0000
  C   C2380     1.0  0.68434  0.05448  0.82123  1.0000
  C   C2381     1.0  0.66948  0.04518  0.81252  1.0000
  C   C2382     1.0  0.66507  0.05310  0.79313  1.0000
  C   C2383     1.0  0.67535  0.07064  0.78282  1.0000
  C   C2384     1.0  0.69020  0.07997  0.79157  1.0000
  C   C2385     1.0  0.50170  0.23660  0.53745  1.0000
  H   H1898     1.0  0.66129  0.03183  0.82091  1.0000
  H   H1899     1.0  0.67200  0.07693  0.76799  1.0000
  C   C2386     1.0  0.54910  0.24343  0.56142  1.0000
  C   C2387     1.0  0.55389  0.22860  0.55375  1.0000
  C   C2388     1.0  0.54194  0.21098  0.55937  1.0000
  H   H1900     1.0  0.50741  0.26599  0.53162  1.0000
  C   C2389     1.0  0.53233  0.24060  0.57494  1.0000
  H   H1901     1.0  0.56694  0.23071  0.54349  1.0000
  H   H1902     1.0  0.54585  0.19962  0.55352  1.0000
  H   H1903     1.0  0.68779  0.99395  0.67537  1.0000
  H   H1904     1.0  0.52863  0.25200  0.58100  1.0000
  C   C2390     1.0  0.62089  0.25345  0.50886  1.0000
  C   C2391     1.0  0.62367  0.25395  0.53040  1.0000
  C   C2392     1.0  0.61491  0.23890  0.54699  1.0000
  P   P80       1.0  0.61857  0.23946  0.57479  1.0000
  C   C2393     1.0  0.61961  0.26219  0.58083  1.0000
  C   C2394     1.0  0.59881  0.22360  0.59227  1.0000
  C   C2395     1.0  0.58194  0.22773  0.59419  1.0000
  C   C2396     1.0  0.56623  0.21490  0.60596  1.0000
  C   C2397     1.0  0.56719  0.19786  0.61606  1.0000
  C   C2398     1.0  0.58389  0.19362  0.61430  1.0000
  C   C2399     1.0  0.59960  0.20630  0.60220  1.0000
  C   C2400     1.0  0.63090  0.26986  0.59497  1.0000
  C   C2401     1.0  0.63115  0.28725  0.59984  1.0000
  C   C2402     1.0  0.62012  0.29710  0.59072  1.0000
  C   C2403     1.0  0.70112  0.99941  0.79637  1.0000
  C   C2404     1.0  0.60878  0.27234  0.57156  1.0000
  C   C2405     1.0  0.63935  0.23331  0.57853  1.0000
  C   C2406     1.0  0.64311  0.22914  0.59965  1.0000
  C   C2407     1.0  0.65928  0.22467  0.60258  1.0000
  C   C2408     1.0  0.67178  0.22424  0.58447  1.0000
  C   C2409     1.0  0.66812  0.22824  0.56342  1.0000
  C   C2410     1.0  0.65197  0.23273  0.56042  1.0000
  H   H1905     1.0  0.62747  0.26517  0.49618  1.0000
  H   H1906     1.0  0.63254  0.26609  0.53418  1.0000
  H   H1907     1.0  0.58068  0.24059  0.58600  1.0000
  H   H1908     1.0  0.55319  0.21802  0.60675  1.0000
  H   H1909     1.0  0.55492  0.18785  0.62487  1.0000
  H   H1910     1.0  0.58460  0.18028  0.62178  1.0000
  H   H1911     1.0  0.61213  0.20226  0.60002  1.0000
  H   H1912     1.0  0.63951  0.26255  0.60233  1.0000
  H   H1913     1.0  0.63983  0.29306  0.61079  1.0000
  H   H1914     1.0  0.60007  0.26684  0.56053  1.0000
  H   H1915     1.0  0.63344  0.22919  0.61386  1.0000
  H   H1916     1.0  0.66200  0.22130  0.61890  1.0000
  H   H1917     1.0  0.68417  0.22049  0.58671  1.0000
  H   H1918     1.0  0.67761  0.22743  0.54944  1.0000
  H   H1919     1.0  0.64927  0.23533  0.54399  1.0000
  H   H1920     1.0  0.71363  0.06013  0.97331  1.0000
  C   C2411     1.0  0.51028  0.28236  0.67190  1.0000
  H   H1921     1.0  0.67729  0.02370  0.70385  1.0000
  H   H1922     1.0  0.68926  0.23114  0.50484  1.0000
  C   C2412     1.0  0.67470  0.99711  0.87746  1.0000
  C   C2413     1.0  0.55761  0.00695  0.68181  1.0000
  H   H1923     1.0  0.64944  0.00512  0.72911  1.0000
  H   H1924     1.0  0.71988  0.20354  0.64711  1.0000
  C   C2414     1.0  0.71918  0.00438  0.92583  1.0000
  H   H1925     1.0  0.48588  0.11429  0.82712  1.0000
  H   H1926     1.0  0.73186  0.06103  0.78285  1.0000
  C   C2415     1.0  0.59512  0.12958  0.50158  1.0000
  C   C2416     1.0  0.48678  0.08386  0.64832  1.0000
  H   H1927     1.0  0.64816  0.18115  0.65126  1.0000
  C   C2417     1.0  0.56759  0.26531  0.49369  1.0000
  C   C2418     1.0  0.66398  0.99646  0.75382  1.0000
  H   H1928     1.0  0.72048  0.10479  0.94883  1.0000
  C   C2419     1.0  0.71915  0.99893  0.78977  1.0000
  C   C2420     1.0  0.49787  0.28170  0.69065  1.0000
  C   C2421     1.0  0.72784  0.06722  0.96790  1.0000
  H   H1929     1.0  0.49939  0.20778  0.53944  1.0000
  C   C2422     1.0  0.69679  0.00821  0.74555  1.0000
  Fe  Fe164     1.0  0.53783  0.31694  0.57799  1.0000
  C   C2423     1.0  0.68103  0.99772  0.76007  1.0000
  S   S321      1.0  0.73131  0.19672  0.54193  1.0000
  C   C2424     1.0  0.52543  0.24112  0.49778  1.0000
  C   C2425     1.0  0.49889  0.31382  0.74609  1.0000
  H   H1930     1.0  0.68742  0.04841  0.83634  1.0000
  H   H1931     1.0  0.69456  0.11437  0.70581  1.0000
  H   H1932     1.0  0.71009  0.10588  0.91306  1.0000
  H   H1933     1.0  0.52793  0.01850  0.79413  1.0000
  C   C2426     1.0  0.49119  0.30592  0.72949  1.0000
  C   C2427     1.0  0.73011  0.08007  0.73108  1.0000
  H   H1934     1.0  0.71445  0.22477  0.52267  1.0000
  H   H1935     1.0  0.57434  0.02654  0.69753  1.0000
  C   C2428     1.0  0.57958  0.28158  0.49631  1.0000
  C   C2429     1.0  0.67841  0.01636  0.71941  1.0000
  C   C2430     1.0  0.68948  0.17830  0.62742  1.0000
  C   C2431     1.0  0.68479  0.16872  0.66658  1.0000
  H   H1936     1.0  0.72639  0.15970  0.56439  1.0000
  H   H1937     1.0  0.58468  0.28245  0.51153  1.0000
  C   C2432     1.0  0.71666  0.23741  0.51131  1.0000
  H   H1938     1.0  0.54556  0.00537  0.69375  1.0000
  H   H1939     1.0  0.59429  0.31127  0.69082  1.0000
  H   H1940     1.0  0.58542  0.29298  0.66219  1.0000
  H   H1941     1.0  0.49808  0.02480  0.79832  1.0000
  C   C2433     1.0  0.52606  0.99284  0.64083  1.0000
  C   C2434     1.0  0.60895  0.28963  0.57658  1.0000
  C   C2435     1.0  0.58948  0.01109  0.65211  1.0000
  C   C2436     1.0  0.48626  0.10012  0.82969  1.0000
  H   H1942     1.0  0.71011  0.00931  0.74979  1.0000
  C   C2437     1.0  0.70562  0.25715  0.48625  1.0000
  C   C2438     1.0  0.65208  0.99342  0.80639  1.0000
  H   H1943     1.0  0.49627  0.31381  0.78077  1.0000
  C   C2439     1.0  0.72979  0.22008  0.57193  1.0000
  C   C2440     1.0  0.71728  0.15237  0.62013  1.0000
  H   H1944     1.0  0.49726  0.31163  0.71263  1.0000
  H   H1945     1.0  0.68849  0.04916  0.74624  1.0000
  H   H1946     1.0  0.50368  0.06494  0.60672  1.0000
  C   C2441     1.0  0.72194  0.13002  0.70637  1.0000
  C   C2442     1.0  0.69546  0.01747  0.72529  1.0000
  H   H1947     1.0  0.65779  0.00713  0.79707  1.0000
  H   H1948     1.0  0.52396  0.28163  0.67322  1.0000
  H   H1949     1.0  0.50955  0.99891  0.68057  1.0000
  C   C2443     1.0  0.60784  0.13733  0.51415  1.0000
  C   C2444     1.0  0.57319  0.99911  0.64972  1.0000
  H   H1950     1.0  0.65600  0.99641  0.68186  1.0000
  C   C2445     1.0  0.58270  0.31594  0.64034  1.0000
  C   C2446     1.0  0.57855  0.11723  0.51237  1.0000
  C   C2447     1.0  0.52786  0.01833  0.61221  1.0000
  S   S322      1.0  0.49792  0.15590  0.48813  1.0000
  H   H1951     1.0  0.65936  0.17006  0.68444  1.0000
  H   H1952     1.0  0.56875  0.11032  0.50332  1.0000
  S   S323      1.0  0.49693  0.14213  0.55237  1.0000
  H   H1953     1.0  0.61396  0.10498  0.49346  1.0000
  C   C2448     1.0  0.55906  0.14502  0.61320  1.0000
  C   C2449     1.0  0.54140  0.14149  0.62476  1.0000
  C   C2450     1.0  0.53451  0.12625  0.64136  1.0000
  C   C2451     1.0  0.54514  0.11436  0.64620  1.0000
  C   C2452     1.0  0.56280  0.11760  0.63437  1.0000
  C   C2453     1.0  0.56978  0.13319  0.61799  1.0000
  P   P81       1.0  0.57614  0.10172  0.64031  1.0000
  C   C2454     1.0  0.58730  0.10660  0.66328  1.0000
  C   C2455     1.0  0.56062  0.07899  0.64728  1.0000
  C   C2456     1.0  0.56104  0.06702  0.66615  1.0000
  C   C2457     1.0  0.54805  0.05006  0.67231  1.0000
  C   C2458     1.0  0.53475  0.04477  0.65958  1.0000
  C   C2459     1.0  0.53425  0.05655  0.64079  1.0000
  C   C2460     1.0  0.54705  0.07363  0.63469  1.0000
  C   C2461     1.0  0.57905  0.11366  0.68026  1.0000
  C   C2462     1.0  0.58711  0.11614  0.69875  1.0000
  C   C2463     1.0  0.60345  0.11167  0.70038  1.0000
  C   C2464     1.0  0.61176  0.10469  0.68354  1.0000
  C   C2465     1.0  0.60365  0.10196  0.66517  1.0000
  C   C2466     1.0  0.59324  0.10357  0.61671  1.0000
  C   C2467     1.0  0.60942  0.11783  0.61271  1.0000
  C   C2468     1.0  0.62302  0.11914  0.59497  1.0000
  C   C2469     1.0  0.62055  0.10637  0.58093  1.0000
  C   C2470     1.0  0.60439  0.09231  0.58455  1.0000
  C   C2471     1.0  0.59077  0.09087  0.60239  1.0000
  H   H1954     1.0  0.56429  0.15675  0.60021  1.0000
  H   H1955     1.0  0.53294  0.15041  0.62061  1.0000
  H   H1956     1.0  0.52076  0.12341  0.65022  1.0000
  H   H1957     1.0  0.53938  0.10247  0.65893  1.0000
  H   H1958     1.0  0.58330  0.13613  0.60855  1.0000
  H   H1959     1.0  0.57105  0.07079  0.67652  1.0000
  H   H1960     1.0  0.54806  0.04119  0.68728  1.0000
  H   H1961     1.0  0.52463  0.03169  0.66450  1.0000
  H   H1962     1.0  0.52364  0.05262  0.63125  1.0000
  H   H1963     1.0  0.54610  0.08282  0.62041  1.0000
  H   H1964     1.0  0.56619  0.11681  0.67955  1.0000
  H   H1965     1.0  0.58045  0.12105  0.71212  1.0000
  H   H1966     1.0  0.60941  0.11303  0.71499  1.0000
  H   H1967     1.0  0.62426  0.10091  0.68501  1.0000
  H   H1968     1.0  0.61002  0.09587  0.65273  1.0000
  H   H1969     1.0  0.61166  0.12785  0.62344  1.0000
  H   H1970     1.0  0.63564  0.12993  0.59227  1.0000
  H   H1971     1.0  0.63128  0.10730  0.56738  1.0000
  H   H1972     1.0  0.60253  0.08243  0.57361  1.0000
  H   H1973     1.0  0.57850  0.07976  0.60499  1.0000
  H   H1974     1.0  0.69793  0.18110  0.61151  1.0000
  C   C2472     1.0  0.49605  0.08768  0.73015  1.0000
  C   C2473     1.0  0.71909  0.15120  0.66741  1.0000
  P   P82       1.0  0.71690  0.16503  0.64260  1.0000
  C   C2474     1.0  0.49847  0.07775  0.74940  1.0000
  C   C2475     1.0  0.50898  0.05437  0.79059  1.0000
  C   C2476     1.0  0.72938  0.11338  0.93438  1.0000
  C   C2477     1.0  0.49068  0.30730  0.76792  1.0000
  H   H1975     1.0  0.50625  0.09061  0.71551  1.0000
  S   S324      1.0  0.51298  0.09828  0.57572  1.0000
  C   C2478     1.0  0.69776  0.01165  0.81020  1.0000
  C   C2479     1.0  0.52510  0.06873  0.78574  1.0000
  C   C2480     1.0  0.54205  0.06498  0.78361  1.0000
  C   C2481     1.0  0.54305  0.04689  0.78682  1.0000
  C   C2482     1.0  0.52712  0.03253  0.79219  1.0000
  C   C2483     1.0  0.51013  0.03621  0.79421  1.0000
  C   C2484     1.0  0.50286  0.09306  0.60364  1.0000
  P   P83       1.0  0.48730  0.05972  0.79292  1.0000
  C   C2485     1.0  0.66150  0.17871  0.64984  1.0000
  H   H1976     1.0  0.53287  0.30790  0.49682  1.0000
  H   H1977     1.0  0.67779  0.01081  0.86812  1.0000
  H   H1978     1.0  0.51485  0.28524  0.63672  1.0000
  S   S325      1.0  0.50984  0.18610  0.57952  1.0000
  S   S326      1.0  0.58005  0.31438  0.53961  1.0000
  H   H1979     1.0  0.51067  0.07323  0.74932  1.0000
  H   H1980     1.0  0.53575  0.03082  0.60137  1.0000
  C   C2486     1.0  0.66779  0.17239  0.66849  1.0000
  H   H1981     1.0  0.52456  0.08284  0.78311  1.0000
  H   H1982     1.0  0.55447  0.07603  0.77890  1.0000
  H   H1983     1.0  0.55621  0.04402  0.78454  1.0000
  H   H1984     1.0  0.68935  0.16397  0.68129  1.0000
  C   C2487     1.0  0.49187  0.07064  0.63739  1.0000
  H   H1985     1.0  0.60252  0.03009  0.67123  1.0000
  H   H1986     1.0  0.73087  0.12454  0.87974  1.0000
  Fe  Fe165     1.0  0.51826  0.12719  0.55716  1.0000
  S   S327      1.0  0.48671  0.02982  0.68861  1.0000
  C   C2488     1.0  0.71083  0.12366  0.60622  1.0000
  C   C2489     1.0  0.57427  0.11383  0.53521  1.0000
  C   C2490     1.0  0.58675  0.12214  0.54751  1.0000
  C   C2491     1.0  0.60363  0.13363  0.53700  1.0000
  C   C2492     1.0  0.49985  0.07523  0.61513  1.0000
  H   H1987     1.0  0.60193  0.01250  0.64093  1.0000
  C   C2493     1.0  0.48963  0.10163  0.63678  1.0000
  H   H1988     1.0  0.50742  0.22064  0.59123  1.0000
  H   H1989     1.0  0.68410  0.01228  0.81579  1.0000
  C   C2494     1.0  0.69547  0.17096  0.64588  1.0000
  C   C2495     1.0  0.52166  0.25639  0.50563  1.0000
  H   H1990     1.0  0.69459  0.00481  0.89770  1.0000
  H   H1991     1.0  0.70128  0.04306  0.77958  1.0000
  Fe  Fe166     1.0  0.72939  0.07244  0.84504  1.0000
  C   C2496     1.0  0.60104  0.22273  0.52007  1.0000
  C   C2497     1.0  0.60959  0.23783  0.50370  1.0000
  C   C2498     1.0  0.50514  0.28427  0.65135  1.0000
  C   C2499     1.0  0.70456  0.13631  0.67828  1.0000
  C   C2500     1.0  0.71136  0.13314  0.62381  1.0000
  H   H1992     1.0  0.70763  0.02572  0.71427  1.0000
  H   H1993     1.0  0.56113  0.10494  0.54337  1.0000
  H   H1994     1.0  0.58332  0.11978  0.56518  1.0000
  H   H1995     1.0  0.61325  0.14016  0.54656  1.0000
  C   C2501     1.0  0.59139  0.31781  0.67581  1.0000
  C   C2502     1.0  0.49769  0.10626  0.61455  1.0000
  H   H1996     1.0  0.70814  0.00882  0.93398  1.0000
  H   H1997     1.0  0.60748  0.23737  0.48704  1.0000
  C   C2503     1.0  0.70598  0.12578  0.69761  1.0000
  H   H1998     1.0  0.62014  0.31051  0.59458  1.0000
  S   S328      1.0  0.55859  0.30388  0.59016  1.0000
  H   H1999     1.0  0.71502  0.00172  0.85988  1.0000
  H   H2000     1.0  0.68360  0.13550  0.48539  1.0000
  H   H2001     1.0  0.70665  0.07317  0.71529  1.0000
  C   C2504     1.0  0.66269  0.00586  0.73367  1.0000
  C   C2505     1.0  0.70252  0.24102  0.50126  1.0000
  C   C2506     1.0  0.69494  0.07181  0.81059  1.0000
  S   S329      1.0  0.71411  0.08386  0.82043  1.0000
  H   H2002     1.0  0.57903  0.30804  0.62771  1.0000
  H   H2003     1.0  0.56342  0.25384  0.50715  1.0000
  H   H2004     1.0  0.59712  0.21124  0.55393  1.0000
  H   H2005     1.0  0.71501  0.12583  0.57125  1.0000
  H   H2006     1.0  0.70970  0.03308  0.82725  1.0000
  S   S330      1.0  0.51384  0.32086  0.60042  1.0000
  C   C2507     1.0  0.50987  0.25412  0.52540  1.0000
  H   H2007     1.0  0.69824  0.09345  0.78337  1.0000
  H   H2008     1.0  0.60025  0.29717  0.56967  1.0000
  C   C2508     1.0  0.71256  0.07009  0.72962  1.0000
  C   C2509     1.0  0.71223  0.02358  0.81667  1.0000
  S   S331      1.0  0.62112  0.00646  0.69883  1.0000
  H   H2009     1.0  0.69198  0.13287  0.67193  1.0000
  H   H2010     1.0  0.59223  0.21056  0.51625  1.0000
  H   H2011     1.0  0.72972  0.23837  0.59539  1.0000
  C   C2510     1.0  0.51715  0.22355  0.51003  1.0000
  C   C2511     1.0  0.52040  0.22287  0.58078  1.0000
  H   H2012     1.0  0.66756  0.18673  0.61484  1.0000
  C   C2512     1.0  0.48756  0.28535  0.64954  1.0000
  H   H2013     1.0  0.62779  0.99971  0.82043  1.0000
  C   C2513     1.0  0.58639  0.30750  0.65972  1.0000
  H   H2014     1.0  0.62168  0.31856  0.51255  1.0000
  H   H2015     1.0  0.49869  0.11824  0.48602  1.0000
  C   C2514     1.0  0.72290  0.16184  0.59849  1.0000
  C   C2515     1.0  0.58981  0.02109  0.66919  1.0000
  H   H2016     1.0  0.58834  0.00703  0.72744  1.0000
  S   S332      1.0  0.72156  0.04650  0.86979  1.0000
  C   C2516     1.0  0.50921  0.01192  0.61226  1.0000
  C   C2517     1.0  0.57391  0.01904  0.68401  1.0000
  C   C2518     1.0  0.71620  0.13320  0.58483  1.0000
  C   C2519     1.0  0.67244  0.18186  0.62933  1.0000
  H   H2017     1.0  0.70654  0.12529  0.64006  1.0000
  H   H2018     1.0  0.49990  0.12002  0.60583  1.0000
  C   C2520     1.0  0.52512  0.20808  0.57281  1.0000
  C   C2521     1.0  0.72354  0.11396  0.91422  1.0000
  C   C2522     1.0  0.50530  0.22134  0.52974  1.0000
  C   C2523     1.0  0.70961  0.05298  0.76581  1.0000
  C   C2524     1.0  0.70234  0.05651  0.74697  1.0000
  H   H2019     1.0  0.55061  0.01443  0.62655  1.0000
  S   S333      1.0  0.72205  0.06021  0.92721  1.0000
  C   C2525     1.0  0.53627  0.00889  0.62649  1.0000
  H   H2020     1.0  0.72285  0.12190  0.72151  1.0000
  H   H2021     1.0  0.50206  0.28010  0.70643  1.0000
  H   H2022     1.0  0.70544  0.10889  0.60915  1.0000
  C   C2526     1.0  0.72242  0.15227  0.58098  1.0000
  H   H2023     1.0  0.72732  0.17667  0.59494  1.0000
  C   C2527     1.0  0.72701  0.06314  0.76751  1.0000
  C   C2528     1.0  0.72288  0.26968  0.48124  1.0000
  H   H2024     1.0  0.48775  0.04944  0.83905  1.0000
  C   C2529     1.0  0.68422  0.99363  0.89433  1.0000
  H   H2025     1.0  0.49294  0.23484  0.55305  1.0000
  C   C2530     1.0  0.48665  0.09074  0.81202  1.0000
  C   C2531     1.0  0.48691  0.07230  0.81529  1.0000
  H   H2026     1.0  0.72398  0.01243  0.96810  1.0000
  H   H2027     1.0  0.48564  0.11191  0.64508  1.0000
  H   H2028     1.0  0.54220  0.32262  0.62734  1.0000
  C   C2532     1.0  0.48492  0.07325  0.76814  1.0000
  C   C2533     1.0  0.73008  0.02330  0.80959  1.0000
  C   C2534     1.0  0.58631  0.99377  0.72267  1.0000
  S   S334      1.0  0.67239  0.16964  0.48240  1.0000
  C   C2535     1.0  0.73291  0.20259  0.63921  1.0000
  C   C2536     1.0  0.73353  0.01077  0.79646  1.0000
  C   C2537     1.0  0.55713  0.99698  0.66452  1.0000
  C   C2538     1.0  0.49899  0.99591  0.62636  1.0000
  H   H2029     1.0  0.56422  0.13976  0.48177  1.0000
  C   C2539     1.0  0.48728  0.06358  0.83632  1.0000
  H   H2030     1.0  0.48704  0.06615  0.87016  1.0000
  C   C2540     1.0  0.48632  0.09126  0.85065  1.0000
  H   H2031     1.0  0.48595  0.09854  0.86432  1.0000
  C   C2541     1.0  0.48691  0.07301  0.85394  1.0000
  C   C2542     1.0  0.73382  0.24999  0.50659  1.0000
  H   H2032     1.0  0.58385  0.20503  0.48125  1.0000
  H   H2033     1.0  0.57524  0.23408  0.48173  1.0000
  H   H2034     1.0  0.59236  0.30993  0.48257  1.0000
  H   H2035     1.0  0.69744  0.02372  0.97929  1.0000
  S   S335      1.0  0.71941  0.58787  0.09217  1.0000
  H   H2036     1.0  0.65318  0.62293  0.00439  1.0000
  C   C2543     1.0  0.64466  0.42151  0.45236  1.0000
  Fe  Fe167     1.0  0.67000  0.47046  0.37792  1.0000
  S   S336      1.0  0.66777  0.44056  0.38514  1.0000
  S   S337      1.0  0.66547  0.48560  0.40584  1.0000
  Fe  Fe168     1.0  0.67337  0.47072  0.32846  1.0000
  S   S338      1.0  0.67177  0.44064  0.33197  1.0000
  S   S339      1.0  0.67527  0.49002  0.29679  1.0000
  Fe  Fe169     1.0  0.64939  0.43746  0.36032  1.0000
  S   S340      1.0  0.62155  0.41744  0.36913  1.0000
  Fe  Fe170     1.0  0.69050  0.44659  0.35648  1.0000
  S   S341      1.0  0.71250  0.43279  0.36286  1.0000
  S   S342      1.0  0.64970  0.46706  0.35522  1.0000
  S   S343      1.0  0.69404  0.47696  0.35082  1.0000
  C   C2544     1.0  0.59555  0.46090  0.30190  1.0000
  C   C2545     1.0  0.48928  0.60618  0.29375  1.0000
  H   H2037     1.0  0.52544  0.60926  0.08838  1.0000
  H   H2038     1.0  0.62467  0.65036  0.00982  1.0000
  C   C2546     1.0  0.55658  0.38910  0.37662  1.0000
  C   C2547     1.0  0.54952  0.34766  0.23881  1.0000
  H   H2039     1.0  0.62054  0.41251  0.12089  1.0000
  C   C2548     1.0  0.69724  0.52096  0.17435  1.0000
  C   C2549     1.0  0.62889  0.36334  0.47087  1.0000
  H   H2040     1.0  0.62107  0.47505  0.31020  1.0000
  C   C2550     1.0  0.66460  0.43446  0.47634  1.0000
  Fe  Fe171     1.0  0.51111  0.36721  0.17257  1.0000
  S   S344      1.0  0.54123  0.38084  0.16140  1.0000
  S   S345      1.0  0.49818  0.36934  0.20585  1.0000
  H   H2041     1.0  0.57288  0.34765  0.44814  1.0000
  C   C2551     1.0  0.70718  0.35936  0.34027  1.0000
  C   C2552     1.0  0.65542  0.40163  0.47771  1.0000
  Fe  Fe172     1.0  0.61411  0.51785  0.17927  1.0000
  S   S346      1.0  0.61016  0.51038  0.14662  1.0000
  S   S347      1.0  0.60940  0.54452  0.18669  1.0000
  Fe  Fe173     1.0  0.62630  0.48396  0.19405  1.0000
  S   S348      1.0  0.62358  0.47396  0.16211  1.0000
  S   S349      1.0  0.63193  0.46498  0.22172  1.0000
  Fe  Fe174     1.0  0.63689  0.50350  0.14643  1.0000
  S   S350      1.0  0.65830  0.51146  0.11551  1.0000
  Fe  Fe175     1.0  0.59724  0.48175  0.16507  1.0000
  S   S351      1.0  0.56877  0.46624  0.16179  1.0000
  S   S352      1.0  0.64168  0.51272  0.17818  1.0000
  S   S353      1.0  0.59913  0.48994  0.19791  1.0000
  Fe  Fe176     1.0  0.50856  0.60289  0.19680  1.0000
  S   S354      1.0  0.50295  0.60931  0.16269  1.0000
  C   C2553     1.0  0.58338  0.44386  0.30215  1.0000
  Fe  Fe177     1.0  0.51970  0.56892  0.18751  1.0000
  S   S355      1.0  0.51518  0.57287  0.15281  1.0000
  S   S356      1.0  0.52612  0.54277  0.20061  1.0000
  Fe  Fe178     1.0  0.52922  0.60274  0.15170  1.0000
  S   S357      1.0  0.55168  0.61747  0.12251  1.0000
  C   C2554     1.0  0.53309  0.37224  0.35938  1.0000
  S   S358      1.0  0.53573  0.59812  0.18561  1.0000
  C   C2555     1.0  0.68051  0.48474  0.46524  1.0000
  C   C2556     1.0  0.58622  0.54391  0.19084  1.0000
  C   C2557     1.0  0.58116  0.56024  0.19117  1.0000
  C   C2558     1.0  0.56273  0.56007  0.19391  1.0000
  C   C2559     1.0  0.54929  0.54347  0.19696  1.0000
  C   C2560     1.0  0.55433  0.52709  0.19716  1.0000
  C   C2561     1.0  0.57276  0.52733  0.19377  1.0000
  H   H2042     1.0  0.59152  0.57302  0.18900  1.0000
  H   H2043     1.0  0.55891  0.57271  0.19390  1.0000
  H   H2044     1.0  0.54396  0.51425  0.19918  1.0000
  H   H2045     1.0  0.57650  0.51469  0.19332  1.0000
  C   C2562     1.0  0.66283  0.61920  0.19270  1.0000
  C   C2563     1.0  0.56263  0.64133  0.11577  1.0000
  C   C2564     1.0  0.49427  0.62859  0.26070  1.0000
  C   C2565     1.0  0.70191  0.56698  0.09743  1.0000
  C   C2566     1.0  0.68956  0.56264  0.11726  1.0000
  C   C2567     1.0  0.67601  0.54585  0.12289  1.0000
  C   C2568     1.0  0.67466  0.53312  0.10869  1.0000
  C   C2569     1.0  0.68690  0.53752  0.08874  1.0000
  C   C2570     1.0  0.70042  0.55441  0.08306  1.0000
  H   H2046     1.0  0.69050  0.57235  0.12836  1.0000
  H   H2047     1.0  0.66673  0.54266  0.13829  1.0000
  H   H2048     1.0  0.68595  0.52777  0.07765  1.0000
  H   H2049     1.0  0.70984  0.55753  0.06777  1.0000
  C   C2571     1.0  0.55100  0.35786  0.21812  1.0000
  H   H2050     1.0  0.57136  0.44342  0.29490  1.0000
  C   C2572     1.0  0.62020  0.60390  0.13291  1.0000
  H   H2051     1.0  0.65076  0.60467  0.22528  1.0000
  C   C2573     1.0  0.54886  0.40456  0.16169  1.0000
  C   C2574     1.0  0.56725  0.41389  0.15410  1.0000
  C   C2575     1.0  0.57364  0.43277  0.15433  1.0000
  C   C2576     1.0  0.56160  0.44245  0.16190  1.0000
  C   C2577     1.0  0.54320  0.43313  0.16937  1.0000
  C   C2578     1.0  0.53688  0.41422  0.16950  1.0000
  H   H2052     1.0  0.57653  0.40651  0.14787  1.0000
  H   H2053     1.0  0.58775  0.43994  0.14820  1.0000
  H   H2054     1.0  0.53380  0.44057  0.17515  1.0000
  H   H2055     1.0  0.52271  0.40713  0.17544  1.0000
  C   C2579     1.0  0.56105  0.33599  0.45242  1.0000
  H   H2056     1.0  0.67607  0.62456  0.19697  1.0000
  C   C2580     1.0  0.58076  0.61915  0.20216  1.0000
  C   C2581     1.0  0.65451  0.43673  0.45976  1.0000
  H   H2057     1.0  0.50901  0.50240  0.18696  1.0000
  C   C2582     1.0  0.51695  0.61198  0.05694  1.0000
  C   C2583     1.0  0.67912  0.61718  0.00456  1.0000
  H   H2058     1.0  0.63612  0.34746  0.44656  1.0000
  H   H2059     1.0  0.50304  0.60399  0.06326  1.0000
  H   H2060     1.0  0.68079  0.59416  0.09299  1.0000
  C   C2584     1.0  0.69184  0.55592  0.18184  1.0000
  C   C2585     1.0  0.58035  0.37189  0.30720  1.0000
  H   H2061     1.0  0.71512  0.40061  0.41812  1.0000
  H   H2062     1.0  0.70829  0.53108  0.13992  1.0000
  C   C2586     1.0  0.51443  0.44483  0.11805  1.0000
  P   P84       1.0  0.63948  0.62112  0.13762  1.0000
  C   C2587     1.0  0.60638  0.60901  0.12316  1.0000
  C   C2588     1.0  0.61859  0.64207  0.06182  1.0000
  C   C2589     1.0  0.49669  0.32527  0.25975  1.0000
  H   H2063     1.0  0.66747  0.47881  0.19350  1.0000
  C   C2590     1.0  0.49726  0.59823  0.25791  1.0000
  C   C2591     1.0  0.55844  0.39932  0.27217  1.0000
  C   C2592     1.0  0.70401  0.54106  0.24983  1.0000
  H   H2064     1.0  0.60626  0.41669  0.32740  1.0000
  H   H2065     1.0  0.51246  0.61728  0.02381  1.0000
  C   C2593     1.0  0.67814  0.48388  0.42704  1.0000
  C   C2594     1.0  0.67090  0.48615  0.44788  1.0000
  C   C2595     1.0  0.71874  0.37476  0.34579  1.0000
  C   C2596     1.0  0.69793  0.48227  0.46161  1.0000
  C   C2597     1.0  0.70538  0.48031  0.44066  1.0000
  C   C2598     1.0  0.69532  0.48065  0.42351  1.0000
  H   H2066     1.0  0.65765  0.48868  0.45061  1.0000
  C   C2599     1.0  0.71523  0.51546  0.24153  1.0000
  H   H2067     1.0  0.71887  0.47843  0.43765  1.0000
  H   H2068     1.0  0.70104  0.47895  0.40743  1.0000
  C   C2600     1.0  0.66237  0.48298  0.27661  1.0000
  C   C2601     1.0  0.65353  0.46456  0.27726  1.0000
  C   C2602     1.0  0.64404  0.45929  0.26045  1.0000
  C   C2603     1.0  0.64318  0.47240  0.24298  1.0000
  C   C2604     1.0  0.65162  0.49088  0.24257  1.0000
  C   C2605     1.0  0.66132  0.49612  0.25924  1.0000
  H   H2069     1.0  0.65428  0.45434  0.29052  1.0000
  H   H2070     1.0  0.63748  0.44498  0.26090  1.0000
  H   H2071     1.0  0.65094  0.50108  0.22923  1.0000
  H   H2072     1.0  0.66810  0.51039  0.25867  1.0000
  C   C2606     1.0  0.55293  0.63288  0.04073  1.0000
  H   H2073     1.0  0.51807  0.41973  0.28707  1.0000
  C   C2607     1.0  0.60997  0.36043  0.35072  1.0000
  C   C2608     1.0  0.62606  0.37375  0.34051  1.0000
  C   C2609     1.0  0.63002  0.39133  0.34619  1.0000
  C   C2610     1.0  0.61788  0.39551  0.36213  1.0000
  C   C2611     1.0  0.60198  0.38212  0.37241  1.0000
  C   C2612     1.0  0.59803  0.36465  0.36676  1.0000
  H   H2074     1.0  0.63536  0.37050  0.32813  1.0000
  H   H2075     1.0  0.64230  0.40164  0.33816  1.0000
  H   H2076     1.0  0.59270  0.38518  0.38495  1.0000
  H   H2077     1.0  0.58589  0.35436  0.37515  1.0000
  C   C2613     1.0  0.50444  0.34362  0.26082  1.0000
  C   C2614     1.0  0.68497  0.58458  0.16969  1.0000
  C   C2615     1.0  0.66646  0.57628  0.17728  1.0000
  C   C2616     1.0  0.66072  0.55817  0.18812  1.0000
  C   C2617     1.0  0.67336  0.54808  0.19055  1.0000
  C   C2618     1.0  0.64477  0.40380  0.46152  1.0000
  H   H2078     1.0  0.48706  0.63368  0.29341  1.0000
  C   C2619     1.0  0.69769  0.57454  0.17226  1.0000
  H   H2079     1.0  0.66867  0.53406  0.19899  1.0000
  C   C2620     1.0  0.67947  0.48915  0.15974  1.0000
  C   C2621     1.0  0.69113  0.50390  0.14483  1.0000
  C   C2622     1.0  0.69992  0.51975  0.15203  1.0000
  H   H2080     1.0  0.68946  0.59868  0.16137  1.0000
  H   H2081     1.0  0.65650  0.58375  0.17477  1.0000
  H   H2082     1.0  0.64639  0.55180  0.19427  1.0000
  C   C2623     1.0  0.48814  0.48425  0.17378  1.0000
  C   C2624     1.0  0.51659  0.33448  0.29330  1.0000
  H   H2083     1.0  0.67222  0.47715  0.15397  1.0000
  C   C2625     1.0  0.49499  0.49443  0.18941  1.0000
  P   P85       1.0  0.57601  0.64665  0.03064  1.0000
  H   H2084     1.0  0.72998  0.46571  0.33024  1.0000
  C   C2626     1.0  0.72693  0.39769  0.40948  1.0000
  H   H2085     1.0  0.69277  0.50333  0.12751  1.0000
  C   C2627     1.0  0.71515  0.39185  0.34139  1.0000
  C   C2628     1.0  0.69981  0.39343  0.33251  1.0000
  C   C2629     1.0  0.68806  0.37798  0.32758  1.0000
  H   H2086     1.0  0.68033  0.65384  0.05735  1.0000
  C   C2630     1.0  0.53965  0.45336  0.33106  1.0000
  H   H2087     1.0  0.60625  0.55435  0.44720  1.0000
  C   C2631     1.0  0.66547  0.62202  0.99449  1.0000
  C   C2632     1.0  0.68545  0.50599  0.18923  1.0000
  C   C2633     1.0  0.58221  0.64668  0.00170  1.0000
  H   H2088     1.0  0.59286  0.47339  0.29476  1.0000
  H   H2089     1.0  0.62507  0.61764  0.07558  1.0000
  H   H2090     1.0  0.71199  0.38404  0.38719  1.0000
  H   H2091     1.0  0.69704  0.40670  0.32958  1.0000
  H   H2092     1.0  0.67609  0.37921  0.32084  1.0000
  H   H2093     1.0  0.49325  0.61175  0.46413  1.0000
  H   H2094     1.0  0.57767  0.56691  0.12525  1.0000
  H   H2095     1.0  0.60208  0.55757  0.14227  1.0000
  C   C2634     1.0  0.52058  0.54062  0.28089  1.0000
  C   C2635     1.0  0.67674  0.49014  0.18196  1.0000
  C   C2636     1.0  0.50877  0.42966  0.13485  1.0000
  H   H2096     1.0  0.53275  0.36836  0.39412  1.0000
  H   H2097     1.0  0.71407  0.43521  0.40926  1.0000
  C   C2637     1.0  0.55948  0.39473  0.33701  1.0000
  H   H2098     1.0  0.62867  0.58081  0.14779  1.0000
  C   C2638     1.0  0.58958  0.57717  0.12724  1.0000
  H   H2099     1.0  0.56685  0.36537  0.31648  1.0000
  H   H2100     1.0  0.71097  0.34227  0.38403  1.0000
  H   H2101     1.0  0.71193  0.58131  0.16636  1.0000
  H   H2102     1.0  0.55691  0.62756  0.07431  1.0000
  C   C2639     1.0  0.51830  0.46656  0.21454  1.0000
  C   C2640     1.0  0.53724  0.47238  0.21161  1.0000
  C   C2641     1.0  0.54583  0.48058  0.22746  1.0000
  C   C2642     1.0  0.53546  0.48306  0.24645  1.0000
  H   H2103     1.0  0.51572  0.43753  0.32133  1.0000
  P   P86       1.0  0.54628  0.49391  0.26702  1.0000
  C   C2643     1.0  0.57041  0.50315  0.25704  1.0000
  C   C2644     1.0  0.53618  0.51214  0.27260  1.0000
  H   H2104     1.0  0.57661  0.60908  0.04713  1.0000
  C   C2645     1.0  0.70945  0.52547  0.25680  1.0000
  C   C2646     1.0  0.53448  0.51691  0.29352  1.0000
  C   C2647     1.0  0.57369  0.64774  0.19013  1.0000
  C   C2648     1.0  0.53006  0.52185  0.25589  1.0000
  C   C2649     1.0  0.58185  0.49143  0.25745  1.0000
  C   C2650     1.0  0.60058  0.49834  0.24995  1.0000
  C   C2651     1.0  0.60799  0.51701  0.24189  1.0000
  C   C2652     1.0  0.59670  0.52875  0.24142  1.0000
  C   C2653     1.0  0.57795  0.52187  0.24879  1.0000
  C   C2654     1.0  0.54356  0.47781  0.29197  1.0000
  C   C2655     1.0  0.52905  0.46181  0.29747  1.0000
  H   H2105     1.0  0.51177  0.46032  0.20210  1.0000
  C   C2656     1.0  0.71535  0.52090  0.21930  1.0000
  C   C2657     1.0  0.55415  0.46919  0.32569  1.0000
  C   C2658     1.0  0.55603  0.48144  0.30635  1.0000
  C   C2659     1.0  0.57973  0.64726  0.10208  1.0000
  H   H2106     1.0  0.65767  0.52214  0.46848  1.0000
  H   H2107     1.0  0.54530  0.47081  0.19683  1.0000
  H   H2108     1.0  0.56052  0.48532  0.22442  1.0000
  C   C2660     1.0  0.60172  0.52862  0.46867  1.0000
  H   H2109     1.0  0.54247  0.63961  0.22851  1.0000
  C   C2661     1.0  0.59116  0.63745  0.04566  1.0000
  C   C2662     1.0  0.57800  0.38353  0.45996  1.0000
  C   C2663     1.0  0.59151  0.63435  0.99444  1.0000
  H   H2110     1.0  0.53143  0.51866  0.23953  1.0000
  H   H2111     1.0  0.57628  0.47692  0.26342  1.0000
  H   H2112     1.0  0.60934  0.48920  0.24990  1.0000
  H   H2113     1.0  0.62243  0.52231  0.23555  1.0000
  H   H2114     1.0  0.60242  0.54314  0.23466  1.0000
  H   H2115     1.0  0.56945  0.53117  0.24764  1.0000
  C   C2664     1.0  0.54019  0.62994  0.02662  1.0000
  H   H2116     1.0  0.54056  0.35405  0.20825  1.0000
  H   H2117     1.0  0.68469  0.40151  0.39093  1.0000
  C   C2665     1.0  0.72961  0.55323  0.16720  1.0000
  H   H2118     1.0  0.56724  0.49378  0.30265  1.0000
  H   H2119     1.0  0.53922  0.50984  0.30669  1.0000
  H   H2120     1.0  0.49317  0.46500  0.23523  1.0000
  C   C2666     1.0  0.63800  0.65340  0.11236  1.0000
  C   C2667     1.0  0.60298  0.42892  0.32034  1.0000
  H   H2121     1.0  0.51778  0.54356  0.24696  1.0000
  C   C2668     1.0  0.48983  0.62376  0.28360  1.0000
  C   C2669     1.0  0.58233  0.61572  0.18073  1.0000
  C   C2670     1.0  0.58015  0.62849  0.16396  1.0000
  S   S359      1.0  0.52911  0.34100  0.31393  1.0000
  C   C2671     1.0  0.66010  0.62329  0.17119  1.0000
  H   H2122     1.0  0.70560  0.61223  0.99949  1.0000
  C   C2672     1.0  0.69113  0.63809  0.10189  1.0000
  C   C2673     1.0  0.51421  0.34819  0.27763  1.0000
  H   H2123     1.0  0.58486  0.60304  0.17709  1.0000
  H   H2124     1.0  0.58129  0.62582  0.14737  1.0000
  C   C2674     1.0  0.64305  0.61614  0.16547  1.0000
  C   C2675     1.0  0.61769  0.42445  0.14995  1.0000
  C   C2676     1.0  0.61615  0.40986  0.13845  1.0000
  C   C2677     1.0  0.60884  0.39189  0.14959  1.0000
  C   C2678     1.0  0.60297  0.38850  0.17222  1.0000
  C   C2679     1.0  0.60391  0.40313  0.18377  1.0000
  C   C2680     1.0  0.61164  0.42112  0.17254  1.0000
  P   P87       1.0  0.59781  0.39890  0.21312  1.0000
  C   C2681     1.0  0.57936  0.37837  0.22282  1.0000
  C   C2682     1.0  0.61880  0.39806  0.22252  1.0000
  C   C2683     1.0  0.62267  0.38124  0.22822  1.0000
  C   C2684     1.0  0.63944  0.38078  0.23421  1.0000
  C   C2685     1.0  0.65254  0.39711  0.23425  1.0000
  C   C2686     1.0  0.64897  0.41390  0.22799  1.0000
  C   C2687     1.0  0.63232  0.41437  0.22177  1.0000
  C   C2688     1.0  0.57751  0.36831  0.24384  1.0000
  C   C2689     1.0  0.66021  0.62175  0.11972  1.0000
  H   H2125     1.0  0.60950  0.41357  0.28444  1.0000
  C   C2690     1.0  0.52229  0.53600  0.26004  1.0000
  C   C2691     1.0  0.56576  0.37325  0.21023  1.0000
  C   C2692     1.0  0.58898  0.41719  0.22132  1.0000
  C   C2693     1.0  0.57548  0.42227  0.21097  1.0000
  C   C2694     1.0  0.56855  0.43651  0.21686  1.0000
  C   C2695     1.0  0.57500  0.44574  0.23318  1.0000
  C   C2696     1.0  0.58822  0.44059  0.24383  1.0000
  C   C2697     1.0  0.59502  0.42621  0.23815  1.0000
  H   H2126     1.0  0.55856  0.33412  0.41878  1.0000
  H   H2127     1.0  0.54040  0.41897  0.31207  1.0000
  H   H2128     1.0  0.60762  0.38059  0.14066  1.0000
  H   H2129     1.0  0.59765  0.37448  0.18062  1.0000
  H   H2130     1.0  0.61299  0.43260  0.18120  1.0000
  H   H2131     1.0  0.61293  0.36848  0.22764  1.0000
  H   H2132     1.0  0.64233  0.36777  0.23867  1.0000
  H   H2133     1.0  0.66552  0.39678  0.23891  1.0000
  H   H2134     1.0  0.65916  0.42662  0.22769  1.0000
  H   H2135     1.0  0.63011  0.42752  0.21614  1.0000
  H   H2136     1.0  0.58727  0.37255  0.25431  1.0000
  C   C2698     1.0  0.60428  0.39889  0.28936  1.0000
  H   H2137     1.0  0.57443  0.65426  0.15544  1.0000
  H   H2138     1.0  0.56636  0.38121  0.19437  1.0000
  H   H2139     1.0  0.57036  0.41527  0.19826  1.0000
  C   C2699     1.0  0.49819  0.61593  0.24781  1.0000
  H   H2140     1.0  0.56994  0.45703  0.23724  1.0000
  H   H2141     1.0  0.59372  0.44810  0.25597  1.0000
  H   H2142     1.0  0.60518  0.42247  0.24670  1.0000
  H   H2143     1.0  0.68258  0.50658  0.20644  1.0000
  C   C2700     1.0  0.59463  0.38045  0.46345  1.0000
  H   H2144     1.0  0.69443  0.42836  0.44571  1.0000
  H   H2145     1.0  0.53746  0.37785  0.32444  1.0000
  C   C2701     1.0  0.52227  0.61949  0.03473  1.0000
  H   H2146     1.0  0.50021  0.58838  0.24809  1.0000
  H   H2147     1.0  0.57941  0.40801  0.35537  1.0000
  C   C2702     1.0  0.54278  0.38151  0.33887  1.0000
  C   C2703     1.0  0.71988  0.43887  0.42343  1.0000
  H   H2148     1.0  0.56096  0.34557  0.26825  1.0000
  H   H2149     1.0  0.55842  0.44060  0.20847  1.0000
  C   C2704     1.0  0.55685  0.40661  0.29149  1.0000
  Fe  Fe179     1.0  0.48465  0.33949  0.20898  1.0000
  S   S360      1.0  0.49526  0.62475  0.41840  1.0000
  H   H2150     1.0  0.58234  0.60918  0.21520  1.0000
  H   H2151     1.0  0.71896  0.56226  0.13862  1.0000
  C   C2705     1.0  0.56635  0.39838  0.35611  1.0000
  H   H2152     1.0  0.52134  0.40701  0.25279  1.0000
  C   C2706     1.0  0.57663  0.63520  0.20685  1.0000
  H   H2153     1.0  0.62264  0.64128  0.16730  1.0000
  C   C2707     1.0  0.70940  0.53627  0.21221  1.0000
  H   H2154     1.0  0.52547  0.53480  0.31374  1.0000
  C   C2708     1.0  0.61030  0.38792  0.44746  1.0000
  H   H2155     1.0  0.59803  0.59665  0.06642  1.0000
  H   H2156     1.0  0.51093  0.41662  0.13203  1.0000
  C   C2709     1.0  0.72523  0.38837  0.39180  1.0000
  H   H2157     1.0  0.58582  0.63724  0.09590  1.0000
  H   H2158     1.0  0.67331  0.65020  0.12039  1.0000
  C   C2710     1.0  0.55479  0.65442  0.12350  1.0000
  C   C2711     1.0  0.63473  0.64314  0.13350  1.0000
  C   C2712     1.0  0.55378  0.32877  0.47454  1.0000
  C   C2713     1.0  0.64857  0.60802  0.20867  1.0000
  C   C2714     1.0  0.62871  0.60528  0.18175  1.0000
  P   P88       1.0  0.57261  0.40530  0.31023  1.0000
  H   H2159     1.0  0.69076  0.52763  0.45780  1.0000
  C   C2715     1.0  0.60642  0.64919  0.05106  1.0000
  H   H2160     1.0  0.65185  0.59331  0.11547  1.0000
  H   H2161     1.0  0.60709  0.62323  0.11782  1.0000
  H   H2162     1.0  0.58039  0.59973  0.11320  1.0000
  C   C2716     1.0  0.61144  0.46191  0.31069  1.0000
  H   H2163     1.0  0.52013  0.36243  0.27837  1.0000
  C   C2717     1.0  0.60329  0.57194  0.13680  1.0000
  C   C2718     1.0  0.58678  0.39101  0.30174  1.0000
  C   C2719     1.0  0.61552  0.38786  0.28369  1.0000
  C   C2720     1.0  0.60916  0.36886  0.28962  1.0000
  C   C2721     1.0  0.59149  0.36090  0.30102  1.0000
  H   H2164     1.0  0.62927  0.39411  0.27509  1.0000
  H   H2165     1.0  0.61799  0.36026  0.28579  1.0000
  H   H2166     1.0  0.58667  0.34620  0.30585  1.0000
  H   H2167     1.0  0.66938  0.40234  0.42770  1.0000
  H   H2168     1.0  0.67136  0.63189  0.15910  1.0000
  C   C2722     1.0  0.71634  0.43987  0.46214  1.0000
  C   C2723     1.0  0.51639  0.47754  0.24904  1.0000
  C   C2724     1.0  0.69179  0.36097  0.33139  1.0000
  H   H2169     1.0  0.63037  0.65128  0.06584  1.0000
  H   H2170     1.0  0.53798  0.33584  0.24497  1.0000
  P   P89       1.0  0.50188  0.48581  0.14735  1.0000
  C   C2725     1.0  0.50410  0.46361  0.14270  1.0000
  S   S361      1.0  0.55257  0.33576  0.36271  1.0000
  C   C2726     1.0  0.54000  0.37599  0.37827  1.0000
  C   C2727     1.0  0.58826  0.61843  0.05119  1.0000
  H   H2171     1.0  0.51660  0.47342  0.10877  1.0000
  H   H2172     1.0  0.57555  0.63763  0.22352  1.0000
  C   C2728     1.0  0.50786  0.46918  0.23323  1.0000
  H   H2173     1.0  0.71954  0.51279  0.20772  1.0000
  S   S362      1.0  0.49903  0.33676  0.17645  1.0000
  S   S363      1.0  0.50498  0.62304  0.21929  1.0000
  C   C2729     1.0  0.50055  0.43136  0.15543  1.0000
  C   C2730     1.0  0.49089  0.65318  0.43962  1.0000
  C   C2731     1.0  0.52424  0.50143  0.14545  1.0000
  C   C2732     1.0  0.52605  0.51970  0.14823  1.0000
  C   C2733     1.0  0.54323  0.53163  0.14727  1.0000
  C   C2734     1.0  0.55876  0.52538  0.14391  1.0000
  C   C2735     1.0  0.55713  0.50724  0.14144  1.0000
  C   C2736     1.0  0.53999  0.49527  0.14232  1.0000
  H   H2174     1.0  0.71082  0.64867  0.05054  1.0000
  S   S364      1.0  0.48885  0.37357  0.15605  1.0000
  H   H2175     1.0  0.63706  0.42372  0.43941  1.0000
  C   C2737     1.0  0.57687  0.39413  0.44054  1.0000
  C   C2738     1.0  0.69496  0.61605  0.99180  1.0000
  H   H2176     1.0  0.56394  0.47200  0.33658  1.0000
  H   H2177     1.0  0.56393  0.39634  0.43783  1.0000
  H   H2178     1.0  0.56213  0.39171  0.39124  1.0000
  H   H2179     1.0  0.69944  0.55844  0.22265  1.0000
  H   H2180     1.0  0.59499  0.37204  0.47855  1.0000
  C   C2739     1.0  0.49824  0.44825  0.15943  1.0000
  H   H2181     1.0  0.61538  0.59988  0.17791  1.0000
  H   H2182     1.0  0.52089  0.44352  0.10211  1.0000
  C   C2740     1.0  0.60042  0.61133  0.06203  1.0000
  H   H2183     1.0  0.51414  0.52465  0.15181  1.0000
  H   H2184     1.0  0.54439  0.54554  0.14997  1.0000
  H   H2185     1.0  0.57203  0.53438  0.14396  1.0000
  H   H2186     1.0  0.56916  0.50229  0.13927  1.0000
  H   H2187     1.0  0.53925  0.48116  0.14100  1.0000
  H   H2188     1.0  0.52054  0.36162  0.36053  1.0000
  C   C2741     1.0  0.66253  0.60599  0.11178  1.0000
  C   C2742     1.0  0.56261  0.35304  0.25180  1.0000
  C   C2743     1.0  0.59114  0.59569  0.12043  1.0000
  C   C2744     1.0  0.70884  0.43492  0.44398  1.0000
  H   H2189     1.0  0.54398  0.63576  0.00942  1.0000
  P   P90       1.0  0.63199  0.38424  0.45168  1.0000
  C   C2745     1.0  0.70400  0.54650  0.22762  1.0000
  P   P91       1.0  0.70749  0.54189  0.18381  1.0000
  C   C2746     1.0  0.54214  0.41388  0.29685  1.0000
  H   H2190     1.0  0.58905  0.52241  0.46357  1.0000
  C   C2747     1.0  0.52668  0.53108  0.29762  1.0000
  C   C2748     1.0  0.63150  0.60110  0.20319  1.0000
  H   H2191     1.0  0.56592  0.37735  0.47225  1.0000
  C   C2749     1.0  0.60902  0.39862  0.42801  1.0000
  C   C2750     1.0  0.59241  0.40176  0.42461  1.0000
  H   H2192     1.0  0.48547  0.50106  0.26433  1.0000
  C   C2751     1.0  0.67464  0.63785  0.11450  1.0000
  H   H2193     1.0  0.56945  0.39340  0.26782  1.0000
  C   C2752     1.0  0.64405  0.38302  0.42538  1.0000
  C   C2753     1.0  0.63500  0.37201  0.41185  1.0000
  C   C2754     1.0  0.64396  0.37128  0.39123  1.0000
  C   C2755     1.0  0.66186  0.38188  0.38373  1.0000
  C   C2756     1.0  0.67096  0.39294  0.39702  1.0000
  C   C2757     1.0  0.66215  0.39345  0.41785  1.0000
  C   C2758     1.0  0.58710  0.42768  0.31126  1.0000
  H   H2194     1.0  0.59452  0.62416  0.00594  1.0000
  C   C2759     1.0  0.61507  0.44591  0.31999  1.0000
  H   H2195     1.0  0.48731  0.53170  0.09370  1.0000
  C   C2760     1.0  0.62777  0.55462  0.46596  1.0000
  C   C2761     1.0  0.51201  0.46172  0.12190  1.0000
  H   H2196     1.0  0.62738  0.44660  0.32682  1.0000
  C   C2762     1.0  0.61846  0.58522  0.13980  1.0000
  H   H2197     1.0  0.54687  0.39355  0.24357  1.0000
  H   H2198     1.0  0.62088  0.40463  0.41538  1.0000
  H   H2199     1.0  0.59169  0.41005  0.40950  1.0000
  H   H2200     1.0  0.50662  0.52150  0.11778  1.0000
  H   H2201     1.0  0.67747  0.61429  0.02223  1.0000
  H   H2202     1.0  0.62091  0.36417  0.41711  1.0000
  H   H2203     1.0  0.63682  0.36285  0.38085  1.0000
  H   H2204     1.0  0.66853  0.38179  0.36747  1.0000
  C   C2763     1.0  0.67899  0.60636  0.09900  1.0000
  C   C2764     1.0  0.52954  0.61491  0.07108  1.0000
  C   C2765     1.0  0.57597  0.64446  0.16861  1.0000
  H   H2205     1.0  0.70775  0.43721  0.47802  1.0000
  H   H2206     1.0  0.70887  0.52090  0.27410  1.0000
  H   H2207     1.0  0.53051  0.63823  0.26731  1.0000
  H   H2208     1.0  0.70614  0.62245  0.08452  1.0000
  H   H2209     1.0  0.62336  0.43840  0.14131  1.0000
  C   C2766     1.0  0.61562  0.62315  0.06726  1.0000
  C   C2767     1.0  0.53123  0.40699  0.26357  1.0000
  H   H2210     1.0  0.53820  0.44391  0.34611  1.0000
  H   H2211     1.0  0.71008  0.34619  0.34256  1.0000
  C   C2768     1.0  0.54565  0.39944  0.25833  1.0000
  Fe  Fe180     1.0  0.48951  0.57905  0.16696  1.0000
  C   C2769     1.0  0.69331  0.62234  0.09418  1.0000
  H   H2212     1.0  0.62044  0.59232  0.21551  1.0000
  C   C2770     1.0  0.52946  0.41421  0.28285  1.0000
  H   H2213     1.0  0.50814  0.47987  0.26320  1.0000
  H   H2214     1.0  0.51469  0.55173  0.28399  1.0000
  C   C2771     1.0  0.54711  0.65144  0.23614  1.0000
  H   H2215     1.0  0.64452  0.64886  0.09854  1.0000
  C   C2772     1.0  0.49233  0.63524  0.44163  1.0000
  H   H2216     1.0  0.71761  0.64764  0.00278  1.0000
  S   S365      1.0  0.60507  0.33845  0.34374  1.0000
  C   C2773     1.0  0.54744  0.62530  0.06302  1.0000
  H   H2217     1.0  0.48883  0.50346  0.21985  1.0000
  S   S366      1.0  0.49902  0.64223  0.35427  1.0000
  H   H2218     1.0  0.49198  0.44918  0.17557  1.0000
  H   H2219     1.0  0.50289  0.35432  0.24878  1.0000
  S   S367      1.0  0.72845  0.62271  0.03679  1.0000
  C   C2774     1.0  0.49193  0.62558  0.46246  1.0000
  H   H2220     1.0  0.51026  0.64737  0.16872  1.0000
  C   C2775     1.0  0.49285  0.59339  0.28082  1.0000
  C   C2776     1.0  0.52703  0.44976  0.31704  1.0000
  S   S368      1.0  0.49311  0.57329  0.20185  1.0000
  H   H2221     1.0  0.51924  0.45854  0.28683  1.0000
  C   C2777     1.0  0.68477  0.52531  0.47496  1.0000
  C   C2778     1.0  0.61141  0.54662  0.45944  1.0000
  C   C2779     1.0  0.55301  0.32828  0.43574  1.0000
  H   H2222     1.0  0.65418  0.45027  0.45264  1.0000
  C   C2780     1.0  0.62942  0.33149  0.47866  1.0000
  H   H2223     1.0  0.63529  0.56858  0.45879  1.0000
  H   H2224     1.0  0.71918  0.50323  0.24709  1.0000
  C   C2781     1.0  0.63190  0.34754  0.46367  1.0000
  H   H2225     1.0  0.53680  0.64276  0.18425  1.0000
  H   H2226     1.0  0.69941  0.54867  0.26179  1.0000
  H   H2227     1.0  0.49243  0.57979  0.28859  1.0000
  C   C2782     1.0  0.62590  0.64923  0.15097  1.0000
  H   H2228     1.0  0.72425  0.40401  0.34485  1.0000
  C   C2783     1.0  0.53597  0.65658  0.17922  1.0000
  C   C2784     1.0  0.72337  0.33811  0.38071  1.0000
  H   H2229     1.0  0.49400  0.58782  0.42856  1.0000
  H   H2230     1.0  0.49626  0.41957  0.16838  1.0000
  H   H2231     1.0  0.54151  0.65006  0.13371  1.0000
  H   H2232     1.0  0.68276  0.34903  0.32737  1.0000
  H   H2233     1.0  0.70226  0.65050  0.09795  1.0000
  C   C2785     1.0  0.49466  0.51161  0.11558  1.0000
  C   C2786     1.0  0.48971  0.49341  0.12667  1.0000
  H   H2234     1.0  0.49495  0.64230  0.25297  1.0000
  C   C2787     1.0  0.54008  0.65067  0.25810  1.0000
  S   S369      1.0  0.48469  0.59988  0.32251  1.0000
  H   H2235     1.0  0.49643  0.57105  0.46408  1.0000
  C   C2788     1.0  0.73101  0.56211  0.14566  1.0000
  C   C2789     1.0  0.48779  0.65150  0.47920  1.0000
  H   H2236     1.0  0.71870  0.35828  0.47909  1.0000
  H   H2237     1.0  0.52695  0.57651  0.65817  1.0000
  S   S370      1.0  0.71691  0.59091  0.84603  1.0000
  H   H2238     1.0  0.49344  0.34538  0.66505  1.0000
  C   C2790     1.0  0.62589  0.51389  0.57715  1.0000
  H   H2239     1.0  0.72761  0.43347  0.52059  1.0000
  S   S371      1.0  0.60460  0.34192  0.58001  1.0000
  S   S372      1.0  0.55824  0.34207  0.55831  1.0000
  Fe  Fe181     1.0  0.66170  0.44140  0.54085  1.0000
  S   S373      1.0  0.66530  0.47107  0.52851  1.0000
  S   S374      1.0  0.63769  0.42330  0.53075  1.0000
  Fe  Fe182     1.0  0.69690  0.44915  0.55918  1.0000
  S   S375      1.0  0.70324  0.47946  0.54775  1.0000
  S   S376      1.0  0.71469  0.43505  0.57677  1.0000
  Fe  Fe183     1.0  0.67371  0.47547  0.56079  1.0000
  S   S377      1.0  0.66291  0.49442  0.58041  1.0000
  Fe  Fe184     1.0  0.69423  0.47175  0.51682  1.0000
  C   C2791     1.0  0.58382  0.33463  0.63708  1.0000
  S   S378      1.0  0.66776  0.44557  0.57411  1.0000
  S   S379      1.0  0.69011  0.44175  0.52731  1.0000
  C   C2792     1.0  0.62492  0.52646  0.49087  1.0000
  C   C2793     1.0  0.70783  0.55911  0.78672  1.0000
  H   H2240     1.0  0.51699  0.54404  0.77161  1.0000
  H   H2241     1.0  0.66182  0.55526  0.74171  1.0000
  Fe  Fe185     1.0  0.72687  0.62161  0.83770  1.0000
  S   S380      1.0  0.52560  0.62299  0.58009  1.0000
  C   C2794     1.0  0.68454  0.38882  0.56546  1.0000
  H   H2242     1.0  0.60484  0.61587  0.82957  1.0000
  C   C2795     1.0  0.51585  0.54637  0.61589  1.0000
  C   C2796     1.0  0.62563  0.53746  0.53917  1.0000
  Fe  Fe186     1.0  0.50062  0.35743  0.71153  1.0000
  S   S381      1.0  0.50703  0.36639  0.74318  1.0000
  S   S382      1.0  0.52125  0.34594  0.69259  1.0000
  C   C2797     1.0  0.60605  0.52397  0.79994  1.0000
  H   H2243     1.0  0.63646  0.64962  0.97129  1.0000
  Fe  Fe187     1.0  0.49985  0.39207  0.73049  1.0000
  S   S383      1.0  0.51520  0.42186  0.72942  1.0000
  C   C2798     1.0  0.63546  0.62957  0.85562  1.0000
  S   S384      1.0  0.49513  0.38377  0.69819  1.0000
  Fe  Fe188     1.0  0.64453  0.50664  0.75063  1.0000
  S   S385      1.0  0.65176  0.52178  0.71595  1.0000
  S   S386      1.0  0.65489  0.51694  0.78054  1.0000
  Fe  Fe189     1.0  0.61466  0.47529  0.73924  1.0000
  S   S387      1.0  0.61963  0.48857  0.70422  1.0000
  S   S388      1.0  0.59508  0.44691  0.75115  1.0000
  Fe  Fe190     1.0  0.64917  0.49405  0.70623  1.0000
  S   S389      1.0  0.66809  0.48553  0.68135  1.0000
  Fe  Fe191     1.0  0.62149  0.51491  0.71698  1.0000
  S   S390      1.0  0.60856  0.53549  0.70102  1.0000
  S   S391      1.0  0.64436  0.47927  0.74089  1.0000
  S   S392      1.0  0.61417  0.50119  0.75208  1.0000
  Fe  Fe192     1.0  0.54196  0.58490  0.74657  1.0000
  S   S393      1.0  0.52129  0.59561  0.76582  1.0000
  S   S394      1.0  0.55376  0.56379  0.76321  1.0000
  Fe  Fe193     1.0  0.54189  0.60873  0.70412  1.0000
  S   S395      1.0  0.52170  0.62176  0.71989  1.0000
  S   S396      1.0  0.55597  0.61449  0.66902  1.0000
  Fe  Fe194     1.0  0.53807  0.62329  0.74738  1.0000
  Fe  Fe195     1.0  0.50084  0.63181  0.57306  1.0000
  Fe  Fe196     1.0  0.50690  0.59297  0.73685  1.0000
  H   H2244     1.0  0.72919  0.51097  0.56650  1.0000
  S   S397      1.0  0.55953  0.61255  0.72998  1.0000
  S   S398      1.0  0.52631  0.58001  0.71930  1.0000
  C   C2799     1.0  0.59312  0.54314  0.71838  1.0000
  C   C2800     1.0  0.58453  0.55583  0.70951  1.0000
  C   C2801     1.0  0.57232  0.56222  0.72312  1.0000
  C   C2802     1.0  0.56855  0.55577  0.74565  1.0000
  C   C2803     1.0  0.57692  0.54291  0.75448  1.0000
  C   C2804     1.0  0.58930  0.53679  0.74093  1.0000
  H   H2245     1.0  0.58745  0.56087  0.69210  1.0000
  H   H2246     1.0  0.56594  0.57221  0.71620  1.0000
  H   H2247     1.0  0.57410  0.53791  0.77189  1.0000
  H   H2248     1.0  0.59605  0.52737  0.74805  1.0000
  C   C2805     1.0  0.66598  0.52216  0.48111  1.0000
  C   C2806     1.0  0.69365  0.55205  0.80455  1.0000
  C   C2807     1.0  0.67758  0.53923  0.80232  1.0000
  C   C2808     1.0  0.67538  0.53339  0.78222  1.0000
  C   C2809     1.0  0.68943  0.54071  0.76427  1.0000
  H   H2249     1.0  0.69523  0.55621  0.82016  1.0000
  H   H2250     1.0  0.66682  0.53368  0.81630  1.0000
  H   H2251     1.0  0.52717  0.53933  0.73455  1.0000
  H   H2252     1.0  0.70982  0.61948  0.95945  1.0000
  C   C2810     1.0  0.53802  0.42825  0.73376  1.0000
  C   C2811     1.0  0.54579  0.41562  0.74429  1.0000
  C   C2812     1.0  0.56337  0.42149  0.74932  1.0000
  C   C2813     1.0  0.57353  0.43990  0.74331  1.0000
  C   C2814     1.0  0.56607  0.45236  0.73194  1.0000
  C   C2815     1.0  0.54830  0.44663  0.72746  1.0000
  H   H2253     1.0  0.53803  0.40146  0.74922  1.0000
  H   H2254     1.0  0.56905  0.41178  0.75817  1.0000
  H   H2255     1.0  0.57388  0.46647  0.72719  1.0000
  H   H2256     1.0  0.54243  0.45655  0.71933  1.0000
  C   C2816     1.0  0.49599  0.43477  0.84676  1.0000
  C   C2817     1.0  0.53256  0.62040  0.60579  1.0000
  C   C2818     1.0  0.55002  0.61828  0.60600  1.0000
  C   C2819     1.0  0.55673  0.61648  0.62557  1.0000
  C   C2820     1.0  0.54603  0.61655  0.64538  1.0000
  C   C2821     1.0  0.52833  0.61841  0.64549  1.0000
  C   C2822     1.0  0.52157  0.62032  0.62562  1.0000
  H   H2257     1.0  0.55859  0.61828  0.59083  1.0000
  H   H2258     1.0  0.57039  0.61510  0.62532  1.0000
  H   H2259     1.0  0.52001  0.61861  0.66075  1.0000
  C   C2823     1.0  0.62327  0.53114  0.57851  1.0000
  C   C2824     1.0  0.62687  0.56493  0.77312  1.0000
  H   H2260     1.0  0.58201  0.50895  0.61183  1.0000
  C   C2825     1.0  0.66377  0.49138  0.60864  1.0000
  C   C2826     1.0  0.67219  0.47879  0.61800  1.0000
  C   C2827     1.0  0.67321  0.47704  0.64037  1.0000
  C   C2828     1.0  0.66558  0.48755  0.65364  1.0000
  C   C2829     1.0  0.65694  0.49995  0.64437  1.0000
  C   C2830     1.0  0.65610  0.50190  0.62191  1.0000
  H   H2261     1.0  0.67834  0.47078  0.60792  1.0000
  H   H2262     1.0  0.68005  0.46760  0.64748  1.0000
  H   H2263     1.0  0.65133  0.50835  0.65442  1.0000
  H   H2264     1.0  0.64977  0.51183  0.61479  1.0000
  H   H2265     1.0  0.66357  0.51475  0.53645  1.0000
  C   C2831     1.0  0.69573  0.52432  0.49088  1.0000
  C   C2832     1.0  0.71211  0.51951  0.59082  1.0000
  C   C2833     1.0  0.63710  0.65431  0.75953  1.0000
  H   H2266     1.0  0.59675  0.34437  0.68508  1.0000
  C   C2834     1.0  0.62323  0.36270  0.49329  1.0000
  H   H2267     1.0  0.49686  0.55339  0.66569  1.0000
  C   C2835     1.0  0.61398  0.36457  0.56641  1.0000
  C   C2836     1.0  0.60634  0.37158  0.54936  1.0000
  C   C2837     1.0  0.61371  0.38969  0.53867  1.0000
  C   C2838     1.0  0.62877  0.40089  0.54494  1.0000
  C   C2839     1.0  0.63642  0.39403  0.56210  1.0000
  C   C2840     1.0  0.62904  0.37581  0.57281  1.0000
  H   H2268     1.0  0.59490  0.36298  0.54412  1.0000
  H   H2269     1.0  0.60779  0.39499  0.52537  1.0000
  H   H2270     1.0  0.64797  0.40277  0.56704  1.0000
  H   H2271     1.0  0.63487  0.37043  0.58611  1.0000
  H   H2272     1.0  0.69647  0.38360  0.59399  1.0000
  H   H2273     1.0  0.60661  0.57622  0.75977  1.0000
  C   C2841     1.0  0.50399  0.34025  0.65700  1.0000
  C   C2842     1.0  0.53963  0.55919  0.67677  1.0000
  C   C2843     1.0  0.71662  0.39144  0.56466  1.0000
  H   H2274     1.0  0.67726  0.58689  0.81901  1.0000
  C   C2844     1.0  0.63972  0.65103  0.90803  1.0000
  C   C2845     1.0  0.71209  0.44846  0.66468  1.0000
  C   C2846     1.0  0.69551  0.43747  0.62985  1.0000
  H   H2275     1.0  0.52184  0.52032  0.61685  1.0000
  H   H2276     1.0  0.49681  0.48231  0.75223  1.0000
  S   S399      1.0  0.71067  0.48236  0.48298  1.0000
  H   H2277     1.0  0.48884  0.37097  0.79602  1.0000
  H   H2278     1.0  0.65045  0.60940  0.85979  1.0000
  H   H2279     1.0  0.70264  0.48014  0.67679  1.0000
  H   H2280     1.0  0.58090  0.34077  0.62189  1.0000
  C   C2847     1.0  0.50361  0.47197  0.70387  1.0000
  C   C2848     1.0  0.58866  0.34507  0.65324  1.0000
  C   C2849     1.0  0.59894  0.46196  0.52814  1.0000
  P   P92       1.0  0.59087  0.36940  0.64883  1.0000
  C   C2850     1.0  0.58465  0.37585  0.67495  1.0000
  C   C2851     1.0  0.61391  0.38190  0.63646  1.0000
  C   C2852     1.0  0.62826  0.37366  0.63692  1.0000
  C   C2853     1.0  0.64595  0.38346  0.62672  1.0000
  C   C2854     1.0  0.64937  0.40147  0.61590  1.0000
  C   C2855     1.0  0.63513  0.40973  0.61544  1.0000
  C   C2856     1.0  0.61752  0.40005  0.62578  1.0000
  C   C2857     1.0  0.59547  0.39125  0.68142  1.0000
  C   C2858     1.0  0.59012  0.39618  0.70149  1.0000
  C   C2859     1.0  0.57408  0.38577  0.71527  1.0000
  C   C2860     1.0  0.56353  0.37020  0.70920  1.0000
  C   C2861     1.0  0.56890  0.36514  0.68927  1.0000
  C   C2862     1.0  0.57587  0.37412  0.63024  1.0000
  C   C2863     1.0  0.58173  0.37634  0.60760  1.0000
  C   C2864     1.0  0.56983  0.37832  0.59304  1.0000
  C   C2865     1.0  0.55197  0.37820  0.60094  1.0000
  C   C2866     1.0  0.54611  0.37639  0.62338  1.0000
  C   C2867     1.0  0.55798  0.37435  0.63799  1.0000
  C   C2868     1.0  0.59383  0.64845  0.95682  1.0000
  C   C2869     1.0  0.67390  0.62429  0.77550  1.0000
  C   C2870     1.0  0.50576  0.53317  0.68531  1.0000
  C   C2871     1.0  0.69729  0.62003  0.96903  1.0000
  C   C2872     1.0  0.71274  0.50781  0.62848  1.0000
  H   H2281     1.0  0.62583  0.35962  0.64486  1.0000
  H   H2282     1.0  0.65694  0.37698  0.62689  1.0000
  H   H2283     1.0  0.66300  0.40893  0.60760  1.0000
  H   H2284     1.0  0.63763  0.42355  0.60677  1.0000
  H   H2285     1.0  0.60664  0.40661  0.62518  1.0000
  H   H2286     1.0  0.60789  0.39962  0.67102  1.0000
  H   H2287     1.0  0.59831  0.40815  0.70642  1.0000
  H   H2288     1.0  0.56985  0.38975  0.73066  1.0000
  H   H2289     1.0  0.55102  0.36210  0.71981  1.0000
  H   H2290     1.0  0.56056  0.35298  0.68490  1.0000
  H   H2291     1.0  0.59530  0.37577  0.60120  1.0000
  H   H2292     1.0  0.57432  0.37932  0.57567  1.0000
  H   H2293     1.0  0.54252  0.37898  0.58973  1.0000
  H   H2294     1.0  0.53208  0.37573  0.62958  1.0000
  H   H2295     1.0  0.55275  0.37214  0.65525  1.0000
  C   C2873     1.0  0.52867  0.40149  0.79816  1.0000
  C   C2874     1.0  0.51660  0.38496  0.79657  1.0000
  H   H2296     1.0  0.68315  0.65748  0.74066  1.0000
  H   H2297     1.0  0.59786  0.64440  0.79723  1.0000
  C   C2875     1.0  0.50404  0.41619  0.79916  1.0000
  C   C2876     1.0  0.52241  0.41700  0.79971  1.0000
  C   C2877     1.0  0.59728  0.63525  0.97208  1.0000
  C   C2878     1.0  0.51369  0.45678  0.79507  1.0000
  C   C2879     1.0  0.62155  0.65319  0.74999  1.0000
  H   H2298     1.0  0.69639  0.51962  0.52537  1.0000
  S   S400      1.0  0.48609  0.61961  0.54761  1.0000
  C   C2880     1.0  0.58845  0.65243  0.79416  1.0000
  C   C2881     1.0  0.71557  0.64768  0.89532  1.0000
  C   C2882     1.0  0.59267  0.33655  0.67254  1.0000
  C   C2883     1.0  0.51448  0.47095  0.80737  1.0000
  C   C2884     1.0  0.52891  0.48692  0.80176  1.0000
  C   C2885     1.0  0.54263  0.48884  0.78392  1.0000
  C   C2886     1.0  0.54175  0.47490  0.77147  1.0000
  C   C2887     1.0  0.52712  0.45916  0.77667  1.0000
  C   C2888     1.0  0.67149  0.65662  0.91168  1.0000
  H   H2299     1.0  0.71100  0.61135  0.78876  1.0000
  H   H2300     1.0  0.67246  0.56412  0.85259  1.0000
  C   C2889     1.0  0.50818  0.55019  0.67226  1.0000
  H   H2301     1.0  0.62101  0.55626  0.56064  1.0000
  P   P93       1.0  0.49550  0.43582  0.80229  1.0000
  H   H2302     1.0  0.54295  0.40235  0.79801  1.0000
  H   H2303     1.0  0.52145  0.37296  0.79516  1.0000
  H   H2304     1.0  0.49255  0.52353  0.68840  1.0000
  C   C2890     1.0  0.62340  0.48949  0.51293  1.0000
  H   H2305     1.0  0.53201  0.42952  0.80132  1.0000
  C   C2891     1.0  0.48976  0.45705  0.70137  1.0000
  C   C2892     1.0  0.65126  0.63592  0.81126  1.0000
  C   C2893     1.0  0.68102  0.60196  0.75400  1.0000
  C   C2894     1.0  0.71512  0.48784  0.68099  1.0000
  H   H2306     1.0  0.51093  0.32533  0.74191  1.0000
  H   H2307     1.0  0.52198  0.65549  0.62053  1.0000
  H   H2308     1.0  0.52944  0.49793  0.81111  1.0000
  H   H2309     1.0  0.55387  0.50118  0.77962  1.0000
  H   H2310     1.0  0.55244  0.47623  0.75779  1.0000
  H   H2311     1.0  0.52647  0.44865  0.76658  1.0000
  C   C2895     1.0  0.60678  0.48071  0.52690  1.0000
  H   H2312     1.0  0.62869  0.65611  0.90297  1.0000
  C   C2896     1.0  0.62859  0.50848  0.55681  1.0000
  H   H2313     1.0  0.67088  0.38583  0.57459  1.0000
  C   C2897     1.0  0.55448  0.41035  0.67304  1.0000
  C   C2898     1.0  0.54151  0.41906  0.68031  1.0000
  C   C2899     1.0  0.54533  0.43810  0.67577  1.0000
  C   C2900     1.0  0.56222  0.44851  0.66389  1.0000
  C   C2901     1.0  0.57528  0.43985  0.65618  1.0000
  C   C2902     1.0  0.57134  0.42070  0.66105  1.0000
  P   P94       1.0  0.59762  0.45296  0.64200  1.0000
  C   C2903     1.0  0.59933  0.47717  0.63862  1.0000
  C   C2904     1.0  0.61338  0.44746  0.65900  1.0000
  C   C2905     1.0  0.60957  0.44712  0.68163  1.0000
  C   C2906     1.0  0.64161  0.43981  0.66348  1.0000
  C   C2907     1.0  0.62950  0.44373  0.65003  1.0000
  C   C2908     1.0  0.58930  0.48467  0.62455  1.0000
  C   C2909     1.0  0.60244  0.44784  0.61489  1.0000
  C   C2910     1.0  0.59070  0.43350  0.60764  1.0000
  C   C2911     1.0  0.59512  0.42955  0.58679  1.0000
  C   C2912     1.0  0.61102  0.44007  0.57290  1.0000
  C   C2913     1.0  0.62244  0.45471  0.57969  1.0000
  C   C2914     1.0  0.61816  0.45862  0.60056  1.0000
  H   H2314     1.0  0.55147  0.39559  0.67707  1.0000
  H   H2315     1.0  0.52861  0.41107  0.68994  1.0000
  H   H2316     1.0  0.53532  0.44472  0.68208  1.0000
  H   H2317     1.0  0.56507  0.46322  0.66124  1.0000
  H   H2318     1.0  0.58134  0.41382  0.65561  1.0000
  H   H2319     1.0  0.59727  0.45003  0.68902  1.0000
  H   H2320     1.0  0.65423  0.43737  0.65641  1.0000
  H   H2321     1.0  0.63305  0.44423  0.63269  1.0000
  H   H2322     1.0  0.58091  0.47608  0.61533  1.0000
  H   H2323     1.0  0.57816  0.42526  0.61785  1.0000
  H   H2324     1.0  0.58625  0.41828  0.58135  1.0000
  H   H2325     1.0  0.61445  0.43694  0.55683  1.0000
  H   H2326     1.0  0.63471  0.46294  0.56881  1.0000
  H   H2327     1.0  0.62727  0.46993  0.60566  1.0000
  C   C2915     1.0  0.63449  0.54462  0.48165  1.0000
  H   H2328     1.0  0.55263  0.56949  0.67393  1.0000
  C   C2916     1.0  0.49292  0.51717  0.62287  1.0000
  C   C2917     1.0  0.69959  0.61199  0.78056  1.0000
  H   H2329     1.0  0.70791  0.40310  0.51355  1.0000
  H   H2330     1.0  0.67821  0.59372  0.74145  1.0000
  H   H2331     1.0  0.57331  0.63336  0.77619  1.0000
  H   H2332     1.0  0.62948  0.62727  0.87271  1.0000
  C   C2918     1.0  0.62297  0.54285  0.55956  1.0000
  C   C2919     1.0  0.60369  0.57802  0.80591  1.0000
  C   C2920     1.0  0.66418  0.57684  0.82442  1.0000
  H   H2333     1.0  0.62180  0.53556  0.59419  1.0000
  H   H2334     1.0  0.63133  0.49534  0.55603  1.0000
  C   C2921     1.0  0.52509  0.56318  0.66796  1.0000
  H   H2335     1.0  0.60424  0.60703  0.75887  1.0000
  H   H2336     1.0  0.51714  0.47024  0.70343  1.0000
  C   C2922     1.0  0.51894  0.33908  0.66696  1.0000
  H   H2337     1.0  0.62245  0.65063  0.84635  1.0000
  C   C2923     1.0  0.63095  0.55006  0.83774  1.0000
  H   H2338     1.0  0.63607  0.65615  0.80751  1.0000
  C   C2924     1.0  0.66147  0.56400  0.84341  1.0000
  C   C2925     1.0  0.50219  0.55538  0.61813  1.0000
  C   C2926     1.0  0.61039  0.48863  0.65002  1.0000
  C   C2927     1.0  0.72473  0.51026  0.58380  1.0000
  C   C2928     1.0  0.73126  0.49968  0.59910  1.0000
  C   C2929     1.0  0.66763  0.62562  0.97166  1.0000
  C   C2930     1.0  0.58373  0.60352  0.81281  1.0000
  C   C2931     1.0  0.64256  0.55916  0.76757  1.0000
  H   H2339     1.0  0.64288  0.54057  0.86470  1.0000
  H   H2340     1.0  0.60067  0.50466  0.49127  1.0000
  H   H2341     1.0  0.61912  0.52620  0.78963  1.0000
  C   C2932     1.0  0.69892  0.38741  0.57637  1.0000
  C   C2933     1.0  0.53263  0.33255  0.65619  1.0000
  C   C2934     1.0  0.64211  0.56755  0.72910  1.0000
  C   C2935     1.0  0.72865  0.37786  0.49935  1.0000
  C   C2936     1.0  0.65030  0.57631  0.81204  1.0000
  C   C2937     1.0  0.66512  0.41692  0.48522  1.0000
  C   C2938     1.0  0.61363  0.62017  0.75881  1.0000
  H   H2342     1.0  0.71149  0.46319  0.61104  1.0000
  C   C2939     1.0  0.49904  0.64586  0.67838  1.0000
  H   H2343     1.0  0.65682  0.62915  0.96431  1.0000
  C   C2940     1.0  0.68364  0.62472  0.95868  1.0000
  H   H2344     1.0  0.59875  0.64959  0.93951  1.0000
  P   P95       1.0  0.68678  0.62944  0.92908  1.0000
  C   C2941     1.0  0.70853  0.64570  0.91760  1.0000
  C   C2942     1.0  0.68611  0.60885  0.91757  1.0000
  C   C2943     1.0  0.68096  0.60772  0.89700  1.0000
  C   C2944     1.0  0.68156  0.59251  0.88713  1.0000
  C   C2945     1.0  0.68726  0.57824  0.89769  1.0000
  C   C2946     1.0  0.69221  0.57912  0.91822  1.0000
  C   C2947     1.0  0.69169  0.59435  0.92813  1.0000
  C   C2948     1.0  0.49189  0.39933  0.79847  1.0000
  C   C2949     1.0  0.63364  0.56278  0.81847  1.0000
  H   H2345     1.0  0.48972  0.50242  0.62485  1.0000
  H   H2346     1.0  0.61832  0.53940  0.84302  1.0000
  C   C2950     1.0  0.69989  0.65498  0.84164  1.0000
  C   C2951     1.0  0.66852  0.63812  0.92067  1.0000
  C   C2952     1.0  0.65103  0.62613  0.92311  1.0000
  C   C2953     1.0  0.63667  0.63259  0.91691  1.0000
  H   H2347     1.0  0.49650  0.43351  0.88122  1.0000
  H   H2348     1.0  0.48691  0.48764  0.78927  1.0000
  C   C2954     1.0  0.69552  0.60098  0.76487  1.0000
  C   C2955     1.0  0.51122  0.52728  0.61840  1.0000
  C   C2956     1.0  0.65006  0.56035  0.74570  1.0000
  C   C2957     1.0  0.66922  0.51782  0.51922  1.0000
  C   C2958     1.0  0.70816  0.45458  0.62697  1.0000
  H   H2349     1.0  0.63087  0.45264  0.49176  1.0000
  H   H2350     1.0  0.67721  0.61892  0.88804  1.0000
  H   H2351     1.0  0.67840  0.59227  0.87083  1.0000
  H   H2352     1.0  0.68850  0.56679  0.88969  1.0000
  H   H2353     1.0  0.69728  0.56835  0.92601  1.0000
  H   H2354     1.0  0.69624  0.59481  0.94363  1.0000
  H   H2355     1.0  0.59988  0.48833  0.53683  1.0000
  C   C2959     1.0  0.72006  0.39685  0.54187  1.0000
  H   H2356     1.0  0.49847  0.58640  0.65210  1.0000
  C   C2960     1.0  0.62862  0.52026  0.53762  1.0000
  H   H2357     1.0  0.64854  0.61176  0.92982  1.0000
  H   H2358     1.0  0.62322  0.62331  0.91877  1.0000
  P   P96       1.0  0.61626  0.56133  0.80152  1.0000
  H   H2359     1.0  0.64756  0.56794  0.71213  1.0000
  H   H2360     1.0  0.63162  0.60876  0.77606  1.0000
  H   H2361     1.0  0.60461  0.62585  0.96653  1.0000
  H   H2362     1.0  0.66420  0.61476  0.82123  1.0000
  C   C2961     1.0  0.65803  0.51842  0.50334  1.0000
  C   C2962     1.0  0.60763  0.45186  0.51546  1.0000
  H   H2363     1.0  0.68931  0.43321  0.61621  1.0000
  H   H2364     1.0  0.67334  0.64568  0.86172  1.0000
  P   P97       1.0  0.51748  0.50750  0.71229  1.0000
  C   C2963     1.0  0.51249  0.51050  0.74033  1.0000
  C   C2964     1.0  0.53921  0.50278  0.70658  1.0000
  C   C2965     1.0  0.55088  0.50374  0.72197  1.0000
  C   C2966     1.0  0.56805  0.50092  0.71666  1.0000
  C   C2967     1.0  0.57379  0.49757  0.69588  1.0000
  C   C2968     1.0  0.56237  0.49696  0.68037  1.0000
  C   C2969     1.0  0.54517  0.49966  0.68562  1.0000
  C   C2970     1.0  0.51849  0.52778  0.74624  1.0000
  C   C2971     1.0  0.51286  0.53053  0.76738  1.0000
  H   H2365     1.0  0.50803  0.62196  0.62563  1.0000
  S   S401      1.0  0.56356  0.33969  0.49493  1.0000
  H   H2366     1.0  0.64435  0.48575  0.48878  1.0000
  C   C2972     1.0  0.52026  0.52904  0.69439  1.0000
  C   C2973     1.0  0.53724  0.54226  0.68996  1.0000
  H   H2367     1.0  0.70383  0.59191  0.76095  1.0000
  P   P98       1.0  0.73209  0.48279  0.64105  1.0000
  H   H2368     1.0  0.48908  0.62601  0.49718  1.0000
  H   H2369     1.0  0.60187  0.43724  0.51675  1.0000
  H   H2370     1.0  0.51066  0.43967  0.84227  1.0000
  H   H2371     1.0  0.54701  0.50714  0.73781  1.0000
  H   H2372     1.0  0.57720  0.50182  0.72842  1.0000
  H   H2373     1.0  0.58729  0.49591  0.69167  1.0000
  H   H2374     1.0  0.56699  0.49476  0.66417  1.0000
  H   H2375     1.0  0.53655  0.49955  0.67330  1.0000
  C   C2974     1.0  0.50151  0.49583  0.75622  1.0000
  C   C2975     1.0  0.71440  0.49476  0.70053  1.0000
  H   H2376     1.0  0.69616  0.42232  0.68315  1.0000
  C   C2976     1.0  0.49973  0.48844  0.70773  1.0000
  C   C2977     1.0  0.60990  0.63613  0.74946  1.0000
  H   H2377     1.0  0.71854  0.45239  0.67829  1.0000
  H   H2378     1.0  0.54863  0.53975  0.69710  1.0000
  H   H2379     1.0  0.70658  0.52725  0.57900  1.0000
  C   C2978     1.0  0.64126  0.63830  0.76843  1.0000
  C   C2979     1.0  0.50263  0.33470  0.63659  1.0000
  H   H2380     1.0  0.70801  0.63987  0.88481  1.0000
  C   C2980     1.0  0.57765  0.50280  0.81899  1.0000
  H   H2381     1.0  0.61641  0.34622  0.52547  1.0000
  C   C2981     1.0  0.67032  0.61367  0.75911  1.0000
  C   C2982     1.0  0.68796  0.52065  0.51299  1.0000
  H   H2382     1.0  0.67274  0.41517  0.49827  1.0000
  S   S402      1.0  0.70193  0.63239  0.84295  1.0000
  C   C2983     1.0  0.60839  0.51858  0.48439  1.0000
  C   C2984     1.0  0.65509  0.62265  0.82627  1.0000
  H   H2383     1.0  0.67478  0.48622  0.48134  1.0000
  C   C2985     1.0  0.62193  0.44361  0.69493  1.0000
  C   C2986     1.0  0.63796  0.44000  0.68586  1.0000
  C   C2987     1.0  0.62085  0.34666  0.50822  1.0000
  H   H2384     1.0  0.59772  0.63531  0.74231  1.0000
  H   H2385     1.0  0.62060  0.37461  0.49924  1.0000
  C   C2988     1.0  0.70557  0.55339  0.76657  1.0000
  H   H2386     1.0  0.71645  0.55874  0.75266  1.0000
  H   H2387     1.0  0.68799  0.53636  0.74872  1.0000
  P   P99       1.0  0.63363  0.51372  0.51130  1.0000
  C   C2989     1.0  0.70553  0.39849  0.53104  1.0000
  C   C2990     1.0  0.58987  0.50324  0.62257  1.0000
  C   C2991     1.0  0.63935  0.64589  0.81873  1.0000
  H   H2388     1.0  0.61922  0.44399  0.71227  1.0000
  H   H2389     1.0  0.64777  0.43786  0.69612  1.0000
  C   C2992     1.0  0.68903  0.62380  0.78563  1.0000
  C   C2993     1.0  0.60085  0.53854  0.80793  1.0000
  C   C2994     1.0  0.59999  0.60488  0.82082  1.0000
  C   C2995     1.0  0.58415  0.53489  0.82216  1.0000
  C   C2996     1.0  0.61901  0.57224  0.75630  1.0000
  C   C2997     1.0  0.49820  0.38386  0.79692  1.0000
  H   H2390     1.0  0.58195  0.56575  0.78949  1.0000
  C   C2998     1.0  0.57250  0.51713  0.82739  1.0000
  C   C2999     1.0  0.62401  0.46055  0.50133  1.0000
  S   S403      1.0  0.54482  0.64940  0.76242  1.0000
  H   H2391     1.0  0.67194  0.44627  0.48238  1.0000
  H   H2392     1.0  0.56475  0.58837  0.79514  1.0000
  H   H2393     1.0  0.60067  0.52873  0.63351  1.0000
  H   H2394     1.0  0.61877  0.48338  0.66030  1.0000
  Fe  Fe197     1.0  0.57884  0.32812  0.56871  1.0000
  H   H2395     1.0  0.62249  0.59355  0.82384  1.0000
  C   C3000     1.0  0.71626  0.46039  0.64451  1.0000
  H   H2396     1.0  0.57604  0.61339  0.81538  1.0000
  H   H2397     1.0  0.58009  0.54568  0.82932  1.0000
  H   H2398     1.0  0.64871  0.55312  0.78013  1.0000
  H   H2399     1.0  0.69616  0.52525  0.61863  1.0000
  H   H2400     1.0  0.65954  0.61449  0.74997  1.0000
  C   C3001     1.0  0.50149  0.51606  0.78286  1.0000
  H   H2401     1.0  0.62025  0.57879  0.72152  1.0000
  H   H2402     1.0  0.65272  0.58615  0.79716  1.0000
  H   H2403     1.0  0.67665  0.39579  0.53450  1.0000
  H   H2404     1.0  0.72757  0.39064  0.57356  1.0000
  C   C3002     1.0  0.64484  0.55069  0.85015  1.0000
  C   C3003     1.0  0.63175  0.47931  0.49989  1.0000
  H   H2405     1.0  0.62644  0.50489  0.59177  1.0000
  H   H2406     1.0  0.64719  0.55103  0.48656  1.0000
  C   C3004     1.0  0.62671  0.57368  0.73441  1.0000
  H   H2407     1.0  0.62566  0.54690  0.52474  1.0000
  P   P100      1.0  0.66051  0.63976  0.78243  1.0000
  H   H2408     1.0  0.49689  0.51840  0.79906  1.0000
  C   C3005     1.0  0.60045  0.51442  0.63462  1.0000
  H   H2409     1.0  0.56873  0.48900  0.82316  1.0000
  H   H2410     1.0  0.73238  0.47370  0.56295  1.0000
  C   C3006     1.0  0.71873  0.65625  0.93067  1.0000
  C   C3007     1.0  0.53154  0.32753  0.63549  1.0000
  H   H2411     1.0  0.61910  0.51583  0.65748  1.0000
  C   C3008     1.0  0.61082  0.50714  0.64818  1.0000
  C   C3009     1.0  0.68783  0.39439  0.54282  1.0000
  C   C3010     1.0  0.64716  0.61945  0.84833  1.0000
  H   H2412     1.0  0.59873  0.49502  0.79939  1.0000
  H   H2413     1.0  0.70741  0.50669  0.64560  1.0000
  C   C3011     1.0  0.70625  0.51842  0.61315  1.0000
  C   C3012     1.0  0.60995  0.59218  0.81747  1.0000
  C   C3013     1.0  0.57736  0.58942  0.80145  1.0000
  C   C3014     1.0  0.59448  0.50620  0.80547  1.0000
  H   H2414     1.0  0.55957  0.51448  0.83815  1.0000
  C   C3015     1.0  0.58723  0.57669  0.79813  1.0000
  H   H2415     1.0  0.58625  0.45517  0.53913  1.0000
  C   C3016     1.0  0.63160  0.64279  0.84083  1.0000
  H   H2416     1.0  0.70138  0.49243  0.71110  1.0000
  C   C3017     1.0  0.51643  0.32840  0.62567  1.0000
  C   C3018     1.0  0.62914  0.62123  0.76847  1.0000
  H   H2417     1.0  0.69264  0.63251  0.79757  1.0000
  H   H2418     1.0  0.53001  0.55423  0.61234  1.0000
  H   H2419     1.0  0.68135  0.41260  0.65221  1.0000
  C   C3019     1.0  0.49589  0.49872  0.77731  1.0000
  S   S404      1.0  0.72867  0.57491  0.78868  1.0000
  C   C3020     1.0  0.56247  0.65655  0.77773  1.0000
  C   C3021     1.0  0.72530  0.49832  0.62157  1.0000
  H   H2420     1.0  0.49239  0.55143  0.74074  1.0000
  H   H2421     1.0  0.71759  0.37146  0.51285  1.0000
  C   C3022     1.0  0.62388  0.33104  0.50092  1.0000
  C   C3023     1.0  0.69945  0.43134  0.66748  1.0000
  H   H2422     1.0  0.50829  0.64712  0.68995  1.0000
  C   C3024     1.0  0.69110  0.42587  0.65009  1.0000
  C   C3025     1.0  0.57461  0.64619  0.78209  1.0000
  C   C3026     1.0  0.68360  0.65733  0.85211  1.0000
  H   H2423     1.0  0.65618  0.38822  0.48473  1.0000
  H   H2424     1.0  0.71016  0.52592  0.48606  1.0000
  H   H2425     1.0  0.49288  0.44436  0.69869  1.0000
  H   H2426     1.0  0.50584  0.57021  0.61618  1.0000
  H   H2427     1.0  0.54421  0.33149  0.66376  1.0000
  C   C3027     1.0  0.73172  0.49110  0.66679  1.0000
  H   H2428     1.0  0.72970  0.51036  0.72130  1.0000
  C   C3028     1.0  0.48508  0.43184  0.83065  1.0000
  H   H2429     1.0  0.48655  0.42076  0.76280  1.0000
  H   H2430     1.0  0.49087  0.33535  0.62915  1.0000
  H   H2431     1.0  0.57070  0.65283  0.67479  1.0000
  C   C3029     1.0  0.73032  0.50490  0.70619  1.0000
  Fe  Fe198     1.0  0.55774  0.32612  0.53051  1.0000
  H   H2432     1.0  0.71367  0.65515  0.94782  1.0000
  C   C3030     1.0  0.48972  0.65680  0.64491  1.0000
  H   H2433     1.0  0.50391  0.46981  0.82111  1.0000
  C   C3031     1.0  0.48802  0.43119  0.86884  1.0000
  C   C3032     1.0  0.48954  0.63363  0.48121  1.0000
  C   C3033     1.0  0.72939  0.37014  0.48035  1.0000
  H   H2434     1.0  0.73019  0.97695  0.02165  1.0000
  H   H2435     1.0  0.70586  0.71918  0.08940  1.0000
  S   S405      1.0  0.49451  0.79625  0.39998  1.0000
  S   S406      1.0  0.50904  0.75158  0.38675  1.0000
  H   H2436     1.0  0.49470  0.81427  0.45548  1.0000
  H   H2437     1.0  0.51169  0.88300  0.13375  1.0000
  C   C3034     1.0  0.66709  0.79610  0.99510  1.0000
  H   H2438     1.0  0.61947  0.68787  0.12330  1.0000
  C   C3035     1.0  0.58557  0.90152  0.02832  1.0000
  C   C3036     1.0  0.54380  0.78866  0.39978  1.0000
  C   C3037     1.0  0.56592  0.75928  0.41759  1.0000
  Fe  Fe199     1.0  0.53022  0.87549  0.24260  1.0000
  S   S407      1.0  0.51805  0.86135  0.21697  1.0000
  S   S408      1.0  0.53598  0.85683  0.27030  1.0000
  Fe  Fe200     1.0  0.53185  0.91311  0.21824  1.0000
  S   S409      1.0  0.51972  0.90163  0.19060  1.0000
  S   S410      1.0  0.53569  0.94352  0.21655  1.0000
  Fe  Fe201     1.0  0.50031  0.88053  0.21710  1.0000
  C   C3038     1.0  0.63263  0.66954  0.10884  1.0000
  Fe  Fe202     1.0  0.53867  0.88365  0.19289  1.0000
  S   S411      1.0  0.55326  0.87464  0.16424  1.0000
  S   S412      1.0  0.51105  0.89320  0.24462  1.0000
  S   S413      1.0  0.55237  0.89665  0.21852  1.0000
  Fe  Fe203     1.0  0.64285  0.91649  0.08066  1.0000
  S   S414      1.0  0.66352  0.90257  0.09134  1.0000
  S   S415      1.0  0.62494  0.92759  0.10421  1.0000
  Fe  Fe204     1.0  0.65682  0.91745  0.03245  1.0000
  S   S416      1.0  0.67855  0.90380  0.03952  1.0000
  C   C3039     1.0  0.72661  0.75382  0.12522  1.0000
  Fe  Fe205     1.0  0.65671  0.88456  0.06594  1.0000
  S   S417      1.0  0.64571  0.85298  0.07248  1.0000
  Fe  Fe206     1.0  0.68335  0.92306  0.06405  1.0000
  S   S418      1.0  0.63462  0.89755  0.05717  1.0000
  S   S419      1.0  0.66309  0.93776  0.05497  1.0000
  Fe  Fe207     1.0  0.63761  0.72918  0.02567  1.0000
  S   S420      1.0  0.66531  0.73683  0.03457  1.0000
  Fe  Fe208     1.0  0.61937  0.71532  0.07372  1.0000
  S   S421      1.0  0.64618  0.72313  0.08553  1.0000
  S   S422      1.0  0.59312  0.70282  0.09858  1.0000
  Fe  Fe209     1.0  0.65231  0.74938  0.06079  1.0000
  S   S423      1.0  0.66844  0.77882  0.06174  1.0000
  Fe  Fe210     1.0  0.65656  0.71019  0.05789  1.0000
  S   S424      1.0  0.66808  0.68546  0.06181  1.0000
  S   S425      1.0  0.62480  0.74246  0.05113  1.0000
  S   S426      1.0  0.62946  0.70156  0.04710  1.0000
  C   C3040     1.0  0.51336  0.71324  0.43883  1.0000
  C   C3041     1.0  0.50924  0.79674  0.21961  1.0000
  P   P101      1.0  0.54772  0.76426  0.43506  1.0000
  H   H2439     1.0  0.71387  0.93085  0.12925  1.0000
  C   C3042     1.0  0.48434  0.72035  0.34648  1.0000
  C   C3043     1.0  0.60479  0.88991  0.00325  1.0000
  C   C3044     1.0  0.61041  0.85048  0.98929  1.0000
  C   C3045     1.0  0.59862  0.95815  0.07424  1.0000
  C   C3046     1.0  0.69028  0.68312  0.05422  1.0000
  C   C3047     1.0  0.70585  0.69796  0.04999  1.0000
  C   C3048     1.0  0.72328  0.69491  0.04634  1.0000
  H   H2440     1.0  0.70449  0.71167  0.05012  1.0000
  H   H2441     1.0  0.63184  0.97494  0.09276  1.0000
  C   C3049     1.0  0.65246  0.83275  0.06829  1.0000
  C   C3050     1.0  0.63897  0.81592  0.07164  1.0000
  C   C3051     1.0  0.64351  0.79941  0.06921  1.0000
  C   C3052     1.0  0.66173  0.79940  0.06372  1.0000
  C   C3053     1.0  0.67523  0.81621  0.06033  1.0000
  C   C3054     1.0  0.67066  0.83278  0.06240  1.0000
  H   H2442     1.0  0.62485  0.81566  0.07622  1.0000
  H   H2443     1.0  0.63293  0.78666  0.07194  1.0000
  H   H2444     1.0  0.68937  0.81643  0.05614  1.0000
  H   H2445     1.0  0.68123  0.84553  0.05980  1.0000
  H   H2446     1.0  0.67597  0.96576  0.17749  1.0000
  H   H2447     1.0  0.52137  0.74508  0.29459  1.0000
  H   H2448     1.0  0.50583  0.79593  0.20348  1.0000
  C   C3055     1.0  0.57297  0.88967  0.14752  1.0000
  C   C3056     1.0  0.58127  0.88398  0.12936  1.0000
  C   C3057     1.0  0.59697  0.89565  0.11569  1.0000
  C   C3058     1.0  0.60462  0.91299  0.12027  1.0000
  C   C3059     1.0  0.59597  0.91890  0.13802  1.0000
  C   C3060     1.0  0.58031  0.90721  0.15176  1.0000
  H   H2449     1.0  0.57560  0.87046  0.12590  1.0000
  H   H2450     1.0  0.60324  0.89115  0.10171  1.0000
  H   H2451     1.0  0.60153  0.93247  0.14135  1.0000
  H   H2452     1.0  0.57396  0.91169  0.16567  1.0000
  P   P102      1.0  0.55532  0.95695  0.12068  1.0000
  C   C3061     1.0  0.58353  0.96336  0.23690  1.0000
  C   C3062     1.0  0.56778  0.95122  0.23295  1.0000
  C   C3063     1.0  0.55537  0.95807  0.22235  1.0000
  C   C3064     1.0  0.65333  0.97064  0.19729  1.0000
  C   C3065     1.0  0.50742  0.74108  0.25445  1.0000
  H   H2453     1.0  0.59311  0.95807  0.24514  1.0000
  H   H2454     1.0  0.56521  0.93663  0.23814  1.0000
  C   C3066     1.0  0.57118  0.96195  0.09514  1.0000
  H   H2455     1.0  0.55660  0.97756  0.07647  1.0000
  C   C3067     1.0  0.70742  0.94178  0.13092  1.0000
  C   C3068     1.0  0.50672  0.71699  0.37749  1.0000
  H   H2456     1.0  0.48580  0.74693  0.35459  1.0000
  H   H2457     1.0  0.60217  0.67036  0.08590  1.0000
  C   C3069     1.0  0.50159  0.78199  0.23677  1.0000
  C   C3070     1.0  0.48847  0.66121  0.45835  1.0000
  H   H2458     1.0  0.51555  0.71576  0.38932  1.0000
  C   C3071     1.0  0.52773  0.97171  0.10814  1.0000
  C   C3072     1.0  0.49038  0.96644  0.19702  1.0000
  C   C3073     1.0  0.48961  0.80971  0.47278  1.0000
  C   C3074     1.0  0.55967  0.66741  0.22412  1.0000
  H   H2459     1.0  0.68642  0.68775  0.10009  1.0000
  H   H2460     1.0  0.52104  0.80070  0.27729  1.0000
  C   C3075     1.0  0.55871  0.97700  0.21581  1.0000
  H   H2461     1.0  0.57325  0.79222  0.45194  1.0000
  H   H2462     1.0  0.60154  0.71399  0.01417  1.0000
  C   C3076     1.0  0.50084  0.70250  0.36618  1.0000
  H   H2463     1.0  0.61373  0.66998  0.16083  1.0000
  C   C3077     1.0  0.69227  0.66541  0.05404  1.0000
  C   C3078     1.0  0.58146  0.67909  0.10459  1.0000
  C   C3079     1.0  0.49221  0.83471  0.33160  1.0000
  C   C3080     1.0  0.50720  0.82758  0.32852  1.0000
  C   C3081     1.0  0.52043  0.83424  0.30949  1.0000
  C   C3082     1.0  0.51864  0.84797  0.29338  1.0000
  C   C3083     1.0  0.50338  0.85476  0.29626  1.0000
  H   H2464     1.0  0.55809  0.68318  0.12432  1.0000
  H   H2465     1.0  0.50884  0.81741  0.34116  1.0000
  H   H2466     1.0  0.53223  0.82899  0.30740  1.0000
  H   H2467     1.0  0.50180  0.86525  0.28395  1.0000
  H   H2468     1.0  0.49732  0.90766  0.14110  1.0000
  H   H2469     1.0  0.60067  0.68369  0.21335  1.0000
  C   C3084     1.0  0.69557  0.71594  0.10388  1.0000
  C   C3085     1.0  0.56597  0.78151  0.46555  1.0000
  C   C3086     1.0  0.68500  0.95729  0.12132  1.0000
  C   C3087     1.0  0.50815  0.76607  0.30202  1.0000
  C   C3088     1.0  0.54133  0.93355  0.12437  1.0000
  C   C3089     1.0  0.71811  0.75793  0.08121  1.0000
  C   C3090     1.0  0.59761  0.75929  0.40840  1.0000
  C   C3091     1.0  0.50902  0.94916  0.18012  1.0000
  C   C3092     1.0  0.65461  0.89548  0.98569  1.0000
  C   C3093     1.0  0.57182  0.84237  0.98577  1.0000
  H   H2470     1.0  0.54002  0.79618  0.45233  1.0000
  H   H2471     1.0  0.58195  0.71955  0.04589  1.0000
  C   C3094     1.0  0.58693  0.98230  0.23015  1.0000
  C   C3095     1.0  0.54051  0.79844  0.43489  1.0000
  H   H2472     1.0  0.67734  0.73446  0.14506  1.0000
  C   C3096     1.0  0.54118  0.80505  0.38985  1.0000
  H   H2473     1.0  0.54482  0.89046  0.12041  1.0000
  H   H2474     1.0  0.61472  0.91222  0.01992  1.0000
  C   C3097     1.0  0.55298  0.76610  0.46215  1.0000
  C   C3098     1.0  0.49472  0.73405  0.44371  1.0000
  C   C3099     1.0  0.59169  0.70257  0.02501  1.0000
  C   C3100     1.0  0.68971  0.74665  0.98286  1.0000
  H   H2475     1.0  0.71224  0.73089  0.15087  1.0000
  C   C3101     1.0  0.68452  0.69798  0.10993  1.0000
  H   H2476     1.0  0.67309  0.69155  0.01258  1.0000
  C   C3102     1.0  0.56423  0.67319  0.11807  1.0000
  H   H2477     1.0  0.59954  0.68253  0.00803  1.0000
  H   H2478     1.0  0.65762  0.70275  0.15514  1.0000
  C   C3103     1.0  0.58663  0.95523  0.09398  1.0000
  C   C3104     1.0  0.70719  0.66863  0.98691  1.0000
  C   C3105     1.0  0.60281  0.90223  0.01737  1.0000
  H   H2479     1.0  0.62168  0.77547  0.00443  1.0000
  C   C3106     1.0  0.69283  0.94275  0.12023  1.0000
  H   H2480     1.0  0.49473  0.92246  0.17535  1.0000
  C   C3107     1.0  0.57764  0.66979  0.03536  1.0000
  H   H2481     1.0  0.53709  0.77063  0.34832  1.0000
  C   C3108     1.0  0.53900  0.81470  0.99231  1.0000
  P   P103      1.0  0.70817  0.75233  0.10992  1.0000
  C   C3109     1.0  0.63649  0.83287  0.00132  1.0000
  C   C3110     1.0  0.66828  0.70646  0.14090  1.0000
  C   C3111     1.0  0.54742  0.68939  0.17651  1.0000
  C   C3112     1.0  0.50568  0.78309  0.25783  1.0000
  C   C3113     1.0  0.58032  0.97508  0.05650  1.0000
  C   C3114     1.0  0.51920  0.67676  0.16419  1.0000
  C   C3115     1.0  0.66513  0.97689  0.99452  1.0000
  C   C3116     1.0  0.57631  0.74789  0.38511  1.0000
  C   C3117     1.0  0.59392  0.75169  0.38988  1.0000
  C   C3118     1.0  0.56238  0.75171  0.39884  1.0000
  C   C3119     1.0  0.52755  0.74557  0.43767  1.0000
  C   C3120     1.0  0.51030  0.74862  0.44135  1.0000
  H   H2482     1.0  0.55726  0.70124  0.17945  1.0000
  C   C3121     1.0  0.72098  0.66109  0.99285  1.0000
  C   C3122     1.0  0.54926  0.91943  0.12009  1.0000
  C   C3123     1.0  0.52897  0.72767  0.43702  1.0000
  H   H2483     1.0  0.57338  0.74192  0.37082  1.0000
  H   H2484     1.0  0.60471  0.74868  0.37925  1.0000
  H   H2485     1.0  0.54876  0.74854  0.39492  1.0000
  H   H2486     1.0  0.53347  0.74060  0.47825  1.0000
  H   H2487     1.0  0.50881  0.76225  0.44206  1.0000
  C   C3124     1.0  0.51722  0.78031  0.33267  1.0000
  C   C3125     1.0  0.58906  0.66600  0.09646  1.0000
  C   C3126     1.0  0.56806  0.69101  0.05686  1.0000
  H   H2488     1.0  0.54211  0.72483  0.43498  1.0000
  H   H2489     1.0  0.54549  0.77856  0.38977  1.0000
  H   H2490     1.0  0.54100  0.80743  0.37246  1.0000
  C   C3127     1.0  0.72469  0.74162  0.14475  1.0000
  H   H2491     1.0  0.69984  0.80857  0.13606  1.0000
  C   C3128     1.0  0.55300  0.81214  0.00338  1.0000
  C   C3129     1.0  0.56933  0.82594  0.00024  1.0000
  H   H2492     1.0  0.53585  0.83069  0.39475  1.0000
  Fe  Fe211     1.0  0.48886  0.76836  0.39017  1.0000
  C   C3130     1.0  0.58957  0.87684  0.99979  1.0000
  C   C3131     1.0  0.61473  0.84991  0.01043  1.0000
  C   C3132     1.0  0.62784  0.84129  0.01631  1.0000
  C   C3133     1.0  0.50121  0.73307  0.37341  1.0000
  C   C3134     1.0  0.57028  0.88858  0.02498  1.0000
  C   C3135     1.0  0.57223  0.87628  0.01076  1.0000
  C   C3136     1.0  0.59043  0.68468  0.02150  1.0000
  C   C3137     1.0  0.58060  0.70573  0.04278  1.0000
  H   H2493     1.0  0.55119  0.79946  0.01450  1.0000
  H   H2494     1.0  0.57992  0.82374  0.00916  1.0000
  H   H2495     1.0  0.50522  0.69015  0.36918  1.0000
  H   H2496     1.0  0.60800  0.85601  0.02253  1.0000
  H   H2497     1.0  0.63131  0.84118  0.03253  1.0000
  H   H2498     1.0  0.55692  0.88799  0.03357  1.0000
  H   H2499     1.0  0.56021  0.86630  0.00862  1.0000
  C   C3138     1.0  0.62161  0.86613  0.11977  1.0000
  C   C3139     1.0  0.61001  0.84846  0.12352  1.0000
  C   C3140     1.0  0.60108  0.84029  0.14468  1.0000
  C   C3141     1.0  0.60389  0.84973  0.16210  1.0000
  C   C3142     1.0  0.61534  0.86770  0.15843  1.0000
  C   C3143     1.0  0.62424  0.87575  0.13706  1.0000
  P   P104      1.0  0.62094  0.87889  0.18133  1.0000
  C   C3144     1.0  0.60412  0.86761  0.20536  1.0000
  C   C3145     1.0  0.64329  0.87746  0.18560  1.0000
  C   C3146     1.0  0.65316  0.88943  0.19760  1.0000
  C   C3147     1.0  0.67068  0.88878  0.20051  1.0000
  C   C3148     1.0  0.67846  0.87617  0.19150  1.0000
  C   C3149     1.0  0.66869  0.86413  0.17965  1.0000
  C   C3150     1.0  0.65114  0.86471  0.17675  1.0000
  C   C3151     1.0  0.58556  0.86521  0.20451  1.0000
  C   C3152     1.0  0.57242  0.85691  0.22307  1.0000
  C   C3153     1.0  0.57768  0.85087  0.24258  1.0000
  C   C3154     1.0  0.59610  0.85308  0.24354  1.0000
  C   C3155     1.0  0.60931  0.86142  0.22501  1.0000
  C   C3156     1.0  0.62196  0.90304  0.17648  1.0000
  C   C3157     1.0  0.60978  0.91004  0.18937  1.0000
  C   C3158     1.0  0.61166  0.92886  0.18670  1.0000
  C   C3159     1.0  0.62548  0.94089  0.17094  1.0000
  C   C3160     1.0  0.63780  0.93413  0.15830  1.0000
  C   C3161     1.0  0.63624  0.91536  0.16126  1.0000
  H   H2500     1.0  0.62846  0.87242  0.10331  1.0000
  H   H2501     1.0  0.60808  0.84116  0.10995  1.0000
  H   H2502     1.0  0.59207  0.82656  0.14760  1.0000
  H   H2503     1.0  0.59724  0.84281  0.17839  1.0000
  H   H2504     1.0  0.63322  0.88942  0.13349  1.0000
  H   H2505     1.0  0.64732  0.89933  0.20461  1.0000
  H   H2506     1.0  0.67826  0.89813  0.20967  1.0000
  H   H2507     1.0  0.69210  0.87576  0.19362  1.0000
  H   H2508     1.0  0.67475  0.85442  0.17254  1.0000
  H   H2509     1.0  0.64385  0.85532  0.16742  1.0000
  H   H2510     1.0  0.58129  0.87005  0.18956  1.0000
  H   H2511     1.0  0.55814  0.85548  0.22243  1.0000
  H   H2512     1.0  0.56748  0.84468  0.25704  1.0000
  H   H2513     1.0  0.60010  0.84852  0.25878  1.0000
  H   H2514     1.0  0.62347  0.86309  0.22620  1.0000
  H   H2515     1.0  0.59887  0.90119  0.20166  1.0000
  H   H2516     1.0  0.60226  0.93407  0.19681  1.0000
  H   H2517     1.0  0.62655  0.95540  0.16842  1.0000
  H   H2518     1.0  0.64849  0.94340  0.14604  1.0000
  H   H2519     1.0  0.64635  0.91060  0.15176  1.0000
  P   P105      1.0  0.49505  0.76423  0.28015  1.0000
  H   H2520     1.0  0.51576  0.78960  0.34395  1.0000
  H   H2521     1.0  0.58946  0.94758  0.10831  1.0000
  C   C3162     1.0  0.49032  0.84829  0.31542  1.0000
  H   H2522     1.0  0.53923  0.66544  0.28495  1.0000
  C   C3163     1.0  0.56423  0.68296  0.23405  1.0000
  C   C3164     1.0  0.55700  0.68220  0.25597  1.0000
  H   H2523     1.0  0.61823  0.89044  0.99513  1.0000
  C   C3165     1.0  0.58846  0.68656  0.18439  1.0000
  C   C3166     1.0  0.59133  0.69549  0.16261  1.0000
  C   C3167     1.0  0.60733  0.70928  0.15387  1.0000
  C   C3168     1.0  0.62080  0.71393  0.16655  1.0000
  C   C3169     1.0  0.61834  0.70467  0.18799  1.0000
  C   C3170     1.0  0.60228  0.69093  0.19684  1.0000
  C   C3171     1.0  0.57812  0.65939  0.98616  1.0000
  H   H2524     1.0  0.67408  0.95789  0.11230  1.0000
  H   H2525     1.0  0.57300  0.69576  0.22481  1.0000
  H   H2526     1.0  0.56045  0.69421  0.26359  1.0000
  C   C3172     1.0  0.52929  0.76958  0.33517  1.0000
  H   H2527     1.0  0.60926  0.71622  0.13710  1.0000
  H   H2528     1.0  0.63317  0.72465  0.15968  1.0000
  H   H2529     1.0  0.62886  0.70817  0.19778  1.0000
  H   H2530     1.0  0.55982  0.69346  0.07098  1.0000
  C   C3173     1.0  0.69542  0.76830  0.11681  1.0000
  C   C3174     1.0  0.71265  0.77043  0.06691  1.0000
  H   H2531     1.0  0.71660  0.78506  0.03415  1.0000
  C   C3175     1.0  0.67772  0.76588  0.11220  1.0000
  C   C3176     1.0  0.66809  0.77869  0.11624  1.0000
  C   C3177     1.0  0.67606  0.79407  0.12480  1.0000
  C   C3178     1.0  0.69360  0.79651  0.12966  1.0000
  C   C3179     1.0  0.70327  0.78369  0.12569  1.0000
  H   H2532     1.0  0.70209  0.77657  0.07259  1.0000
  H   H2533     1.0  0.63025  0.69958  0.99195  1.0000
  H   H2534     1.0  0.67161  0.75451  0.10458  1.0000
  H   H2535     1.0  0.71574  0.71148  0.00069  1.0000
  H   H2536     1.0  0.66876  0.80428  0.12719  1.0000
  C   C3180     1.0  0.48979  0.73453  0.35814  1.0000
  H   H2537     1.0  0.71695  0.78607  0.12918  1.0000
  C   C3181     1.0  0.54952  0.67172  0.18199  1.0000
  H   H2538     1.0  0.54915  0.98236  0.20762  1.0000
  H   H2539     1.0  0.53446  0.97594  0.27437  1.0000
  H   H2540     1.0  0.64753  0.78318  0.02428  1.0000
  C   C3182     1.0  0.71391  0.95513  0.14326  1.0000
  H   H2541     1.0  0.64666  0.82623  0.00594  1.0000
  H   H2542     1.0  0.52044  0.97036  0.24171  1.0000
  S   S427      1.0  0.65303  0.92810  0.99859  1.0000
  C   C3183     1.0  0.69159  0.97092  0.13343  1.0000
  C   C3184     1.0  0.59548  0.96808  0.05549  1.0000
  C   C3185     1.0  0.71484  0.97690  0.06630  1.0000
  C   C3186     1.0  0.70961  0.66241  0.05018  1.0000
  H   H2543     1.0  0.67837  0.79914  0.00390  1.0000
  H   H2544     1.0  0.55702  0.66197  0.06469  1.0000
  C   C3187     1.0  0.49490  0.70813  0.26075  1.0000
  C   C3188     1.0  0.66577  0.97324  0.17793  1.0000
  H   H2545     1.0  0.58721  0.98555  0.12468  1.0000
  H   H2546     1.0  0.71423  0.94514  0.01993  1.0000
  C   C3189     1.0  0.51182  0.91101  0.13512  1.0000
  H   H2547     1.0  0.69143  0.98010  0.00407  1.0000
  C   C3190     1.0  0.53822  0.81814  0.40242  1.0000
  H   H2548     1.0  0.65624  0.89092  0.00221  1.0000
  C   C3191     1.0  0.64967  0.78713  0.00667  1.0000
  C   C3192     1.0  0.72251  0.95405  0.00527  1.0000
  C   C3193     1.0  0.69320  0.72931  0.11649  1.0000
  H   H2549     1.0  0.64332  0.67144  0.03034  1.0000
  H   H2550     1.0  0.53499  0.82472  0.43481  1.0000
  H   H2551     1.0  0.58690  0.76888  0.43647  1.0000
  H   H2552     1.0  0.70120  0.97440  0.06264  1.0000
  H   H2553     1.0  0.52231  0.94791  0.17355  1.0000
  C   C3194     1.0  0.66502  0.98550  0.15954  1.0000
  H   H2554     1.0  0.61127  0.76220  0.41211  1.0000
  H   H2555     1.0  0.65474  0.77711  0.11175  1.0000
  H   H2556     1.0  0.53105  0.70556  0.16276  1.0000
  C   C3195     1.0  0.58978  0.96487  0.17507  1.0000
  C   C3196     1.0  0.56657  0.67310  0.05323  1.0000
  H   H2557     1.0  0.51592  0.93945  0.13620  1.0000
  C   C3197     1.0  0.54382  0.78531  0.42236  1.0000
  C   C3198     1.0  0.72526  0.67707  0.04668  1.0000
  C   C3199     1.0  0.63791  0.65907  0.00205  1.0000
  C   C3200     1.0  0.53855  0.90133  0.12327  1.0000
  H   H2558     1.0  0.57792  0.98281  0.04193  1.0000
  C   C3201     1.0  0.67940  0.72442  0.13503  1.0000
  C   C3202     1.0  0.53248  0.69190  0.16727  1.0000
  C   C3203     1.0  0.62392  0.67554  0.12628  1.0000
  H   H2559     1.0  0.50747  0.67863  0.15733  1.0000
  C   C3204     1.0  0.53063  0.75688  0.32143  1.0000
  H   H2560     1.0  0.68799  0.93254  0.11041  1.0000
  H   H2561     1.0  0.51453  0.69954  0.43780  1.0000
  H   H2562     1.0  0.60899  0.66386  0.04694  1.0000
  C   C3205     1.0  0.72257  0.96212  0.06995  1.0000
  C   C3206     1.0  0.56902  0.95967  0.14181  1.0000
  C   C3207     1.0  0.58382  0.97527  0.13932  1.0000
  H   H2563     1.0  0.59742  0.96709  0.18825  1.0000
  C   C3208     1.0  0.52110  0.81267  0.22327  1.0000
  C   C3209     1.0  0.57534  0.94915  0.17737  1.0000
  C   C3210     1.0  0.56482  0.94664  0.16097  1.0000
  H   H2564     1.0  0.66246  0.67931  0.13304  1.0000
  C   C3211     1.0  0.49353  0.93472  0.18140  1.0000
  S   S428      1.0  0.71176  0.93891  0.06816  1.0000
  C   C3212     1.0  0.53772  0.81475  0.42497  1.0000
  C   C3213     1.0  0.70591  0.96956  0.14471  1.0000
  H   H2565     1.0  0.55100  0.98455  0.14875  1.0000
  H   H2566     1.0  0.56374  0.92215  0.11475  1.0000
  H   H2567     1.0  0.58411  0.91094  0.03948  1.0000
  H   H2568     1.0  0.52648  0.96234  0.09655  1.0000
  C   C3214     1.0  0.59409  0.97790  0.15598  1.0000
  H   H2569     1.0  0.51946  0.97621  0.18689  1.0000
  H   H2570     1.0  0.57186  0.93905  0.19219  1.0000
  H   H2571     1.0  0.55337  0.93461  0.16348  1.0000
  C   C3215     1.0  0.49623  0.71647  0.44200  1.0000
  C   C3216     1.0  0.58369  0.76311  0.42220  1.0000
  H   H2572     1.0  0.65835  0.97737  0.01062  1.0000
  C   C3217     1.0  0.70884  0.72139  0.99488  1.0000
  H   H2573     1.0  0.58134  0.69177  0.15219  1.0000
  P   P106      1.0  0.59259  0.86055  0.98213  1.0000
  C   C3218     1.0  0.67200  0.68205  0.98161  1.0000
  C   C3219     1.0  0.52534  0.81384  0.24409  1.0000
  H   H2574     1.0  0.49226  0.76983  0.23368  1.0000
  P   P107      1.0  0.68169  0.98991  0.13487  1.0000
  C   C3220     1.0  0.52875  0.98613  0.26644  1.0000
  C   C3221     1.0  0.71138  0.73761  0.00343  1.0000
  C   C3222     1.0  0.67095  0.69323  0.12844  1.0000
  H   H2575     1.0  0.63070  0.97854  0.21354  1.0000
  H   H2576     1.0  0.70366  0.76275  0.00421  1.0000
  C   C3223     1.0  0.50743  0.96508  0.18780  1.0000
  C   C3224     1.0  0.54086  0.97237  0.12181  1.0000
  C   C3225     1.0  0.64018  0.98036  0.19846  1.0000
  C   C3226     1.0  0.52250  0.92911  0.13213  1.0000
  C   C3227     1.0  0.70207  0.75039  0.99714  1.0000
  H   H2577     1.0  0.63501  0.67736  0.09250  1.0000
  H   H2578     1.0  0.65395  0.96122  0.21149  1.0000
  C   C3228     1.0  0.66527  0.68241  0.00339  1.0000
  C   C3229     1.0  0.64831  0.67092  0.01356  1.0000
  C   C3230     1.0  0.49427  0.74248  0.27150  1.0000
  C   C3231     1.0  0.63212  0.83318  0.98037  1.0000
  C   C3232     1.0  0.56818  0.97201  0.07621  1.0000
  C   C3233     1.0  0.51987  0.89711  0.13084  1.0000
  C   C3234     1.0  0.52015  0.75513  0.30488  1.0000
  H   H2579     1.0  0.64575  0.97244  0.12565  1.0000
  C   C3235     1.0  0.50668  0.77862  0.31616  1.0000
  H   H2580     1.0  0.72023  0.73995  0.01537  1.0000
  H   H2581     1.0  0.53427  0.82633  0.24702  1.0000
  C   C3236     1.0  0.54150  0.98402  0.13745  1.0000
  H   H2582     1.0  0.60522  0.99015  0.15426  1.0000
  P   P108      1.0  0.56799  0.66842  0.19553  1.0000
  C   C3237     1.0  0.68376  0.97835  0.99084  1.0000
  C   C3238     1.0  0.63507  0.78294  0.99549  1.0000
  H   H2583     1.0  0.49523  0.69482  0.25686  1.0000
  H   H2584     1.0  0.53947  0.74807  0.32395  1.0000
  C   C3239     1.0  0.51771  0.79915  0.26131  1.0000
  C   C3240     1.0  0.65329  0.98220  0.11132  1.0000
  H   H2585     1.0  0.61028  0.95255  0.07354  1.0000
  H   H2586     1.0  0.52685  0.82420  0.21003  1.0000
  H   H2587     1.0  0.51780  0.75311  0.24570  1.0000
  H   H2588     1.0  0.51777  0.72294  0.23585  1.0000
  C   C3241     1.0  0.48990  0.70437  0.35035  1.0000
  H   H2589     1.0  0.48921  0.97913  0.20205  1.0000
  S   S429      1.0  0.63693  0.73901  0.99023  1.0000
  H   H2590     1.0  0.49743  0.78710  0.31445  1.0000
  H   H2591     1.0  0.71712  0.93349  0.98498  1.0000
  C   C3242     1.0  0.72102  0.77542  0.04498  1.0000
  H   H2592     1.0  0.71115  0.97984  0.15426  1.0000
  H   H2593     1.0  0.51534  0.78975  0.47925  1.0000
  H   H2594     1.0  0.48707  0.67497  0.45673  1.0000
  C   C3243     1.0  0.51562  0.98257  0.10995  1.0000
  C   C3244     1.0  0.64534  0.98358  0.09261  1.0000
  C   C3245     1.0  0.52085  0.65913  0.17040  1.0000
  H   H2595     1.0  0.69320  0.66071  0.99246  1.0000
  C   C3246     1.0  0.52089  0.98298  0.24801  1.0000
  H   H2596     1.0  0.60478  0.97030  0.04019  1.0000
  H   H2597     1.0  0.50533  0.98175  0.09963  1.0000
  C   C3247     1.0  0.54501  0.66603  0.26802  1.0000
  C   C3248     1.0  0.57445  0.98908  0.21966  1.0000
  C   C3249     1.0  0.72414  0.94751  0.98555  1.0000
  H   H2598     1.0  0.49170  0.66086  0.42358  1.0000
  H   H2599     1.0  0.57064  0.66882  0.99122  1.0000
  C   C3250     1.0  0.62069  0.66546  0.14736  1.0000
  C   C3251     1.0  0.73160  0.97208  0.00620  1.0000
  C   C3252     1.0  0.73216  0.75055  0.07320  1.0000
  C   C3253     1.0  0.50760  0.72397  0.24897  1.0000
  H   H2600     1.0  0.72534  0.95448  0.15138  1.0000
  H   H2601     1.0  0.52634  0.80400  0.99481  1.0000
  H   H2602     1.0  0.64064  0.97254  0.98063  1.0000
  H   H2603     1.0  0.48847  0.81447  0.26155  1.0000
  C   C3254     1.0  0.64460  0.65854  0.98040  1.0000
  H   H2604     1.0  0.54708  0.71141  0.62561  1.0000
  H   H2605     1.0  0.63227  0.97061  0.74456  1.0000
  C   C3255     1.0  0.53512  0.82346  0.70235  1.0000
  C   C3256     1.0  0.63498  0.98922  0.81959  1.0000
  H   H2606     1.0  0.50452  0.86916  0.52869  1.0000
  Fe  Fe212     1.0  0.50212  0.77536  0.59517  1.0000
  S   S430      1.0  0.51736  0.75371  0.59570  1.0000
  C   C3257     1.0  0.50187  0.89670  0.65848  1.0000
  S   S431      1.0  0.51613  0.80557  0.58634  1.0000
  C   C3258     1.0  0.54128  0.96128  0.65319  1.0000
  H   H2607     1.0  0.52417  0.78976  0.79435  1.0000
  Fe  Fe213     1.0  0.65453  0.88501  0.89477  1.0000
  S   S432      1.0  0.64967  0.87358  0.93077  1.0000
  Fe  Fe214     1.0  0.64112  0.89643  0.85308  1.0000
  S   S433      1.0  0.66775  0.89833  0.83192  1.0000
  S   S434      1.0  0.61704  0.90427  0.84109  1.0000
  Fe  Fe215     1.0  0.66642  0.87153  0.85316  1.0000
  C   C3259     1.0  0.68246  0.97411  0.95325  1.0000
  S   S435      1.0  0.63901  0.86889  0.87259  1.0000
  S   S436      1.0  0.65405  0.91249  0.87741  1.0000
  Fe  Fe216     1.0  0.54796  0.88921  0.70269  1.0000
  S   S437      1.0  0.53952  0.86572  0.73069  1.0000
  S   S438      1.0  0.55634  0.88443  0.66844  1.0000
  Fe  Fe217     1.0  0.54482  0.91693  0.73247  1.0000
  S   S439      1.0  0.53596  0.89546  0.76277  1.0000
  S   S440      1.0  0.54675  0.94597  0.73689  1.0000
  Fe  Fe218     1.0  0.55813  0.88413  0.74822  1.0000
  S   S441      1.0  0.57882  0.87312  0.76463  1.0000
  Fe  Fe219     1.0  0.51816  0.87930  0.74243  1.0000
  C   C3260     1.0  0.49723  0.96752  0.72709  1.0000
  S   S442      1.0  0.56809  0.90673  0.71917  1.0000
  S   S443      1.0  0.52541  0.90170  0.71319  1.0000
  C   C3261     1.0  0.53524  0.67845  0.69309  1.0000
  Fe  Fe220     1.0  0.65954  0.71321  0.84331  1.0000
  S   S444      1.0  0.63742  0.68784  0.85742  1.0000
  S   S445      1.0  0.68862  0.71157  0.83355  1.0000
  Fe  Fe221     1.0  0.63329  0.73736  0.84828  1.0000
  S   S446      1.0  0.60925  0.71261  0.86231  1.0000
  S   S447      1.0  0.62687  0.76515  0.84861  1.0000
  Fe  Fe222     1.0  0.62861  0.70364  0.88230  1.0000
  S   S448      1.0  0.62274  0.68939  0.91765  1.0000
  Fe  Fe223     1.0  0.62024  0.69891  0.83571  1.0000
  S   S449      1.0  0.60784  0.67573  0.81776  1.0000
  S   S450      1.0  0.65188  0.72860  0.86965  1.0000
  S   S451      1.0  0.64304  0.72416  0.82028  1.0000
  C   C3262     1.0  0.65516  0.97416  0.97760  1.0000
  C   C3263     1.0  0.64106  0.92235  0.74805  1.0000
  H   H2608     1.0  0.55346  0.82042  0.75164  1.0000
  H   H2609     1.0  0.50146  0.71274  0.48491  1.0000
  H   H2610     1.0  0.61632  0.84226  0.95792  1.0000
  H   H2611     1.0  0.73364  0.70998  0.95887  1.0000
  H   H2612     1.0  0.67065  0.83562  0.95171  1.0000
  C   C3264     1.0  0.48901  0.86008  0.58346  1.0000
  H   H2613     1.0  0.58169  0.67078  0.95194  1.0000
  C   C3265     1.0  0.53079  0.66890  0.61361  1.0000
  H   H2614     1.0  0.67962  0.96409  0.74985  1.0000
  S   S452      1.0  0.68186  0.88623  0.87641  1.0000
  C   C3266     1.0  0.69326  0.68990  0.83759  1.0000
  C   C3267     1.0  0.68032  0.67462  0.85009  1.0000
  H   H2615     1.0  0.52820  0.95106  0.69847  1.0000
  C   C3268     1.0  0.55010  0.66530  0.66523  1.0000
  H   H2616     1.0  0.66766  0.67600  0.85813  1.0000
  C   C3269     1.0  0.53641  0.93652  0.63221  1.0000
  C   C3270     1.0  0.63483  0.73310  0.94859  1.0000
  C   C3271     1.0  0.63174  0.72235  0.93227  1.0000
  C   C3272     1.0  0.62754  0.70329  0.93757  1.0000
  C   C3273     1.0  0.65932  0.98428  0.68927  1.0000
  C   C3274     1.0  0.50568  0.73247  0.66210  1.0000
  C   C3275     1.0  0.72996  0.69617  0.96800  1.0000
  H   H2617     1.0  0.63216  0.72881  0.91571  1.0000
  H   H2618     1.0  0.63758  0.74782  0.94447  1.0000
  H   H2619     1.0  0.64843  0.91784  0.80065  1.0000
  C   C3276     1.0  0.67838  0.70593  0.93234  1.0000
  Fe  Fe224     1.0  0.49477  0.80880  0.61262  1.0000
  C   C3277     1.0  0.65527  0.79693  0.96096  1.0000
  C   C3278     1.0  0.70759  0.70468  0.90154  1.0000
  H   H2620     1.0  0.49187  0.66667  0.63011  1.0000
  C   C3279     1.0  0.56699  0.96292  0.72497  1.0000
  C   C3280     1.0  0.58031  0.95935  0.71003  1.0000
  C   C3281     1.0  0.52035  0.70129  0.50011  1.0000
  H   H2621     1.0  0.65504  0.86988  0.97528  1.0000
  H   H2622     1.0  0.63889  0.82684  0.96864  1.0000
  H   H2623     1.0  0.57807  0.94612  0.70505  1.0000
  C   C3282     1.0  0.66205  0.82431  0.84542  1.0000
  C   C3283     1.0  0.67010  0.81100  0.83826  1.0000
  C   C3284     1.0  0.65969  0.79275  0.83955  1.0000
  C   C3285     1.0  0.64107  0.78754  0.84814  1.0000
  C   C3286     1.0  0.63316  0.80076  0.85580  1.0000
  C   C3287     1.0  0.64357  0.81897  0.85463  1.0000
  H   H2624     1.0  0.68438  0.81494  0.83113  1.0000
  H   H2625     1.0  0.66598  0.78286  0.83335  1.0000
  H   H2626     1.0  0.61883  0.79688  0.86261  1.0000
  H   H2627     1.0  0.63725  0.82896  0.86047  1.0000
  C   C3288     1.0  0.60702  0.89599  0.81921  1.0000
  C   C3289     1.0  0.59232  0.90203  0.81303  1.0000
  C   C3290     1.0  0.58374  0.89543  0.79607  1.0000
  C   C3291     1.0  0.58994  0.88288  0.78495  1.0000
  C   C3292     1.0  0.60491  0.87717  0.79078  1.0000
  C   C3293     1.0  0.61327  0.88349  0.80802  1.0000
  H   H2628     1.0  0.58739  0.91170  0.82157  1.0000
  H   H2629     1.0  0.57215  0.89982  0.79187  1.0000
  H   H2630     1.0  0.60976  0.86751  0.78219  1.0000
  H   H2631     1.0  0.62450  0.87869  0.81273  1.0000
  H   H2632     1.0  0.59656  0.86054  0.90258  1.0000
  C   C3294     1.0  0.52174  0.80056  0.68172  1.0000
  C   C3295     1.0  0.65383  0.88354  0.97046  1.0000
  C   C3296     1.0  0.65158  0.88923  0.94906  1.0000
  C   C3297     1.0  0.65033  0.90704  0.94283  1.0000
  C   C3298     1.0  0.65065  0.91885  0.95820  1.0000
  H   H2633     1.0  0.59347  0.91823  0.74944  1.0000
  H   H2634     1.0  0.55134  0.66134  0.64926  1.0000
  H   H2635     1.0  0.64879  0.91158  0.92631  1.0000
  H   H2636     1.0  0.64938  0.93251  0.95345  1.0000
  C   C3299     1.0  0.50299  0.73144  0.59827  1.0000
  C   C3300     1.0  0.51041  0.71701  0.59410  1.0000
  C   C3301     1.0  0.52733  0.69807  0.51926  1.0000
  C   C3302     1.0  0.61905  0.92879  0.69042  1.0000
  H   H2637     1.0  0.69304  0.86523  0.93845  1.0000
  H   H2638     1.0  0.55990  0.95994  0.67596  1.0000
  H   H2639     1.0  0.52494  0.71970  0.58927  1.0000
  H   H2640     1.0  0.50485  0.68824  0.59209  1.0000
  H   H2641     1.0  0.52192  0.77780  0.54605  1.0000
  C   C3303     1.0  0.61880  0.96151  0.74982  1.0000
  C   C3304     1.0  0.51208  0.84175  0.64699  1.0000
  C   C3305     1.0  0.50877  0.84794  0.66682  1.0000
  C   C3306     1.0  0.52246  0.86071  0.67356  1.0000
  C   C3307     1.0  0.53945  0.86786  0.66021  1.0000
  C   C3308     1.0  0.54278  0.86202  0.64009  1.0000
  C   C3309     1.0  0.52913  0.84883  0.63355  1.0000
  H   H2642     1.0  0.53597  0.80289  0.64902  1.0000
  H   H2643     1.0  0.51975  0.86528  0.68892  1.0000
  H   H2644     1.0  0.55591  0.86760  0.62965  1.0000
  H   H2645     1.0  0.53174  0.84424  0.61814  1.0000
  H   H2646     1.0  0.63530  0.93603  0.77530  1.0000
  H   H2647     1.0  0.59710  0.87704  0.71205  1.0000
  C   C3310     1.0  0.69403  0.93694  0.94937  1.0000
  C   C3311     1.0  0.66746  0.95286  0.70846  1.0000
  C   C3312     1.0  0.61029  0.91761  0.67694  1.0000
  C   C3313     1.0  0.60273  0.89889  0.68454  1.0000
  H   H2648     1.0  0.60900  0.92352  0.66073  1.0000
  H   H2649     1.0  0.59546  0.89036  0.67430  1.0000
  H   H2650     1.0  0.66366  0.94796  0.91056  1.0000
  H   H2651     1.0  0.65569  0.97008  0.94438  1.0000
  C   C3314     1.0  0.69570  0.91908  0.95044  1.0000
  H   H2652     1.0  0.56997  0.92967  0.76923  1.0000
  C   C3315     1.0  0.69371  0.70191  0.93948  1.0000
  C   C3316     1.0  0.59893  0.86882  0.91517  1.0000
  C   C3317     1.0  0.64875  0.91545  0.78396  1.0000
  C   C3318     1.0  0.54626  0.67349  0.70750  1.0000
  C   C3319     1.0  0.68060  0.97585  0.90624  1.0000
  H   H2653     1.0  0.69805  0.96008  0.81199  1.0000
  S   S453      1.0  0.48487  0.66235  0.50212  1.0000
  H   H2654     1.0  0.60920  0.89411  0.89218  1.0000
  H   H2655     1.0  0.62448  0.94329  0.68431  1.0000
  C   C3320     1.0  0.65626  0.89851  0.75573  1.0000
  C   C3321     1.0  0.49216  0.81220  0.51076  1.0000
  H   H2656     1.0  0.64718  0.95423  0.88056  1.0000
  H   H2657     1.0  0.53497  0.82979  0.71671  1.0000
  H   H2658     1.0  0.55124  0.91643  0.63873  1.0000
  C   C3322     1.0  0.69833  0.94057  0.90993  1.0000
  H   H2659     1.0  0.68486  0.66612  0.90927  1.0000
  C   C3323     1.0  0.54494  0.70025  0.61650  1.0000
  C   C3324     1.0  0.66169  0.66980  0.97027  1.0000
  C   C3325     1.0  0.61455  0.94378  0.74474  1.0000
  H   H2660     1.0  0.49551  0.84300  0.67703  1.0000
  H   H2661     1.0  0.65931  0.67721  0.89828  1.0000
  H   H2662     1.0  0.70173  0.91992  0.77126  1.0000
  C   C3326     1.0  0.66141  0.97994  0.80462  1.0000
  C   C3327     1.0  0.49836  0.71422  0.51933  1.0000
  C   C3328     1.0  0.71885  0.95966  0.84993  1.0000
  C   C3329     1.0  0.49904  0.69924  0.59559  1.0000
  C   C3330     1.0  0.49746  0.98255  0.71176  1.0000
  C   C3331     1.0  0.70999  0.68776  0.82783  1.0000
  H   H2663     1.0  0.72017  0.69951  0.81818  1.0000
  C   C3332     1.0  0.70072  0.93911  0.79321  1.0000
  P   P109      1.0  0.50251  0.79798  0.72362  1.0000
  H   H2664     1.0  0.50100  0.74711  0.54977  1.0000
  C   C3333     1.0  0.71057  0.97333  0.85534  1.0000
  H   H2665     1.0  0.71082  0.87223  0.90077  1.0000
  H   H2666     1.0  0.63008  0.94422  0.83866  1.0000
  C   C3334     1.0  0.58369  0.93847  0.76406  1.0000
  C   C3335     1.0  0.56934  0.78340  0.48664  1.0000
  H   H2667     1.0  0.70529  0.84932  0.87618  1.0000
  H   H2668     1.0  0.56597  0.93138  0.66677  1.0000
  H   H2669     1.0  0.67082  0.94068  0.71528  1.0000
  H   H2670     1.0  0.57737  0.96135  0.77677  1.0000
  C   C3336     1.0  0.51113  0.76484  0.72188  1.0000
  C   C3337     1.0  0.62036  0.92127  0.71164  1.0000
  C   C3338     1.0  0.60547  0.96781  0.76141  1.0000
  C   C3339     1.0  0.69521  0.94781  0.92907  1.0000
  C   C3340     1.0  0.53313  0.68302  0.62600  1.0000
  C   C3341     1.0  0.67717  0.98289  0.68568  1.0000
  H   H2671     1.0  0.66660  0.70591  0.94390  1.0000
  C   C3342     1.0  0.51994  0.79891  0.78269  1.0000
  H   H2672     1.0  0.66193  0.88785  0.75051  1.0000
  C   C3343     1.0  0.48890  0.73530  0.72791  1.0000
  H   H2673     1.0  0.65161  0.98834  0.76450  1.0000
  P   P110      1.0  0.63156  0.93568  0.72918  1.0000
  C   C3344     1.0  0.59700  0.93216  0.75244  1.0000
  C   C3345     1.0  0.67600  0.66228  0.77353  1.0000
  H   H2674     1.0  0.70233  0.91733  0.89612  1.0000
  C   C3346     1.0  0.49714  0.77339  0.72588  1.0000
  H   H2675     1.0  0.51043  0.90226  0.66969  1.0000
  C   C3347     1.0  0.54979  0.82363  0.66563  1.0000
  C   C3348     1.0  0.55152  0.68919  0.58270  1.0000
  H   H2676     1.0  0.48736  0.80388  0.68356  1.0000
  C   C3349     1.0  0.65745  0.96526  0.88450  1.0000
  H   H2677     1.0  0.60863  0.98176  0.76451  1.0000
  H   H2678     1.0  0.61245  0.89645  0.73591  1.0000
  H   H2679     1.0  0.48948  0.85076  0.59789  1.0000
  H   H2680     1.0  0.49157  0.86359  0.71070  1.0000
  C   C3350     1.0  0.59656  0.97301  0.70137  1.0000
  S   S454      1.0  0.50380  0.82246  0.53018  1.0000
  H   H2681     1.0  0.54446  0.67614  0.72412  1.0000
  C   C3351     1.0  0.51617  0.77357  0.53207  1.0000
  C   C3352     1.0  0.71330  0.67032  0.82979  1.0000
  C   C3353     1.0  0.51483  0.69949  0.65858  1.0000
  H   H2682     1.0  0.68358  0.80755  0.96356  1.0000
  C   C3354     1.0  0.69058  0.94147  0.75835  1.0000
  C   C3355     1.0  0.51963  0.81635  0.78679  1.0000
  C   C3356     1.0  0.52264  0.73067  0.66599  1.0000
  C   C3357     1.0  0.52722  0.71428  0.66420  1.0000
  H   H2683     1.0  0.69182  0.71156  0.87743  1.0000
  H   H2684     1.0  0.69119  0.94189  0.96448  1.0000
  C   C3358     1.0  0.50086  0.76278  0.49627  1.0000
  C   C3359     1.0  0.69860  0.91196  0.93128  1.0000
  C   C3360     1.0  0.56986  0.98031  0.73085  1.0000
  C   C3361     1.0  0.58788  0.95632  0.76841  1.0000
  H   H2685     1.0  0.50001  0.71497  0.55326  1.0000
  C   C3362     1.0  0.70003  0.92276  0.91103  1.0000
  C   C3363     1.0  0.68124  0.96717  0.69526  1.0000
  C   C3364     1.0  0.50418  0.75619  0.53414  1.0000
  H   H2686     1.0  0.61600  0.83759  0.90982  1.0000
  C   C3365     1.0  0.50893  0.82256  0.75272  1.0000
  S   S455      1.0  0.48867  0.86480  0.75694  1.0000
  C   C3366     1.0  0.66690  0.96174  0.90144  1.0000
  C   C3367     1.0  0.55690  0.93746  0.65838  1.0000
  C   C3368     1.0  0.68862  0.96446  0.78116  1.0000
  C   C3369     1.0  0.63784  0.78772  0.97272  1.0000
  C   C3370     1.0  0.54706  0.75445  0.50123  1.0000
  H   H2687     1.0  0.53243  0.74217  0.66975  1.0000
  H   H2688     1.0  0.54066  0.71337  0.66655  1.0000
  C   C3371     1.0  0.52012  0.70326  0.53832  1.0000
  C   C3372     1.0  0.68568  0.95739  0.76198  1.0000
  H   H2689     1.0  0.66153  0.89350  0.78848  1.0000
  C   C3373     1.0  0.64561  0.97007  0.70260  1.0000
  Fe  Fe225     1.0  0.68061  0.91285  0.85738  1.0000
  S   S456      1.0  0.70680  0.93649  0.84967  1.0000
  C   C3374     1.0  0.60378  0.89134  0.70572  1.0000
  H   H2690     1.0  0.69941  0.89800  0.93212  1.0000
  H   H2691     1.0  0.69505  0.96600  0.69228  1.0000
  P   P111      1.0  0.52159  0.67905  0.65401  1.0000
  H   H2692     1.0  0.55907  0.85772  0.96414  1.0000
  H   H2693     1.0  0.70673  0.97787  0.96782  1.0000
  H   H2694     1.0  0.69941  0.94867  0.89409  1.0000
  H   H2695     1.0  0.57934  0.69211  0.80396  1.0000
  C   C3375     1.0  0.64895  0.90890  0.74115  1.0000
  C   C3376     1.0  0.53721  0.67456  0.67175  1.0000
  H   H2696     1.0  0.56222  0.77148  0.52087  1.0000
  C   C3377     1.0  0.56437  0.67318  0.78567  1.0000
  C   C3378     1.0  0.60535  0.89036  0.94750  1.0000
  H   H2697     1.0  0.66017  0.95143  0.81558  1.0000
  C   C3379     1.0  0.59881  0.84099  0.73749  1.0000
  C   C3380     1.0  0.58046  0.83554  0.73557  1.0000
  C   C3381     1.0  0.56771  0.82428  0.75304  1.0000
  C   C3382     1.0  0.57328  0.81850  0.77249  1.0000
  C   C3383     1.0  0.59168  0.82407  0.77465  1.0000
  C   C3384     1.0  0.60440  0.83540  0.75698  1.0000
  P   P112      1.0  0.59861  0.81721  0.80021  1.0000
  C   C3385     1.0  0.59150  0.82977  0.82073  1.0000
  C   C3386     1.0  0.58937  0.79281  0.80927  1.0000
  C   C3387     1.0  0.58842  0.78507  0.83113  1.0000
  C   C3388     1.0  0.58313  0.76606  0.83768  1.0000
  C   C3389     1.0  0.57869  0.75461  0.82251  1.0000
  C   C3390     1.0  0.57951  0.76216  0.80073  1.0000
  C   C3391     1.0  0.58495  0.78117  0.79407  1.0000
  C   C3392     1.0  0.60029  0.83132  0.83891  1.0000
  C   C3393     1.0  0.59596  0.84211  0.85405  1.0000
  C   C3394     1.0  0.58280  0.85148  0.85118  1.0000
  C   C3395     1.0  0.57376  0.84981  0.83336  1.0000
  C   C3396     1.0  0.57806  0.83902  0.81818  1.0000
  C   C3397     1.0  0.62314  0.82201  0.79643  1.0000
  C   C3398     1.0  0.63377  0.83964  0.79718  1.0000
  C   C3399     1.0  0.65269  0.84336  0.79481  1.0000
  C   C3400     1.0  0.66116  0.82958  0.79144  1.0000
  C   C3401     1.0  0.65072  0.81203  0.79054  1.0000
  C   C3402     1.0  0.63178  0.80822  0.79304  1.0000
  H   H2698     1.0  0.60867  0.84988  0.72404  1.0000
  H   H2699     1.0  0.56321  0.80999  0.78602  1.0000
  H   H2700     1.0  0.61861  0.84012  0.75821  1.0000
  H   H2701     1.0  0.59241  0.79358  0.84302  1.0000
  H   H2702     1.0  0.58323  0.76018  0.85436  1.0000
  H   H2703     1.0  0.57509  0.73987  0.82754  1.0000
  H   H2704     1.0  0.57646  0.75323  0.78890  1.0000
  H   H2705     1.0  0.58629  0.78668  0.77694  1.0000
  H   H2706     1.0  0.61092  0.82463  0.84100  1.0000
  H   H2707     1.0  0.60320  0.84362  0.86763  1.0000
  H   H2708     1.0  0.57997  0.86047  0.86237  1.0000
  H   H2709     1.0  0.56400  0.85756  0.83071  1.0000
  H   H2710     1.0  0.57145  0.83877  0.80403  1.0000
  H   H2711     1.0  0.62744  0.85041  0.80009  1.0000
  H   H2712     1.0  0.66078  0.85674  0.79640  1.0000
  H   H2713     1.0  0.67577  0.83232  0.79040  1.0000
  H   H2714     1.0  0.65726  0.80118  0.78866  1.0000
  H   H2715     1.0  0.62402  0.79439  0.79277  1.0000
  C   C3403     1.0  0.65608  0.90173  0.77715  1.0000
  C   C3404     1.0  0.70829  0.70118  0.92385  1.0000
  C   C3405     1.0  0.64122  0.92572  0.76951  1.0000
  P   P113      1.0  0.69358  0.97110  0.92726  1.0000
  C   C3406     1.0  0.69596  0.95506  0.79688  1.0000
  H   H2716     1.0  0.60658  0.97026  0.68946  1.0000
  H   H2717     1.0  0.66671  0.66908  0.95354  1.0000
  C   C3407     1.0  0.63631  0.95803  0.82979  1.0000
  C   C3408     1.0  0.60922  0.89851  0.92544  1.0000
  H   H2718     1.0  0.50468  0.87839  0.61227  1.0000
  H   H2719     1.0  0.65795  0.79228  0.88829  1.0000
  C   C3409     1.0  0.50554  0.71107  0.53841  1.0000
  H   H2720     1.0  0.55969  0.84349  0.68553  1.0000
  C   C3410     1.0  0.50942  0.89076  0.64021  1.0000
  H   H2721     1.0  0.51037  0.92687  0.78085  1.0000
  C   C3411     1.0  0.69239  0.70894  0.89469  1.0000
  H   H2722     1.0  0.63192  0.97147  0.70518  1.0000
  H   H2723     1.0  0.64926  0.90629  0.72456  1.0000
  H   H2724     1.0  0.52978  0.92982  0.62013  1.0000
  H   H2725     1.0  0.64556  0.66771  0.76038  1.0000
  C   C3412     1.0  0.59027  0.66899  0.80224  1.0000
  H   H2726     1.0  0.68323  0.81943  0.88925  1.0000
  H   H2727     1.0  0.66863  0.76872  0.87144  1.0000
  H   H2728     1.0  0.52381  0.89177  0.63723  1.0000
  H   H2729     1.0  0.55507  0.68131  0.78243  1.0000
  H   H2730     1.0  0.62640  0.78393  0.96440  1.0000
  C   C3413     1.0  0.50739  0.98631  0.64043  1.0000
  H   H2731     1.0  0.48873  0.96493  0.74297  1.0000
  C   C3414     1.0  0.55341  0.95361  0.66355  1.0000
  C   C3415     1.0  0.49629  0.75075  0.51631  1.0000
  C   C3416     1.0  0.62705  0.97150  0.83122  1.0000
  C   C3417     1.0  0.51264  0.78022  0.49437  1.0000
  H   H2732     1.0  0.69592  0.97007  0.85927  1.0000
  C   C3418     1.0  0.60604  0.88776  0.90928  1.0000
  H   H2733     1.0  0.67701  0.72764  0.96393  1.0000
  C   C3419     1.0  0.49777  0.70142  0.65483  1.0000
  H   H2734     1.0  0.49735  0.90324  0.75970  1.0000
  H   H2735     1.0  0.55946  0.98328  0.74208  1.0000
  H   H2736     1.0  0.52896  0.79941  0.51092  1.0000
  H   H2737     1.0  0.52549  0.70082  0.55321  1.0000
  C   C3420     1.0  0.64953  0.95430  0.71249  1.0000
  H   H2738     1.0  0.68363  0.74862  0.89199  1.0000
  H   H2739     1.0  0.51782  0.73934  0.71960  1.0000
  C   C3421     1.0  0.67891  0.67508  0.78769  1.0000
  C   C3422     1.0  0.69063  0.69259  0.78002  1.0000
  C   C3423     1.0  0.69971  0.69737  0.75840  1.0000
  C   C3424     1.0  0.69703  0.68465  0.74429  1.0000
  H   H2740     1.0  0.51103  0.78888  0.68006  1.0000
  H   H2741     1.0  0.51506  0.77969  0.76077  1.0000
  H   H2742     1.0  0.69410  0.91053  0.96618  1.0000
  H   H2743     1.0  0.58965  0.84588  0.94142  1.0000
  S   S457      1.0  0.67538  0.84753  0.84140  1.0000
  H   H2744     1.0  0.66572  0.71224  0.90493  1.0000
  H   H2745     1.0  0.57607  0.84034  0.72070  1.0000
  C   C3425     1.0  0.61244  0.90247  0.71927  1.0000
  P   P114      1.0  0.68279  0.98522  0.78594  1.0000
  C   C3426     1.0  0.55406  0.70332  0.59493  1.0000
  H   H2746     1.0  0.52365  0.82079  0.80154  1.0000
  H   H2747     1.0  0.62374  0.68039  0.96331  1.0000
  C   C3427     1.0  0.67778  0.70948  0.91011  1.0000
  C   C3428     1.0  0.52028  0.78566  0.51224  1.0000
  H   H2748     1.0  0.67228  0.67170  0.80460  1.0000
  H   H2749     1.0  0.69272  0.70249  0.79091  1.0000
  H   H2750     1.0  0.64404  0.83459  0.92230  1.0000
  H   H2751     1.0  0.55858  0.69150  0.56601  1.0000
  C   C3429     1.0  0.51406  0.82813  0.77184  1.0000
  C   C3430     1.0  0.61849  0.82423  0.91239  1.0000
  C   C3431     1.0  0.60597  0.80891  0.90832  1.0000
  C   C3432     1.0  0.60937  0.79173  0.91167  1.0000
  C   C3433     1.0  0.62532  0.78988  0.91891  1.0000
  C   C3434     1.0  0.63817  0.80530  0.92250  1.0000
  C   C3435     1.0  0.63450  0.82245  0.91948  1.0000
  P   P115      1.0  0.65894  0.80301  0.93149  1.0000
  C   C3436     1.0  0.63051  0.70592  0.97541  1.0000
  C   C3437     1.0  0.66655  0.78553  0.91917  1.0000
  C   C3438     1.0  0.67488  0.77392  0.93083  1.0000
  C   C3439     1.0  0.68101  0.76064  0.92106  1.0000
  C   C3440     1.0  0.67885  0.75885  0.89963  1.0000
  C   C3441     1.0  0.67046  0.77024  0.88800  1.0000
  C   C3442     1.0  0.66434  0.78353  0.89767  1.0000
  H   H2752     1.0  0.61366  0.96815  0.84121  1.0000
  C   C3443     1.0  0.57814  0.67937  0.79789  1.0000
  C   C3444     1.0  0.66376  0.97271  0.95705  1.0000
  C   C3445     1.0  0.52037  0.97544  0.68654  1.0000
  H   H2753     1.0  0.53813  0.69132  0.51941  1.0000
  C   C3446     1.0  0.67593  0.82468  0.92202  1.0000
  C   C3447     1.0  0.68563  0.82895  0.90052  1.0000
  C   C3448     1.0  0.69825  0.84598  0.89298  1.0000
  C   C3449     1.0  0.70126  0.85892  0.90679  1.0000
  C   C3450     1.0  0.69133  0.85499  0.92799  1.0000
  C   C3451     1.0  0.67863  0.83803  0.93553  1.0000
  H   H2754     1.0  0.52312  0.95804  0.62954  1.0000
  H   H2755     1.0  0.59371  0.81034  0.90247  1.0000
  H   H2756     1.0  0.59978  0.77983  0.90838  1.0000
  H   H2757     1.0  0.62772  0.77645  0.92140  1.0000
  H   H2758     1.0  0.56050  0.83003  0.65173  1.0000
  H   H2759     1.0  0.67658  0.77498  0.94747  1.0000
  H   H2760     1.0  0.68742  0.75171  0.93007  1.0000
  C   C3452     1.0  0.65344  0.96220  0.81658  1.0000
  H   H2761     1.0  0.52523  0.77285  0.71789  1.0000
  H   H2762     1.0  0.51367  0.84164  0.77501  1.0000
  C   C3453     1.0  0.53269  0.95255  0.63757  1.0000
  H   H2763     1.0  0.70886  0.71093  0.75265  1.0000
  H   H2764     1.0  0.52480  0.68474  0.69888  1.0000
  H   H2765     1.0  0.68835  0.93602  0.74359  1.0000
  H   H2766     1.0  0.65421  0.98562  0.85921  1.0000
  C   C3454     1.0  0.69809  0.93234  0.77395  1.0000
  C   C3455     1.0  0.50810  0.95606  0.72193  1.0000
  C   C3456     1.0  0.69240  0.97705  0.97028  1.0000
  C   C3457     1.0  0.49750  0.87040  0.54438  1.0000
  C   C3458     1.0  0.49323  0.71782  0.65666  1.0000
  C   C3459     1.0  0.59506  0.86060  0.93720  1.0000
  C   C3460     1.0  0.51473  0.79325  0.76359  1.0000
  C   C3461     1.0  0.49839  0.88303  0.62606  1.0000
  C   C3462     1.0  0.62699  0.69511  0.95917  1.0000
  H   H2767     1.0  0.70644  0.93196  0.80539  1.0000
  H   H2768     1.0  0.50809  0.94443  0.73376  1.0000
  C   C3463     1.0  0.54848  0.92897  0.64264  1.0000
  P   P116      1.0  0.53618  0.98155  0.66110  1.0000
  H   H2769     1.0  0.50595  0.84878  0.56210  1.0000
  H   H2770     1.0  0.52571  0.69704  0.48539  1.0000
  C   C3464     1.0  0.50914  0.98671  0.69174  1.0000
  C   C3465     1.0  0.52114  0.80809  0.70101  1.0000
  H   H2771     1.0  0.70412  0.68833  0.72753  1.0000
  C   C3466     1.0  0.66994  0.80089  0.97232  1.0000
  C   C3467     1.0  0.69719  0.71795  0.97956  1.0000
  Fe  Fe226     1.0  0.49527  0.80579  0.56438  1.0000
  C   C3468     1.0  0.68518  0.66718  0.75180  1.0000
  S   S458      1.0  0.50079  0.66055  0.55966  1.0000
  H   H2772     1.0  0.61496  0.91317  0.92085  1.0000
  C   C3469     1.0  0.53991  0.67200  0.59205  1.0000
  C   C3470     1.0  0.56107  0.66036  0.67973  1.0000
  C   C3471     1.0  0.49859  0.81842  0.48827  1.0000
  H   H2773     1.0  0.56302  0.71669  0.58770  1.0000
  P   P117      1.0  0.69385  0.69693  0.96849  1.0000
  C   C3472     1.0  0.54936  0.83117  0.68473  1.0000
  C   C3473     1.0  0.50914  0.80503  0.74846  1.0000
  C   C3474     1.0  0.51962  0.95995  0.70172  1.0000
  H   H2774     1.0  0.48899  0.99137  0.71564  1.0000
  C   C3475     1.0  0.54128  0.83113  0.97815  1.0000
  C   C3476     1.0  0.59823  0.87130  0.95360  1.0000
  C   C3477     1.0  0.50619  0.70971  0.50003  1.0000
  S   S459      1.0  0.49424  0.82548  0.63980  1.0000
  C   C3478     1.0  0.55758  0.84496  0.97496  1.0000
  C   C3479     1.0  0.53596  0.80836  0.66411  1.0000
  C   C3480     1.0  0.49833  0.85889  0.56323  1.0000
  C   C3481     1.0  0.65708  0.66299  0.90543  1.0000
  H   H2775     1.0  0.53951  0.74409  0.51510  1.0000
  H   H2776     1.0  0.60818  0.89902  0.95957  1.0000
  H   H2777     1.0  0.50232  0.74535  0.66275  1.0000
  C   C3482     1.0  0.55984  0.76990  0.50448  1.0000
  H   H2778     1.0  0.72592  0.66867  0.82160  1.0000
  H   H2779     1.0  0.71875  0.70392  0.88947  1.0000
  C   C3483     1.0  0.68717  0.73046  0.97423  1.0000
  C   C3484     1.0  0.49688  0.92569  0.77690  1.0000
  H   H2780     1.0  0.49914  0.97412  0.65153  1.0000
  H   H2781     1.0  0.50476  0.83199  0.74127  1.0000
  C   C3485     1.0  0.65285  0.91312  0.97963  1.0000
  H   H2782     1.0  0.72864  0.96852  0.90409  1.0000
  H   H2783     1.0  0.72011  0.69773  0.92864  1.0000
  C   C3486     1.0  0.48705  0.93781  0.78312  1.0000
  H   H2784     1.0  0.72217  0.98951  0.77933  1.0000
  C   C3487     1.0  0.73262  0.65966  0.88632  1.0000
  C   C3488     1.0  0.58416  0.66042  0.96386  1.0000
  H   H2785     1.0  0.48681  0.89214  0.53115  1.0000
  H   H2786     1.0  0.51066  0.82975  0.48288  1.0000
  H   H2787     1.0  0.56726  0.66012  0.71232  1.0000
  C   C3489     1.0  0.71157  0.68625  0.97437  1.0000
  C   C3490     1.0  0.59987  0.99009  0.70819  1.0000
  C   C3491     1.0  0.63404  0.72493  0.97021  1.0000
  C   C3492     1.0  0.50700  0.74587  0.72284  1.0000
  C   C3493     1.0  0.50212  0.65911  0.65944  1.0000
  H   H2788     1.0  0.61824  0.66558  0.74353  1.0000
  H   H2789     1.0  0.53036  0.83318  0.96971  1.0000
  H   H2790     1.0  0.48808  0.69060  0.64985  1.0000
  C   C3494     1.0  0.55914  0.66443  0.70085  1.0000
  C   C3495     1.0  0.72138  0.99128  0.85568  1.0000
  H   H2791     1.0  0.48572  0.72060  0.72859  1.0000
  H   H2792     1.0  0.57316  0.99146  0.63637  1.0000
  C   C3496     1.0  0.61920  0.84198  0.97434  1.0000
  C   C3497     1.0  0.73061  0.98171  0.90918  1.0000
  C   C3498     1.0  0.71612  0.98673  0.92050  1.0000
  C   C3499     1.0  0.66141  0.98292  0.87245  1.0000
  C   C3500     1.0  0.48750  0.88328  0.54580  1.0000
  H   H2793     1.0  0.53802  0.66099  0.58264  1.0000
  H   H2794     1.0  0.68150  0.75591  0.97921  1.0000
  H   H2795     1.0  0.57916  0.79544  0.48921  1.0000
  H   H2796     1.0  0.49294  0.94841  0.79196  1.0000
  C   C3501     1.0  0.48959  0.91243  0.76487  1.0000
  H   H2797     1.0  0.48443  0.99114  0.62681  1.0000
  C   C3502     1.0  0.54364  0.75254  0.48020  1.0000
  H   H2798     1.0  0.49525  0.75889  0.48215  1.0000
  Fe  Fe227     1.0  0.76526  0.08443  0.03032  1.0000
  S   S460      1.0  0.78528  0.06999  0.04135  1.0000
  H   H2799     1.0  0.95459  0.29633  0.15659  1.0000
  Fe  Fe228     1.0  0.74888  0.08440  0.07708  1.0000
  S   S461      1.0  0.76823  0.07013  0.09087  1.0000
  C   C3503     1.0  0.86552  0.25481  0.18434  1.0000
  Fe  Fe229     1.0  0.79007  0.08996  0.06485  1.0000
  S   S462      1.0  0.81992  0.10421  0.06720  1.0000
  Fe  Fe230     1.0  0.76143  0.05180  0.06588  1.0000
  S   S463      1.0  0.75718  0.02058  0.07275  1.0000
  S   S464      1.0  0.77101  0.10517  0.05257  1.0000
  H   H2800     1.0  0.89630  0.30709  0.25238  1.0000
  H   H2801     1.0  0.91254  0.19918  0.00232  1.0000
  S   S465      1.0  0.91754  0.28961  0.18063  1.0000
  C   C3504     1.0  0.96244  0.31163  0.10174  1.0000
  Fe  Fe231     1.0  0.89336  0.20798  0.06817  1.0000
  S   S466      1.0  0.89031  0.23452  0.05047  1.0000
  S   S467      1.0  0.86584  0.18534  0.07577  1.0000
  Fe  Fe232     1.0  0.93445  0.22683  0.06861  1.0000
  S   S468      1.0  0.93322  0.25358  0.05092  1.0000
  S   S469      1.0  0.96186  0.22415  0.07692  1.0000
  Fe  Fe233     1.0  0.90669  0.24850  0.07367  1.0000
  S   S470      1.0  0.90072  0.27278  0.08766  1.0000
  Fe  Fe234     1.0  0.91707  0.23684  0.02974  1.0000
  S   S471      1.0  0.92624  0.24553  0.99314  1.0000
  S   S472      1.0  0.90836  0.22218  0.09279  1.0000
  S   S473      1.0  0.91975  0.20993  0.04610  1.0000
  Fe  Fe235     1.0  0.83032  0.28663  0.34310  1.0000
  S   S474      1.0  0.80197  0.28412  0.33639  1.0000
  S   S475      1.0  0.84755  0.27951  0.31518  1.0000
  Fe  Fe236     1.0  0.82177  0.29821  0.38758  1.0000
  S   S476      1.0  0.79300  0.29680  0.38354  1.0000
  S   S477      1.0  0.82852  0.31020  0.41760  1.0000
  Fe  Fe237     1.0  0.79307  0.27064  0.37143  1.0000
  S   S478      1.0  0.77106  0.24511  0.38693  1.0000
  Fe  Fe238     1.0  0.80502  0.31054  0.34908  1.0000
  S   S479      1.0  0.82119  0.27093  0.37759  1.0000
  C   C3505     1.0  0.84003  0.13326  0.99364  1.0000
  C   C3506     1.0  0.82891  0.29717  0.44292  1.0000
  C   C3507     1.0  0.83523  0.28150  0.44420  1.0000
  C   C3508     1.0  0.83746  0.27287  0.46457  1.0000
  H   H2802     1.0  0.74927  0.12521  0.20415  1.0000
  H   H2803     1.0  0.79900  0.03925  0.02958  1.0000
  C   C3509     1.0  0.82406  0.30360  0.46219  1.0000
  H   H2804     1.0  0.83913  0.27652  0.42943  1.0000
  H   H2805     1.0  0.77720  0.03756  0.00390  1.0000
  C   C3510     1.0  0.76922  0.00792  0.00871  1.0000
  C   C3511     1.0  0.75476  0.23372  0.37274  1.0000
  C   C3512     1.0  0.75217  0.24119  0.35258  1.0000
  C   C3513     1.0  0.75910  0.15912  0.39533  1.0000
  H   H2806     1.0  0.75075  0.18488  0.22117  1.0000
  H   H2807     1.0  0.78386  0.26175  0.26182  1.0000
  H   H2808     1.0  0.74322  0.02311  0.02789  1.0000
  H   H2809     1.0  0.76031  0.25485  0.34511  1.0000
  C   C3514     1.0  0.87673  0.30994  0.31172  1.0000
  C   C3515     1.0  0.74382  0.15167  0.47104  1.0000
  C   C3516     1.0  0.76431  0.14277  0.33955  1.0000
  C   C3517     1.0  0.75069  0.18812  0.28264  1.0000
  H   H2810     1.0  0.88684  0.23041  0.99804  1.0000
  H   H2811     1.0  0.92258  0.29355  0.04317  1.0000
  H   H2812     1.0  0.94532  0.21960  0.00560  1.0000
  H   H2813     1.0  0.78190  0.13537  0.99785  1.0000
  C   C3518     1.0  0.86749  0.29619  0.30145  1.0000
  C   C3519     1.0  0.87461  0.29518  0.28000  1.0000
  C   C3520     1.0  0.78786  0.24838  0.46190  1.0000
  H   H2814     1.0  0.84294  0.26114  0.46542  1.0000
  H   H2815     1.0  0.86761  0.28454  0.27205  1.0000
  C   C3521     1.0  0.78460  0.99304  0.03400  1.0000
  C   C3522     1.0  0.91367  0.28560  0.15429  1.0000
  C   C3523     1.0  0.91123  0.29918  0.13865  1.0000
  C   C3524     1.0  0.90722  0.29504  0.11831  1.0000
  C   C3525     1.0  0.90635  0.27757  0.11313  1.0000
  C   C3526     1.0  0.90937  0.26418  0.12854  1.0000
  C   C3527     1.0  0.91271  0.26811  0.14916  1.0000
  H   H2816     1.0  0.73860  0.23968  0.32669  1.0000
  H   H2817     1.0  0.90473  0.30539  0.10655  1.0000
  H   H2818     1.0  0.90867  0.25067  0.12478  1.0000
  H   H2819     1.0  0.91463  0.25755  0.16116  1.0000
  C   C3528     1.0  0.83240  0.12708  0.06887  1.0000
  C   C3529     1.0  0.82387  0.14056  0.07384  1.0000
  C   C3530     1.0  0.83430  0.15818  0.07576  1.0000
  C   C3531     1.0  0.85348  0.16280  0.07263  1.0000
  C   C3532     1.0  0.86204  0.14933  0.06753  1.0000
  C   C3533     1.0  0.85159  0.13167  0.06576  1.0000
  H   H2820     1.0  0.80919  0.13731  0.07661  1.0000
  H   H2821     1.0  0.82742  0.16834  0.07978  1.0000
  H   H2822     1.0  0.87671  0.15244  0.06524  1.0000
  H   H2823     1.0  0.85844  0.12141  0.06211  1.0000
  C   C3534     1.0  0.82989  0.27730  0.24760  1.0000
  H   H2824     1.0  0.84794  0.31139  0.22700  1.0000
  H   H2825     1.0  0.79872  0.18358  0.04583  1.0000
  H   H2826     1.0  0.76799  0.32324  0.37098  1.0000
  C   C3535     1.0  0.74971  0.17530  0.42380  1.0000
  H   H2827     1.0  0.80345  0.01096  0.04930  1.0000
  C   C3536     1.0  0.75202  0.31212  0.46188  1.0000
  C   C3537     1.0  0.76613  0.08847  0.18232  1.0000
  H   H2828     1.0  0.81111  0.27653  0.27664  1.0000
  H   H2829     1.0  0.87581  0.23840  0.16301  1.0000
  H   H2830     1.0  0.86215  0.24906  0.13195  1.0000
  H   H2831     1.0  0.95423  0.26709  0.14367  1.0000
  C   C3538     1.0  0.86879  0.27081  0.22814  1.0000
  H   H2832     1.0  0.96094  0.26648  0.10397  1.0000
  H   H2833     1.0  0.85987  0.13384  0.01523  1.0000
  H   H2834     1.0  0.96625  0.29468  0.07726  1.0000
  C   C3539     1.0  0.79930  0.26065  0.23088  1.0000
  H   H2835     1.0  0.78885  0.29648  0.44697  1.0000
  C   C3540     1.0  0.80411  0.15982  0.03439  1.0000
  H   H2836     1.0  0.77858  0.18483  0.23710  1.0000
  P   P118      1.0  0.75477  0.18705  0.44635  1.0000
  C   C3541     1.0  0.86688  0.16970  0.99091  1.0000
  C   C3542     1.0  0.74788  0.22152  0.44015  1.0000
  H   H2837     1.0  0.73795  0.05481  0.13305  1.0000
  C   C3543     1.0  0.97930  0.28467  0.01577  1.0000
  C   C3544     1.0  0.77866  0.19946  0.44050  1.0000
  C   C3545     1.0  0.78617  0.21014  0.41976  1.0000
  C   C3546     1.0  0.80445  0.22018  0.41506  1.0000
  C   C3547     1.0  0.81555  0.21929  0.43083  1.0000
  C   C3548     1.0  0.80837  0.20824  0.45126  1.0000
  C   C3549     1.0  0.78998  0.19843  0.45616  1.0000
  C   C3550     1.0  0.79727  0.26492  0.25193  1.0000
  H   H2838     1.0  0.86706  0.23569  0.26878  1.0000
  H   H2839     1.0  0.75546  0.09225  0.13127  1.0000
  C   C3551     1.0  0.76317  0.16913  0.41199  1.0000
  C   C3552     1.0  0.95984  0.31201  0.12423  1.0000
  S   S480      1.0  0.77055  0.09381  0.99375  1.0000
  H   H2840     1.0  0.84407  0.27145  0.13559  1.0000
  H   H2841     1.0  0.77777  0.21102  0.40732  1.0000
  H   H2842     1.0  0.80993  0.22884  0.39924  1.0000
  H   H2843     1.0  0.82968  0.22723  0.42724  1.0000
  C   C3553     1.0  0.76642  0.18578  0.24725  1.0000
  C   C3554     1.0  0.96488  0.20398  0.00749  1.0000
  C   C3555     1.0  0.74283  0.99845  0.07176  1.0000
  C   C3556     1.0  0.74418  0.21650  0.38223  1.0000
  H   H2844     1.0  0.93576  0.27446  0.21522  1.0000
  H   H2845     1.0  0.95400  0.26751  0.18400  1.0000
  H   H2846     1.0  0.79476  0.32231  0.41703  1.0000
  C   C3557     1.0  0.84923  0.12543  0.00850  1.0000
  C   C3558     1.0  0.84975  0.26659  0.14938  1.0000
  C   C3559     1.0  0.83207  0.27334  0.22629  1.0000
  P   P119      1.0  0.85469  0.27867  0.21034  1.0000
  H   H2847     1.0  0.87239  0.25056  0.19723  1.0000
  C   C3560     1.0  0.88690  0.28073  0.22687  1.0000
  H   H2848     1.0  0.84159  0.28357  0.25450  1.0000
  H   H2849     1.0  0.89258  0.29345  0.21555  1.0000
  C   C3561     1.0  0.89784  0.27439  0.24044  1.0000
  H   H2850     1.0  0.84785  0.24634  0.24426  1.0000
  C   C3562     1.0  0.89092  0.30771  0.26893  1.0000
  C   C3563     1.0  0.84751  0.27344  0.16889  1.0000
  C   C3564     1.0  0.96088  0.27926  0.10962  1.0000
  C   C3565     1.0  0.74917  0.17057  0.47137  1.0000
  C   C3566     1.0  0.87600  0.30955  0.18090  1.0000
  C   C3567     1.0  0.76799  0.08895  0.15974  1.0000
  C   C3568     1.0  0.90062  0.32081  0.27952  1.0000
  H   H2851     1.0  0.76167  0.22702  0.43158  1.0000
  C   C3569     1.0  0.79164  0.02607  0.02657  1.0000
  C   C3570     1.0  0.75057  0.09147  0.19383  1.0000
  H   H2852     1.0  0.75498  0.14455  0.23232  1.0000
  C   C3571     1.0  0.82045  0.19102  0.01803  1.0000
  C   C3572     1.0  0.89069  0.25822  0.25560  1.0000
  C   C3573     1.0  0.87264  0.24817  0.25692  1.0000
  C   C3574     1.0  0.86339  0.30309  0.20049  1.0000
  C   C3575     1.0  0.77165  0.20485  0.33934  1.0000
  C   C3576     1.0  0.85543  0.26765  0.18653  1.0000
  C   C3577     1.0  0.73627  0.13205  0.32605  1.0000
  H   H2853     1.0  0.74601  0.21057  0.39814  1.0000
  H   H2854     1.0  0.82291  0.20560  0.01788  1.0000
  C   C3578     1.0  0.79422  0.01010  0.03764  1.0000
  H   H2855     1.0  0.89907  0.25360  0.26647  1.0000
  C   C3579     1.0  0.98352  0.23974  0.07670  1.0000
  H   H2856     1.0  0.91174  0.28236  0.23954  1.0000
  S   S481      1.0  0.94541  0.31796  0.21534  1.0000
  C   C3580     1.0  0.97653  0.19585  0.99579  1.0000
  C   C3581     1.0  0.73498  0.18665  0.25149  1.0000
  H   H2857     1.0  0.73811  0.14682  0.37802  1.0000
  C   C3582     1.0  0.82869  0.16573  0.00342  1.0000
  C   C3583     1.0  0.95735  0.27850  0.23423  1.0000
  H   H2858     1.0  0.84017  0.28375  0.16994  1.0000
  C   C3584     1.0  0.82999  0.09525  0.00794  1.0000
  H   H2859     1.0  0.94931  0.28194  0.24781  1.0000
  H   H2860     1.0  0.79007  0.24316  0.44682  1.0000
  C   C3585     1.0  0.75418  0.09216  0.14874  1.0000
  H   H2861     1.0  0.81787  0.26127  0.20194  1.0000
  H   H2862     1.0  0.77059  0.26415  0.45013  1.0000
  C   C3586     1.0  0.74152  0.13561  0.23304  1.0000
  C   C3587     1.0  0.93463  0.30495  0.04139  1.0000
  C   C3588     1.0  0.86958  0.17088  0.01242  1.0000
  C   C3589     1.0  0.81258  0.27325  0.26027  1.0000
  H   H2863     1.0  0.93330  0.30350  0.07594  1.0000
  C   C3590     1.0  0.77708  0.26053  0.46371  1.0000
  H   H2864     1.0  0.76951  0.15435  0.38638  1.0000
  H   H2865     1.0  0.78475  0.19014  0.47216  1.0000
  S   S482      1.0  0.74110  0.06525  0.05340  1.0000
  Fe  Fe239     1.0  0.92718  0.31765  0.19011  1.0000
  H   H2866     1.0  0.88783  0.18229  0.03324  1.0000
  C   C3591     1.0  0.76933  0.20454  0.31753  1.0000
  C   C3592     1.0  0.78124  0.21800  0.30094  1.0000
  C   C3593     1.0  0.79560  0.23108  0.30610  1.0000
  C   C3594     1.0  0.79791  0.23113  0.32781  1.0000
  C   C3595     1.0  0.78592  0.21803  0.34442  1.0000
  C   C3596     1.0  0.82565  0.12187  0.98614  1.0000
  C   C3597     1.0  0.97779  0.24580  0.14336  1.0000
  C   C3598     1.0  0.76446  0.16091  0.33229  1.0000
  C   C3599     1.0  0.73488  0.18769  0.27361  1.0000
  H   H2867     1.0  0.77578  0.17177  0.33432  1.0000
  C   C3600     1.0  0.75015  0.12835  0.33658  1.0000
  H   H2868     1.0  0.77841  0.18623  0.27630  1.0000
  C   C3601     1.0  0.85989  0.25392  0.14732  1.0000
  H   H2869     1.0  0.77937  0.21867  0.28411  1.0000
  H   H2870     1.0  0.80489  0.24134  0.29334  1.0000
  H   H2871     1.0  0.80884  0.24152  0.33180  1.0000
  P   P120      1.0  0.84473  0.15777  0.98615  1.0000
  P   P121      1.0  0.75029  0.18779  0.31155  1.0000
  C   C3602     1.0  0.77920  0.02502  0.01215  1.0000
  C   C3603     1.0  0.73562  0.01701  0.99702  1.0000
  C   C3604     1.0  0.86176  0.25435  0.24312  1.0000
  C   C3605     1.0  0.81501  0.15336  0.01938  1.0000
  H   H2872     1.0  0.78739  0.21843  0.36133  1.0000
  H   H2873     1.0  0.74993  0.11429  0.34234  1.0000
  H   H2874     1.0  0.77670  0.08563  0.19089  1.0000
  H   H2875     1.0  0.87139  0.31079  0.32828  1.0000
  H   H2876     1.0  0.82575  0.08066  0.01403  1.0000
  C   C3606     1.0  0.88609  0.18118  0.01655  1.0000
  H   H2877     1.0  0.79381  0.15017  0.04685  1.0000
  C   C3607     1.0  0.96574  0.23177  0.13628  1.0000
  C   C3608     1.0  0.95271  0.21821  0.15133  1.0000
  C   C3609     1.0  0.95176  0.21855  0.17365  1.0000
  C   C3610     1.0  0.96368  0.23260  0.18086  1.0000
  C   C3611     1.0  0.97655  0.24658  0.16575  1.0000
  H   H2878     1.0  0.96415  0.20339  0.02497  1.0000
  C   C3612     1.0  0.90001  0.19060  0.99919  1.0000
  C   C3613     1.0  0.95406  0.21296  0.99665  1.0000
  H   H2879     1.0  0.78003  0.08666  0.15074  1.0000
  H   H2880     1.0  0.85083  0.10058  0.02776  1.0000
  H   H2881     1.0  0.76225  0.19505  0.35250  1.0000
  C   C3614     1.0  0.85737  0.31580  0.21174  1.0000
  H   H2882     1.0  0.88136  0.30016  0.17224  1.0000
  C   C3615     1.0  0.76342  0.30035  0.46252  1.0000
  H   H2883     1.0  0.85868  0.16423  0.02602  1.0000
  H   H2884     1.0  0.74912  0.09062  0.21140  1.0000
  C   C3616     1.0  0.76634  0.18675  0.26940  1.0000
  C   C3617     1.0  0.94971  0.27431  0.21592  1.0000
  C   C3618     1.0  0.96015  0.27038  0.19815  1.0000
  C   C3619     1.0  0.73854  0.07400  0.98308  1.0000
  H   H2885     1.0  0.78743  0.25412  0.22446  1.0000
  C   C3620     1.0  0.73826  0.12445  0.21723  1.0000
  C   C3621     1.0  0.81663  0.26483  0.21808  1.0000
  H   H2886     1.0  0.84231  0.19436  0.99141  1.0000
  C   C3622     1.0  0.74149  0.15488  0.39060  1.0000
  H   H2887     1.0  0.96632  0.23146  0.11904  1.0000
  H   H2888     1.0  0.94337  0.20747  0.14559  1.0000
  H   H2889     1.0  0.94168  0.20797  0.18535  1.0000
  H   H2890     1.0  0.96272  0.23263  0.19825  1.0000
  C   C3623     1.0  0.77901  0.30437  0.44631  1.0000
  H   H2891     1.0  0.77522  0.13985  0.34741  1.0000
  C   C3624     1.0  0.86760  0.24791  0.16485  1.0000
  H   H2892     1.0  0.80452  0.23398  0.47812  1.0000
  C   C3625     1.0  0.73899  0.23137  0.34186  1.0000
  C   C3626     1.0  0.78510  0.16379  0.98501  1.0000
  H   H2893     1.0  0.91208  0.31273  0.14235  1.0000
  H   H2894     1.0  0.74017  0.30154  0.39338  1.0000
  C   C3627     1.0  0.80688  0.17863  0.03381  1.0000
  H   H2895     1.0  0.81300  0.13871  0.02085  1.0000
  H   H2896     1.0  0.77677  0.17182  0.41584  1.0000
  C   C3628     1.0  0.96367  0.29528  0.09451  1.0000
  C   C3629     1.0  0.84422  0.10648  0.01556  1.0000
  H   H2897     1.0  0.98143  0.28224  0.24887  1.0000
  S   S483      1.0  0.83386  0.31402  0.35363  1.0000
  H   H2898     1.0  0.74299  0.14655  0.45583  1.0000
  C   C3630     1.0  0.75023  0.16472  0.32227  1.0000
  H   H2899     1.0  0.78529  0.16808  0.00075  1.0000
  C   C3631     1.0  0.83135  0.18461  0.00295  1.0000
  C   C3632     1.0  0.75076  0.18580  0.23828  1.0000
  C   C3633     1.0  0.74098  0.20288  0.44931  1.0000
  C   C3634     1.0  0.95732  0.29605  0.13926  1.0000
  C   C3635     1.0  0.95739  0.27961  0.13197  1.0000
  P   P122      1.0  0.75384  0.00699  0.98929  1.0000
  C   C3636     1.0  0.73861  0.09511  0.16021  1.0000
  C   C3637     1.0  0.82074  0.10294  0.99318  1.0000
  C   C3638     1.0  0.97829  0.27025  0.19869  1.0000
  C   C3639     1.0  0.73683  0.23342  0.44152  1.0000
  H   H2900     1.0  0.81924  0.31574  0.46136  1.0000
  C   C3640     1.0  0.97476  0.26969  0.00510  1.0000
  C   C3641     1.0  0.73980  0.31514  0.38633  1.0000
  H   H2901     1.0  0.93933  0.30924  0.00625  1.0000
  C   C3642     1.0  0.94074  0.31064  0.06000  1.0000
  C   C3643     1.0  0.89289  0.23150  0.98115  1.0000
  H   H2902     1.0  0.74219  0.24763  0.43374  1.0000
  H   H2903     1.0  0.95925  0.32442  0.13034  1.0000
  H   H2904     1.0  0.74411  0.03091  0.11240  1.0000
  H   H2905     1.0  0.80932  0.09429  0.98779  1.0000
  H   H2906     1.0  0.81702  0.20752  0.46346  1.0000
  H   H2907     1.0  0.96903  0.29132  0.02107  1.0000
  H   H2908     1.0  0.74070  0.31018  0.47503  1.0000
  H   H2909     1.0  0.97825  0.26478  0.06268  1.0000
  C   C3644     1.0  0.78314  0.14541  0.98339  1.0000
  C   C3645     1.0  0.73637  0.15016  0.31883  1.0000
  H   H2910     1.0  0.96101  0.26487  0.00201  1.0000
  C   C3646     1.0  0.97547  0.27871  0.23478  1.0000
  C   C3647     1.0  0.94407  0.31380  0.02063  1.0000
  H   H2911     1.0  0.98408  0.24909  0.99053  1.0000
  C   C3648     1.0  0.73693  0.09539  0.18276  1.0000
  C   C3649     1.0  0.78254  0.31922  0.42926  1.0000
  C   C3650     1.0  0.89341  0.32208  0.30085  1.0000
  C   C3651     1.0  0.77219  0.99191  0.01954  1.0000
  C   C3652     1.0  0.79588  0.24309  0.47949  1.0000
  H   H2912     1.0  0.90691  0.15855  0.95473  1.0000
  S   S484      1.0  0.75661  0.06915  0.83159  1.0000
  H   H2913     1.0  0.74498  0.12406  0.81093  1.0000
  H   H2914     1.0  0.80414  0.01688  0.92752  1.0000
  S   S485      1.0  0.76351  0.06035  0.88159  1.0000
  C   C3653     1.0  0.97048  0.30343  0.81298  1.0000
  Fe  Fe240     1.0  0.76823  0.08574  0.85613  1.0000
  S   S486      1.0  0.79097  0.11297  0.84501  1.0000
  Fe  Fe241     1.0  0.74952  0.04419  0.85792  1.0000
  S   S487      1.0  0.75542  0.01763  0.85043  1.0000
  S   S488      1.0  0.74107  0.09024  0.86822  1.0000
  S   S489      1.0  0.93969  0.30783  0.73916  1.0000
  H   H2915     1.0  0.76400  0.02133  0.90354  1.0000
  Fe  Fe242     1.0  0.88350  0.18993  0.86004  1.0000
  S   S490      1.0  0.86969  0.21170  0.86666  1.0000
  S   S491      1.0  0.86893  0.15950  0.86079  1.0000
  Fe  Fe243     1.0  0.92175  0.21673  0.85977  1.0000
  S   S492      1.0  0.91001  0.23992  0.86670  1.0000
  Fe  Fe244     1.0  0.88840  0.21835  0.89082  1.0000
  S   S493      1.0  0.87547  0.22010  0.92486  1.0000
  Fe  Fe245     1.0  0.89251  0.23117  0.84187  1.0000
  S   S494      1.0  0.88473  0.25126  0.81741  1.0000
  S   S495      1.0  0.90121  0.19567  0.88566  1.0000
  S   S496      1.0  0.90528  0.20898  0.83341  1.0000
  Fe  Fe246     1.0  0.82805  0.27953  0.53992  1.0000
  S   S497      1.0  0.80406  0.29094  0.54251  1.0000
  S   S498      1.0  0.83660  0.26895  0.50909  1.0000
  Fe  Fe247     1.0  0.83520  0.28661  0.58564  1.0000
  S   S499      1.0  0.81156  0.29879  0.59149  1.0000
  S   S500      1.0  0.85501  0.28311  0.60880  1.0000
  Fe  Fe248     1.0  0.79626  0.27555  0.57674  1.0000
  S   S501      1.0  0.76648  0.26126  0.58982  1.0000
  S   S502      1.0  0.81909  0.26211  0.57346  1.0000
  C   C3654     1.0  0.75640  0.24377  0.57604  1.0000
  C   C3655     1.0  0.73546  0.18569  0.63526  1.0000
  C   C3656     1.0  0.85294  0.31156  0.63134  1.0000
  H   H2916     1.0  0.78096  0.12555  0.96213  1.0000
  C   C3657     1.0  0.75883  0.22433  0.54885  1.0000
  C   C3658     1.0  0.76683  0.23871  0.55917  1.0000
  H   H2917     1.0  0.73457  0.12456  0.49028  1.0000
  H   H2918     1.0  0.76705  0.22039  0.53592  1.0000
  H   H2919     1.0  0.78114  0.24573  0.55425  1.0000
  C   C3659     1.0  0.94697  0.29412  0.84520  1.0000
  S   S503      1.0  0.95210  0.21784  0.85539  1.0000
  C   C3660     1.0  0.87736  0.29764  0.63638  1.0000
  C   C3661     1.0  0.86234  0.29879  0.62628  1.0000
  C   C3662     1.0  0.85325  0.15390  0.94296  1.0000
  H   H2920     1.0  0.88466  0.28775  0.63257  1.0000
  C   C3663     1.0  0.90044  0.26698  0.79607  1.0000
  C   C3664     1.0  0.91857  0.26655  0.79117  1.0000
  C   C3665     1.0  0.93050  0.27908  0.77362  1.0000
  C   C3666     1.0  0.92433  0.29203  0.76081  1.0000
  C   C3667     1.0  0.90618  0.29236  0.76572  1.0000
  C   C3668     1.0  0.89436  0.27999  0.78335  1.0000
  H   H2921     1.0  0.92331  0.25647  0.80079  1.0000
  H   H2922     1.0  0.94449  0.27868  0.76993  1.0000
  H   H2923     1.0  0.90121  0.30217  0.75601  1.0000
  H   H2924     1.0  0.88036  0.28039  0.78706  1.0000
  H   H2925     1.0  0.80297  0.22621  0.70845  1.0000
  C   C3669     1.0  0.88183  0.22611  0.96571  1.0000
  C   C3670     1.0  0.88957  0.22720  0.94382  1.0000
  C   C3671     1.0  0.90839  0.23395  0.93735  1.0000
  C   C3672     1.0  0.91939  0.23973  0.95264  1.0000
  C   C3673     1.0  0.81659  0.18514  0.87105  1.0000
  H   H2926     1.0  0.91435  0.23484  0.92052  1.0000
  H   H2927     1.0  0.93392  0.24522  0.94751  1.0000
  C   C3674     1.0  0.81278  0.12554  0.84957  1.0000
  C   C3675     1.0  0.82478  0.11710  0.85900  1.0000
  C   C3676     1.0  0.84172  0.12770  0.86243  1.0000
  C   C3677     1.0  0.84721  0.14689  0.85611  1.0000
  C   C3678     1.0  0.83555  0.15526  0.84589  1.0000
  C   C3679     1.0  0.81847  0.14470  0.84279  1.0000
  H   H2928     1.0  0.82107  0.10238  0.86354  1.0000
  H   H2929     1.0  0.85071  0.12094  0.86994  1.0000
  H   H2930     1.0  0.83980  0.16984  0.84009  1.0000
  H   H2931     1.0  0.80958  0.15144  0.83504  1.0000
  H   H2932     1.0  0.85774  0.27734  0.67695  1.0000
  H   H2933     1.0  0.83217  0.27081  0.65692  1.0000
  H   H2934     1.0  0.75301  0.19114  0.49228  1.0000
  H   H2935     1.0  0.78621  0.31597  0.48931  1.0000
  H   H2936     1.0  0.82163  0.29953  0.49723  1.0000
  C   C3680     1.0  0.89737  0.18972  0.97772  1.0000
  C   C3681     1.0  0.76802  0.01939  0.96384  1.0000
  H   H2937     1.0  0.95632  0.19350  0.89367  1.0000
  C   C3682     1.0  0.74946  0.17663  0.49154  1.0000
  C   C3683     1.0  0.75889  0.13377  0.91703  1.0000
  C   C3684     1.0  0.76415  0.08668  0.95367  1.0000
  C   C3685     1.0  0.75352  0.07969  0.93860  1.0000
  C   C3686     1.0  0.73972  0.14524  0.51056  1.0000
  C   C3687     1.0  0.76654  0.03658  0.95457  1.0000
  H   H2938     1.0  0.77820  0.09431  0.94815  1.0000
  H   H2939     1.0  0.75928  0.08203  0.92145  1.0000
  C   C3688     1.0  0.83632  0.17615  0.94879  1.0000
  H   H2940     1.0  0.74656  0.16675  0.66840  1.0000
  H   H2941     1.0  0.74121  0.03251  0.81477  1.0000
  H   H2942     1.0  0.92385  0.32163  0.78333  1.0000
  H   H2943     1.0  0.74538  0.16878  0.52646  1.0000
  H   H2944     1.0  0.98047  0.31708  0.73871  1.0000
  H   H2945     1.0  0.80100  0.04699  0.91091  1.0000
  H   H2946     1.0  0.77494  0.23033  0.61617  1.0000
  C   C3689     1.0  0.75079  0.01157  0.90880  1.0000
  C   C3690     1.0  0.95325  0.23836  0.80267  1.0000
  C   C3691     1.0  0.84425  0.16274  0.95732  1.0000
  H   H2947     1.0  0.73763  0.09089  0.71772  1.0000
  H   H2948     1.0  0.81777  0.15996  0.88962  1.0000
  C   C3692     1.0  0.86027  0.30846  0.73389  1.0000
  C   C3693     1.0  0.78755  0.19216  0.87611  1.0000
  H   H2949     1.0  0.74893  0.14813  0.70242  1.0000
  C   C3694     1.0  0.79524  0.12830  0.91584  1.0000
  H   H2950     1.0  0.85965  0.14366  0.94920  1.0000
  C   C3695     1.0  0.74919  0.13967  0.75652  1.0000
  H   H2951     1.0  0.76220  0.14117  0.88181  1.0000
  C   C3696     1.0  0.73761  0.07644  0.74991  1.0000
  C   C3697     1.0  0.97259  0.32059  0.84281  1.0000
  H   H2952     1.0  0.77914  0.20116  0.87219  1.0000
  P   P123      1.0  0.75959  0.28231  0.48595  1.0000
  H   H2953     1.0  0.94661  0.22013  0.77990  1.0000
  H   H2954     1.0  0.83073  0.18878  0.86331  1.0000
  H   H2955     1.0  0.94341  0.22137  0.90523  1.0000
  C   C3698     1.0  0.83289  0.27951  0.48382  1.0000
  H   H2956     1.0  0.86727  0.22093  0.97079  1.0000
  H   H2957     1.0  0.97587  0.30118  0.79699  1.0000
  C   C3699     1.0  0.78598  0.17104  0.94602  1.0000
  H   H2958     1.0  0.75124  0.12203  0.95154  1.0000
  C   C3700     1.0  0.95232  0.25041  0.90326  1.0000
  C   C3701     1.0  0.73903  0.13909  0.49060  1.0000
  C   C3702     1.0  0.78027  0.17613  0.89155  1.0000
  H   H2959     1.0  0.86863  0.31377  0.49447  1.0000
  C   C3703     1.0  0.98013  0.24863  0.85949  1.0000
  H   H2960     1.0  0.77730  0.05968  0.92843  1.0000
  C   C3704     1.0  0.95442  0.21343  0.97427  1.0000
  H   H2961     1.0  0.77974  0.20058  0.60946  1.0000
  C   C3705     1.0  0.75354  0.12485  0.74835  1.0000
  H   H2962     1.0  0.79941  0.24582  0.51249  1.0000
  H   H2963     1.0  0.78722  0.18127  0.93187  1.0000
  C   C3706     1.0  0.78185  0.01250  0.95414  1.0000
  H   H2964     1.0  0.94651  0.28074  0.81713  1.0000
  C   C3707     1.0  0.95625  0.30858  0.85438  1.0000
  H   H2965     1.0  0.77840  0.11303  0.89578  1.0000
  H   H2966     1.0  0.84133  0.31254  0.62374  1.0000
  C   C3708     1.0  0.77141  0.31281  0.54348  1.0000
  C   C3709     1.0  0.91777  0.16615  0.94147  1.0000
  C   C3710     1.0  0.96599  0.20523  0.96235  1.0000
  H   H2967     1.0  0.94088  0.23192  0.81430  1.0000
  C   C3711     1.0  0.74503  0.16398  0.51099  1.0000
  H   H2968     1.0  0.89417  0.30771  0.65957  1.0000
  P   P124      1.0  0.96601  0.20604  0.93341  1.0000
  C   C3712     1.0  0.76389  0.29413  0.50866  1.0000
  H   H2969     1.0  0.75475  0.17214  0.62146  1.0000
  C   C3713     1.0  0.73654  0.14477  0.69567  1.0000
  C   C3714     1.0  0.83774  0.18091  0.92616  1.0000
  C   C3715     1.0  0.75253  0.18501  0.62481  1.0000
  C   C3716     1.0  0.78978  0.11390  0.90439  1.0000
  C   C3717     1.0  0.73528  0.12443  0.89545  1.0000
  C   C3718     1.0  0.91173  0.23836  0.97460  1.0000
  C   C3719     1.0  0.85463  0.15869  0.92040  1.0000
  H   H2970     1.0  0.94567  0.22027  0.96630  1.0000
  C   C3720     1.0  0.73782  0.23451  0.58231  1.0000
  C   C3721     1.0  0.81973  0.11574  0.92558  1.0000
  C   C3722     1.0  0.81385  0.10114  0.91473  1.0000
  C   C3723     1.0  0.79888  0.10023  0.90416  1.0000
  H   H2971     1.0  0.83144  0.11656  0.93361  1.0000
  H   H2972     1.0  0.82105  0.09068  0.91422  1.0000
  H   H2973     1.0  0.79452  0.08918  0.89528  1.0000
  C   C3724     1.0  0.80925  0.16892  0.88616  1.0000
  H   H2974     1.0  0.74734  0.01005  0.79177  1.0000
  C   C3725     1.0  0.97286  0.23965  0.76865  1.0000
  C   C3726     1.0  0.76674  0.20105  0.61806  1.0000
  C   C3727     1.0  0.95659  0.23167  0.78333  1.0000
  C   C3728     1.0  0.80575  0.19673  0.86597  1.0000
  H   H2975     1.0  0.78089  0.26745  0.51575  1.0000
  C   C3729     1.0  0.75404  0.28694  0.52988  1.0000
  C   C3730     1.0  0.88278  0.30894  0.65165  1.0000
  C   C3731     1.0  0.91681  0.16308  0.92011  1.0000
  H   H2976     1.0  0.76628  0.17300  0.89973  1.0000
  C   C3732     1.0  0.97784  0.24392  0.92881  1.0000
  C   C3733     1.0  0.95397  0.29170  0.82441  1.0000
  C   C3734     1.0  0.80064  0.11876  0.70203  1.0000
  C   C3735     1.0  0.79908  0.10730  0.68638  1.0000
  C   C3736     1.0  0.78560  0.09064  0.69077  1.0000
  C   C3737     1.0  0.77355  0.08551  0.71070  1.0000
  C   C3738     1.0  0.77464  0.09725  0.72618  1.0000
  C   C3739     1.0  0.78859  0.11367  0.72197  1.0000
  P   P125      1.0  0.75974  0.09026  0.75233  1.0000
  C   C3740     1.0  0.78278  0.26241  0.50053  1.0000
  C   C3741     1.0  0.77166  0.07867  0.76990  1.0000
  C   C3742     1.0  0.76873  0.05960  0.77246  1.0000
  C   C3743     1.0  0.77840  0.05088  0.78574  1.0000
  C   C3744     1.0  0.79127  0.06113  0.79620  1.0000
  C   C3745     1.0  0.79465  0.08017  0.79321  1.0000
  C   C3746     1.0  0.78498  0.08892  0.78002  1.0000
  H   H2977     1.0  0.84227  0.32283  0.51214  1.0000
  C   C3747     1.0  0.74719  0.21859  0.63248  1.0000
  H   H2978     1.0  0.84952  0.31442  0.76479  1.0000
  H   H2979     1.0  0.96995  0.25595  0.86204  1.0000
  H   H2980     1.0  0.82950  0.18332  0.95940  1.0000
  C   C3748     1.0  0.75522  0.10987  0.76269  1.0000
  C   C3749     1.0  0.75206  0.10973  0.78526  1.0000
  C   C3750     1.0  0.74772  0.12453  0.79340  1.0000
  C   C3751     1.0  0.78252  0.13984  0.96311  1.0000
  C   C3752     1.0  0.77489  0.26805  0.48284  1.0000
  C   C3753     1.0  0.97496  0.23057  0.85536  1.0000
  H   H2981     1.0  0.81133  0.13149  0.69881  1.0000
  H   H2982     1.0  0.80847  0.11121  0.67097  1.0000
  H   H2983     1.0  0.78461  0.08160  0.67879  1.0000
  H   H2984     1.0  0.76347  0.07236  0.71407  1.0000
  H   H2985     1.0  0.79027  0.12248  0.73415  1.0000
  H   H2986     1.0  0.75897  0.05145  0.76431  1.0000
  H   H2987     1.0  0.77582  0.03612  0.78822  1.0000
  H   H2988     1.0  0.79843  0.05430  0.80689  1.0000
  H   H2989     1.0  0.80441  0.08813  0.80162  1.0000
  H   H2990     1.0  0.78774  0.10368  0.77803  1.0000
  C   C3754     1.0  0.75791  0.29619  0.54721  1.0000
  H   H2991     1.0  0.75647  0.04259  0.96210  1.0000
  H   H2992     1.0  0.74374  0.27398  0.53337  1.0000
  C   C3755     1.0  0.82562  0.29455  0.48256  1.0000
  H   H2993     1.0  0.73583  0.13550  0.52572  1.0000
  C   C3756     1.0  0.73540  0.06975  0.94570  1.0000
  H   H2994     1.0  0.75089  0.29014  0.56372  1.0000
  Fe  Fe249     1.0  0.82124  0.31305  0.55669  1.0000
  C   C3757     1.0  0.75675  0.08381  0.97593  1.0000
  C   C3758     1.0  0.88089  0.17939  0.97352  1.0000
  H   H2995     1.0  0.93422  0.28487  0.85407  1.0000
  H   H2996     1.0  0.93003  0.17067  0.88638  1.0000
  C   C3759     1.0  0.77773  0.31063  0.50520  1.0000
  H   H2997     1.0  0.78359  0.99956  0.96149  1.0000
  C   C3760     1.0  0.96582  0.22909  0.92280  1.0000
  H   H2998     1.0  0.83221  0.19175  0.91954  1.0000
  H   H2999     1.0  0.74455  0.24678  0.51462  1.0000
  H   H3000     1.0  0.96352  0.25786  0.82265  1.0000
  C   C3761     1.0  0.98216  0.26137  0.79256  1.0000
  C   C3762     1.0  0.79112  0.16444  0.89676  1.0000
  H   H3001     1.0  0.84854  0.17623  0.89449  1.0000
  C   C3763     1.0  0.93264  0.17916  0.94570  1.0000
  C   C3764     1.0  0.95302  0.23246  0.90996  1.0000
  H   H3002     1.0  0.90776  0.19784  0.96425  1.0000
  H   H3003     1.0  0.96387  0.27895  0.90388  1.0000
  H   H3004     1.0  0.86185  0.15211  0.90929  1.0000
  C   C3765     1.0  0.79189  0.03931  0.92571  1.0000
  C   C3766     1.0  0.81049  0.12930  0.92611  1.0000
  S   S504      1.0  0.84607  0.30274  0.55177  1.0000
  C   C3767     1.0  0.94566  0.18588  0.90718  1.0000
  C   C3768     1.0  0.77843  0.04643  0.93553  1.0000
  H   H3005     1.0  0.86327  0.32240  0.72532  1.0000
  H   H3006     1.0  0.81151  0.20926  0.85419  1.0000
  C   C3769     1.0  0.96446  0.26509  0.90912  1.0000
  C   C3770     1.0  0.75299  0.13402  0.89675  1.0000
  H   H3007     1.0  0.78842  0.19091  0.96759  1.0000
  C   C3771     1.0  0.76406  0.21782  0.62187  1.0000
  C   C3772     1.0  0.78366  0.15251  0.94429  1.0000
  C   C3773     1.0  0.96603  0.25314  0.80731  1.0000
  H   H3008     1.0  0.75245  0.09801  0.79672  1.0000
  C   C3774     1.0  0.85242  0.30392  0.75600  1.0000
  C   C3775     1.0  0.79312  0.24989  0.49887  1.0000
  C   C3776     1.0  0.84704  0.17230  0.91201  1.0000
  C   C3777     1.0  0.74035  0.21492  0.55523  1.0000
  P   P126      1.0  0.78228  0.14482  0.91833  1.0000
  H   H3009     1.0  0.94235  0.25287  0.89342  1.0000
  H   H3010     1.0  0.81511  0.14045  0.93471  1.0000
  H   H3011     1.0  0.93311  0.18128  0.96235  1.0000
  C   C3778     1.0  0.93083  0.17285  0.90301  1.0000
  C   C3779     1.0  0.79360  0.02234  0.93502  1.0000
  H   H3012     1.0  0.90515  0.15326  0.91673  1.0000
  C   C3780     1.0  0.74695  0.12323  0.93582  1.0000
  H   H3013     1.0  0.87903  0.17978  0.95668  1.0000
  H   H3014     1.0  0.84193  0.28221  0.78381  1.0000
  C   C3781     1.0  0.84817  0.28579  0.76671  1.0000
  C   C3782     1.0  0.85189  0.27222  0.75536  1.0000
  C   C3783     1.0  0.86053  0.27686  0.73339  1.0000
  C   C3784     1.0  0.86438  0.29501  0.72265  1.0000
  P   P127      1.0  0.86457  0.25951  0.71806  1.0000
  C   C3785     1.0  0.88619  0.26828  0.69995  1.0000
  C   C3786     1.0  0.86696  0.23976  0.73546  1.0000
  C   C3787     1.0  0.86136  0.22218  0.73022  1.0000
  C   C3788     1.0  0.86342  0.20700  0.74373  1.0000
  C   C3789     1.0  0.87141  0.20931  0.76228  1.0000
  C   C3790     1.0  0.87766  0.22684  0.76711  1.0000
  C   C3791     1.0  0.87567  0.24202  0.75360  1.0000
  C   C3792     1.0  0.90110  0.27887  0.70734  1.0000
  C   C3793     1.0  0.91810  0.28520  0.69374  1.0000
  C   C3794     1.0  0.92030  0.28119  0.67261  1.0000
  C   C3795     1.0  0.90560  0.27042  0.66525  1.0000
  C   C3796     1.0  0.88866  0.26375  0.67897  1.0000
  C   C3797     1.0  0.84569  0.25456  0.70350  1.0000
  C   C3798     1.0  0.82984  0.24054  0.71264  1.0000
  C   C3799     1.0  0.81513  0.23711  0.70143  1.0000
  C   C3800     1.0  0.81604  0.24787  0.68124  1.0000
  C   C3801     1.0  0.83151  0.26227  0.67246  1.0000
  C   C3802     1.0  0.84614  0.26578  0.68370  1.0000
  H   H3015     1.0  0.80471  0.24524  0.67248  1.0000
  C   C3803     1.0  0.94658  0.18929  0.92850  1.0000
  C   C3804     1.0  0.97724  0.26185  0.92188  1.0000
  H   H3016     1.0  0.84802  0.25819  0.76380  1.0000
  H   H3017     1.0  0.87042  0.29878  0.70548  1.0000
  H   H3018     1.0  0.85554  0.22020  0.71564  1.0000
  H   H3019     1.0  0.85890  0.19342  0.73979  1.0000
  H   H3020     1.0  0.87293  0.19756  0.77285  1.0000
  H   H3021     1.0  0.88407  0.22872  0.78136  1.0000
  H   H3022     1.0  0.88095  0.25550  0.75736  1.0000
  H   H3023     1.0  0.89967  0.28217  0.72364  1.0000
  H   H3024     1.0  0.92955  0.29329  0.69964  1.0000
  H   H3025     1.0  0.93342  0.28638  0.66199  1.0000
  H   H3026     1.0  0.90729  0.26725  0.64888  1.0000
  H   H3027     1.0  0.87755  0.25514  0.67309  1.0000
  H   H3028     1.0  0.82873  0.23240  0.72851  1.0000
  C   C3805     1.0  0.74630  0.13951  0.77906  1.0000
  C   C3806     1.0  0.73514  0.15533  0.67628  1.0000
  C   C3807     1.0  0.97987  0.31806  0.82202  1.0000
  H   H3029     1.0  0.74513  0.23175  0.63487  1.0000
  C   C3808     1.0  0.78120  0.32009  0.52243  1.0000
  Fe  Fe250     1.0  0.73573  0.06409  0.89191  1.0000
  H   H3030     1.0  0.74779  0.15117  0.74548  1.0000
  H   H3031     1.0  0.74267  0.15082  0.78549  1.0000
  C   C3809     1.0  0.74788  0.99408  0.90345  1.0000
  C   C3810     1.0  0.78672  0.17663  0.96631  1.0000
  C   C3811     1.0  0.73648  0.01670  0.92006  1.0000
  H   H3032     1.0  0.95075  0.31046  0.87049  1.0000
  H   H3033     1.0  0.81783  0.12765  0.97542  1.0000
  H   H3034     1.0  0.77488  0.31959  0.55706  1.0000
  H   H3035     1.0  0.73867  0.03041  0.92383  1.0000
  H   H3036     1.0  0.75539  0.12495  0.73093  1.0000
  C   C3812     1.0  0.97714  0.19649  0.97326  1.0000
  C   C3813     1.0  0.87307  0.32137  0.65709  1.0000
  H   H3037     1.0  0.97577  0.17163  0.93381  1.0000
  H   H3038     1.0  0.93511  0.31973  0.81837  1.0000
  H   H3039     1.0  0.97517  0.23415  0.75383  1.0000
  H   H3040     1.0  0.97888  0.28477  0.75075  1.0000
  C   C3814     1.0  0.73707  0.26641  0.49175  1.0000
  C   C3815     1.0  0.74048  0.99565  0.85044  1.0000
  C   C3816     1.0  0.85820  0.32268  0.64681  1.0000
  H   H3041     1.0  0.87565  0.54869  0.16259  1.0000
  Fe  Fe251     1.0  0.93112  0.35891  0.18670  1.0000
  S   S505      1.0  0.95002  0.36215  0.21104  1.0000
  S   S506      1.0  0.92180  0.38225  0.16971  1.0000
  Fe  Fe252     1.0  0.96303  0.34356  0.19382  1.0000
  H   H3042     1.0  0.77337  0.34165  0.41478  1.0000
  H   H3043     1.0  0.84684  0.55560  0.02011  1.0000
  H   H3044     1.0  0.78594  0.53391  0.12447  1.0000
  C   C3817     1.0  0.97321  0.44579  0.13295  1.0000
  Fe  Fe253     1.0  0.77848  0.62075  0.03948  1.0000
  S   S507      1.0  0.75653  0.59680  0.03390  1.0000
  S   S508      1.0  0.80585  0.61388  0.04034  1.0000
  Fe  Fe254     1.0  0.74892  0.61777  0.01081  1.0000
  C   C3818     1.0  0.92389  0.62889  0.12826  1.0000
  C   C3819     1.0  0.79030  0.49295  0.45583  1.0000
  S   S509      1.0  0.77178  0.64111  0.01490  1.0000
  S   S510      1.0  0.76036  0.62688  0.06727  1.0000
  Fe  Fe255     1.0  0.92913  0.51258  0.14961  1.0000
  S   S511      1.0  0.93386  0.53492  0.16950  1.0000
  S   S512      1.0  0.91963  0.51728  0.11717  1.0000
  Fe  Fe256     1.0  0.94365  0.48757  0.18056  1.0000
  S   S513      1.0  0.94990  0.50858  0.20241  1.0000
  S   S514      1.0  0.95182  0.46184  0.19161  1.0000
  Fe  Fe257     1.0  0.92252  0.51240  0.19846  1.0000
  S   S515      1.0  0.90160  0.51578  0.22531  1.0000
  Fe  Fe258     1.0  0.96068  0.52899  0.17146  1.0000
  C   C3820     1.0  0.89596  0.38385  0.32300  1.0000
  S   S516      1.0  0.91548  0.49020  0.17855  1.0000
  S   S517      1.0  0.95673  0.50776  0.14980  1.0000
  S   S518      1.0  0.90936  0.61732  0.02667  1.0000
  H   H3045     1.0  0.76268  0.48063  0.31506  1.0000
  H   H3046     1.0  0.85905  0.34429  0.21216  1.0000
  Fe  Fe259     1.0  0.92494  0.61672  0.05445  1.0000
  S   S519      1.0  0.91482  0.59837  0.08750  1.0000
  H   H3047     1.0  0.86958  0.57913  0.16104  1.0000
  Fe  Fe260     1.0  0.81600  0.46102  0.34064  1.0000
  S   S520      1.0  0.84368  0.47890  0.34205  1.0000
  S   S521      1.0  0.79559  0.47182  0.32395  1.0000
  Fe  Fe261     1.0  0.82252  0.42769  0.36658  1.0000
  S   S522      1.0  0.85076  0.44249  0.37008  1.0000
  S   S523      1.0  0.80880  0.39943  0.38547  1.0000
  Fe  Fe262     1.0  0.83860  0.46522  0.37726  1.0000
  S   S524      1.0  0.84320  0.48115  0.40491  1.0000
  Fe  Fe263     1.0  0.85365  0.45478  0.33465  1.0000
  S   S525      1.0  0.87927  0.45589  0.31137  1.0000
  S   S526      1.0  0.81020  0.44955  0.37624  1.0000
  S   S527      1.0  0.82630  0.43784  0.33054  1.0000
  H   H3048     1.0  0.96925  0.56146  0.21169  1.0000
  H   H3049     1.0  0.93851  0.53978  0.22075  1.0000
  C   C3821     1.0  0.84390  0.46915  0.43079  1.0000
  C   C3822     1.0  0.84166  0.47726  0.44945  1.0000
  C   C3823     1.0  0.75915  0.39994  0.40432  1.0000
  H   H3050     1.0  0.98340  0.62883  0.98164  1.0000
  C   C3824     1.0  0.84821  0.44284  0.45360  1.0000
  C   C3825     1.0  0.84707  0.45184  0.43298  1.0000
  H   H3051     1.0  0.83928  0.49067  0.44787  1.0000
  H   H3052     1.0  0.97159  0.56829  0.36074  1.0000
  H   H3053     1.0  0.85074  0.42951  0.45513  1.0000
  H   H3054     1.0  0.84882  0.44546  0.41876  1.0000
  C   C3826     1.0  0.80716  0.38192  0.36985  1.0000
  C   C3827     1.0  0.80551  0.36409  0.38019  1.0000
  C   C3828     1.0  0.80388  0.34981  0.36810  1.0000
  C   C3829     1.0  0.80324  0.35320  0.34578  1.0000
  C   C3830     1.0  0.80506  0.37106  0.33540  1.0000
  C   C3831     1.0  0.80710  0.38544  0.34741  1.0000
  H   H3055     1.0  0.80589  0.36140  0.39748  1.0000
  H   H3056     1.0  0.80279  0.33615  0.37616  1.0000
  H   H3057     1.0  0.80478  0.37373  0.31812  1.0000
  H   H3058     1.0  0.80817  0.39913  0.33940  1.0000
  C   C3832     1.0  0.89572  0.49923  0.24925  1.0000
  C   C3833     1.0  0.90498  0.48580  0.25227  1.0000
  C   C3834     1.0  0.90002  0.47274  0.27155  1.0000
  C   C3835     1.0  0.88550  0.47277  0.28765  1.0000
  C   C3836     1.0  0.87631  0.48627  0.28464  1.0000
  C   C3837     1.0  0.88152  0.49956  0.26557  1.0000
  H   H3059     1.0  0.91591  0.48542  0.23970  1.0000
  H   H3060     1.0  0.90722  0.46236  0.27378  1.0000
  H   H3061     1.0  0.86521  0.48652  0.29701  1.0000
  H   H3062     1.0  0.87439  0.51001  0.26335  1.0000
  C   C3838     1.0  0.91902  0.54008  0.10864  1.0000
  C   C3839     1.0  0.92318  0.54788  0.08634  1.0000
  C   C3840     1.0  0.92249  0.56598  0.07949  1.0000
  C   C3841     1.0  0.91718  0.57613  0.09492  1.0000
  C   C3842     1.0  0.91288  0.56825  0.11710  1.0000
  C   C3843     1.0  0.91387  0.55037  0.12394  1.0000
  H   H3063     1.0  0.92710  0.53997  0.07439  1.0000
  H   H3064     1.0  0.92584  0.57196  0.06233  1.0000
  H   H3065     1.0  0.90865  0.57598  0.12909  1.0000
  H   H3066     1.0  0.91014  0.54438  0.14105  1.0000
  C   C3844     1.0  0.82904  0.62718  0.03564  1.0000
  C   C3845     1.0  0.74563  0.55357  0.17574  1.0000
  C   C3846     1.0  0.97387  0.55855  0.24504  1.0000
  H   H3067     1.0  0.88685  0.33207  0.45928  1.0000
  C   C3847     1.0  0.86138  0.62785  0.03088  1.0000
  C   C3848     1.0  0.84286  0.61811  0.03397  1.0000
  H   H3068     1.0  0.96821  0.42522  0.24863  1.0000
  H   H3069     1.0  0.87172  0.62057  0.02970  1.0000
  H   H3070     1.0  0.83928  0.60341  0.03508  1.0000
  C   C3849     1.0  0.95967  0.32835  0.01850  1.0000
  C   C3850     1.0  0.92996  0.40444  0.17589  1.0000
  C   C3851     1.0  0.94177  0.40761  0.19090  1.0000
  C   C3852     1.0  0.94828  0.42528  0.19545  1.0000
  C   C3853     1.0  0.94299  0.44001  0.18517  1.0000
  C   C3854     1.0  0.93098  0.43696  0.17031  1.0000
  C   C3855     1.0  0.92457  0.41922  0.16559  1.0000
  H   H3071     1.0  0.94598  0.39650  0.19904  1.0000
  H   H3072     1.0  0.95741  0.42750  0.20712  1.0000
  H   H3073     1.0  0.92682  0.44827  0.16230  1.0000
  H   H3074     1.0  0.91551  0.41697  0.15386  1.0000
  C   C3856     1.0  0.76750  0.44665  0.35258  1.0000
  C   C3857     1.0  0.77251  0.46185  0.33582  1.0000
  C   C3858     1.0  0.75891  0.46884  0.32799  1.0000
  H   H3075     1.0  0.77778  0.44100  0.35859  1.0000
  C   C3859     1.0  0.89706  0.41804  0.33473  1.0000
  C   C3860     1.0  0.89321  0.40254  0.35092  1.0000
  C   C3861     1.0  0.89915  0.39926  0.30662  1.0000
  C   C3862     1.0  0.90035  0.41649  0.31267  1.0000
  P   P128      1.0  0.90268  0.39686  0.27818  1.0000
  C   C3863     1.0  0.92622  0.39684  0.27122  1.0000
  C   C3864     1.0  0.93980  0.41312  0.26220  1.0000
  C   C3865     1.0  0.95785  0.41275  0.25609  1.0000
  C   C3866     1.0  0.96254  0.39622  0.25944  1.0000
  C   C3867     1.0  0.94926  0.38014  0.26936  1.0000
  C   C3868     1.0  0.93123  0.38049  0.27549  1.0000
  C   C3869     1.0  0.89709  0.41473  0.26082  1.0000
  C   C3870     1.0  0.88295  0.42209  0.26852  1.0000
  C   C3871     1.0  0.87949  0.43677  0.25565  1.0000
  C   C3872     1.0  0.88993  0.44404  0.23493  1.0000
  C   C3873     1.0  0.90316  0.43601  0.22659  1.0000
  C   C3874     1.0  0.90654  0.42119  0.23931  1.0000
  H   H3076     1.0  0.89723  0.43128  0.33924  1.0000
  H   H3077     1.0  0.90345  0.42873  0.30044  1.0000
  H   H3078     1.0  0.93646  0.42606  0.25968  1.0000
  C   C3875     1.0  0.97169  0.50357  0.24520  1.0000
  H   H3079     1.0  0.85757  0.47481  0.12109  1.0000
  H   H3080     1.0  0.95283  0.36728  0.27210  1.0000
  H   H3081     1.0  0.92117  0.36790  0.28334  1.0000
  H   H3082     1.0  0.87494  0.41694  0.28473  1.0000
  H   H3083     1.0  0.86925  0.44305  0.26218  1.0000
  H   H3084     1.0  0.88799  0.45604  0.22544  1.0000
  H   H3085     1.0  0.91101  0.44150  0.21039  1.0000
  H   H3086     1.0  0.91672  0.41502  0.23239  1.0000
  C   C3876     1.0  0.93293  0.47165  0.30717  1.0000
  C   C3877     1.0  0.95081  0.47037  0.30578  1.0000
  H   H3087     1.0  0.79821  0.57108  0.03422  1.0000
  C   C3878     1.0  0.96167  0.50343  0.30095  1.0000
  C   C3879     1.0  0.94372  0.50480  0.30263  1.0000
  C   C3880     1.0  0.92940  0.48879  0.30540  1.0000
  P   P129      1.0  0.93950  0.52709  0.29994  1.0000
  C   C3881     1.0  0.91554  0.52529  0.30763  1.0000
  C   C3882     1.0  0.95018  0.54005  0.31895  1.0000
  C   C3883     1.0  0.95276  0.55907  0.31595  1.0000
  H   H3088     1.0  0.86689  0.65490  0.08252  1.0000
  H   H3089     1.0  0.76759  0.35431  0.35541  1.0000
  C   C3884     1.0  0.93236  0.34268  0.09207  1.0000
  C   C3885     1.0  0.95494  0.53123  0.33751  1.0000
  C   C3886     1.0  0.90648  0.53510  0.29455  1.0000
  C   C3887     1.0  0.88797  0.53350  0.30097  1.0000
  C   C3888     1.0  0.87848  0.52250  0.32071  1.0000
  C   C3889     1.0  0.88754  0.51322  0.33419  1.0000
  C   C3890     1.0  0.90601  0.51470  0.32776  1.0000
  C   C3891     1.0  0.94894  0.53817  0.27203  1.0000
  C   C3892     1.0  0.93920  0.53397  0.25516  1.0000
  C   C3893     1.0  0.94636  0.54268  0.23360  1.0000
  C   C3894     1.0  0.96656  0.55019  0.26673  1.0000
  H   H3090     1.0  0.92171  0.45941  0.30946  1.0000
  H   H3091     1.0  0.95352  0.45707  0.30693  1.0000
  H   H3092     1.0  0.80188  0.48884  0.44844  1.0000
  C   C3895     1.0  0.79310  0.50638  0.46906  1.0000
  H   H3093     1.0  0.91547  0.48938  0.30605  1.0000
  H   H3094     1.0  0.94863  0.56604  0.30210  1.0000
  Fe  Fe264     1.0  0.73804  0.60403  0.06048  1.0000
  C   C3896     1.0  0.86420  0.39459  0.46065  1.0000
  C   C3897     1.0  0.86645  0.64688  0.02959  1.0000
  C   C3898     1.0  0.95056  0.34517  0.09482  1.0000
  H   H3095     1.0  0.91353  0.54407  0.27946  1.0000
  H   H3096     1.0  0.88094  0.54076  0.29058  1.0000
  H   H3097     1.0  0.86412  0.52119  0.32563  1.0000
  H   H3098     1.0  0.88020  0.50481  0.34962  1.0000
  H   H3099     1.0  0.91279  0.50742  0.33847  1.0000
  H   H3100     1.0  0.92599  0.52408  0.25865  1.0000
  C   C3899     1.0  0.88733  0.37578  0.27469  1.0000
  C   C3900     1.0  0.98028  0.62202  0.08797  1.0000
  H   H3101     1.0  0.89608  0.59008  0.00130  1.0000
  H   H3102     1.0  0.89623  0.56206  0.04655  1.0000
  H   H3103     1.0  0.83500  0.63747  0.09819  1.0000
  H   H3104     1.0  0.91698  0.61456  0.13428  1.0000
  C   C3901     1.0  0.86457  0.46881  0.13274  1.0000
  C   C3902     1.0  0.81777  0.58071  0.00451  1.0000
  C   C3903     1.0  0.76382  0.57164  0.14172  1.0000
  C   C3904     1.0  0.77267  0.48476  0.45237  1.0000
  H   H3105     1.0  0.78532  0.57737  0.07378  1.0000
  C   C3905     1.0  0.75514  0.34490  0.36455  1.0000
  C   C3906     1.0  0.88356  0.47341  0.12895  1.0000
  H   H3106     1.0  0.92042  0.37192  0.12414  1.0000
  H   H3107     1.0  0.75137  0.48505  0.40337  1.0000
  C   C3907     1.0  0.89284  0.38548  0.34506  1.0000
  C   C3908     1.0  0.88958  0.58743  0.98737  1.0000
  C   C3909     1.0  0.74576  0.45393  0.43889  1.0000
  C   C3910     1.0  0.82706  0.57597  0.98626  1.0000
  Fe  Fe265     1.0  0.75149  0.64507  0.04198  1.0000
  C   C3911     1.0  0.76265  0.56272  0.16302  1.0000
  H   H3108     1.0  0.78264  0.34533  0.46899  1.0000
  H   H3109     1.0  0.97512  0.63210  0.07884  1.0000
  H   H3110     1.0  0.82591  0.60390  0.10299  1.0000
  C   C3912     1.0  0.74907  0.43822  0.36105  1.0000
  H   H3111     1.0  0.76948  0.39806  0.45187  1.0000
  S   S528      1.0  0.94577  0.34227  0.16769  1.0000
  H   H3112     1.0  0.95244  0.51649  0.34068  1.0000
  C   C3913     1.0  0.78012  0.41197  0.31526  1.0000
  C   C3914     1.0  0.78518  0.40228  0.29921  1.0000
  C   C3915     1.0  0.77616  0.38378  0.30068  1.0000
  C   C3916     1.0  0.82441  0.55741  0.98464  1.0000
  H   H3113     1.0  0.74637  0.33556  0.44393  1.0000
  H   H3114     1.0  0.79608  0.40911  0.28569  1.0000
  H   H3115     1.0  0.87833  0.55266  0.01789  1.0000
  H   H3116     1.0  0.81990  0.59481  0.00668  1.0000
  H   H3117     1.0  0.94375  0.48916  0.25824  1.0000
  H   H3118     1.0  0.89051  0.40374  0.36800  1.0000
  H   H3119     1.0  0.75537  0.36059  0.31920  1.0000
  S   S529      1.0  0.92793  0.64622  0.05711  1.0000
  C   C3917     1.0  0.92883  0.36462  0.11574  1.0000
  C   C3918     1.0  0.86368  0.34269  0.26990  1.0000
  C   C3919     1.0  0.75793  0.39263  0.46498  1.0000
  C   C3920     1.0  0.96519  0.48626  0.30258  1.0000
  C   C3921     1.0  0.89230  0.36615  0.25837  1.0000
  C   C3922     1.0  0.73545  0.44491  0.35297  1.0000
  H   H3120     1.0  0.97631  0.45717  0.23052  1.0000
  C   C3923     1.0  0.80551  0.56716  0.02043  1.0000
  C   C3924     1.0  0.94737  0.65207  0.10273  1.0000
  C   C3925     1.0  0.87687  0.40776  0.44448  1.0000
  H   H3121     1.0  0.97026  0.51657  0.24900  1.0000
  C   C3926     1.0  0.73834  0.44800  0.42094  1.0000
  P   P130      1.0  0.84855  0.37511  0.45394  1.0000
  C   C3927     1.0  0.75823  0.49138  0.46075  1.0000
  C   C3928     1.0  0.84938  0.37509  0.42495  1.0000
  C   C3929     1.0  0.84902  0.39084  0.41092  1.0000
  C   C3930     1.0  0.84948  0.39072  0.38855  1.0000
  C   C3931     1.0  0.84950  0.37472  0.38016  1.0000
  C   C3932     1.0  0.84902  0.35877  0.39415  1.0000
  C   C3933     1.0  0.84885  0.35889  0.41645  1.0000
  H   H3122     1.0  0.97480  0.55301  0.27922  1.0000
  C   C3934     1.0  0.87982  0.39586  0.18660  1.0000
  C   C3935     1.0  0.75748  0.39050  0.38679  1.0000
  H   H3123     1.0  0.95973  0.43653  0.13485  1.0000
  C   C3936     1.0  0.93873  0.63367  0.11120  1.0000
  C   C3937     1.0  0.74800  0.57128  0.13303  1.0000
  C   C3938     1.0  0.97521  0.46359  0.13710  1.0000
  C   C3939     1.0  0.96059  0.56923  0.33088  1.0000
  C   C3940     1.0  0.88050  0.34966  0.25603  1.0000
  H   H3124     1.0  0.96636  0.53457  0.36677  1.0000
  C   C3941     1.0  0.74039  0.46044  0.33661  1.0000
  H   H3125     1.0  0.74025  0.45330  0.47376  1.0000
  C   C3942     1.0  0.84592  0.45090  0.47227  1.0000
  C   C3943     1.0  0.85490  0.35564  0.46663  1.0000
  H   H3126     1.0  0.87796  0.40644  0.42745  1.0000
  H   H3127     1.0  0.87845  0.35900  0.44180  1.0000
  H   H3128     1.0  0.84808  0.40313  0.41727  1.0000
  H   H3129     1.0  0.84900  0.40283  0.37781  1.0000
  H   H3130     1.0  0.77698  0.57890  0.13195  1.0000
  H   H3131     1.0  0.84824  0.34611  0.38786  1.0000
  H   H3132     1.0  0.84781  0.34615  0.42700  1.0000
  H   H3133     1.0  0.81295  0.41887  0.45249  1.0000
  C   C3944     1.0  0.80001  0.43814  0.46521  1.0000
  H   H3134     1.0  0.95724  0.59946  0.08717  1.0000
  H   H3135     1.0  0.77493  0.56301  0.16977  1.0000
  C   C3945     1.0  0.89268  0.46587  0.14398  1.0000
  H   H3136     1.0  0.96916  0.57633  0.10771  1.0000
  H   H3137     1.0  0.79305  0.53826  0.03079  1.0000
  H   H3138     1.0  0.76884  0.54959  0.10106  1.0000
  C   C3946     1.0  0.87581  0.34078  0.18355  1.0000
  H   H3139     1.0  0.85491  0.32950  0.26872  1.0000
  H   H3140     1.0  0.74663  0.45071  0.40486  1.0000
  H   H3141     1.0  0.80998  0.52957  0.99913  1.0000
  C   C3947     1.0  0.78903  0.44985  0.46121  1.0000
  S   S530      1.0  0.95203  0.62292  0.03281  1.0000
  C   C3948     1.0  0.85265  0.65600  0.03107  1.0000
  H   H3142     1.0  0.95837  0.65553  0.08884  1.0000
  H   H3143     1.0  0.96705  0.33512  0.00239  1.0000
  H   H3144     1.0  0.83282  0.56671  0.05119  1.0000
  H   H3145     1.0  0.86827  0.53043  0.13362  1.0000
  H   H3146     1.0  0.85462  0.54226  0.10330  1.0000
  C   C3949     1.0  0.97700  0.59059  0.10400  1.0000
  P   P131      1.0  0.73882  0.37334  0.35702  1.0000
  H   H3147     1.0  0.77237  0.40444  0.40890  1.0000
  C   C3950     1.0  0.91770  0.64256  0.13699  1.0000
  S   S531      1.0  0.91074  0.33399  0.20716  1.0000
  C   C3951     1.0  0.77060  0.33022  0.42814  1.0000
  H   H3148     1.0  0.94310  0.62303  0.10406  1.0000
  C   C3952     1.0  0.76225  0.37490  0.31834  1.0000
  H   H3149     1.0  0.85644  0.59148  0.13058  1.0000
  H   H3150     1.0  0.88476  0.34191  0.24405  1.0000
  C   C3953     1.0  0.85837  0.35249  0.28569  1.0000
  C   C3954     1.0  0.84252  0.46811  0.47017  1.0000
  H   H3151     1.0  0.81925  0.54566  0.12061  1.0000
  H   H3152     1.0  0.90743  0.46968  0.14103  1.0000
  C   C3955     1.0  0.97533  0.47021  0.23450  1.0000
  H   H3153     1.0  0.86652  0.59676  0.99892  1.0000
  H   H3154     1.0  0.89130  0.48304  0.11451  1.0000
  H   H3155     1.0  0.86566  0.37648  0.30026  1.0000
  P   P132      1.0  0.76919  0.46734  0.43536  1.0000
  C   C3956     1.0  0.78210  0.45116  0.44164  1.0000
  C   C3957     1.0  0.81131  0.35881  0.46202  1.0000
  H   H3156     1.0  0.90597  0.63882  0.14996  1.0000
  H   H3157     1.0  0.88071  0.60497  0.07530  1.0000
  H   H3158     1.0  0.74879  0.57827  0.11653  1.0000
  C   C3958     1.0  0.95774  0.35751  0.10823  1.0000
  H   H3159     1.0  0.84532  0.34704  0.29652  1.0000
  C   C3959     1.0  0.78555  0.43989  0.42665  1.0000
  C   C3960     1.0  0.79676  0.42838  0.43052  1.0000
  C   C3961     1.0  0.87005  0.36909  0.28793  1.0000
  Fe  Fe266     1.0  0.93684  0.62653  0.00503  1.0000
  H   H3160     1.0  0.94688  0.45964  0.24851  1.0000
  C   C3962     1.0  0.77714  0.47969  0.40780  1.0000
  C   C3963     1.0  0.76536  0.48672  0.39602  1.0000
  C   C3964     1.0  0.77150  0.49570  0.37439  1.0000
  C   C3965     1.0  0.78960  0.49842  0.36472  1.0000
  C   C3966     1.0  0.80163  0.49239  0.37679  1.0000
  C   C3967     1.0  0.79544  0.48310  0.39827  1.0000
  H   H3161     1.0  0.92633  0.33314  0.08213  1.0000
  C   C3968     1.0  0.82521  0.37362  0.46498  1.0000
  S   S532      1.0  0.79884  0.33504  0.33116  1.0000
  Fe  Fe267     1.0  0.91374  0.64716  0.02791  1.0000
  H   H3162     1.0  0.81855  0.58908  0.06951  1.0000
  C   C3969     1.0  0.95678  0.48812  0.25041  1.0000
  H   H3163     1.0  0.78690  0.42639  0.31411  1.0000
  H   H3164     1.0  0.88557  0.37746  0.21203  1.0000
  H   H3165     1.0  0.78003  0.44049  0.41164  1.0000
  H   H3166     1.0  0.80030  0.42044  0.41838  1.0000
  H   H3167     1.0  0.88250  0.57319  0.07786  1.0000
  S   S533      1.0  0.92194  0.33541  0.26646  1.0000
  H   H3168     1.0  0.89566  0.37052  0.31874  1.0000
  H   H3169     1.0  0.89000  0.37346  0.35762  1.0000
  H   H3170     1.0  0.79427  0.50501  0.34781  1.0000
  H   H3171     1.0  0.81571  0.49464  0.36940  1.0000
  H   H3172     1.0  0.80495  0.47847  0.40733  1.0000
  C   C3970     1.0  0.86903  0.39388  0.22506  1.0000
  C   C3971     1.0  0.87877  0.38802  0.20829  1.0000
  H   H3173     1.0  0.87245  0.41558  0.16467  1.0000
  C   C3972     1.0  0.87154  0.40984  0.18165  1.0000
  C   C3973     1.0  0.86229  0.41633  0.19845  1.0000
  C   C3974     1.0  0.86081  0.40795  0.22020  1.0000
  P   P133      1.0  0.85105  0.43399  0.19171  1.0000
  C   C3975     1.0  0.84940  0.44730  0.21335  1.0000
  C   C3976     1.0  0.86372  0.44912  0.16687  1.0000
  C   C3977     1.0  0.88284  0.45393  0.16300  1.0000
  H   H3174     1.0  0.80336  0.38483  0.17289  1.0000
  H   H3175     1.0  0.76218  0.50039  0.36502  1.0000
  C   C3978     1.0  0.92155  0.35233  0.10254  1.0000
  C   C3979     1.0  0.85465  0.45670  0.15160  1.0000
  C   C3980     1.0  0.83708  0.43959  0.23296  1.0000
  C   C3981     1.0  0.83551  0.44987  0.24964  1.0000
  C   C3982     1.0  0.84600  0.46800  0.24676  1.0000
  C   C3983     1.0  0.85796  0.47591  0.22715  1.0000
  C   C3984     1.0  0.85966  0.46567  0.21048  1.0000
  C   C3985     1.0  0.82828  0.42334  0.18776  1.0000
  C   C3986     1.0  0.82415  0.40620  0.18106  1.0000
  C   C3987     1.0  0.80648  0.39807  0.17802  1.0000
  C   C3988     1.0  0.79284  0.40698  0.18158  1.0000
  C   C3989     1.0  0.79687  0.42408  0.18811  1.0000
  C   C3990     1.0  0.81452  0.43227  0.19114  1.0000
  H   H3176     1.0  0.86800  0.38767  0.24189  1.0000
  H   H3177     1.0  0.76945  0.38776  0.37823  1.0000
  C   C3991     1.0  0.88746  0.42503  0.47216  1.0000
  C   C3992     1.0  0.97026  0.60363  0.09251  1.0000
  H   H3178     1.0  0.85357  0.41230  0.23355  1.0000
  H   H3179     1.0  0.89020  0.44866  0.17477  1.0000
  H   H3180     1.0  0.88094  0.35532  0.17721  1.0000
  H   H3181     1.0  0.74536  0.42631  0.37369  1.0000
  H   H3182     1.0  0.84910  0.37449  0.36298  1.0000
  H   H3183     1.0  0.83997  0.45347  0.15426  1.0000
  H   H3184     1.0  0.82862  0.42564  0.23536  1.0000
  H   H3185     1.0  0.82617  0.44385  0.26487  1.0000
  H   H3186     1.0  0.84486  0.47595  0.25973  1.0000
  H   H3187     1.0  0.86602  0.49003  0.22488  1.0000
  H   H3188     1.0  0.86915  0.47221  0.19556  1.0000
  H   H3189     1.0  0.83450  0.39908  0.17815  1.0000
  H   H3190     1.0  0.74510  0.54694  0.19225  1.0000
  H   H3191     1.0  0.77916  0.40065  0.17923  1.0000
  H   H3192     1.0  0.78630  0.43102  0.19081  1.0000
  H   H3193     1.0  0.81742  0.44561  0.19604  1.0000
  C   C3993     1.0  0.87573  0.63081  0.07867  1.0000
  C   C3994     1.0  0.86292  0.64009  0.08485  1.0000
  C   C3995     1.0  0.84497  0.63026  0.09351  1.0000
  C   C3996     1.0  0.83980  0.61118  0.09579  1.0000
  C   C3997     1.0  0.85241  0.60181  0.08856  1.0000
  C   C3998     1.0  0.87054  0.61178  0.08044  1.0000
  P   P134      1.0  0.84596  0.57711  0.09143  1.0000
  C   C3999     1.0  0.82146  0.56833  0.09477  1.0000
  C   C4000     1.0  0.85645  0.57054  0.06724  1.0000
  C   C4001     1.0  0.84660  0.56572  0.05059  1.0000
  C   C4002     1.0  0.85449  0.55932  0.03287  1.0000
  C   C4003     1.0  0.87226  0.55772  0.03157  1.0000
  C   C4004     1.0  0.88234  0.56299  0.04768  1.0000
  C   C4005     1.0  0.87450  0.56940  0.06541  1.0000
  C   C4006     1.0  0.81162  0.57703  0.08160  1.0000
  C   C4007     1.0  0.79274  0.57036  0.08394  1.0000
  C   C4008     1.0  0.78350  0.55477  0.09931  1.0000
  C   C4009     1.0  0.79314  0.54597  0.11250  1.0000
  C   C4010     1.0  0.81206  0.55270  0.11026  1.0000
  C   C4011     1.0  0.85442  0.56775  0.11468  1.0000
  C   C4012     1.0  0.85860  0.57800  0.13122  1.0000
  C   C4013     1.0  0.86605  0.57104  0.14854  1.0000
  C   C4014     1.0  0.86942  0.55387  0.14947  1.0000
  C   C4015     1.0  0.86518  0.54353  0.13318  1.0000
  C   C4016     1.0  0.85758  0.55036  0.11593  1.0000
  H   H3194     1.0  0.88958  0.63847  0.07180  1.0000
  C   C4017     1.0  0.76624  0.40311  0.33290  1.0000
  H   H3195     1.0  0.90544  0.37110  0.24773  1.0000
  C   C4018     1.0  0.75741  0.38445  0.33481  1.0000
  H   H3196     1.0  0.96332  0.46812  0.14234  1.0000
  H   H3197     1.0  0.76235  0.41092  0.34493  1.0000
  P   P135      1.0  0.96442  0.33201  0.08237  1.0000
  H   H3198     1.0  0.90745  0.35012  0.10059  1.0000
  C   C4019     1.0  0.95859  0.47146  0.24504  1.0000
  C   C4020     1.0  0.96562  0.56041  0.34909  1.0000
  C   C4021     1.0  0.87529  0.33597  0.46702  1.0000
  C   C4022     1.0  0.80395  0.42749  0.44978  1.0000
  H   H3199     1.0  0.88725  0.39121  0.17358  1.0000
  Fe  Fe268     1.0  0.93052  0.33626  0.23037  1.0000
  H   H3200     1.0  0.90080  0.33233  0.30907  1.0000
  H   H3201     1.0  0.78012  0.37621  0.28832  1.0000
  C   C4023     1.0  0.96365  0.55498  0.22852  1.0000
  H   H3202     1.0  0.81451  0.34867  0.45276  1.0000
  C   C4024     1.0  0.74061  0.38509  0.38004  1.0000
  C   C4025     1.0  0.88830  0.42304  0.45023  1.0000
  H   H3203     1.0  0.96261  0.58392  0.32844  1.0000
  C   C4026     1.0  0.87037  0.35108  0.45708  1.0000
  C   C4027     1.0  0.81216  0.54386  0.00064  1.0000
  H   H3204     1.0  0.97296  0.51564  0.29824  1.0000
  H   H3205     1.0  0.89756  0.43353  0.43767  1.0000
  H   H3206     1.0  0.97646  0.39585  0.25447  1.0000
  C   C4028     1.0  0.83407  0.64624  0.03408  1.0000
  H   H3207     1.0  0.97154  0.35930  0.11123  1.0000
  H   H3208     1.0  0.82365  0.65345  0.03536  1.0000
  Fe  Fe269     1.0  0.95457  0.65272  0.03384  1.0000
  C   C4029     1.0  0.73894  0.35023  0.36740  1.0000
  C   C4030     1.0  0.80265  0.54873  0.01849  1.0000
  C   C4031     1.0  0.96273  0.54142  0.35245  1.0000
  C   C4032     1.0  0.94694  0.36729  0.11846  1.0000
  H   H3209     1.0  0.74481  0.48631  0.45700  1.0000
  H   H3210     1.0  0.95241  0.37657  0.12908  1.0000
  C   C4033     1.0  0.74406  0.37749  0.46319  1.0000
  C   C4034     1.0  0.73477  0.44919  0.45964  1.0000
  H   H3211     1.0  0.89189  0.33313  0.15740  1.0000
  C   C4035     1.0  0.87298  0.59140  0.98578  1.0000
  C   C4036     1.0  0.86360  0.33456  0.20330  1.0000
  C   C4037     1.0  0.96582  0.33409  0.03713  1.0000
  H   H3212     1.0  0.74533  0.41142  0.42882  1.0000
  H   H3213     1.0  0.74478  0.37141  0.44854  1.0000
  C   C4038     1.0  0.74394  0.40374  0.41553  1.0000
  H   H3214     1.0  0.89580  0.43718  0.47659  1.0000
  C   C4039     1.0  0.79322  0.35685  0.47124  1.0000
  H   H3215     1.0  0.97908  0.48530  0.30110  1.0000
  H   H3216     1.0  0.97798  0.34529  0.03509  1.0000
  C   C4040     1.0  0.75537  0.32673  0.44452  1.0000
  C   C4041     1.0  0.76102  0.50478  0.47400  1.0000
  H   H3217     1.0  0.78633  0.45813  0.47318  1.0000
  C   C4042     1.0  0.82065  0.38667  0.47688  1.0000
  C   C4043     1.0  0.75548  0.32734  0.37370  1.0000
  S   S534      1.0  0.94079  0.65664  0.00448  1.0000
  C   C4044     1.0  0.77843  0.51216  0.47835  1.0000
  H   H3218     1.0  0.80667  0.51230  0.47209  1.0000
  H   H3219     1.0  0.98149  0.37102  0.06576  1.0000
  C   C4045     1.0  0.88200  0.32827  0.17237  1.0000
  H   H3220     1.0  0.83088  0.39851  0.47909  1.0000
  H   H3221     1.0  0.80590  0.43772  0.47998  1.0000
  C   C4046     1.0  0.95637  0.32526  0.05806  1.0000
  Fe  Fe270     1.0  0.91974  0.36544  0.72279  1.0000
  S   S535      1.0  0.91884  0.37112  0.68718  1.0000
  S   S536      1.0  0.91380  0.38492  0.74492  1.0000
  H   H3222     1.0  0.83177  0.55347  0.97092  1.0000
  C   C4047     1.0  0.74771  0.50126  0.67263  1.0000
  Fe  Fe271     1.0  0.94474  0.36272  0.68265  1.0000
  S   S537      1.0  0.96901  0.38182  0.65985  1.0000
  Fe  Fe272     1.0  0.90479  0.34117  0.69080  1.0000
  H   H3223     1.0  0.97444  0.36432  0.88202  1.0000
  S   S538      1.0  0.94661  0.35910  0.71807  1.0000
  S   S539      1.0  0.90349  0.33614  0.72730  1.0000
  C   C4048     1.0  0.86513  0.32572  0.48687  1.0000
  S   S540      1.0  0.74909  0.62360  0.85786  1.0000
  H   H3224     1.0  0.75122  0.36617  0.52636  1.0000
  H   H3225     1.0  0.73825  0.61461  0.90161  1.0000
  S   S541      1.0  0.74544  0.62137  0.80696  1.0000
  C   C4049     1.0  0.96579  0.37439  0.85260  1.0000
  Fe  Fe273     1.0  0.76709  0.62038  0.82800  1.0000
  Fe  Fe274     1.0  0.73634  0.59060  0.81634  1.0000
  H   H3226     1.0  0.96239  0.41517  0.74940  1.0000
  C   C4050     1.0  0.74252  0.60914  0.95520  1.0000
  S   S542      1.0  0.75929  0.58961  0.83534  1.0000
  H   H3227     1.0  0.77474  0.47892  0.51236  1.0000
  Fe  Fe275     1.0  0.94153  0.48958  0.70457  1.0000
  S   S543      1.0  0.93748  0.50499  0.67351  1.0000
  S   S544      1.0  0.95446  0.46662  0.70039  1.0000
  Fe  Fe276     1.0  0.92531  0.51301  0.73305  1.0000
  S   S545      1.0  0.91911  0.52962  0.70417  1.0000
  S   S546      1.0  0.91969  0.51657  0.76866  1.0000
  Fe  Fe277     1.0  0.90998  0.50298  0.69185  1.0000
  S   S547      1.0  0.88411  0.49233  0.67840  1.0000
  Fe  Fe278     1.0  0.94724  0.53008  0.68823  1.0000
  S   S548      1.0  0.96509  0.55576  0.66639  1.0000
  S   S549      1.0  0.91346  0.48616  0.72245  1.0000
  S   S550      1.0  0.95403  0.51495  0.71756  1.0000
  C   C4051     1.0  0.86415  0.39624  0.48273  1.0000
  S   S551      1.0  0.92252  0.59665  0.78908  1.0000
  Fe  Fe279     1.0  0.84140  0.44828  0.53019  1.0000
  S   S552      1.0  0.81300  0.43713  0.54911  1.0000
  Fe  Fe280     1.0  0.85547  0.46603  0.56851  1.0000
  S   S553      1.0  0.82804  0.45625  0.58994  1.0000
  S   S554      1.0  0.88053  0.48254  0.57955  1.0000
  Fe  Fe281     1.0  0.82638  0.42988  0.57736  1.0000
  S   S555      1.0  0.81745  0.40244  0.59926  1.0000
  Fe  Fe282     1.0  0.81755  0.46454  0.55956  1.0000
  S   S556      1.0  0.79715  0.48093  0.55896  1.0000
  S   S557      1.0  0.85453  0.43890  0.55796  1.0000
  S   S558      1.0  0.84514  0.47646  0.53861  1.0000
  C   C4052     1.0  0.98286  0.62504  0.78708  1.0000
  S   S559      1.0  0.82275  0.34181  0.54148  1.0000
  C   C4053     1.0  0.93964  0.61316  0.93266  1.0000
  C   C4054     1.0  0.81990  0.38554  0.58360  1.0000
  C   C4055     1.0  0.81664  0.36727  0.59367  1.0000
  C   C4056     1.0  0.81780  0.35367  0.58094  1.0000
  C   C4057     1.0  0.82205  0.35836  0.55815  1.0000
  C   C4058     1.0  0.82547  0.37661  0.54817  1.0000
  C   C4059     1.0  0.82452  0.39018  0.56085  1.0000
  H   H3228     1.0  0.81295  0.36356  0.61124  1.0000
  H   H3229     1.0  0.81514  0.33958  0.58872  1.0000
  H   H3230     1.0  0.82876  0.38029  0.53055  1.0000
  H   H3231     1.0  0.82704  0.40419  0.55290  1.0000
  C   C4060     1.0  0.88395  0.48852  0.65114  1.0000
  C   C4061     1.0  0.86810  0.47757  0.64588  1.0000
  C   C4062     1.0  0.86694  0.47539  0.62411  1.0000
  C   C4063     1.0  0.88164  0.48417  0.60734  1.0000
  C   C4064     1.0  0.89766  0.49476  0.61269  1.0000
  C   C4065     1.0  0.89885  0.49689  0.63448  1.0000
  H   H3232     1.0  0.85650  0.47104  0.65863  1.0000
  H   H3233     1.0  0.85458  0.46717  0.62026  1.0000
  H   H3234     1.0  0.90911  0.50159  0.59984  1.0000
  H   H3235     1.0  0.91111  0.50539  0.63828  1.0000
  P   P136      1.0  0.87091  0.54830  0.67793  1.0000
  H   H3236     1.0  0.88850  0.64898  0.89159  1.0000
  Fe  Fe283     1.0  0.93044  0.33002  0.71961  1.0000
  C   C4066     1.0  0.91992  0.53858  0.77487  1.0000
  C   C4067     1.0  0.91947  0.55273  0.75864  1.0000
  C   C4068     1.0  0.91962  0.57007  0.76374  1.0000
  C   C4069     1.0  0.92075  0.57381  0.78489  1.0000
  C   C4070     1.0  0.92109  0.55965  0.80130  1.0000
  C   C4071     1.0  0.92058  0.54205  0.79630  1.0000
  H   H3237     1.0  0.91891  0.55032  0.74211  1.0000
  H   H3238     1.0  0.91868  0.58068  0.75120  1.0000
  H   H3239     1.0  0.92190  0.56229  0.81772  1.0000
  H   H3240     1.0  0.92087  0.53117  0.80903  1.0000
  H   H3241     1.0  0.93416  0.60828  0.90074  1.0000
  H   H3242     1.0  0.95201  0.60882  0.93092  1.0000
  S   S560      1.0  0.84719  0.43878  0.49781  1.0000
  C   C4072     1.0  0.93031  0.33402  0.78892  1.0000
  H   H3243     1.0  0.91126  0.57793  0.97170  1.0000
  C   C4073     1.0  0.78537  0.59802  0.92278  1.0000
  C   C4074     1.0  0.93102  0.57082  0.64480  1.0000
  H   H3244     1.0  0.78058  0.52250  0.48869  1.0000
  H   H3245     1.0  0.94822  0.36832  0.90668  1.0000
  H   H3246     1.0  0.84381  0.55796  0.70868  1.0000
  H   H3247     1.0  0.95789  0.58522  0.81952  1.0000
  C   C4075     1.0  0.78874  0.65452  0.93347  1.0000
  H   H3248     1.0  0.79414  0.45780  0.51623  1.0000
  C   C4076     1.0  0.86257  0.35229  0.56800  1.0000
  H   H3249     1.0  0.81234  0.64132  0.97748  1.0000
  H   H3250     1.0  0.81393  0.61106  0.96927  1.0000
  H   H3251     1.0  0.74151  0.46666  0.51403  1.0000
  H   H3252     1.0  0.78512  0.36522  0.57498  1.0000
  H   H3253     1.0  0.95926  0.52502  0.76389  1.0000
  H   H3254     1.0  0.77493  0.36783  0.49109  1.0000
  C   C4077     1.0  0.85846  0.62892  0.97271  1.0000
  C   C4078     1.0  0.95263  0.38144  0.84367  1.0000
  C   C4079     1.0  0.73750  0.44798  0.57369  1.0000
  H   H3255     1.0  0.98210  0.63533  0.94249  1.0000
  H   H3256     1.0  0.75930  0.51601  0.69668  1.0000
  C   C4080     1.0  0.92472  0.40767  0.73241  1.0000
  C   C4081     1.0  0.93904  0.41141  0.71480  1.0000
  C   C4082     1.0  0.94807  0.42958  0.70524  1.0000
  C   C4083     1.0  0.94254  0.44409  0.71282  1.0000
  C   C4084     1.0  0.92802  0.44037  0.73024  1.0000
  C   C4085     1.0  0.91922  0.42216  0.74014  1.0000
  H   H3257     1.0  0.94340  0.40034  0.70872  1.0000
  H   H3258     1.0  0.95933  0.43239  0.69184  1.0000
  H   H3259     1.0  0.92373  0.45149  0.73623  1.0000
  H   H3260     1.0  0.90806  0.41928  0.75363  1.0000
  C   C4086     1.0  0.75089  0.43933  0.57853  1.0000
  C   C4087     1.0  0.76934  0.44932  0.57437  1.0000
  C   C4088     1.0  0.77429  0.46809  0.56592  1.0000
  C   C4089     1.0  0.76080  0.47686  0.56231  1.0000
  H   H3261     1.0  0.94534  0.57593  0.63766  1.0000
  H   H3262     1.0  0.77969  0.44254  0.57757  1.0000
  H   H3263     1.0  0.76456  0.49139  0.55603  1.0000
  H   H3264     1.0  0.92805  0.59726  0.64974  1.0000
  C   C4090     1.0  0.96598  0.59448  0.80505  1.0000
  C   C4091     1.0  0.88997  0.57722  0.95251  1.0000
  C   C4092     1.0  0.87343  0.58124  0.95077  1.0000
  P   P137      1.0  0.84319  0.59326  0.96569  1.0000
  H   H3265     1.0  0.85484  0.38601  0.49557  1.0000
  H   H3266     1.0  0.76814  0.41203  0.48509  1.0000
  C   C4093     1.0  0.83793  0.59192  0.93862  1.0000
  H   H3267     1.0  0.87126  0.64924  0.92778  1.0000
  C   C4094     1.0  0.85020  0.33071  0.49682  1.0000
  H   H3268     1.0  0.92642  0.35180  0.76156  1.0000
  H   H3269     1.0  0.85061  0.33228  0.65091  1.0000
  H   H3270     1.0  0.91246  0.62785  0.96957  1.0000
  H   H3271     1.0  0.97142  0.61798  0.82121  1.0000
  C   C4095     1.0  0.82190  0.57992  0.93523  1.0000
  C   C4096     1.0  0.75003  0.45736  0.51538  1.0000
  C   C4097     1.0  0.76508  0.39820  0.55798  1.0000
  H   H3272     1.0  0.96652  0.48157  0.73915  1.0000
  C   C4098     1.0  0.85023  0.60307  0.92053  1.0000
  S   S561      1.0  0.74369  0.62249  0.97613  1.0000
  C   C4099     1.0  0.86498  0.58875  0.96720  1.0000
  C   C4100     1.0  0.83647  0.58012  0.69085  1.0000
  C   C4101     1.0  0.84092  0.65063  0.97875  1.0000
  H   H3273     1.0  0.89578  0.58547  0.66732  1.0000
  C   C4102     1.0  0.84272  0.61598  0.97021  1.0000
  H   H3274     1.0  0.76890  0.65680  0.95980  1.0000
  H   H3275     1.0  0.96362  0.56969  0.71096  1.0000
  H   H3276     1.0  0.89683  0.57229  0.93927  1.0000
  H   H3277     1.0  0.86760  0.57872  0.93634  1.0000
  C   C4103     1.0  0.74164  0.61773  0.93437  1.0000
  H   H3278     1.0  0.97056  0.33134  0.78309  1.0000
  C   C4104     1.0  0.78888  0.36956  0.48361  1.0000
  H   H3279     1.0  0.78244  0.39564  0.58184  1.0000
  H   H3280     1.0  0.79928  0.39439  0.49597  1.0000
  C   C4105     1.0  0.87558  0.41150  0.48841  1.0000
  H   H3281     1.0  0.81189  0.57152  0.94882  1.0000
  C   C4106     1.0  0.98212  0.34226  0.77455  1.0000
  H   H3282     1.0  0.76406  0.41146  0.56120  1.0000
  H   H3283     1.0  0.79212  0.33264  0.51968  1.0000
  H   H3284     1.0  0.86274  0.61228  0.92278  1.0000
  H   H3285     1.0  0.76995  0.35087  0.54690  1.0000
  C   C4107     1.0  0.74239  0.39333  0.50110  1.0000
  C   C4108     1.0  0.94947  0.37198  0.88912  1.0000
  H   H3286     1.0  0.94067  0.48754  0.76178  1.0000
  C   C4109     1.0  0.82621  0.62080  0.97129  1.0000
  C   C4110     1.0  0.87004  0.36988  0.72787  1.0000
  C   C4111     1.0  0.83951  0.36855  0.72160  1.0000
  C   C4112     1.0  0.84545  0.38670  0.71069  1.0000
  C   C4113     1.0  0.86386  0.39651  0.70789  1.0000
  C   C4114     1.0  0.87599  0.38806  0.71712  1.0000
  P   P138      1.0  0.87136  0.42027  0.69467  1.0000
  C   C4115     1.0  0.89491  0.42703  0.68139  1.0000
  C   C4116     1.0  0.85763  0.42396  0.67411  1.0000
  C   C4117     1.0  0.86415  0.42426  0.65201  1.0000
  C   C4118     1.0  0.85335  0.42654  0.63618  1.0000
  C   C4119     1.0  0.83584  0.42825  0.64232  1.0000
  C   C4120     1.0  0.82925  0.42810  0.66424  1.0000
  C   C4121     1.0  0.84010  0.42601  0.68009  1.0000
  C   C4122     1.0  0.90469  0.44558  0.67749  1.0000
  C   C4123     1.0  0.92288  0.45105  0.66719  1.0000
  C   C4124     1.0  0.93150  0.43808  0.66080  1.0000
  C   C4125     1.0  0.92181  0.41963  0.66428  1.0000
  C   C4126     1.0  0.90346  0.41415  0.67412  1.0000
  C   C4127     1.0  0.86933  0.43419  0.71551  1.0000
  C   C4128     1.0  0.87376  0.42926  0.73607  1.0000
  C   C4129     1.0  0.87316  0.44050  0.75187  1.0000
  C   C4130     1.0  0.86820  0.45677  0.74725  1.0000
  C   C4131     1.0  0.86387  0.46180  0.72680  1.0000
  C   C4132     1.0  0.86452  0.45063  0.71095  1.0000
  H   H3287     1.0  0.87959  0.36344  0.73466  1.0000
  H   H3288     1.0  0.82535  0.36100  0.72341  1.0000
  H   H3289     1.0  0.83563  0.39292  0.70436  1.0000
  H   H3290     1.0  0.89006  0.39553  0.71616  1.0000
  H   H3291     1.0  0.87750  0.42259  0.64692  1.0000
  H   H3292     1.0  0.85848  0.42681  0.61912  1.0000
  H   H3293     1.0  0.82738  0.42962  0.63006  1.0000
  H   H3294     1.0  0.81569  0.42953  0.66889  1.0000
  H   H3295     1.0  0.83475  0.42581  0.69701  1.0000
  H   H3296     1.0  0.89837  0.45592  0.68242  1.0000
  H   H3297     1.0  0.93045  0.46533  0.66470  1.0000
  H   H3298     1.0  0.94577  0.44233  0.65350  1.0000
  H   H3299     1.0  0.92856  0.40958  0.65939  1.0000
  H   H3300     1.0  0.89606  0.39988  0.67604  1.0000
  H   H3301     1.0  0.87804  0.41694  0.73980  1.0000
  H   H3302     1.0  0.87684  0.43674  0.76757  1.0000
  H   H3303     1.0  0.86808  0.46566  0.75932  1.0000
  H   H3304     1.0  0.86057  0.47468  0.72286  1.0000
  H   H3305     1.0  0.86186  0.45519  0.69493  1.0000
  S   S562      1.0  0.87849  0.33504  0.67720  1.0000
  H   H3306     1.0  0.85849  0.51413  0.61737  1.0000
  C   C4133     1.0  0.87784  0.53120  0.74898  1.0000
  H   H3307     1.0  0.83331  0.34898  0.49476  1.0000
  H   H3308     1.0  0.88025  0.52735  0.76539  1.0000
  H   H3309     1.0  0.87269  0.50379  0.74203  1.0000
  H   H3310     1.0  0.77985  0.58931  0.93852  1.0000
  C   C4134     1.0  0.96851  0.58808  0.78527  1.0000
  C   C4135     1.0  0.80211  0.62760  0.90124  1.0000
  H   H3311     1.0  0.74233  0.63213  0.93150  1.0000
  S   S563      1.0  0.93083  0.33307  0.68313  1.0000
  H   H3312     1.0  0.74881  0.45211  0.63981  1.0000
  C   C4136     1.0  0.83831  0.50257  0.64635  1.0000
  H   H3313     1.0  0.96742  0.48487  0.81747  1.0000
  C   C4137     1.0  0.75473  0.48160  0.63069  1.0000
  C   C4138     1.0  0.76821  0.49761  0.62044  1.0000
  C   C4139     1.0  0.78565  0.49672  0.61202  1.0000
  C   C4140     1.0  0.78978  0.47989  0.61385  1.0000
  C   C4141     1.0  0.77647  0.46389  0.62396  1.0000
  C   C4142     1.0  0.75899  0.46471  0.63237  1.0000
  H   H3314     1.0  0.97717  0.37236  0.84204  1.0000
  C   C4143     1.0  0.75796  0.37288  0.53829  1.0000
  H   H3315     1.0  0.82046  0.49397  0.67752  1.0000
  H   H3316     1.0  0.81963  0.61598  0.83265  1.0000
  C   C4144     1.0  0.84683  0.60197  0.89934  1.0000
  H   H3317     1.0  0.85257  0.59860  0.63728  1.0000
  H   H3318     1.0  0.97601  0.38901  0.77116  1.0000
  H   H3319     1.0  0.85665  0.61034  0.88546  1.0000
  C   C4145     1.0  0.96733  0.48412  0.80035  1.0000
  C   C4146     1.0  0.97478  0.42548  0.74149  1.0000
  C   C4147     1.0  0.97333  0.61292  0.80597  1.0000
  C   C4148     1.0  0.74252  0.46680  0.56603  1.0000
  H   H3320     1.0  0.76516  0.51074  0.61869  1.0000
  H   H3321     1.0  0.79588  0.50898  0.60353  1.0000
  H   H3322     1.0  0.80314  0.47918  0.60667  1.0000
  H   H3323     1.0  0.77958  0.45081  0.62469  1.0000
  C   C4149     1.0  0.97791  0.63930  0.89141  1.0000
  C   C4150     1.0  0.74697  0.50809  0.69229  1.0000
  H   H3324     1.0  0.82701  0.58136  0.70466  1.0000
  H   H3325     1.0  0.84076  0.47445  0.48445  1.0000
  C   C4151     1.0  0.90711  0.62324  0.93748  1.0000
  H   H3326     1.0  0.74699  0.42486  0.58507  1.0000
  H   H3327     1.0  0.80420  0.62907  0.86615  1.0000
  C   C4152     1.0  0.77197  0.43343  0.51958  1.0000
  H   H3328     1.0  0.94122  0.48990  0.80063  1.0000
  C   C4153     1.0  0.79565  0.61605  0.92159  1.0000
  H   H3329     1.0  0.85139  0.33994  0.57124  1.0000
  H   H3330     1.0  0.77364  0.57741  0.90459  1.0000
  C   C4154     1.0  0.88591  0.37545  0.54239  1.0000
  C   C4155     1.0  0.89166  0.38389  0.55969  1.0000
  C   C4156     1.0  0.88233  0.37704  0.58117  1.0000
  C   C4157     1.0  0.86804  0.36086  0.58526  1.0000
  P   P139      1.0  0.88985  0.38761  0.60364  1.0000
  C   C4158     1.0  0.87110  0.38195  0.62615  1.0000
  C   C4159     1.0  0.90802  0.37837  0.61126  1.0000
  C   C4160     1.0  0.90428  0.35960  0.61941  1.0000
  C   C4161     1.0  0.91778  0.35237  0.62688  1.0000
  C   C4162     1.0  0.93518  0.36378  0.62602  1.0000
  C   C4163     1.0  0.93922  0.38235  0.61721  1.0000
  C   C4164     1.0  0.92579  0.38961  0.60956  1.0000
  C   C4165     1.0  0.85433  0.38479  0.62257  1.0000
  C   C4166     1.0  0.83965  0.38042  0.63985  1.0000
  C   C4167     1.0  0.84156  0.37313  0.66074  1.0000
  C   C4168     1.0  0.85831  0.37059  0.66447  1.0000
  C   C4169     1.0  0.87310  0.37522  0.64735  1.0000
  C   C4170     1.0  0.89627  0.41234  0.59808  1.0000
  C   C4171     1.0  0.89162  0.42213  0.58014  1.0000
  C   C4172     1.0  0.89653  0.44129  0.57664  1.0000
  C   C4173     1.0  0.90546  0.45074  0.59137  1.0000
  C   C4174     1.0  0.90936  0.44109  0.60977  1.0000
  C   C4175     1.0  0.90474  0.42198  0.61312  1.0000
  H   H3331     1.0  0.83071  0.49181  0.63890  1.0000
  H   H3332     1.0  0.82840  0.58901  0.87957  1.0000
  C   C4176     1.0  0.97811  0.39790  0.80237  1.0000
  H   H3333     1.0  0.90329  0.39581  0.55629  1.0000
  H   H3334     1.0  0.86108  0.35475  0.60174  1.0000
  H   H3335     1.0  0.89077  0.35060  0.62051  1.0000
  C   C4177     1.0  0.74140  0.59043  0.95877  1.0000
  H   H3336     1.0  0.94555  0.35826  0.63223  1.0000
  H   H3337     1.0  0.95277  0.39112  0.61659  1.0000
  H   H3338     1.0  0.92937  0.40395  0.60247  1.0000
  H   H3339     1.0  0.85258  0.39037  0.60642  1.0000
  H   H3340     1.0  0.82676  0.38270  0.63699  1.0000
  H   H3341     1.0  0.83006  0.36942  0.67398  1.0000
  H   H3342     1.0  0.85986  0.36470  0.68056  1.0000
  H   H3343     1.0  0.88592  0.37320  0.65079  1.0000
  H   H3344     1.0  0.88390  0.41513  0.56910  1.0000
  H   H3345     1.0  0.89308  0.44895  0.56276  1.0000
  H   H3346     1.0  0.90899  0.46557  0.58876  1.0000
  H   H3347     1.0  0.91572  0.44846  0.62154  1.0000
  H   H3348     1.0  0.90752  0.41461  0.62760  1.0000
  H   H3349     1.0  0.97078  0.65219  0.72422  1.0000
  P   P140      1.0  0.95459  0.38707  0.81437  1.0000
  C   C4178     1.0  0.94120  0.40268  0.80754  1.0000
  C   C4179     1.0  0.94918  0.42166  0.80304  1.0000
  C   C4180     1.0  0.93896  0.43362  0.79683  1.0000
  C   C4181     1.0  0.92072  0.42678  0.79516  1.0000
  C   C4182     1.0  0.91259  0.40793  0.79996  1.0000
  C   C4183     1.0  0.92271  0.39592  0.80630  1.0000
  C   C4184     1.0  0.94633  0.36623  0.80381  1.0000
  C   C4185     1.0  0.94015  0.36709  0.78370  1.0000
  C   C4186     1.0  0.93194  0.35104  0.77652  1.0000
  S   S564      1.0  0.94483  0.61559  0.97457  1.0000
  P   P141      1.0  0.74291  0.40175  0.52666  1.0000
  C   C4187     1.0  0.94476  0.34900  0.81614  1.0000
  H   H3350     1.0  0.83906  0.64958  0.93156  1.0000
  H   H3351     1.0  0.94525  0.44821  0.79294  1.0000
  H   H3352     1.0  0.91297  0.43608  0.78986  1.0000
  H   H3353     1.0  0.89852  0.40257  0.79830  1.0000
  H   H3354     1.0  0.91615  0.38135  0.80978  1.0000
  C   C4188     1.0  0.85088  0.58985  0.65291  1.0000
  Fe  Fe284     1.0  0.94336  0.64722  0.83206  1.0000
  H   H3355     1.0  0.94926  0.34773  0.83171  1.0000
  H   H3356     1.0  0.89426  0.62662  0.93959  1.0000
  S   S565      1.0  0.73661  0.57675  0.89864  1.0000
  H   H3357     1.0  0.95572  0.55601  0.75479  1.0000
  C   C4189     1.0  0.92128  0.58281  0.65169  1.0000
  C   C4190     1.0  0.95225  0.48561  0.76899  1.0000
  H   H3358     1.0  0.87602  0.53860  0.63395  1.0000
  H   H3359     1.0  0.74068  0.49225  0.59338  1.0000
  C   C4191     1.0  0.96201  0.59227  0.72796  1.0000
  C   C4192     1.0  0.93781  0.38359  0.85772  1.0000
  C   C4193     1.0  0.96423  0.36973  0.87523  1.0000
  C   C4194     1.0  0.77547  0.38925  0.56976  1.0000
  H   H3360     1.0  0.92736  0.38879  0.85129  1.0000
  C   C4195     1.0  0.83888  0.59161  0.67079  1.0000
  H   H3361     1.0  0.86970  0.57534  0.64108  1.0000
  C   C4196     1.0  0.95301  0.60591  0.73061  1.0000
  C   C4197     1.0  0.93888  0.60728  0.71916  1.0000
  C   C4198     1.0  0.93349  0.59492  0.70520  1.0000
  C   C4199     1.0  0.94239  0.58133  0.70248  1.0000
  C   C4200     1.0  0.95665  0.58006  0.71370  1.0000
  C   C4201     1.0  0.83812  0.65099  0.89706  1.0000
  C   C4202     1.0  0.84501  0.34551  0.48674  1.0000
  H   H3362     1.0  0.97116  0.44426  0.76301  1.0000
  C   C4203     1.0  0.83102  0.58982  0.89604  1.0000
  H   H3363     1.0  0.96419  0.64055  0.89496  1.0000
  C   C4204     1.0  0.98206  0.48061  0.78762  1.0000
  C   C4205     1.0  0.81865  0.57870  0.91397  1.0000
  H   H3364     1.0  0.98142  0.40969  0.71706  1.0000
  H   H3365     1.0  0.83133  0.60178  0.66907  1.0000
  C   C4206     1.0  0.79903  0.62056  0.88209  1.0000
  H   H3366     1.0  0.85352  0.62332  0.83056  1.0000
  H   H3367     1.0  0.95670  0.61537  0.74169  1.0000
  H   H3368     1.0  0.93174  0.61758  0.72170  1.0000
  H   H3369     1.0  0.92232  0.59575  0.69669  1.0000
  H   H3370     1.0  0.93833  0.57177  0.69159  1.0000
  H   H3371     1.0  0.73858  0.56602  0.94411  1.0000
  C   C4207     1.0  0.93627  0.37889  0.88037  1.0000
  H   H3372     1.0  0.87468  0.41319  0.50539  1.0000
  C   C4208     1.0  0.84731  0.63383  0.82476  1.0000
  C   C4209     1.0  0.73865  0.58923  0.92046  1.0000
  Fe  Fe285     1.0  0.90310  0.64359  0.82439  1.0000
  H   H3373     1.0  0.96949  0.61683  0.87446  1.0000
  C   C4210     1.0  0.75710  0.40056  0.48381  1.0000
  C   C4211     1.0  0.77967  0.45233  0.51661  1.0000
  C   C4212     1.0  0.76874  0.46429  0.51433  1.0000
  C   C4213     1.0  0.80257  0.38450  0.48635  1.0000
  H   H3374     1.0  0.78605  0.59733  0.86852  1.0000
  H   H3375     1.0  0.89795  0.53072  0.66017  1.0000
  C   C4214     1.0  0.82806  0.62967  0.82597  1.0000
  Fe  Fe286     1.0  0.92063  0.61271  0.81723  1.0000
  C   C4215     1.0  0.74219  0.43844  0.51907  1.0000
  C   C4216     1.0  0.85183  0.36009  0.73002  1.0000
  S   S566      1.0  0.89423  0.61357  0.83702  1.0000
  C   C4217     1.0  0.77709  0.37215  0.56583  1.0000
  H   H3376     1.0  0.88329  0.55986  0.75087  1.0000
  H   H3377     1.0  0.80642  0.56924  0.91134  1.0000
  C   C4218     1.0  0.92959  0.61291  0.91552  1.0000
  H   H3378     1.0  0.93025  0.54277  0.64301  1.0000
  C   C4219     1.0  0.93337  0.61825  0.95233  1.0000
  H   H3379     1.0  0.96743  0.34907  0.74934  1.0000
  C   C4220     1.0  0.96702  0.48235  0.75618  1.0000
  C   C4221     1.0  0.87353  0.51791  0.73583  1.0000
  H   H3380     1.0  0.92478  0.38055  0.89115  1.0000
  H   H3381     1.0  0.79825  0.62101  0.93654  1.0000
  C   C4222     1.0  0.81988  0.64327  0.81825  1.0000
  C   C4223     1.0  0.87964  0.54955  0.74073  1.0000
  C   C4224     1.0  0.97122  0.53646  0.75825  1.0000
  H   H3382     1.0  0.76072  0.50406  0.66208  1.0000
  C   C4225     1.0  0.75629  0.39015  0.54205  1.0000
  C   C4226     1.0  0.86407  0.52886  0.64381  1.0000
  C   C4227     1.0  0.85859  0.56544  0.67538  1.0000
  H   H3383     1.0  0.84727  0.34600  0.73832  1.0000
  H   H3384     1.0  0.83799  0.51832  0.69457  1.0000
  C   C4228     1.0  0.84616  0.56696  0.69312  1.0000
  H   H3385     1.0  0.78178  0.65002  0.88031  1.0000
  H   H3386     1.0  0.78080  0.42447  0.52096  1.0000
  C   C4229     1.0  0.90297  0.57607  0.66152  1.0000
  C   C4230     1.0  0.96922  0.55407  0.75302  1.0000
  C   C4231     1.0  0.78884  0.60251  0.88334  1.0000
  H   H3387     1.0  0.89281  0.38104  0.52577  1.0000
  S   S567      1.0  0.92905  0.64289  0.80323  1.0000
  C   C4232     1.0  0.75307  0.42627  0.52131  1.0000
  H   H3388     1.0  0.86664  0.35320  0.53322  1.0000
  C   C4233     1.0  0.95253  0.48685  0.79096  1.0000
  Fe  Fe287     1.0  0.74026  0.59291  0.86435  1.0000
  C   C4234     1.0  0.90420  0.54533  0.65751  1.0000
  C   C4235     1.0  0.76844  0.36403  0.55003  1.0000
  C   C4236     1.0  0.97853  0.60010  0.76627  1.0000
  C   C4237     1.0  0.86062  0.57673  0.65514  1.0000
  C   C4238     1.0  0.91740  0.62393  0.95444  1.0000
  C   C4239     1.0  0.87734  0.55465  0.71925  1.0000
  C   C4240     1.0  0.87090  0.52294  0.71447  1.0000
  C   C4241     1.0  0.91301  0.61739  0.91817  1.0000
  H   H3389     1.0  0.87941  0.56901  0.71291  1.0000
  H   H3390     1.0  0.94106  0.38014  0.77385  1.0000
  S   S568      1.0  0.91827  0.65108  0.85170  1.0000
  C   C4242     1.0  0.87266  0.54134  0.70606  1.0000
  H   H3391     1.0  0.86798  0.51253  0.70442  1.0000
  S   S569      1.0  0.93624  0.61686  0.84505  1.0000
  Fe  Fe288     1.0  0.91073  0.62086  0.86327  1.0000
  C   C4243     1.0  0.89808  0.58036  0.97076  1.0000
  S   S570      1.0  0.79595  0.63983  0.81873  1.0000
  S   S571      1.0  0.89828  0.61323  0.89910  1.0000
  C   C4244     1.0  0.89421  0.55729  0.66417  1.0000
  C   C4245     1.0  0.84271  0.51742  0.67780  1.0000
  C   C4246     1.0  0.85877  0.52980  0.66588  1.0000
  C   C4247     1.0  0.73942  0.58048  0.94139  1.0000
  C   C4248     1.0  0.83263  0.50372  0.66812  1.0000
  C   C4249     1.0  0.87127  0.35973  0.54655  1.0000
  C   C4250     1.0  0.85397  0.51518  0.63419  1.0000
  P   P142      1.0  0.81453  0.65117  0.89958  1.0000
  C   C4251     1.0  0.92250  0.55210  0.64777  1.0000
  H   H3392     1.0  0.91464  0.33796  0.63366  1.0000
  H   H3393     1.0  0.77898  0.64411  0.92781  1.0000
  H   H3394     1.0  0.96334  0.42731  0.80398  1.0000
  H   H3395     1.0  0.74962  0.50943  0.48081  1.0000
  C   C4252     1.0  0.85842  0.65161  0.81583  1.0000
  C   C4253     1.0  0.78189  0.59129  0.90367  1.0000
  C   C4254     1.0  0.97972  0.44208  0.74910  1.0000
  C   C4255     1.0  0.93674  0.33299  0.80868  1.0000
  H   H3396     1.0  0.87145  0.62582  0.97157  1.0000
  P   P143      1.0  0.98169  0.59197  0.74059  1.0000
  C   C4256     1.0  0.98021  0.35247  0.75527  1.0000
  H   H3397     1.0  0.74183  0.58361  0.97486  1.0000
  C   C4257     1.0  0.85751  0.64616  0.97701  1.0000
  H   H3398     1.0  0.97954  0.33166  0.85027  1.0000
  C   C4258     1.0  0.73955  0.60784  0.91721  1.0000
  C   C4259     1.0  0.84656  0.65017  0.91555  1.0000
  C   C4260     1.0  0.86607  0.64996  0.87477  1.0000
  H   H3399     1.0  0.84152  0.65038  0.86233  1.0000
  C   C4261     1.0  0.84792  0.65048  0.87671  1.0000
  C   C4262     1.0  0.87453  0.64973  0.89312  1.0000
  H   H3400     1.0  0.96227  0.57386  0.78486  1.0000
  C   C4263     1.0  0.86478  0.64985  0.91351  1.0000
  C   C4264     1.0  0.98083  0.62559  0.87985  1.0000
  C   C4265     1.0  0.98229  0.48030  0.76522  1.0000
  C   C4266     1.0  0.82526  0.63796  0.97586  1.0000
  H   H3401     1.0  0.87354  0.64945  0.85907  1.0000
  H   H3402     1.0  0.86959  0.65588  0.97965  1.0000
  H   H3403     1.0  0.76981  0.77984  0.12403  1.0000
  C   C4267     1.0  0.74294  0.76771  0.11795  1.0000
  H   H3404     1.0  0.84013  0.66377  0.98276  1.0000
  C   C4268     1.0  0.93763  0.72895  0.14378  1.0000
  H   H3405     1.0  0.92188  0.69362  0.02060  1.0000
  H   H3406     1.0  0.85635  0.67071  0.03002  1.0000
  H   H3407     1.0  0.92963  0.74251  0.11588  1.0000
  H   H3408     1.0  0.76359  0.98579  0.07991  1.0000
  H   H3409     1.0  0.94704  0.71300  0.16843  1.0000
  C   C4269     1.0  0.94251  0.69195  0.07396  1.0000
  C   C4270     1.0  0.94638  0.69595  0.03435  1.0000
  H   H3410     1.0  0.91467  0.68614  0.09055  1.0000
  H   H3411     1.0  0.76499  0.97852  0.01704  1.0000
  H   H3412     1.0  0.96811  0.69631  0.05240  1.0000
  C   C4271     1.0  0.75528  0.75683  0.14908  1.0000
  H   H3413     1.0  0.93696  0.72159  0.09162  1.0000
  P   P144      1.0  0.95156  0.68947  0.09895  1.0000
  C   C4272     1.0  0.95375  0.69509  0.05355  1.0000
  S   S572      1.0  0.74732  0.67345  0.04369  1.0000
  C   C4273     1.0  0.94868  0.70264  0.13810  1.0000
  H   H3414     1.0  0.95511  0.69803  0.01866  1.0000
  H   H3415     1.0  0.90177  0.68758  0.05646  1.0000
  S   S573      1.0  0.98237  0.66509  0.04344  1.0000
  C   C4274     1.0  0.73918  0.67102  0.98649  1.0000
  H   H3416     1.0  0.78646  0.98065  0.04276  1.0000
  C   C4275     1.0  0.93886  0.71928  0.10846  1.0000
  C   C4276     1.0  0.92369  0.68926  0.07494  1.0000
  C   C4277     1.0  0.91634  0.69010  0.05572  1.0000
  H   H3417     1.0  0.97797  0.67103  0.11529  1.0000
  H   H3418     1.0  0.93459  0.73833  0.15432  1.0000
  C   C4278     1.0  0.75003  0.98352  0.07602  1.0000
  C   C4279     1.0  0.94558  0.70471  0.11647  1.0000
  C   C4280     1.0  0.92768  0.69347  0.03543  1.0000
  C   C4281     1.0  0.94461  0.71467  0.15174  1.0000
  H   H3419     1.0  0.73673  0.74099  0.08395  1.0000
  C   C4282     1.0  0.93480  0.73128  0.12214  1.0000
  H   H3420     1.0  0.75130  0.74977  0.04515  1.0000
  C   C4283     1.0  0.92634  0.66102  0.12860  1.0000
  H   H3421     1.0  0.76638  0.75794  0.15823  1.0000
  C   C4284     1.0  0.74016  0.96571  0.07490  1.0000
  C   C4285     1.0  0.73902  0.74310  0.15656  1.0000
  C   C4286     1.0  0.97613  0.69541  0.09467  1.0000
  H   H3422     1.0  0.74972  0.66519  0.99163  1.0000
  C   C4287     1.0  0.75722  0.76915  0.12980  1.0000
  H   H3423     1.0  0.74159  0.77209  0.02019  1.0000
  H   H3424     1.0  0.73753  0.73356  0.17153  1.0000
  H   H3425     1.0  0.74631  0.95456  0.07788  1.0000
  S   S574      1.0  0.88972  0.65976  0.02619  1.0000
  H   H3426     1.0  0.97945  0.72163  0.07440  1.0000
  C   C4288     1.0  0.74051  0.75556  0.05124  1.0000
  H   H3427     1.0  0.95434  0.69178  0.14436  1.0000
  H   H3428     1.0  0.74463  0.77747  0.10311  1.0000
  H   H3429     1.0  0.92094  0.67137  0.13508  1.0000
  C   C4289     1.0  0.74260  0.98368  0.98745  1.0000
  C   C4290     1.0  0.94146  0.66590  0.11163  1.0000
  C   C4291     1.0  0.73503  0.76810  0.03717  1.0000
  H   H3430     1.0  0.73530  0.70636  0.04358  1.0000
  H   H3431     1.0  0.85833  0.67868  0.80150  1.0000
  C   C4292     1.0  0.93013  0.67263  0.90896  1.0000
  H   H3432     1.0  0.83157  0.70080  0.83517  1.0000
  C   C4293     1.0  0.73595  0.66802  0.92171  1.0000
  C   C4294     1.0  0.94270  0.67564  0.88972  1.0000
  C   C4295     1.0  0.96615  0.67170  0.91087  1.0000
  S   S575      1.0  0.97308  0.66118  0.83500  1.0000
  H   H3433     1.0  0.75882  0.99041  0.89391  1.0000
  C   C4296     1.0  0.81028  0.66482  0.87610  1.0000
  H   H3434     1.0  0.98274  0.69963  0.81207  1.0000
  H   H3435     1.0  0.96479  0.67523  0.78277  1.0000
  H   H3436     1.0  0.92564  0.66638  0.94411  1.0000
  C   C4297     1.0  0.97342  0.67229  0.76933  1.0000
  C   C4298     1.0  0.82067  0.68991  0.84529  1.0000
  C   C4299     1.0  0.96571  0.66363  0.75324  1.0000
  C   C4300     1.0  0.78292  0.66179  0.95156  1.0000
  C   C4301     1.0  0.81314  0.68197  0.94821  1.0000
  H   H3437     1.0  0.82255  0.69270  0.95382  1.0000
  C   C4302     1.0  0.82409  0.67963  0.86365  1.0000
  C   C4303     1.0  0.83113  0.66086  0.80957  1.0000
  C   C4304     1.0  0.74849  0.98199  0.84482  1.0000
  H   H3438     1.0  0.80092  0.69320  0.82486  1.0000
  C   C4305     1.0  0.81899  0.67482  0.92998  1.0000
  H   H3439     1.0  0.93861  0.67820  0.87399  1.0000
  H   H3440     1.0  0.83286  0.68038  0.92141  1.0000
  H   H3441     1.0  0.96982  0.67641  0.87551  1.0000
  C   C4306     1.0  0.80339  0.68571  0.83954  1.0000
  H   H3442     1.0  0.76314  0.98508  0.84070  1.0000
  H   H3443     1.0  0.74447  0.95400  0.84026  1.0000
  C   C4307     1.0  0.73784  0.96429  0.84453  1.0000
  H   H3444     1.0  0.83759  0.68302  0.86775  1.0000
  C   C4308     1.0  0.93547  0.66914  0.92917  1.0000
  C   C4309     1.0  0.96052  0.67491  0.89064  1.0000
  C   C4310     1.0  0.78939  0.67147  0.85239  1.0000
  C   C4311     1.0  0.79514  0.67533  0.95913  1.0000
  C   C4312     1.0  0.95338  0.66866  0.93018  1.0000
  H   H3445     1.0  0.82514  0.67147  0.80348  1.0000
  H   H3446     1.0  0.95694  0.66540  0.94607  1.0000
  C   C4313     1.0  0.79274  0.66119  0.87076  1.0000
  C   C4314     1.0  0.74291  0.66971  0.89954  1.0000
  C   C4315     1.0  0.74366  0.97721  0.96748  1.0000
  H   H3447     1.0  0.91619  0.67270  0.90816  1.0000
  H   H3448     1.0  0.75629  0.67870  0.89260  1.0000
  H   H3449     1.0  0.73546  0.95414  0.95121  1.0000
  C   C4316     1.0  0.74370  0.68855  0.97403  1.0000
  C   C4317     1.0  0.85005  0.66497  0.80842  1.0000
  C   C4318     1.0  0.80698  0.66060  0.92293  1.0000
  C   C4319     1.0  0.97684  0.65928  0.73639  1.0000
  H   H3450     1.0  0.77614  0.66790  0.84757  1.0000
  H   H3451     1.0  0.79061  0.68072  0.97337  1.0000
  H   H3452     1.0  0.74401  0.67562  0.93203  1.0000
  H   H3453     1.0  0.75121  0.98607  0.95251  1.0000
  H   H3454     1.0  0.75783  0.69634  0.96943  1.0000
  H   H3455     1.0  0.73787  0.66090  0.86908  1.0000
  S   S576      1.0  0.88269  0.65852  0.81334  1.0000
  H   H3456     1.0  0.95106  0.65996  0.75413  1.0000
  C   C4320     1.0  0.73458  0.95912  0.96661  1.0000
