data_image0
_chemical_formula_structural       SFeS2FeS2FeSFeCS2FeS2FeSHFeSFeS3CHC3H2SC2H2C2H2C3PC8H4C6H4C3HC2HC4PC18H11SH2CH6CPH3C5PHPC19HSH5FeCHCH8C2HCHC3HC2HC3HCHCHC2HC3H3CH3CHCHC4H3C2H4CH4CSHCHCHCSH2C2HC2H2C2H2C4HC3HCH2CH3C2H4C8H3C2H3CFeSPFeS2CFeSCSHFeS2FeSHCFeHCSCH3C2HC7H2C4H2FeS2FeSFeSFeCS2FeS2FeSH2FeS3CHC4HC7HC3H3CH2C2H2CH2CHC3HC2SHC4H3PC2H2C2HCH2CFeH2FeHCHCSCHCH2C2HC2HCH2CH2C2HC2HC2H2C6H6CSCH2C2H2CHC4H2SH2CH6C3HC2PC2H2CH2C2HCHC8HC3H3CHCHCH2CHC2H2CHCHSHFeS2FeSFeS5HFeS2FeS2FeHFeS3CH2SCHCSC8HPCH2C8H2C8H4C3HC8PC14HCHC2H6CFeH7SHCH2C2HCH2C7H3CHC2H5C2SCH2CHC3H2C3H2C2H3C2H2CHCH5CHC2H2C2HCHC4HCHC2PCH4CHCH4PCHCH3C2H3CFeS2FeS2FeSFeS3FeS2FeS2FeCFeCS2C2HCHCHC2HCH3SC3HCH2C11H4C4HCH2C4HC2HC3H3C5HCHSHC4H2CHPH7CHC2H4C2SCHC3HCH3CHC2PHCH4CH2C7HCPCHCHCHC2HC8HC2PCHCHCHC2HCH3CH3C2H5C3H3C2H2C2HCHCHCHCHCSC2HCH2C2H2CFeS2FeSFeSFeS3FeS2FeS2Fe2HS2C4H3CH2C2H3C6H4C2HC3H2CHCHC4PCH2CH2CHCHCHC4HCH3CH2CHC3H7CHC6PC19H5CH4CH2CH4C8H2CHCHCH2PC3HCHC4HC2HC3HCHC6H4C3H2CH3CH3C4SH2CHCH4CSC2H2C2H3CHC2HCHC2HC4H3CH2C4HCHC3HCSCHCHCHCHC2HCHCHCH2C2H2CHC2H4C5HCHC2H2C2HC6PC3H3CH2C3H2C2HPHPH3CH3C3H3C2H4C2HCHC2HC2SC5HCH2CSC2HCHCHC2HCH7CH2C3HCHC2HCH2C2HCHCHC3HCHC4H2CHC4PCH2CH3C2H3CHCHCHCPCH2CH2C2HC2HCHC3PH2C4HCH2CHCHCHCH2C4SCH3C3H5C3HCHCHC2H3C3H4CH2CHC2PCHC4HCH2CHCHC4H3C3HCHCHC2H2CHC2HC2HS2HFeSFeS2FeS2FeS2FeC2SC4H2C6H2CHC6HCH2C2H2C2H2SC2HCH2C3H2C2H3C4FeHCHC4HSHCSC2HPHC4H3CH2C2H4C4PHC2HC3HC3H3C5H3C2H4C2HC8SHCH4C3H6CH4C3HCHPC2HC3H2FeCHC2HCFeH3C2H2C3HSC2SHPSHFeSFeS2FeS2FeS2FeCFeHS2HC3HC3H2C6H4C6H4C3HCH2CH2C6HCHSC8PC20H15CH2C2H3CH2SCH2C2H2C3PCH2C3H2C2H2C6H2CHCH5CH2CH2CH3PC2HC3H2CHC2SFeHC3HSHFeCHC3H2C5H3CH3C4H2C3HSH2C2HC3H2SFeS2FeS2FeSFeS3CFeS2FeS2FeHFeHS2CHC3H4C11H4CHC7H4C4HC2H3C2H2C6PCHSHC2HCSH3C2HC2H6CHC2SH3PC3HCHCH3C2HCHC2H3C2H2C3H4C3H2CH3C3HCHCHC7PC9PHC7H9C3H6C4HCH7CHCH2C3HC2H8CHPC2HC5HC2H4C5H3C2HC5H2C2H5CHSHFeC7HCHC3H2FeS2FeCFeCS2FeS2FeHFeCHSCH2C6HCSC6H2CHFeS2FeSFeSFeS3FeS2FeHSFeHCS2C2H2CHC6H4CH2C3H6C3SH6C2FeHCH2C2HC4HC2HC2HC2H2CHCSHC4H2SFeC3H2CHC5H5CH5PH2CHCHSH2SCHC6PC3HC3H2C7H5C2H4CH3C2H2C3HCPH2C2HC3HCH2C2PCHC2HC2H2CH2C3H2C2HC5H3C2H2CHCHFeS2FeS2FeSFeS3HFeS2FeCFeCH2S2C4H2C3H2C8H4C6H4C3H3CH2CPCH2C4H2C8H2C3HCHC2H4C3HCH2C4H2CSC2HCHCH3CH2C3HC2HSCHC4H6CH4CH2CHCHC2HCH2CHCHC3PC3HC6HCSHPC3PC4H2C8HCH2C2H6CFeHC3H2CHC5HCHC3HC3HCHC3HC2HCH2CH2C2H3C2H3CPHC3HC2H5CH2CH2CH2PCH3C4HC2HC4H2C3H3CH4CHCH
_chemical_formula_sum              "S192 Fe96 C1440 H1152 P48"
_cell_length_a       51.8637
_cell_length_b       51.986
_cell_length_c       50.6832
_cell_angle_alpha    89.8237
_cell_angle_beta     90.0601
_cell_angle_gamma    119.833

_space_group_name_H-M_alt    "P 1"
_space_group_IT_number       1

loop_
  _space_group_symop_operation_xyz
  'x, y, z'

loop_
  _atom_site_type_symbol
  _atom_site_label
  _atom_site_symmetry_multiplicity
  _atom_site_fract_x
  _atom_site_fract_y
  _atom_site_fract_z
  _atom_site_occupancy
  S   S1        1.0  0.38173  0.35233  0.29283  1.0000
  Fe  Fe1       1.0  0.36043  0.39186  0.07664  1.0000
  S   S2        1.0  0.35510  0.43197  0.08453  1.0000
  S   S3        1.0  0.37880  0.38475  0.03710  1.0000
  Fe  Fe2       1.0  0.35547  0.37636  0.13710  1.0000
  S   S4        1.0  0.34963  0.41488  0.14757  1.0000
  S   S5        1.0  0.36057  0.34613  0.16755  1.0000
  Fe  Fe3       1.0  0.31813  0.40198  0.11284  1.0000
  S   S6        1.0  0.27544  0.40319  0.12443  1.0000
  Fe  Fe4       1.0  0.38629  0.44120  0.11860  1.0000
  C   C1        1.0  0.44232  0.47201  0.20528  1.0000
  S   S7        1.0  0.32204  0.36133  0.10353  1.0000
  S   S8        1.0  0.39359  0.40321  0.10969  1.0000
  Fe  Fe5       1.0  0.11408  0.40207  0.10533  1.0000
  S   S9        1.0  0.06544  0.36644  0.10279  1.0000
  S   S10       1.0  0.15066  0.39256  0.09006  1.0000
  Fe  Fe6       1.0  0.09683  0.44780  0.12251  1.0000
  S   S11       1.0  0.04789  0.41577  0.12044  1.0000
  H   H1        1.0  0.29276  0.37953  0.00053  1.0000
  Fe  Fe7       1.0  0.05919  0.38462  0.14153  1.0000
  S   S12       1.0  0.02890  0.35418  0.17488  1.0000
  Fe  Fe8       1.0  0.05778  0.40042  0.08182  1.0000
  S   S13       1.0  0.02594  0.39414  0.04704  1.0000
  S   S14       1.0  0.10810  0.41740  0.14534  1.0000
  S   S15       1.0  0.10637  0.43531  0.08269  1.0000
  C   C2        1.0  0.22996  0.03748  0.27401  1.0000
  H   H2        1.0  0.41354  0.01782  0.19654  1.0000
  C   C3        1.0  0.98065  0.40981  0.09635  1.0000
  C   C4        1.0  0.39298  0.00945  0.23508  1.0000
  C   C5        1.0  0.03148  0.39103  0.24747  1.0000
  H   H3        1.0  0.41133  0.02871  0.24404  1.0000
  H   H4        1.0  0.98065  0.42577  0.21432  1.0000
  S   S16       1.0  0.42565  0.48385  0.13390  1.0000
  C   C6        1.0  0.02225  0.36001  0.20850  1.0000
  C   C7        1.0  0.03762  0.38772  0.22085  1.0000
  H   H5        1.0  0.00473  0.48294  0.10658  1.0000
  H   H6        1.0  0.29890  0.46475  0.99425  1.0000
  C   C8        1.0  0.29577  0.42205  0.99445  1.0000
  C   C9        1.0  0.03392  0.36792  0.00149  1.0000
  H   H7        1.0  0.05454  0.40651  0.21003  1.0000
  H   H8        1.0  0.20493  0.30008  0.08228  1.0000
  C   C10       1.0  0.44839  0.40422  0.19354  1.0000
  C   C11       1.0  0.01745  0.37887  0.01430  1.0000
  C   C12       1.0  0.29680  0.42612  0.04944  1.0000
  P   P1        1.0  0.30783  0.03759  0.25947  1.0000
  C   C13       1.0  0.29443  0.40089  0.03733  1.0000
  C   C14       1.0  0.38883  0.12778  0.28159  1.0000
  C   C15       1.0  0.18567  0.39642  0.09997  1.0000
  C   C16       1.0  0.20127  0.38830  0.08216  1.0000
  C   C17       1.0  0.22895  0.39084  0.08891  1.0000
  C   C18       1.0  0.24141  0.40122  0.11385  1.0000
  C   C19       1.0  0.22592  0.40953  0.13160  1.0000
  C   C20       1.0  0.19837  0.40726  0.12475  1.0000
  H   H9        1.0  0.19192  0.38004  0.06290  1.0000
  H   H10       1.0  0.24017  0.38401  0.07504  1.0000
  H   H11       1.0  0.23520  0.41761  0.15095  1.0000
  H   H12       1.0  0.18689  0.41372  0.13871  1.0000
  C   C21       1.0  0.37862  0.35181  0.25764  1.0000
  C   C22       1.0  0.38132  0.33120  0.24194  1.0000
  C   C23       1.0  0.37600  0.33000  0.21447  1.0000
  C   C24       1.0  0.36903  0.35009  0.20206  1.0000
  C   C25       1.0  0.36827  0.37197  0.21753  1.0000
  C   C26       1.0  0.37251  0.37245  0.24515  1.0000
  H   H13       1.0  0.38670  0.31566  0.25106  1.0000
  H   H14       1.0  0.37710  0.31322  0.20273  1.0000
  H   H15       1.0  0.36324  0.38778  0.20838  1.0000
  H   H16       1.0  0.37065  0.38872  0.25698  1.0000
  C   C27       1.0  0.31400  0.47539  0.10286  1.0000
  C   C28       1.0  0.37401  0.37048  0.00405  1.0000
  C   C29       1.0  0.36789  0.99109  0.25030  1.0000
  H   H17       1.0  0.32682  0.35308  0.00189  1.0000
  C   C30       1.0  0.99446  0.44555  0.20282  1.0000
  C   C31       1.0  0.44167  0.46482  0.25277  1.0000
  H   H18       1.0  0.09715  0.35952  0.01291  1.0000
  C   C32       1.0  0.18960  0.33272  0.13319  1.0000
  C   C33       1.0  0.15990  0.32360  0.12744  1.0000
  C   C34       1.0  0.14594  0.30536  0.10556  1.0000
  C   C35       1.0  0.16239  0.29683  0.08938  1.0000
  P   P2        1.0  0.10743  0.29296  0.09778  1.0000
  C   C36       1.0  0.09011  0.25439  0.08846  1.0000
  C   C37       1.0  0.08840  0.29682  0.12609  1.0000
  C   C38       1.0  0.06722  0.27191  0.14022  1.0000
  C   C39       1.0  0.05217  0.27541  0.16160  1.0000
  C   C40       1.0  0.05818  0.30372  0.16906  1.0000
  C   C41       1.0  0.07930  0.32855  0.15521  1.0000
  C   C42       1.0  0.09419  0.32514  0.13372  1.0000
  C   C43       1.0  0.09689  0.23511  0.10242  1.0000
  C   C44       1.0  0.08370  0.20522  0.09535  1.0000
  C   C45       1.0  0.06363  0.19435  0.07434  1.0000
  C   C46       1.0  0.05669  0.21336  0.06041  1.0000
  C   C47       1.0  0.06984  0.24327  0.06742  1.0000
  C   C48       1.0  0.10453  0.31432  0.07089  1.0000
  C   C49       1.0  0.07838  0.31581  0.06767  1.0000
  C   C50       1.0  0.07569  0.33192  0.04674  1.0000
  C   C51       1.0  0.09907  0.34665  0.02887  1.0000
  C   C52       1.0  0.12506  0.34513  0.03182  1.0000
  C   C53       1.0  0.12779  0.32896  0.05269  1.0000
  H   H19       1.0  0.20045  0.34726  0.14979  1.0000
  H   H20       1.0  0.14825  0.33118  0.14001  1.0000
  H   H21       1.0  0.15224  0.28309  0.07221  1.0000
  H   H22       1.0  0.06200  0.24976  0.13476  1.0000
  H   H23       1.0  0.03570  0.25620  0.17236  1.0000
  H   H24       1.0  0.04638  0.30655  0.18545  1.0000
  H   H25       1.0  0.08383  0.35047  0.16099  1.0000
  H   H26       1.0  0.11024  0.34464  0.12301  1.0000
  H   H27       1.0  0.11236  0.24322  0.11881  1.0000
  H   H28       1.0  0.08910  0.19048  0.10614  1.0000
  H   H29       1.0  0.05346  0.17120  0.06882  1.0000
  S   S17       1.0  0.36449  0.99825  0.28439  1.0000
  H   H30       1.0  0.06416  0.25755  0.05630  1.0000
  H   H31       1.0  0.06012  0.30472  0.08145  1.0000
  C   C54       1.0  0.43766  0.41508  0.17371  1.0000
  H   H32       1.0  0.14337  0.35697  0.01823  1.0000
  H   H33       1.0  0.14831  0.32857  0.05481  1.0000
  H   H34       1.0  0.01238  0.44973  0.07643  1.0000
  H   H35       1.0  0.07432  0.45328  0.02769  1.0000
  H   H36       1.0  0.45403  0.47810  0.18661  1.0000
  H   H37       1.0  0.28542  0.30125  0.19478  1.0000
  C   C55       1.0  0.34221  0.03697  0.21705  1.0000
  P   P3        1.0  0.46055  0.46475  0.28284  1.0000
  H   H38       1.0  0.44599  0.36726  0.25652  1.0000
  H   H39       1.0  0.43346  0.38988  0.20878  1.0000
  H   H40       1.0  0.16571  0.17631  0.27364  1.0000
  C   C56       1.0  0.19220  0.30630  0.09504  1.0000
  C   C57       1.0  0.26988  0.05169  0.23212  1.0000
  C   C58       1.0  0.33843  0.09947  0.26511  1.0000
  C   C59       1.0  0.05358  0.47795  0.25005  1.0000
  C   C60       1.0  0.07600  0.47024  0.01410  1.0000
  P   P4        1.0  0.30388  0.48299  0.05004  1.0000
  H   H41       1.0  0.00127  0.30912  0.12571  1.0000
  P   P5        1.0  0.28258  0.27409  0.28875  1.0000
  C   C61       1.0  0.28943  0.29980  0.26200  1.0000
  C   C62       1.0  0.30930  0.26134  0.28942  1.0000
  C   C63       1.0  0.32737  0.26489  0.26752  1.0000
  C   C64       1.0  0.34805  0.25506  0.26863  1.0000
  C   C65       1.0  0.35093  0.24175  0.29157  1.0000
  C   C66       1.0  0.33299  0.23806  0.31339  1.0000
  C   C67       1.0  0.31240  0.24794  0.31242  1.0000
  C   C68       1.0  0.28432  0.28956  0.23584  1.0000
  C   C69       1.0  0.28825  0.30890  0.21502  1.0000
  C   C70       1.0  0.29642  0.33835  0.22020  1.0000
  C   C71       1.0  0.30120  0.34863  0.24619  1.0000
  C   C72       1.0  0.29806  0.32956  0.26703  1.0000
  C   C73       1.0  0.24565  0.24282  0.28400  1.0000
  C   C74       1.0  0.22304  0.24749  0.27391  1.0000
  C   C75       1.0  0.19435  0.22359  0.27020  1.0000
  C   C76       1.0  0.18796  0.19483  0.27653  1.0000
  C   C77       1.0  0.21028  0.18997  0.28659  1.0000
  C   C78       1.0  0.23902  0.21383  0.29032  1.0000
  C   C79       1.0  0.29423  0.39897  0.00985  1.0000
  H   H42       1.0  0.01972  0.42755  0.18468  1.0000
  S   S18       1.0  0.43152  0.31443  0.31384  1.0000
  H   H43       1.0  0.26743  0.99106  0.22339  1.0000
  H   H44       1.0  0.21452  0.03202  0.29026  1.0000
  H   H45       1.0  0.32610  0.27569  0.24973  1.0000
  H   H46       1.0  0.36222  0.25823  0.25181  1.0000
  H   H47       1.0  0.36731  0.23460  0.29265  1.0000
  Fe  Fe9       1.0  0.39283  0.02973  0.31798  1.0000
  C   C80       1.0  0.28955  0.00128  0.21500  1.0000
  H   H48       1.0  0.27758  0.26668  0.23149  1.0000
  C   C81       1.0  0.24200  0.45583  0.04626  1.0000
  H   H49       1.0  0.37312  0.44813  0.22980  1.0000
  H   H50       1.0  0.30821  0.37166  0.25009  1.0000
  H   H51       1.0  0.30258  0.33821  0.28691  1.0000
  H   H52       1.0  0.22756  0.26966  0.26898  1.0000
  H   H53       1.0  0.17705  0.22738  0.26240  1.0000
  H   H54       1.0  0.20533  0.16766  0.29148  1.0000
  H   H55       1.0  0.42763  0.40897  0.31334  1.0000
  H   H56       1.0  0.25586  0.20941  0.29806  1.0000
  C   C82       1.0  0.20579  0.32423  0.11696  1.0000
  C   C83       1.0  0.21402  0.45108  0.05381  1.0000
  H   H57       1.0  0.04393  0.41244  0.25686  1.0000
  C   C84       1.0  0.07539  0.48334  0.23118  1.0000
  H   H58       1.0  0.05262  0.36852  0.01147  1.0000
  C   C85       1.0  0.32209  0.00400  0.17955  1.0000
  C   C86       1.0  0.47180  0.01195  0.21989  1.0000
  C   C87       1.0  0.00045  0.33589  0.22319  1.0000
  H   H59       1.0  0.43938  0.00318  0.11168  1.0000
  C   C88       1.0  0.99231  0.45917  0.10954  1.0000
  C   C89       1.0  0.29376  0.99110  0.19075  1.0000
  H   H60       1.0  0.98100  0.38169  0.16701  1.0000
  C   C90       1.0  0.45288  0.00798  0.26436  1.0000
  C   C91       1.0  0.98934  0.31657  0.11311  1.0000
  C   C92       1.0  0.99647  0.44051  0.09248  1.0000
  H   H61       1.0  0.39846  0.44905  0.27107  1.0000
  C   C93       1.0  0.36303  0.12669  0.27203  1.0000
  H   H62       1.0  0.05568  0.33342  0.04461  1.0000
  C   C94       1.0  0.99530  0.46279  0.28438  1.0000
  H   H63       1.0  0.25858  0.02633  0.29561  1.0000
  C   C95       1.0  0.41125  0.45600  0.25301  1.0000
  C   C96       1.0  0.98985  0.31382  0.08573  1.0000
  H   H64       1.0  0.00507  0.42751  0.29181  1.0000
  C   C97       1.0  0.45731  0.00446  0.12367  1.0000
  C   C98       1.0  0.47354  0.98770  0.16177  1.0000
  C   C99       1.0  0.41221  0.46350  0.20577  1.0000
  H   H65       1.0  0.42055  0.38502  0.99925  1.0000
  H   H66       1.0  0.04115  0.20495  0.04409  1.0000
  H   H67       1.0  0.31871  0.09919  0.25782  1.0000
  C   C100      1.0  0.00975  0.36685  0.26221  1.0000
  H   H68       1.0  0.32556  0.99573  0.16103  1.0000
  H   H69       1.0  0.03260  0.45751  0.24883  1.0000
  H   H70       1.0  0.41444  0.40923  0.17363  1.0000
  C   C101      1.0  0.99409  0.33927  0.24972  1.0000
  H   H71       1.0  0.47642  0.04885  0.24276  1.0000
  C   C102      1.0  0.45161  0.00041  0.04370  1.0000
  H   H72       1.0  0.40787  0.14883  0.28710  1.0000
  C   C103      1.0  0.34632  0.35616  0.99144  1.0000
  C   C104      1.0  0.45375  0.41082  0.26635  1.0000
  C   C105      1.0  0.39663  0.45529  0.22958  1.0000
  C   C106      1.0  0.05635  0.46235  0.99283  1.0000
  H   H73       1.0  0.44813  0.44218  0.13904  1.0000
  H   H74       1.0  0.05200  0.47314  0.15934  1.0000
  H   H75       1.0  0.00194  0.45754  0.00019  1.0000
  C   C107      1.0  0.45675  0.43348  0.15393  1.0000
  C   C108      1.0  0.45688  0.47200  0.22854  1.0000
  H   H76       1.0  0.32152  0.46690  0.14291  1.0000
  H   H77       1.0  0.22911  0.33224  0.12105  1.0000
  H   H78       1.0  0.40090  0.46296  0.18757  1.0000
  H   H79       1.0  0.46832  0.40801  0.10141  1.0000
  C   C109      1.0  0.29816  0.44733  0.00653  1.0000
  H   H80       1.0  0.98827  0.31435  0.21396  1.0000
  H   H81       1.0  0.43688  0.39672  0.06170  1.0000
  H   H82       1.0  0.36823  0.03658  0.18403  1.0000
  H   H83       1.0  0.40995  0.10261  0.29215  1.0000
  C   C110      1.0  0.47302  0.43820  0.27812  1.0000
  S   S19       1.0  0.43943  0.06812  0.31467  1.0000
  H   H84       1.0  0.24091  0.06296  0.21077  1.0000
  C   C111      1.0  0.99074  0.47032  0.20513  1.0000
  H   H85       1.0  0.36142  0.05434  0.22696  1.0000
  C   C112      1.0  0.34621  0.02706  0.19259  1.0000
  H   H86       1.0  0.43956  0.46198  0.99042  1.0000
  C   C113      1.0  0.01639  0.44651  0.18619  1.0000
  S   S20       1.0  0.00355  0.37254  0.29602  1.0000
  H   H87       1.0  0.19415  0.43440  0.04397  1.0000
  H   H88       1.0  0.29660  0.42696  0.07074  1.0000
  C   C114      1.0  0.47018  0.47187  0.06027  1.0000
  C   C115      1.0  0.98864  0.43312  0.28507  1.0000
  H   H89       1.0  0.43209  0.40609  0.25949  1.0000
  C   C116      1.0  0.39413  0.00320  0.20806  1.0000
  C   C117      1.0  0.39901  0.37400  0.98990  1.0000
  H   H90       1.0  0.29299  0.38292  0.04935  1.0000
  H   H91       1.0  0.29989  0.35338  0.20396  1.0000
  C   C118      1.0  0.33169  0.47915  0.12495  1.0000
  C   C119      1.0  0.45204  0.44246  0.05258  1.0000
  H   H92       1.0  0.29027  0.46048  0.10425  1.0000
  H   H93       1.0  0.03992  0.43919  0.99006  1.0000
  C   C120      1.0  0.99338  0.37808  0.00060  1.0000
  C   C121      1.0  0.33949  0.07309  0.26785  1.0000
  C   C122      1.0  0.46808  0.02523  0.24244  1.0000
  C   C123      1.0  0.43483  0.45368  0.31017  1.0000
  H   H94       1.0  0.24343  0.44297  0.03018  1.0000
  C   C124      1.0  0.39002  0.10167  0.28442  1.0000
  C   C125      1.0  0.36547  0.07442  0.27762  1.0000
  C   C126      1.0  0.46164  0.38880  0.26452  1.0000
  H   H95       1.0  0.36673  0.05436  0.28000  1.0000
  C   C127      1.0  0.25502  0.03422  0.27695  1.0000
  H   H96       1.0  0.20537  0.05020  0.24789  1.0000
  H   H97       1.0  0.07108  0.46722  0.21581  1.0000
  C   C128      1.0  0.26759  0.47646  0.05986  1.0000
  H   H98       1.0  0.28530  0.05754  0.21578  1.0000
  H   H99       1.0  0.07159  0.48010  0.09580  1.0000
  H   H100      1.0  0.43746  0.43724  0.03568  1.0000
  C   C129      1.0  0.03472  0.47230  0.17198  1.0000
  C   C130      1.0  0.45182  0.41959  0.06725  1.0000
  H   H101      1.0  0.44968  0.01829  0.28170  1.0000
  H   H102      1.0  0.98462  0.39603  0.08300  1.0000
  H   H103      1.0  0.36213  0.14699  0.27018  1.0000
  H   H104      1.0  0.00215  0.30422  0.07696  1.0000
  C   C131      1.0  0.30199  0.01166  0.28581  1.0000
  C   C132      1.0  0.29952  0.44990  0.03418  1.0000
  C   C133      1.0  0.22482  0.04775  0.25016  1.0000
  C   C134      1.0  0.24481  0.05491  0.22924  1.0000
  C   C135      1.0  0.46960  0.42611  0.08975  1.0000
  C   C136      1.0  0.31379  0.02418  0.22845  1.0000
  C   C137      1.0  0.27500  0.04101  0.25590  1.0000
  C   C138      1.0  0.45063  0.98657  0.14612  1.0000
  H   H105      1.0  0.98028  0.38621  0.01023  1.0000
  H   H106      1.0  0.43430  0.00397  0.05186  1.0000
  H   H107      1.0  0.18951  0.46227  0.08126  1.0000
  C   C139      1.0  0.21137  0.46682  0.07492  1.0000
  C   C140      1.0  0.30724  0.02151  0.31210  1.0000
  H   H108      1.0  0.47638  0.38418  0.01252  1.0000
  H   H109      1.0  0.47680  0.43134  0.00515  1.0000
  H   H110      1.0  0.31502  0.04455  0.31674  1.0000
  C   C141      1.0  0.98633  0.44362  0.98534  1.0000
  Fe  Fe10      1.0  0.46139  0.34634  0.34500  1.0000
  S   S21       1.0  0.43265  0.36648  0.35183  1.0000
  P   P6        1.0  0.99126  0.46376  0.49609  1.0000
  Fe  Fe11      1.0  0.40904  0.28289  0.34796  1.0000
  S   S22       1.0  0.37651  0.29960  0.35538  1.0000
  S   S23       1.0  0.39077  0.23214  0.34684  1.0000
  C   C142      1.0  0.03972  0.47814  0.32523  1.0000
  Fe  Fe12      1.0  0.41050  0.33238  0.38396  1.0000
  S   S24       1.0  0.40997  0.35081  0.42553  1.0000
  C   C143      1.0  0.31219  0.30894  0.33223  1.0000
  S   S25       1.0  0.44123  0.31367  0.37836  1.0000
  H   H111      1.0  0.28994  0.32848  0.38811  1.0000
  Fe  Fe13      1.0  0.42546  0.09169  0.34437  1.0000
  S   S26       1.0  0.37804  0.05428  0.34566  1.0000
  S   S27       1.0  0.44212  0.14192  0.33962  1.0000
  Fe  Fe14      1.0  0.44940  0.04829  0.35011  1.0000
  S   S28       1.0  0.40333  0.00878  0.35219  1.0000
  H   H112      1.0  0.19995  0.39208  0.56433  1.0000
  C   C144      1.0  0.14935  0.33090  0.56815  1.0000
  Fe  Fe15      1.0  0.39287  0.03613  0.37969  1.0000
  H   H113      1.0  0.33566  0.33550  0.36589  1.0000
  C   C145      1.0  0.06564  0.47792  0.45521  1.0000
  S   S29       1.0  0.43970  0.07472  0.37969  1.0000
  C   C146      1.0  0.36721  0.00402  0.44826  1.0000
  H   H114      1.0  0.05573  0.44618  0.38881  1.0000
  H   H115      1.0  0.46081  0.04058  0.50757  1.0000
  H   H116      1.0  0.25010  0.39912  0.57391  1.0000
  C   C147      1.0  0.00513  0.34968  0.46001  1.0000
  C   C148      1.0  0.01454  0.33747  0.48022  1.0000
  H   H117      1.0  0.01390  0.31663  0.47678  1.0000
  C   C149      1.0  0.40565  0.20756  0.34444  1.0000
  C   C150      1.0  0.38609  0.17666  0.34582  1.0000
  C   C151      1.0  0.39663  0.15627  0.34415  1.0000
  C   C152      1.0  0.42707  0.16642  0.34113  1.0000
  C   C153      1.0  0.41217  0.16595  0.45881  1.0000
  C   C154      1.0  0.43602  0.21768  0.34113  1.0000
  C   C155      1.0  0.42167  0.42486  0.32058  1.0000
  H   H118      1.0  0.38119  0.13269  0.34529  1.0000
  H   H119      1.0  0.45262  0.07347  0.53685  1.0000
  C   C156      1.0  0.01734  0.46307  0.34421  1.0000
  C   C157      1.0  0.38956  0.35252  0.45352  1.0000
  C   C158      1.0  0.35848  0.33616  0.45511  1.0000
  C   C159      1.0  0.40526  0.37093  0.47498  1.0000
  H   H120      1.0  0.34590  0.32182  0.43897  1.0000
  H   H121      1.0  0.42923  0.38358  0.47423  1.0000
  Fe  Fe16      1.0  0.35065  0.38521  0.56626  1.0000
  S   S30       1.0  0.35361  0.43009  0.56718  1.0000
  S   S31       1.0  0.33901  0.35797  0.52751  1.0000
  Fe  Fe17      1.0  0.36302  0.38713  0.62727  1.0000
  S   S32       1.0  0.36776  0.43232  0.63101  1.0000
  Fe  Fe18      1.0  0.32655  0.41472  0.60498  1.0000
  S   S33       1.0  0.28907  0.42276  0.62084  1.0000
  Fe  Fe19      1.0  0.39384  0.44373  0.59302  1.0000
  C   C160      1.0  0.10029  0.31817  0.58385  1.0000
  S   S34       1.0  0.32103  0.36890  0.60267  1.0000
  S   S35       1.0  0.39166  0.39939  0.59069  1.0000
  Fe  Fe20      1.0  0.11818  0.40724  0.60731  1.0000
  S   S36       1.0  0.07132  0.36830  0.60271  1.0000
  S   S37       1.0  0.15821  0.40198  0.59391  1.0000
  Fe  Fe21      1.0  0.09324  0.44825  0.62198  1.0000
  S   S38       1.0  0.04584  0.41234  0.61769  1.0000
  H   H122      1.0  0.13590  0.44152  0.49097  1.0000
  H   H123      1.0  0.36254  0.16840  0.34827  1.0000
  Fe  Fe22      1.0  0.06069  0.39963  0.58028  1.0000
  S   S39       1.0  0.03604  0.39734  0.54123  1.0000
  S   S40       1.0  0.36315  0.01731  0.41666  1.0000
  S   S41       1.0  0.10767  0.43782  0.58358  1.0000
  C   C161      1.0  0.47711  0.00987  0.45858  1.0000
  H   H124      1.0  0.08309  0.30923  0.59881  1.0000
  C   C162      1.0  0.02528  0.37860  0.50997  1.0000
  C   C163      1.0  0.46989  0.42147  0.53076  1.0000
  C   C164      1.0  0.02455  0.35175  0.50496  1.0000
  C   C165      1.0  0.09582  0.24860  0.59650  1.0000
  H   H125      1.0  0.03126  0.34174  0.52025  1.0000
  C   C166      1.0  0.19455  0.40791  0.60201  1.0000
  C   C167      1.0  0.20848  0.41966  0.62622  1.0000
  C   C168      1.0  0.23747  0.42457  0.63128  1.0000
  C   C169      1.0  0.25285  0.41708  0.61262  1.0000
  C   C170      1.0  0.23878  0.40501  0.58855  1.0000
  C   C171      1.0  0.21009  0.40079  0.58325  1.0000
  C   C172      1.0  0.00884  0.45691  0.54630  1.0000
  H   H126      1.0  0.19097  0.46834  0.63785  1.0000
  C   C173      1.0  0.34353  0.33820  0.47774  1.0000
  C   C174      1.0  0.35925  0.35663  0.49921  1.0000
  C   C175      1.0  0.39030  0.37299  0.49758  1.0000
  H   H127      1.0  0.31954  0.32530  0.47868  1.0000
  H   H128      1.0  0.40273  0.38692  0.51394  1.0000
  H   H129      1.0  0.47010  0.20556  0.33688  1.0000
  C   C176      1.0  0.03618  0.46589  0.46365  1.0000
  H   H130      1.0  0.24079  0.29817  0.36674  1.0000
  H   H131      1.0  0.42614  0.47587  0.44272  1.0000
  C   C177      1.0  0.41326  0.23578  0.43225  1.0000
  C   C178      1.0  0.26072  0.30114  0.35708  1.0000
  H   H132      1.0  0.39816  0.47999  0.34737  1.0000
  H   H133      1.0  0.06634  0.20549  0.58018  1.0000
  C   C179      1.0  0.46904  0.43408  0.41498  1.0000
  H   H134      1.0  0.41455  0.17594  0.47796  1.0000
  H   H135      1.0  0.39179  0.12164  0.47502  1.0000
  C   C180      1.0  0.17328  0.32106  0.62440  1.0000
  H   H136      1.0  0.47254  0.38309  0.45395  1.0000
  C   C181      1.0  0.40482  0.46464  0.33994  1.0000
  C   C182      1.0  0.42641  0.47361  0.32013  1.0000
  C   C183      1.0  0.45359  0.44143  0.39665  1.0000
  H   H137      1.0  0.38630  0.09748  0.43163  1.0000
  C   C184      1.0  0.36871  0.23004  0.41096  1.0000
  C   C185      1.0  0.44656  0.19730  0.33941  1.0000
  S   S42       1.0  0.44107  0.48040  0.58339  1.0000
  H   H138      1.0  0.12511  0.20792  0.64118  1.0000
  C   C186      1.0  0.31414  0.32224  0.35664  1.0000
  C   C187      1.0  0.11696  0.34104  0.54091  1.0000
  C   C188      1.0  0.14403  0.34183  0.54474  1.0000
  C   C189      1.0  0.46833  0.23979  0.41221  1.0000
  H   H139      1.0  0.02299  0.45164  0.58491  1.0000
  H   H140      1.0  0.37466  0.42864  0.36516  1.0000
  H   H141      1.0  0.01737  0.41197  0.49301  1.0000
  P   P7        1.0  0.13381  0.30442  0.61823  1.0000
  C   C190      1.0  0.39830  0.27297  0.43819  1.0000
  C   C191      1.0  0.00652  0.37685  0.46486  1.0000
  H   H142      1.0  0.12977  0.35675  0.63259  1.0000
  H   H143      1.0  0.07224  0.46166  0.52472  1.0000
  C   C192      1.0  0.39336  0.00448  0.45610  1.0000
  C   C193      1.0  0.41817  0.26271  0.44316  1.0000
  H   H144      1.0  0.35862  0.26504  0.41776  1.0000
  C   C194      1.0  0.06805  0.48161  0.32959  1.0000
  H   H145      1.0  0.45531  0.00629  0.57489  1.0000
  H   H146      1.0  0.45572  0.00435  0.42075  1.0000
  C   C195      1.0  0.43085  0.02265  0.59654  1.0000
  Fe  Fe23      1.0  0.06019  0.38437  0.64056  1.0000
  H   H147      1.0  0.11310  0.35009  0.52303  1.0000
  H   H148      1.0  0.16120  0.35157  0.52981  1.0000
  Fe  Fe24      1.0  0.40124  0.33280  0.32261  1.0000
  H   H149      1.0  0.44417  0.44078  0.51707  1.0000
  C   C196      1.0  0.02343  0.45236  0.36731  1.0000
  H   H150      1.0  0.09544  0.47224  0.35541  1.0000
  C   C197      1.0  0.42389  0.02879  0.62150  1.0000
  S   S43       1.0  0.10750  0.42100  0.64629  1.0000
  C   C198      1.0  0.45698  0.23569  0.46950  1.0000
  H   H151      1.0  0.40300  0.12798  0.39095  1.0000
  C   C199      1.0  0.20387  0.48279  0.59773  1.0000
  H   H152      1.0  0.33233  0.31223  0.32282  1.0000
  H   H153      1.0  0.43911  0.24340  0.53267  1.0000
  C   C200      1.0  0.40533  0.13857  0.40989  1.0000
  C   C201      1.0  0.45654  0.45953  0.64888  1.0000
  H   H154      1.0  0.01931  0.44592  0.45427  1.0000
  C   C202      1.0  0.38848  0.21962  0.41595  1.0000
  C   C203      1.0  0.09450  0.20329  0.61033  1.0000
  H   H155      1.0  0.41963  0.02457  0.57920  1.0000
  C   C204      1.0  0.47537  0.44357  0.48745  1.0000
  H   H156      1.0  0.08375  0.43018  0.49625  1.0000
  H   H157      1.0  0.99987  0.38687  0.44955  1.0000
  C   C205      1.0  0.25871  0.28771  0.33267  1.0000
  H   H158      1.0  0.17965  0.29347  0.59616  1.0000
  H   H159      1.0  0.45140  0.24124  0.33979  1.0000
  C   C206      1.0  0.19004  0.31081  0.61080  1.0000
  C   C207      1.0  0.01650  0.39109  0.48957  1.0000
  H   H160      1.0  0.41676  0.47439  0.52703  1.0000
  C   C208      1.0  0.21791  0.35603  0.64790  1.0000
  C   C209      1.0  0.42211  0.18344  0.43583  1.0000
  H   H161      1.0  0.45889  0.41541  0.54982  1.0000
  C   C210      1.0  0.07385  0.47032  0.35254  1.0000
  C   C211      1.0  0.39922  0.13506  0.45727  1.0000
  H   H162      1.0  0.38479  0.19948  0.40638  1.0000
  H   H163      1.0  0.30553  0.32315  0.64398  1.0000
  C   C212      1.0  0.23443  0.34587  0.63419  1.0000
  C   C213      1.0  0.42985  0.48420  0.50933  1.0000
  C   C214      1.0  0.39601  0.12140  0.43284  1.0000
  C   C215      1.0  0.47317  0.01950  0.43384  1.0000
  C   C216      1.0  0.09517  0.46743  0.52165  1.0000
  C   C217      1.0  0.09506  0.32908  0.56041  1.0000
  H   H164      1.0  0.44023  0.98901  0.52729  1.0000
  H   H165      1.0  0.33547  0.22799  0.33126  1.0000
  H   H166      1.0  0.01847  0.44503  0.53672  1.0000
  H   H167      1.0  0.46844  0.45457  0.47335  1.0000
  H   H168      1.0  0.38955  0.39333  0.34770  1.0000
  H   H169      1.0  0.99489  0.45886  0.34102  1.0000
  C   C218      1.0  0.39155  0.43574  0.34996  1.0000
  S   S44       1.0  0.99247  0.33038  0.42913  1.0000
  C   C219      1.0  0.46161  0.43591  0.51221  1.0000
  H   H170      1.0  0.43365  0.42392  0.38762  1.0000
  H   H171      1.0  0.41204  0.01307  0.44270  1.0000
  C   C220      1.0  0.41794  0.16939  0.41134  1.0000
  C   C221      1.0  0.46414  0.47106  0.38977  1.0000
  H   H172      1.0  0.23351  0.31585  0.60464  1.0000
  H   H173      1.0  0.07421  0.32880  0.55754  1.0000
  C   C222      1.0  0.13106  0.45602  0.50267  1.0000
  H   H174      1.0  0.41607  0.22671  0.48885  1.0000
  C   C223      1.0  0.46436  0.00838  0.61653  1.0000
  C   C224      1.0  0.11699  0.21930  0.62867  1.0000
  C   C225      1.0  0.22051  0.32328  0.61561  1.0000
  C   C226      1.0  0.11672  0.33933  0.64665  1.0000
  H   H175      1.0  0.46914  0.33875  0.43376  1.0000
  H   H176      1.0  0.25819  0.35614  0.63740  1.0000
  S   S45       1.0  0.98839  0.37817  0.36897  1.0000
  H   H177      1.0  0.30790  0.00968  0.35284  1.0000
  H   H178      1.0  0.46053  0.41095  0.41974  1.0000
  C   C227      1.0  0.10166  0.44959  0.50562  1.0000
  H   H179      1.0  0.17070  0.33236  0.57080  1.0000
  H   H180      1.0  0.45251  0.47668  0.37519  1.0000
  H   H181      1.0  0.08711  0.25939  0.58398  1.0000
  H   H182      1.0  0.46166  0.27707  0.40454  1.0000
  H   H183      1.0  0.42486  0.18234  0.39337  1.0000
  H   H184      1.0  0.39579  0.45367  0.48305  1.0000
  C   C228      1.0  0.41807  0.47258  0.48457  1.0000
  C   C229      1.0  0.45261  0.24411  0.51606  1.0000
  C   C230      1.0  0.05155  0.45570  0.37139  1.0000
  H   H185      1.0  0.43766  0.27617  0.45504  1.0000
  C   C231      1.0  0.12756  0.31911  0.58798  1.0000
  C   C232      1.0  0.02905  0.47921  0.48433  1.0000
  P   P8        1.0  0.43994  0.22350  0.43744  1.0000
  C   C233      1.0  0.01146  0.46062  0.57365  1.0000
  C   C234      1.0  0.37361  0.25668  0.42205  1.0000
  H   H186      1.0  0.35014  0.21788  0.39770  1.0000
  H   H187      1.0  0.40229  0.29389  0.44641  1.0000
  C   C235      1.0  0.39999  0.41589  0.34024  1.0000
  H   H188      1.0  0.00594  0.44058  0.38169  1.0000
  H   H189      1.0  0.07100  0.46705  0.43971  1.0000
  C   C236      1.0  0.43965  0.23475  0.49118  1.0000
  C   C237      1.0  0.18753  0.34394  0.64288  1.0000
  H   H190      1.0  0.19696  0.42500  0.64105  1.0000
  C   C238      1.0  0.47409  0.26619  0.39952  1.0000
  H   H191      1.0  0.08523  0.17952  0.60859  1.0000
  C   C239      1.0  0.45771  0.01471  0.64174  1.0000
  C   C240      1.0  0.11518  0.31165  0.64494  1.0000
  C   C241      1.0  0.11870  0.26491  0.61463  1.0000
  C   C242      1.0  0.99974  0.47633  0.58640  1.0000
  C   C243      1.0  0.99368  0.46816  0.53152  1.0000
  C   C244      1.0  0.12896  0.24997  0.63092  1.0000
  C   C245      1.0  0.39542  0.99404  0.48143  1.0000
  C   C246      1.0  0.18885  0.48036  0.62129  1.0000
  H   H192      1.0  0.44965  0.45004  0.62937  1.0000
  C   C247      1.0  0.45090  0.01225  0.59412  1.0000
  C   C248      1.0  0.08389  0.21792  0.59431  1.0000
  C   C249      1.0  0.28840  0.31828  0.36911  1.0000
  H   H193      1.0  0.41577  0.99461  0.48708  1.0000
  H   H194      1.0  0.24791  0.43384  0.65002  1.0000
  H   H195      1.0  0.40713  0.03533  0.62360  1.0000
  C   C250      1.0  0.43703  0.02463  0.64399  1.0000
  H   H196      1.0  0.46231  0.98717  0.46445  1.0000
  C   C251      1.0  0.47008  0.06844  0.54140  1.0000
  H   H197      1.0  0.21749  0.47244  0.59601  1.0000
  C   C252      1.0  0.15400  0.48039  0.51567  1.0000
  H   H198      1.0  0.29902  0.24525  0.32971  1.0000
  H   H199      1.0  0.32297  0.99250  0.46056  1.0000
  C   C253      1.0  0.30306  0.00179  0.33266  1.0000
  H   H200      1.0  0.00244  0.47980  0.60752  1.0000
  C   C254      1.0  0.47474  0.04966  0.52488  1.0000
  C   C255      1.0  0.34327  0.99286  0.46621  1.0000
  H   H201      1.0  0.14619  0.26203  0.64540  1.0000
  H   H202      1.0  0.23707  0.27453  0.32376  1.0000
  C   C256      1.0  0.98168  0.48368  0.54449  1.0000
  H   H203      1.0  0.98576  0.48171  0.39866  1.0000
  C   C257      1.0  0.28446  0.29123  0.32022  1.0000
  H   H204      1.0  0.22898  0.37410  0.66176  1.0000
  S   S46       1.0  0.41897  0.37751  0.85936  1.0000
  H   H205      1.0  0.10129  0.36556  0.66694  1.0000
  Fe  Fe25      1.0  0.41870  0.30244  0.85101  1.0000
  S   S47       1.0  0.37718  0.30659  0.84736  1.0000
  S   S48       1.0  0.42812  0.26404  0.84181  1.0000
  Fe  Fe26      1.0  0.40521  0.34814  0.82312  1.0000
  S   S49       1.0  0.39316  0.36711  0.78635  1.0000
  Fe  Fe27      1.0  0.39412  0.33614  0.88390  1.0000
  S   S50       1.0  0.36369  0.33562  0.91771  1.0000
  S   S51       1.0  0.44572  0.34286  0.82515  1.0000
  S   S52       1.0  0.43341  0.32911  0.88871  1.0000
  S   S53       1.0  0.36933  0.36016  0.66073  1.0000
  S   S54       1.0  0.03063  0.35251  0.67377  1.0000
  H   H206      1.0  0.45323  0.01881  0.79938  1.0000
  Fe  Fe28      1.0  0.40598  0.09003  0.84659  1.0000
  S   S55       1.0  0.37102  0.04195  0.85525  1.0000
  S   S56       1.0  0.39294  0.12639  0.85359  1.0000
  Fe  Fe29      1.0  0.45261  0.07176  0.83423  1.0000
  S   S57       1.0  0.42116  0.02406  0.84314  1.0000
  S   S58       1.0  0.35757  0.98555  0.66159  1.0000
  Fe  Fe30      1.0  0.38843  0.03016  0.81863  1.0000
  H   H207      1.0  0.43691  0.99498  0.72022  1.0000
  Fe  Fe31      1.0  0.40681  0.03953  0.87886  1.0000
  S   S59       1.0  0.36394  0.99213  0.78847  1.0000
  S   S60       1.0  0.42044  0.07788  0.80866  1.0000
  S   S61       1.0  0.44109  0.08757  0.87139  1.0000
  C   C258      1.0  0.06826  0.43577  0.88562  1.0000
  H   H208      1.0  0.37620  0.45480  0.73459  1.0000
  H   H209      1.0  0.41911  0.42340  0.66816  1.0000
  S   S62       1.0  0.99353  0.36152  0.79400  1.0000
  C   C259      1.0  0.45205  0.01858  0.71844  1.0000
  H   H210      1.0  0.03827  0.40429  0.75865  1.0000
  C   C260      1.0  0.45698  0.00236  0.78981  1.0000
  S   S63       1.0  0.99386  0.34059  0.92894  1.0000
  C   C261      1.0  0.02094  0.35587  0.70723  1.0000
  C   C262      1.0  0.47634  0.24587  0.88525  1.0000
  C   C263      1.0  0.03693  0.42837  0.92356  1.0000
  C   C264      1.0  0.00388  0.35840  0.76066  1.0000
  C   C265      1.0  0.02689  0.38362  0.74795  1.0000
  C   C266      1.0  0.03533  0.38242  0.72153  1.0000
  C   C267      1.0  0.43918  0.44462  0.67078  1.0000
  C   C268      1.0  0.39962  0.99199  0.96824  1.0000
  H   H211      1.0  0.05321  0.40196  0.71237  1.0000
  P   P9        1.0  0.47006  0.31840  0.75355  1.0000
  C   C269      1.0  0.00233  0.35569  0.96178  1.0000
  H   H212      1.0  0.98051  0.42911  0.91948  1.0000
  H   H213      1.0  0.03924  0.34790  0.96603  1.0000
  C   C270      1.0  0.45385  0.11891  0.93752  1.0000
  C   C271      1.0  0.34664  0.99109  0.97937  1.0000
  C   C272      1.0  0.41733  0.22545  0.84491  1.0000
  C   C273      1.0  0.39343  0.20548  0.86060  1.0000
  C   C274      1.0  0.38642  0.17549  0.86289  1.0000
  C   C275      1.0  0.40303  0.16474  0.84958  1.0000
  C   C276      1.0  0.42679  0.18469  0.83369  1.0000
  C   C277      1.0  0.43387  0.21470  0.83147  1.0000
  H   H214      1.0  0.38044  0.21316  0.87115  1.0000
  H   H215      1.0  0.36794  0.16047  0.87518  1.0000
  C   C278      1.0  0.03210  0.46764  0.67055  1.0000
  C   C279      1.0  0.46773  0.28080  0.71327  1.0000
  C   C280      1.0  0.38517  0.36390  0.75155  1.0000
  C   C281      1.0  0.37970  0.33900  0.73668  1.0000
  C   C282      1.0  0.37446  0.33813  0.70917  1.0000
  C   C283      1.0  0.37419  0.36190  0.69593  1.0000
  C   C284      1.0  0.37873  0.38640  0.71091  1.0000
  C   C285      1.0  0.38435  0.38744  0.73838  1.0000
  H   H216      1.0  0.37953  0.32037  0.74626  1.0000
  H   H217      1.0  0.37081  0.31892  0.69799  1.0000
  H   H218      1.0  0.37831  0.40473  0.70122  1.0000
  H   H219      1.0  0.38834  0.40678  0.74953  1.0000
  C   C286      1.0  0.36871  0.34913  0.95107  1.0000
  C   C287      1.0  0.39645  0.36345  0.96370  1.0000
  C   C288      1.0  0.07801  0.46613  0.88611  1.0000
  H   H220      1.0  0.41597  0.36658  0.95322  1.0000
  C   C289      1.0  0.98595  0.36677  0.97459  1.0000
  C   C290      1.0  0.39707  0.10609  0.92157  1.0000
  C   C291      1.0  0.21480  0.38443  0.72035  1.0000
  C   C292      1.0  0.18943  0.35769  0.71388  1.0000
  C   C293      1.0  0.19147  0.33212  0.71032  1.0000
  C   C294      1.0  0.21891  0.33330  0.71295  1.0000
  C   C295      1.0  0.24460  0.36017  0.71912  1.0000
  C   C296      1.0  0.24222  0.38564  0.72320  1.0000
  P   P10       1.0  0.28007  0.36185  0.72322  1.0000
  C   C297      1.0  0.28529  0.35466  0.75714  1.0000
  C   C298      1.0  0.28082  0.33354  0.70311  1.0000
  C   C299      1.0  0.26791  0.30431  0.71273  1.0000
  C   C300      1.0  0.47173  0.20378  0.91019  1.0000
  C   C301      1.0  0.37560  0.01658  0.73747  1.0000
  C   C302      1.0  0.99513  0.44572  0.95886  1.0000
  C   C303      1.0  0.29417  0.34014  0.67807  1.0000
  C   C304      1.0  0.30676  0.34662  0.76332  1.0000
  C   C305      1.0  0.31150  0.34157  0.78951  1.0000
  C   C306      1.0  0.29483  0.34443  0.80973  1.0000
  C   C307      1.0  0.27336  0.35236  0.80376  1.0000
  C   C308      1.0  0.26861  0.35753  0.77755  1.0000
  C   C309      1.0  0.30928  0.39843  0.71363  1.0000
  C   C310      1.0  0.30646  0.41174  0.69046  1.0000
  H   H221      1.0  0.43230  0.07376  0.95183  1.0000
  C   C311      1.0  0.98965  0.33186  0.74634  1.0000
  H   H222      1.0  0.45473  0.40494  0.74917  1.0000
  C   C312      1.0  0.33445  0.41438  0.72965  1.0000
  C   C313      1.0  0.02631  0.35633  0.97557  1.0000
  H   H223      1.0  0.16820  0.35680  0.71161  1.0000
  H   H224      1.0  0.17179  0.31141  0.70528  1.0000
  H   H225      1.0  0.21993  0.31324  0.70998  1.0000
  H   H226      1.0  0.26157  0.40652  0.72850  1.0000
  H   H227      1.0  0.25761  0.29867  0.73205  1.0000
  H   H228      1.0  0.42776  0.22909  0.93605  1.0000
  C   C314      1.0  0.39010  0.42194  0.94261  1.0000
  Fe  Fe32      1.0  0.45734  0.36922  0.86246  1.0000
  H   H229      1.0  0.29518  0.42032  0.97314  1.0000
  H   H230      1.0  0.32017  0.34462  0.74792  1.0000
  H   H231      1.0  0.32841  0.33577  0.79416  1.0000
  H   H232      1.0  0.29875  0.34066  0.83004  1.0000
  H   H233      1.0  0.26054  0.35464  0.81950  1.0000
  H   H234      1.0  0.25208  0.36389  0.77337  1.0000
  H   H235      1.0  0.28725  0.40006  0.67776  1.0000
  S   S64       1.0  0.98270  0.37783  0.86559  1.0000
  H   H236      1.0  0.47584  0.12303  0.94269  1.0000
  C   C315      1.0  0.45761  0.34284  0.70929  1.0000
  H   H237      1.0  0.33730  0.40496  0.74771  1.0000
  H   H238      1.0  0.21321  0.40426  0.72316  1.0000
  C   C316      1.0  0.45168  0.45363  0.95171  1.0000
  C   C317      1.0  0.08318  0.32217  0.68405  1.0000
  H   H239      1.0  0.09602  0.26781  0.66253  1.0000
  C   C318      1.0  0.04597  0.45870  0.92375  1.0000
  H   H240      1.0  0.17549  0.35287  0.65316  1.0000
  H   H241      1.0  0.38212  0.06274  0.93798  1.0000
  C   C319      1.0  0.40321  0.23741  0.77879  1.0000
  C   C320      1.0  0.38072  0.24348  0.78576  1.0000
  C   C321      1.0  0.38522  0.27215  0.78279  1.0000
  C   C322      1.0  0.41216  0.29476  0.77280  1.0000
  C   C323      1.0  0.08194  0.29473  0.68284  1.0000
  C   C324      1.0  0.40111  0.43675  0.96651  1.0000
  C   C325      1.0  0.45116  0.36288  0.69654  1.0000
  H   H242      1.0  0.07627  0.42668  0.87059  1.0000
  H   H243      1.0  0.30500  0.36247  0.67026  1.0000
  H   H244      1.0  0.41812  0.14990  0.90536  1.0000
  C   C326      1.0  0.35665  0.44287  0.72234  1.0000
  H   H245      1.0  0.43962  0.17696  0.82297  1.0000
  C   C327      1.0  0.37386  0.01442  0.70962  1.0000
  C   C328      1.0  0.32858  0.44033  0.68337  1.0000
  H   H246      1.0  0.46159  0.16600  0.86154  1.0000
  H   H247      1.0  0.40009  0.21543  0.78214  1.0000
  H   H248      1.0  0.36023  0.22618  0.79432  1.0000
  H   H249      1.0  0.36813  0.27709  0.78889  1.0000
  H   H250      1.0  0.41548  0.31696  0.77152  1.0000
  C   C329      1.0  0.44030  0.43781  0.92812  1.0000
  C   C330      1.0  0.42931  0.09097  0.94264  1.0000
  S   S65       1.0  0.40733  0.01715  0.91852  1.0000
  C   C331      1.0  0.40094  0.08461  0.93471  1.0000
  H   H251      1.0  0.38478  0.03802  0.74686  1.0000
  H   H252      1.0  0.44469  0.40037  0.70103  1.0000
  C   C332      1.0  0.40967  0.42233  0.92350  1.0000
  H   H253      1.0  0.36633  0.40877  0.93944  1.0000
  C   C333      1.0  0.36114  0.00253  0.95494  1.0000
  C   C334      1.0  0.45063  0.38554  0.71080  1.0000
  C   C335      1.0  0.10073  0.34449  0.66610  1.0000
  H   H254      1.0  0.44570  0.36041  0.67570  1.0000
  H   H255      1.0  0.02552  0.45189  0.73616  1.0000
  C   C336      1.0  0.26845  0.28214  0.69761  1.0000
  C   C337      1.0  0.45188  0.20621  0.92745  1.0000
  C   C338      1.0  0.28178  0.28891  0.67273  1.0000
  H   H256      1.0  0.44783  0.25515  0.76477  1.0000
  H   H257      1.0  0.43521  0.02838  0.75367  1.0000
  C   C339      1.0  0.03104  0.45303  0.69402  1.0000
  C   C340      1.0  0.36457  0.99099  0.75309  1.0000
  H   H258      1.0  0.44225  0.19105  0.94393  1.0000
  H   H259      1.0  0.04047  0.39344  0.90420  1.0000
  H   H260      1.0  0.98687  0.30989  0.70940  1.0000
  C   C341      1.0  0.44380  0.22787  0.92322  1.0000
  C   C342      1.0  0.04800  0.41699  0.90452  1.0000
  H   H261      1.0  0.37530  0.10078  0.91432  1.0000
  H   H262      1.0  0.35135  0.01040  0.94047  1.0000
  C   C343      1.0  0.45001  0.14091  0.92499  1.0000
  H   H263      1.0  0.02118  0.41334  0.93792  1.0000
  C   C344      1.0  0.09786  0.28942  0.66337  1.0000
  H   H264      1.0  0.07015  0.32609  0.69858  1.0000
  H   H265      1.0  0.32605  0.99081  0.98352  1.0000
  H   H266      1.0  0.47766  0.16655  0.97341  1.0000
  H   H267      1.0  0.45237  0.22974  0.81923  1.0000
  H   H268      1.0  0.28277  0.27194  0.66114  1.0000
  C   C345      1.0  0.29445  0.31781  0.66296  1.0000
  H   H269      1.0  0.25891  0.25979  0.70533  1.0000
  C   C346      1.0  0.99815  0.33064  0.72000  1.0000
  C   C347      1.0  0.34374  0.34561  0.96527  1.0000
  H   H270      1.0  0.32215  0.33455  0.95592  1.0000
  H   H271      1.0  0.40096  0.40934  0.90566  1.0000
  C   C348      1.0  0.45097  0.03741  0.73753  1.0000
  C   C349      1.0  0.43476  0.28882  0.76540  1.0000
  H   H272      1.0  0.44396  0.27242  0.71291  1.0000
  C   C350      1.0  0.43026  0.26003  0.76894  1.0000
  H   H273      1.0  0.03476  0.43427  0.69365  1.0000
  C   C351      1.0  0.44751  0.45726  0.69585  1.0000
  C   C352      1.0  0.38792  0.00326  0.94919  1.0000
  C   C353      1.0  0.02589  0.46303  0.71792  1.0000
  C   C354      1.0  0.46348  0.34528  0.73653  1.0000
  H   H274      1.0  0.38181  0.03439  0.69793  1.0000
  C   C355      1.0  0.42151  0.13408  0.91660  1.0000
  H   H275      1.0  0.06810  0.27739  0.69669  1.0000
  C   C356      1.0  0.45636  0.38813  0.73787  1.0000
  C   C357      1.0  0.46251  0.36798  0.75073  1.0000
  P   P11       1.0  0.47207  0.00650  0.67126  1.0000
  C   C358      1.0  0.36137  0.98675  0.69681  1.0000
  H   H276      1.0  0.45498  0.43646  0.91365  1.0000
  H   H277      1.0  0.43381  0.44582  0.71281  1.0000
  H   H278      1.0  0.42996  0.02804  0.66315  1.0000
  H   H279      1.0  0.45733  0.32521  0.69788  1.0000
  C   C359      1.0  0.45595  0.24762  0.90208  1.0000
  H   H280      1.0  0.46564  0.25119  0.68263  1.0000
  C   C360      1.0  0.43175  0.45225  0.97120  1.0000
  H   H281      1.0  0.42022  0.99228  0.96412  1.0000
  H   H282      1.0  0.44909  0.26390  0.89833  1.0000
  H   H283      1.0  0.46566  0.36972  0.77190  1.0000
  H   H284      1.0  0.98156  0.38954  0.70626  1.0000
  P   P12       1.0  0.03182  0.47353  0.94835  1.0000
  C   C361      1.0  0.06716  0.47764  0.90529  1.0000
  H   H285      1.0  0.09381  0.48067  0.87151  1.0000
  C   C362      1.0  0.35377  0.45579  0.69915  1.0000
  H   H286      1.0  0.32635  0.45040  0.66539  1.0000
  H   H287      1.0  0.46926  0.08234  0.75098  1.0000
  H   H288      1.0  0.47484  0.29578  0.80542  1.0000
  C   C363      1.0  0.47181  0.03039  0.69705  1.0000
  C   C364      1.0  0.46987  0.06800  0.73576  1.0000
  H   H289      1.0  0.38579  0.43487  0.98193  1.0000
  H   H290      1.0  0.37106  0.47774  0.69330  1.0000
  H   H291      1.0  0.03698  0.46037  0.65213  1.0000
  C   C365      1.0  0.05785  0.48413  0.97540  1.0000
  Fe  Fe33      1.0  0.03701  0.64592  0.06842  1.0000
  S   S66       1.0  0.08039  0.64634  0.06561  1.0000
  S   S67       1.0  0.00619  0.64127  0.03326  1.0000
  Fe  Fe34      1.0  0.03597  0.64014  0.13087  1.0000
  S   S68       1.0  0.07930  0.63972  0.13077  1.0000
  S   S69       1.0  0.00180  0.62553  0.16534  1.0000
  Fe  Fe35      1.0  0.09544  0.67738  0.10082  1.0000
  S   S70       1.0  0.14533  0.71372  0.10267  1.0000
  Fe  Fe36      1.0  0.06144  0.60959  0.09572  1.0000
  S   S71       1.0  0.05501  0.56407  0.08667  1.0000
  S   S72       1.0  0.05247  0.67911  0.10232  1.0000
  S   S73       1.0  0.01763  0.60797  0.09706  1.0000
  Fe  Fe37      1.0  0.29361  0.88587  0.09955  1.0000
  S   S74       1.0  0.31004  0.93537  0.10028  1.0000
  S   S75       1.0  0.24262  0.85357  0.09920  1.0000
  Fe  Fe38      1.0  0.35753  0.89820  0.09281  1.0000
  S   S76       1.0  0.37741  0.94763  0.09214  1.0000
  S   S77       1.0  0.38380  0.87429  0.08753  1.0000
  Fe  Fe39      1.0  0.34715  0.94008  0.12711  1.0000
  C   C366      1.0  0.35843  0.86961  0.01915  1.0000
  Fe  Fe40      1.0  0.33925  0.93929  0.06553  1.0000
  C   C367      1.0  0.34902  0.56319  0.99345  1.0000
  S   S78       1.0  0.32884  0.89052  0.12865  1.0000
  S   S79       1.0  0.32124  0.88999  0.06395  1.0000
  C   C368      1.0  0.42270  0.89385  0.09224  1.0000
  C   C369      1.0  0.43866  0.87855  0.09101  1.0000
  H   H292      1.0  0.45776  0.53990  0.05048  1.0000
  C   C370      1.0  0.43797  0.92431  0.09716  1.0000
  H   H293      1.0  0.04260  0.71533  0.04350  1.0000
  C   C371      1.0  0.35783  0.50903  0.07797  1.0000
  H   H294      1.0  0.42599  0.93629  0.09843  1.0000
  C   C372      1.0  0.98082  0.52641  0.22092  1.0000
  C   C373      1.0  0.09695  0.61129  0.20710  1.0000
  H   H295      1.0  0.16227  0.78373  0.02019  1.0000
  C   C374      1.0  0.18227  0.78245  0.02312  1.0000
  H   H296      1.0  0.47351  0.85972  0.00838  1.0000
  H   H297      1.0  0.11853  0.63078  0.21012  1.0000
  H   H298      1.0  0.11965  0.51337  0.21736  1.0000
  S   S80       1.0  0.37207  0.97359  0.16082  1.0000
  C   C375      1.0  0.99869  0.62535  0.20074  1.0000
  C   C376      1.0  0.02302  0.64206  0.21732  1.0000
  C   C377      1.0  0.01905  0.64205  0.24500  1.0000
  H   H299      1.0  0.00450  0.57609  0.00851  1.0000
  C   C378      1.0  0.05918  0.49861  0.27020  1.0000
  H   H300      1.0  0.04480  0.65565  0.20876  1.0000
  H   H301      1.0  0.03803  0.65562  0.25737  1.0000
  C   C379      1.0  0.46968  0.89362  0.09480  1.0000
  C   C380      1.0  0.99664  0.52863  0.13913  1.0000
  C   C381      1.0  0.37648  0.90211  0.18296  1.0000
  C   C382      1.0  0.06328  0.71778  0.03599  1.0000
  C   C383      1.0  0.06410  0.55819  0.21045  1.0000
  C   C384      1.0  0.17192  0.75282  0.10197  1.0000
  C   C385      1.0  0.16359  0.77464  0.10065  1.0000
  C   C386      1.0  0.18547  0.80510  0.09995  1.0000
  C   C387      1.0  0.21610  0.81450  0.10072  1.0000
  C   C388      1.0  0.22444  0.79269  0.10209  1.0000
  C   C389      1.0  0.20255  0.76220  0.10261  1.0000
  H   H302      1.0  0.14027  0.76808  0.10032  1.0000
  H   H303      1.0  0.17856  0.82159  0.09892  1.0000
  H   H304      1.0  0.24777  0.79929  0.10267  1.0000
  H   H305      1.0  0.20946  0.74572  0.10364  1.0000
  C   C390      1.0  0.07191  0.54569  0.10180  1.0000
  C   C391      1.0  0.09190  0.55792  0.12277  1.0000
  C   C392      1.0  0.10477  0.54206  0.13388  1.0000
  C   C393      1.0  0.09759  0.51400  0.12409  1.0000
  H   H306      1.0  0.28861  0.97348  0.26053  1.0000
  C   C394      1.0  0.06463  0.51756  0.09230  1.0000
  H   H307      1.0  0.09750  0.57954  0.13030  1.0000
  H   H308      1.0  0.12035  0.55155  0.15002  1.0000
  C   C395      1.0  0.03893  0.52692  0.02588  1.0000
  C   C396      1.0  0.44618  0.97155  0.03984  1.0000
  C   C397      1.0  0.45033  0.51314  0.11308  1.0000
  C   C398      1.0  0.44393  0.51424  0.08644  1.0000
  H   H309      1.0  0.05860  0.59896  0.01472  1.0000
  C   C399      1.0  0.07409  0.61423  0.19556  1.0000
  C   C400      1.0  0.26482  0.49281  0.08059  1.0000
  H   H310      1.0  0.35626  0.86044  0.16223  1.0000
  C   C401      1.0  0.99079  0.62517  0.25676  1.0000
  C   C402      1.0  0.04009  0.57455  0.29086  1.0000
  C   C403      1.0  0.11619  0.72232  0.01703  1.0000
  H   H311      1.0  0.07780  0.63596  0.18992  1.0000
  H   H312      1.0  0.20687  0.82704  0.03836  1.0000
  H   H313      1.0  0.42694  0.85494  0.08734  1.0000
  C   C404      1.0  0.34526  0.96006  0.21096  1.0000
  C   C405      1.0  0.34560  0.51870  0.01222  1.0000
  C   C406      1.0  0.26599  0.92786  0.98953  1.0000
  C   C407      1.0  0.20761  0.80722  0.03303  1.0000
  C   C408      1.0  0.04128  0.56093  0.19814  1.0000
  H   H314      1.0  0.04629  0.51718  0.16370  1.0000
  C   C409      1.0  0.98868  0.53415  0.16406  1.0000
  H   H315      1.0  0.40424  0.86554  0.14813  1.0000
  S   S81       1.0  0.11359  0.49422  0.13818  1.0000
  H   H316      1.0  0.42380  0.49642  0.07799  1.0000
  C   C410      1.0  0.46892  0.93939  0.10056  1.0000
  C   C411      1.0  0.04171  0.54909  0.28503  1.0000
  C   C412      1.0  0.02955  0.52473  0.30243  1.0000
  C   C413      1.0  0.43070  0.90750  0.16758  1.0000
  H   H317      1.0  0.32459  0.95187  0.24942  1.0000
  H   H318      1.0  0.11378  0.61622  0.00236  1.0000
  C   C414      1.0  0.32690  0.48995  0.07904  1.0000
  H   H319      1.0  0.28427  0.50916  0.09110  1.0000
  P   P13       1.0  0.46486  0.96361  0.19017  1.0000
  H   H320      1.0  0.99451  0.49034  0.02577  1.0000
  H   H321      1.0  0.39928  0.52762  0.09929  1.0000
  H   H322      1.0  0.35547  0.90055  0.18816  1.0000
  H   H323      1.0  0.08086  0.56757  0.02593  1.0000
  H   H324      1.0  0.06053  0.53674  0.21674  1.0000
  H   H325      1.0  0.43535  0.94005  0.24090  1.0000
  H   H326      1.0  0.25817  0.88936  0.04616  1.0000
  C   C415      1.0  0.35940  0.54306  0.99516  1.0000
  H   H327      1.0  0.09254  0.54004  0.28736  1.0000
  C   C416      1.0  0.40399  0.88241  0.16047  1.0000
  C   C417      1.0  0.40312  0.92733  0.18994  1.0000
  H   H328      1.0  0.04927  0.59321  0.27730  1.0000
  H   H329      1.0  0.37626  0.50031  0.14054  1.0000
  H   H330      1.0  0.40212  0.94504  0.20023  1.0000
  H   H331      1.0  0.46963  0.48947  0.04929  1.0000
  C   C418      1.0  0.34415  0.96630  0.23799  1.0000
  C   C419      1.0  0.10898  0.52969  0.25246  1.0000
  S   S82       1.0  0.33872  0.96569  0.02890  1.0000
  C   C420      1.0  0.26404  0.89672  0.02587  1.0000
  H   H332      1.0  0.32657  0.94122  0.20186  1.0000
  C   C421      1.0  0.28804  0.96203  0.30112  1.0000
  C   C422      1.0  0.12665  0.63653  0.01333  1.0000
  C   C423      1.0  0.09195  0.58327  0.21458  1.0000
  H   H333      1.0  0.31682  0.57461  0.00750  1.0000
  C   C424      1.0  0.37691  0.87962  0.16830  1.0000
  H   H334      1.0  0.04895  0.50785  0.07636  1.0000
  H   H335      1.0  0.05184  0.54835  0.26665  1.0000
  H   H336      1.0  0.40534  0.89683  0.02608  1.0000
  C   C425      1.0  0.00814  0.51401  0.02333  1.0000
  H   H337      1.0  0.10972  0.58100  0.22341  1.0000
  C   C426      1.0  0.38496  0.98031  0.99259  1.0000
  C   C427      1.0  0.44472  0.96389  0.24117  1.0000
  P   P14       1.0  0.14979  0.72380  0.00560  1.0000
  H   H338      1.0  0.43612  0.49589  0.31219  1.0000
  C   C428      1.0  0.45987  0.98110  0.21899  1.0000
  H   H339      1.0  0.35404  0.50338  0.01346  1.0000
  H   H340      1.0  0.27516  0.97300  0.18070  1.0000
  H   H341      1.0  0.13413  0.74085  0.05531  1.0000
  H   H342      1.0  0.21034  0.73577  0.01678  1.0000
  C   C429      1.0  0.10292  0.50931  0.23218  1.0000
  H   H343      1.0  0.08553  0.49227  0.31511  1.0000
  H   H344      1.0  0.02905  0.59192  0.18186  1.0000
  C   C430      1.0  0.31099  0.53463  0.02589  1.0000
  C   C431      1.0  0.37543  0.51307  0.10023  1.0000
  C   C432      1.0  0.10042  0.52147  0.99979  1.0000
  C   C433      1.0  0.39068  0.91302  0.99331  1.0000
  C   C434      1.0  0.32483  0.55896  0.00879  1.0000
  C   C435      1.0  0.00886  0.49633  0.19072  1.0000
  C   C436      1.0  0.43052  0.93006  0.18264  1.0000
  H   H345      1.0  0.36867  0.52063  0.06007  1.0000
  C   C437      1.0  0.46325  0.53886  0.07089  1.0000
  P   P15       1.0  0.00483  0.52897  0.19388  1.0000
  C   C438      1.0  0.04642  0.58917  0.19095  1.0000
  H   H346      1.0  0.35533  0.85471  0.03541  1.0000
  C   C439      1.0  0.07733  0.50173  0.10338  1.0000
  H   H347      1.0  0.45123  0.90941  0.16054  1.0000
  C   C440      1.0  0.02532  0.57549  0.31352  1.0000
  H   H348      1.0  0.42884  0.96395  0.28053  1.0000
  C   C441      1.0  0.15451  0.66197  0.05234  1.0000
  C   C442      1.0  0.13857  0.63582  0.03791  1.0000
  H   H349      1.0  0.28152  0.93921  0.29679  1.0000
  C   C443      1.0  0.03119  0.49717  0.17437  1.0000
  C   C444      1.0  0.14727  0.68982  0.01732  1.0000
  C   C445      1.0  0.15874  0.68882  0.04215  1.0000
  C   C446      1.0  0.33404  0.86560  0.00420  1.0000
  C   C447      1.0  0.25824  0.91825  0.01558  1.0000
  C   C448      1.0  0.04464  0.57515  0.01652  1.0000
  C   C449      1.0  0.09788  0.49982  0.01773  1.0000
  C   C450      1.0  0.29214  0.98168  0.28051  1.0000
  H   H350      1.0  0.97863  0.56247  0.05320  1.0000
  C   C451      1.0  0.08872  0.73027  0.05178  1.0000
  C   C452      1.0  0.11496  0.73217  0.04247  1.0000
  P   P16       1.0  0.03141  0.49157  0.29521  1.0000
  C   C453      1.0  0.20928  0.75556  0.02125  1.0000
  H   H351      1.0  0.25274  0.82486  0.04620  1.0000
  C   C454      1.0  0.38670  0.89343  0.01389  1.0000
  H   H352      1.0  0.08795  0.73779  0.07153  1.0000
  C   C455      1.0  0.18268  0.75613  0.01782  1.0000
  H   H353      1.0  0.11777  0.54429  0.00235  1.0000
  C   C456      1.0  0.23458  0.78040  0.03117  1.0000
  C   C457      1.0  0.23364  0.80610  0.03731  1.0000
  H   H354      1.0  0.46334  0.94413  0.02643  1.0000
  C   C458      1.0  0.00274  0.63158  0.99884  1.0000
  H   H355      1.0  0.16272  0.66139  0.07189  1.0000
  H   H356      1.0  0.11304  0.50584  0.03431  1.0000
  H   H357      1.0  0.29237  0.53189  0.03763  1.0000
  C   C459      1.0  0.06414  0.70734  0.01083  1.0000
  H   H358      1.0  0.17015  0.70860  0.05412  1.0000
  H   H359      1.0  0.01373  0.52274  0.13699  1.0000
  H   H360      1.0  0.25472  0.77954  0.03477  1.0000
  C   C460      1.0  0.35829  0.97976  0.99838  1.0000
  C   C461      1.0  0.05717  0.55750  0.02268  1.0000
  H   H361      1.0  0.13472  0.61495  0.04620  1.0000
  H   H362      1.0  0.28247  0.86868  0.01861  1.0000
  H   H363      1.0  0.04583  0.63565  0.99446  1.0000
  H   H364      1.0  0.02290  0.59473  0.31734  1.0000
  H   H365      1.0  0.41254  0.93172  0.98932  1.0000
  C   C462      1.0  0.46816  0.96675  0.02884  1.0000
  C   C463      1.0  0.01389  0.56220  0.01351  1.0000
  C   C464      1.0  0.08732  0.52427  0.27152  1.0000
  H   H366      1.0  0.31230  0.84727  0.00909  1.0000
  H   H367      1.0  0.13058  0.54956  0.25347  1.0000
  H   H368      1.0  0.42751  0.97178  0.15101  1.0000
  C   C465      1.0  0.32128  0.51429  0.02774  1.0000
  C   C466      1.0  0.23676  0.48778  0.08823  1.0000
  H   H369      1.0  0.42488  0.95286  0.04549  1.0000
  H   H370      1.0  0.01334  0.56707  0.23994  1.0000
  C   C467      1.0  0.13045  0.66330  0.00330  1.0000
  C   C468      1.0  0.47655  0.53641  0.12382  1.0000
  H   H371      1.0  0.39436  0.97189  0.00694  1.0000
  C   C469      1.0  0.98332  0.53188  0.11633  1.0000
  H   H372      1.0  0.97925  0.56510  0.27469  1.0000
  C   C470      1.0  0.99536  0.53164  0.01746  1.0000
  H   H373      1.0  0.04868  0.51330  0.03065  1.0000
  C   C471      1.0  0.44117  0.97731  0.26370  1.0000
  H   H374      1.0  0.24809  0.92774  0.02794  1.0000
  C   C472      1.0  0.09038  0.70926  0.00145  1.0000
  H   H375      1.0  0.04410  0.69683  0.99897  1.0000
  C   C473      1.0  0.27823  0.88532  0.01030  1.0000
  S   S83       1.0  0.98708  0.62714  0.29192  1.0000
  C   C474      1.0  0.99090  0.54855  0.24035  1.0000
  C   C475      1.0  0.36243  0.49787  0.12361  1.0000
  H   H376      1.0  0.23458  0.49979  0.10470  1.0000
  C   C476      1.0  0.37016  0.97869  0.19564  1.0000
  H   H377      1.0  0.99036  0.52856  0.09714  1.0000
  H   H378      1.0  0.31862  0.91450  0.49830  1.0000
  C   C477      1.0  0.99547  0.61523  0.49687  1.0000
  C   C478      1.0  0.15324  0.60005  0.57333  1.0000
  H   H379      1.0  0.14646  0.61584  0.57929  1.0000
  H   H380      1.0  0.02641  0.68418  0.37379  1.0000
  C   C479      1.0  0.17852  0.57249  0.58281  1.0000
  Fe  Fe41      1.0  0.05246  0.65915  0.55938  1.0000
  S   S84       1.0  0.09627  0.65994  0.55915  1.0000
  S   S85       1.0  0.03788  0.66928  0.51928  1.0000
  Fe  Fe42      1.0  0.04332  0.64305  0.61965  1.0000
  S   S86       1.0  0.08634  0.64221  0.62196  1.0000
  Fe  Fe43      1.0  0.10646  0.68473  0.59768  1.0000
  S   S87       1.0  0.15495  0.72034  0.60772  1.0000
  Fe  Fe44      1.0  0.07294  0.61815  0.58325  1.0000
  S   S88       1.0  0.07354  0.57721  0.56833  1.0000
  S   S89       1.0  0.06379  0.68672  0.59699  1.0000
  S   S90       1.0  0.02884  0.61633  0.58179  1.0000
  Fe  Fe45      1.0  0.29645  0.89385  0.59896  1.0000
  S   S91       1.0  0.31414  0.94351  0.59418  1.0000
  S   S92       1.0  0.24608  0.86059  0.59461  1.0000
  Fe  Fe46      1.0  0.35844  0.90359  0.60865  1.0000
  S   S93       1.0  0.37989  0.95265  0.60437  1.0000
  S   S94       1.0  0.38454  0.88080  0.61964  1.0000
  Fe  Fe47      1.0  0.34291  0.94901  0.62997  1.0000
  Fe  Fe48      1.0  0.35036  0.94418  0.56886  1.0000
  H   H381      1.0  0.46781  0.51593  0.53092  1.0000
  S   S95       1.0  0.32273  0.89991  0.63621  1.0000
  S   S96       1.0  0.33129  0.89461  0.57170  1.0000
  C   C480      1.0  0.42270  0.90007  0.61115  1.0000
  C   C481      1.0  0.44150  0.88946  0.61972  1.0000
  C   C482      1.0  0.01446  0.65824  0.46862  1.0000
  C   C483      1.0  0.43435  0.92536  0.59519  1.0000
  H   H382      1.0  0.27952  0.83744  0.56308  1.0000
  H   H383      1.0  0.47673  0.51857  0.44618  1.0000
  H   H384      1.0  0.42017  0.93364  0.58827  1.0000
  C   C484      1.0  0.14769  0.49874  0.53145  1.0000
  H   H385      1.0  0.15813  0.49018  0.64128  1.0000
  H   H386      1.0  0.00392  0.50722  0.33841  1.0000
  C   C485      1.0  0.01432  0.64577  0.49343  1.0000
  C   C486      1.0  0.18241  0.51060  0.57810  1.0000
  H   H387      1.0  0.12623  0.73166  0.53051  1.0000
  H   H388      1.0  0.41907  0.51872  0.60418  1.0000
  H   H389      1.0  0.47451  0.60696  0.54216  1.0000
  C   C487      1.0  0.17994  0.75927  0.60273  1.0000
  C   C488      1.0  0.17061  0.77869  0.59333  1.0000
  C   C489      1.0  0.19113  0.80943  0.59093  1.0000
  C   C490      1.0  0.22136  0.82132  0.59757  1.0000
  C   C491      1.0  0.23076  0.80179  0.60644  1.0000
  C   C492      1.0  0.21023  0.77114  0.60912  1.0000
  H   H390      1.0  0.14749  0.77012  0.58830  1.0000
  H   H391      1.0  0.18343  0.82414  0.58399  1.0000
  H   H392      1.0  0.25381  0.81030  0.61145  1.0000
  H   H393      1.0  0.21787  0.75649  0.61635  1.0000
  C   C493      1.0  0.08067  0.55373  0.58860  1.0000
  C   C494      1.0  0.07651  0.52697  0.57808  1.0000
  H   H394      1.0  0.02866  0.68184  0.46567  1.0000
  C   C495      1.0  0.09351  0.51582  0.61890  1.0000
  C   C496      1.0  0.09761  0.54254  0.62952  1.0000
  C   C497      1.0  0.09119  0.56146  0.61444  1.0000
  H   H395      1.0  0.06838  0.52084  0.55815  1.0000
  H   H396      1.0  0.05218  0.61978  0.50460  1.0000
  C   C498      1.0  0.27155  0.80013  0.53870  1.0000
  H   H397      1.0  0.09468  0.58213  0.62269  1.0000
  C   C499      1.0  0.45773  0.51919  0.58823  1.0000
  H   H398      1.0  0.26657  0.76049  0.52006  1.0000
  C   C500      1.0  0.26483  0.57647  0.52923  1.0000
  C   C501      1.0  0.44211  0.53240  0.59852  1.0000
  C   C502      1.0  0.16776  0.55661  0.55917  1.0000
  C   C503      1.0  0.16020  0.77163  0.51189  1.0000
  P   P17       1.0  0.25078  0.80720  0.51386  1.0000
  C   C504      1.0  0.08270  0.50799  0.59323  1.0000
  H   H399      1.0  0.30650  0.81456  0.49223  1.0000
  H   H400      1.0  0.03996  0.50106  0.40117  1.0000
  C   C505      1.0  0.15138  0.56417  0.54189  1.0000
  H   H401      1.0  0.01653  0.52702  0.48187  1.0000
  H   H402      1.0  0.23206  0.77688  0.42003  1.0000
  C   C506      1.0  0.14989  0.74594  0.52715  1.0000
  H   H403      1.0  0.28608  0.58710  0.53931  1.0000
  C   C507      1.0  0.46401  0.50937  0.46399  1.0000
  H   H404      1.0  0.41398  0.93668  0.41353  1.0000
  C   C508      1.0  0.08121  0.51706  0.48750  1.0000
  H   H405      1.0  0.40407  0.93685  0.53695  1.0000
  C   C509      1.0  0.45635  0.56350  0.60130  1.0000
  C   C510      1.0  0.43690  0.94176  0.41504  1.0000
  C   C511      1.0  0.29800  0.80123  0.45169  1.0000
  C   C512      1.0  0.00082  0.50537  0.40039  1.0000
  H   H406      1.0  0.28754  0.92991  0.52325  1.0000
  C   C513      1.0  0.97815  0.60988  0.45083  1.0000
  H   H407      1.0  0.17813  0.60507  0.60879  1.0000
  H   H408      1.0  0.01791  0.55734  0.60095  1.0000
  H   H409      1.0  0.44414  0.57362  0.60918  1.0000
  C   C514      1.0  0.24815  0.78474  0.43593  1.0000
  H   H410      1.0  0.99713  0.65036  0.42863  1.0000
  H   H411      1.0  0.28419  0.58880  0.49045  1.0000
  C   C515      1.0  0.14377  0.58548  0.54916  1.0000
  H   H412      1.0  0.23969  0.56136  0.56517  1.0000
  C   C516      1.0  0.20993  0.54914  0.50331  1.0000
  C   C517      1.0  0.23631  0.56391  0.48877  1.0000
  C   C518      1.0  0.46149  0.92812  0.51630  1.0000
  H   H413      1.0  0.19240  0.56816  0.59594  1.0000
  H   H414      1.0  0.14401  0.55320  0.52307  1.0000
  H   H415      1.0  0.41751  0.89786  0.53085  1.0000
  H   H416      1.0  0.18884  0.53899  0.49303  1.0000
  H   H417      1.0  0.23550  0.56484  0.46744  1.0000
  H   H418      1.0  0.21573  0.75189  0.54464  1.0000
  H   H419      1.0  0.11237  0.50449  0.54786  1.0000
  C   C519      1.0  0.26375  0.57746  0.50171  1.0000
  H   H420      1.0  0.32059  0.80615  0.44802  1.0000
  C   C520      1.0  0.23850  0.56174  0.54382  1.0000
  C   C521      1.0  0.98973  0.52495  0.40180  1.0000
  C   C522      1.0  0.03140  0.51626  0.40168  1.0000
  C   C523      1.0  0.05091  0.54672  0.40397  1.0000
  C   C524      1.0  0.03993  0.56655  0.40495  1.0000
  C   C525      1.0  0.00915  0.55539  0.40458  1.0000
  P   P18       1.0  0.06543  0.60542  0.41010  1.0000
  C   C526      1.0  0.07481  0.60848  0.44467  1.0000
  C   C527      1.0  0.09748  0.61687  0.38927  1.0000
  C   C528      1.0  0.12526  0.64039  0.39689  1.0000
  C   C529      1.0  0.14985  0.65005  0.38018  1.0000
  C   C530      1.0  0.34531  0.98238  0.49151  1.0000
  C   C531      1.0  0.11896  0.61359  0.34769  1.0000
  C   C532      1.0  0.09436  0.60384  0.36437  1.0000
  C   C533      1.0  0.09720  0.60276  0.45341  1.0000
  C   C534      1.0  0.10357  0.60369  0.48034  1.0000
  C   C535      1.0  0.08741  0.60997  0.49870  1.0000
  C   C536      1.0  0.06472  0.61505  0.49020  1.0000
  C   C537      1.0  0.05817  0.61400  0.46331  1.0000
  C   C538      1.0  0.05117  0.62931  0.39998  1.0000
  C   C539      1.0  0.03286  0.62228  0.37764  1.0000
  C   C540      1.0  0.02390  0.64197  0.36832  1.0000
  C   C541      1.0  0.03357  0.66907  0.38097  1.0000
  C   C542      1.0  0.05238  0.67660  0.40284  1.0000
  C   C543      1.0  0.06125  0.65686  0.41228  1.0000
  C   C544      1.0  0.08814  0.50352  0.46709  1.0000
  H   H421      1.0  0.07453  0.55474  0.40529  1.0000
  H   H422      1.0  0.99998  0.56999  0.40679  1.0000
  H   H423      1.0  0.12784  0.65151  0.41557  1.0000
  H   H424      1.0  0.17126  0.66825  0.38613  1.0000
  H   H425      1.0  0.32686  0.97452  0.50506  1.0000
  C   C545      1.0  0.17086  0.59378  0.59003  1.0000
  H   H426      1.0  0.07288  0.58644  0.35766  1.0000
  H   H427      1.0  0.10958  0.59735  0.43948  1.0000
  H   H428      1.0  0.12097  0.59950  0.48704  1.0000
  H   H429      1.0  0.09228  0.61077  0.51959  1.0000
  C   C546      1.0  0.45678  0.95676  0.39447  1.0000
  H   H430      1.0  0.04003  0.61732  0.45715  1.0000
  H   H431      1.0  0.02567  0.60173  0.36725  1.0000
  C   C547      1.0  0.16684  0.50738  0.60161  1.0000
  H   H432      1.0  0.15148  0.51568  0.60313  1.0000
  H   H433      1.0  0.05982  0.69759  0.41272  1.0000
  H   H434      1.0  0.07607  0.66327  0.42907  1.0000
  H   H435      1.0  0.28354  0.78735  0.41177  1.0000
  C   C548      1.0  0.43333  0.92064  0.52571  1.0000
  C   C549      1.0  0.42584  0.94272  0.52933  1.0000
  C   C550      1.0  0.47521  0.98024  0.51502  1.0000
  C   C551      1.0  0.45884  0.50800  0.51147  1.0000
  C   C552      1.0  0.21091  0.54752  0.53092  1.0000
  C   C553      1.0  0.17037  0.49266  0.62323  1.0000
  C   C554      1.0  0.21129  0.78337  0.51947  1.0000
  C   C555      1.0  0.20067  0.75757  0.53493  1.0000
  H   H436      1.0  0.00954  0.63630  0.35117  1.0000
  H   H437      1.0  0.25580  0.92331  0.62606  1.0000
  C   C556      1.0  0.20055  0.49770  0.57614  1.0000
  H   H438      1.0  0.43139  0.92248  0.45378  1.0000
  C   C557      1.0  0.26066  0.79963  0.48174  1.0000
  H   H439      1.0  0.11098  0.51256  0.46075  1.0000
  C   C558      1.0  0.23993  0.78929  0.46102  1.0000
  H   H440      1.0  0.16210  0.71923  0.55077  1.0000
  H   H441      1.0  0.12976  0.59017  0.53652  1.0000
  P   P19       1.0  0.17709  0.52866  0.54987  1.0000
  C   C559      1.0  0.27715  0.79067  0.43127  1.0000
  C   C560      1.0  0.44675  0.93383  0.43771  1.0000
  C   C561      1.0  0.19074  0.79021  0.50794  1.0000
  H   H442      1.0  0.44937  0.96353  0.37708  1.0000
  C   C562      1.0  0.24401  0.85512  0.52923  1.0000
  H   H443      1.0  0.99458  0.60522  0.51584  1.0000
  C   C563      1.0  0.28987  0.80584  0.47678  1.0000
  C   C564      1.0  0.99321  0.51527  0.47683  1.0000
  C   C565      1.0  0.14672  0.63661  0.35563  1.0000
  C   C566      1.0  0.17012  0.73887  0.53850  1.0000
  H   H444      1.0  0.22402  0.83916  0.53941  1.0000
  C   C567      1.0  0.98089  0.53122  0.46548  1.0000
  C   C568      1.0  0.99661  0.64047  0.44751  1.0000
  H   H445      1.0  0.07927  0.48733  0.58505  1.0000
  C   C569      1.0  0.11803  0.49178  0.53466  1.0000
  C   C570      1.0  0.05189  0.50486  0.49624  1.0000
  C   C571      1.0  0.29751  0.89781  0.50650  1.0000
  H   H446      1.0  0.21746  0.78486  0.46402  1.0000
  C   C572      1.0  0.27626  0.77586  0.53630  1.0000
  H   H447      1.0  0.31128  0.83023  0.59497  1.0000
  C   C573      1.0  0.29361  0.77134  0.55490  1.0000
  C   C574      1.0  0.46423  0.93943  0.58723  1.0000
  C   C575      1.0  0.47652  0.94105  0.43992  1.0000
  C   C576      1.0  0.26131  0.84600  0.51510  1.0000
  C   C577      1.0  0.01761  0.54696  0.64207  1.0000
  C   C578      1.0  0.30640  0.79104  0.57594  1.0000
  H   H448      1.0  0.14446  0.77723  0.50333  1.0000
  H   H449      1.0  0.32014  0.78783  0.59021  1.0000
  H   H450      1.0  0.21173  0.49862  0.55785  1.0000
  H   H451      1.0  0.19833  0.81000  0.49602  1.0000
  C   C579      1.0  0.30142  0.81494  0.57864  1.0000
  C   C580      1.0  0.28374  0.81924  0.56030  1.0000
  C   C581      1.0  0.01470  0.52592  0.32514  1.0000
  H   H452      1.0  0.43267  0.86993  0.63212  1.0000
  H   H453      1.0  0.24022  0.89205  0.54348  1.0000
  C   C582      1.0  0.43518  0.48512  0.46190  1.0000
  H   H454      1.0  0.46760  0.91112  0.51409  1.0000
  H   H455      1.0  0.10594  0.54870  0.64943  1.0000
  H   H456      1.0  0.29726  0.75265  0.55298  1.0000
  C   C583      1.0  0.00511  0.55087  0.61908  1.0000
  H   H457      1.0  0.30253  0.86147  0.49346  1.0000
  H   H458      1.0  0.04021  0.55111  0.64143  1.0000
  H   H459      1.0  0.47194  0.56191  0.52498  1.0000
  C   C584      1.0  0.47156  0.90367  0.61184  1.0000
  C   C585      1.0  0.28003  0.90658  0.52053  1.0000
  C   C586      1.0  0.25326  0.88525  0.53176  1.0000
  C   C587      1.0  0.28823  0.86765  0.50379  1.0000
  S   S97       1.0  0.10254  0.49291  0.63792  1.0000
  H   H460      1.0  0.29127  0.95708  0.34304  1.0000
  H   H461      1.0  0.30350  0.82098  0.64643  1.0000
  C   C588      1.0  0.98485  0.48783  0.57182  1.0000
  H   H462      1.0  0.00039  0.55129  0.34780  1.0000
  C   C589      1.0  0.47614  0.52113  0.48884  1.0000
  H   H463      1.0  0.09852  0.53678  0.49691  1.0000
  H   H464      1.0  0.04704  0.51551  0.51234  1.0000
  H   H465      1.0  0.16572  0.64433  0.34259  1.0000
  H   H466      1.0  0.11638  0.60354  0.32846  1.0000
  C   C590      1.0  0.29363  0.97211  0.32716  1.0000
  S   S98       1.0  0.37571  0.97060  0.53145  1.0000
  C   C591      1.0  0.01259  0.55112  0.33059  1.0000
  C   C592      1.0  0.26010  0.92141  0.64670  1.0000
  H   H467      1.0  0.99473  0.55477  0.46170  1.0000
  H   H468      1.0  0.47278  0.95859  0.57440  1.0000
  C   C593      1.0  0.37143  0.98286  0.49939  1.0000
  C   C594      1.0  0.44661  0.97241  0.52398  1.0000
  H   H469      1.0  0.14000  0.76217  0.65016  1.0000
  H   H470      1.0  0.23794  0.87398  0.64565  1.0000
  H   H471      1.0  0.17651  0.48438  0.51398  1.0000
  C   C595      1.0  0.02790  0.49220  0.67087  1.0000
  H   H472      1.0  0.25905  0.82507  0.65583  1.0000
  C   C596      1.0  0.47323  0.48483  0.69900  1.0000
  C   C597      1.0  0.10893  0.59014  0.70218  1.0000
  H   H473      1.0  0.08319  0.53059  0.96463  1.0000
  C   C598      1.0  0.33237  0.92364  0.88228  1.0000
  H   H474      1.0  0.13398  0.75593  0.96745  1.0000
  C   C599      1.0  0.27257  0.91621  0.69949  1.0000
  C   C600      1.0  0.35126  0.96119  0.71238  1.0000
  H   H475      1.0  0.24027  0.84333  0.96761  1.0000
  C   C601      1.0  0.00601  0.62743  0.68800  1.0000
  C   C602      1.0  0.03005  0.64846  0.70284  1.0000
  C   C603      1.0  0.02729  0.65051  0.73046  1.0000
  C   C604      1.0  0.00063  0.63147  0.74386  1.0000
  H   H476      1.0  0.03948  0.62291  0.94662  1.0000
  H   H477      1.0  0.05065  0.66349  0.69300  1.0000
  H   H478      1.0  0.04597  0.66716  0.74153  1.0000
  C   C605      1.0  0.41154  0.90735  0.69004  1.0000
  H   H479      1.0  0.26163  0.94471  0.98162  1.0000
  H   H480      1.0  0.33888  0.94203  0.94710  1.0000
  C   C606      1.0  0.23032  0.79852  0.96152  1.0000
  C   C607      1.0  0.28042  0.84083  0.96190  1.0000
  C   C608      1.0  0.25565  0.89052  0.68443  1.0000
  C   C609      1.0  0.27236  0.79124  0.95417  1.0000
  H   H481      1.0  0.09020  0.70001  0.98230  1.0000
  C   C610      1.0  0.24956  0.82905  0.96395  1.0000
  H   H482      1.0  0.47639  0.51496  0.97588  1.0000
  C   C611      1.0  0.28274  0.94424  0.68827  1.0000
  C   C612      1.0  0.44117  0.92195  0.69827  1.0000
  C   C613      1.0  0.02402  0.54808  0.94195  1.0000
  H   H483      1.0  0.04033  0.59780  0.68423  1.0000
  C   C614      1.0  0.28004  0.91633  0.97386  1.0000
  S   S99       1.0  0.99833  0.63593  0.77877  1.0000
  C   C615      1.0  0.02839  0.52541  0.95193  1.0000
  H   H484      1.0  0.37692  0.91188  0.67074  1.0000
  C   C616      1.0  0.02172  0.62345  0.95732  1.0000
  H   H485      1.0  0.34394  0.94333  0.75203  1.0000
  C   C617      1.0  0.14536  0.74687  0.92921  1.0000
  H   H486      1.0  0.30977  0.87919  0.86707  1.0000
  C   C618      1.0  0.31603  0.89710  0.93248  1.0000
  H   H487      1.0  0.27862  0.91476  0.71967  1.0000
  C   C619      1.0  0.16518  0.71272  0.95582  1.0000
  C   C620      1.0  0.24172  0.77962  0.95677  1.0000
  H   H488      1.0  0.40825  0.96516  0.66228  1.0000
  C   C621      1.0  0.30786  0.87951  0.90961  1.0000
  H   H489      1.0  0.02427  0.56466  0.95502  1.0000
  C   C622      1.0  0.97941  0.60816  0.70145  1.0000
  H   H490      1.0  0.31537  0.83053  0.95435  1.0000
  C   C623      1.0  0.00583  0.55995  0.73932  1.0000
  H   H491      1.0  0.99582  0.57858  0.77311  1.0000
  H   H492      1.0  0.12820  0.58805  0.70683  1.0000
  C   C624      1.0  0.02247  0.50237  0.69475  1.0000
  C   C625      1.0  0.11246  0.61783  0.69549  1.0000
  H   H493      1.0  0.22222  0.79064  0.69094  1.0000
  H   H494      1.0  0.20658  0.78954  0.96353  1.0000
  C   C626      1.0  0.31605  0.89278  0.88464  1.0000
  H   H495      1.0  0.21951  0.84928  0.80774  1.0000
  C   C627      1.0  0.05929  0.59541  0.68952  1.0000
  C   C628      1.0  0.43840  0.95657  0.76554  1.0000
  H   H496      1.0  0.28120  0.77661  0.95037  1.0000
  H   H497      1.0  0.37022  0.92469  0.96263  1.0000
  H   H498      1.0  0.01849  0.48666  0.89511  1.0000
  H   H499      1.0  0.15865  0.73396  0.89367  1.0000
  C   C629      1.0  0.02188  0.48775  0.71835  1.0000
  C   C630      1.0  0.35260  0.96332  0.74027  1.0000
  C   C631      1.0  0.33766  0.88536  0.98363  1.0000
  C   C632      1.0  0.24985  0.89339  0.65790  1.0000
  C   C633      1.0  0.18058  0.77339  0.67070  1.0000
  H   H500      1.0  0.45033  0.90964  0.70789  1.0000
  C   C634      1.0  0.46916  0.57374  0.67011  1.0000
  H   H501      1.0  0.09024  0.64186  0.68401  1.0000
  C   C635      1.0  0.29166  0.82177  0.95654  1.0000
  C   C636      1.0  0.32716  0.86223  0.70241  1.0000
  H   H502      1.0  0.14726  0.81300  0.65310  1.0000
  H   H503      1.0  0.13444  0.63725  0.69498  1.0000
  C   C637      1.0  0.16733  0.71528  0.92831  1.0000
  C   C638      1.0  0.99750  0.53432  0.72427  1.0000
  H   H504      1.0  0.07510  0.50123  0.90553  1.0000
  C   C639      1.0  0.21775  0.86752  0.77001  1.0000
  C   C640      1.0  0.22441  0.85029  0.78686  1.0000
  C   C641      1.0  0.23710  0.83414  0.77671  1.0000
  C   C642      1.0  0.24347  0.83550  0.74975  1.0000
  C   C643      1.0  0.23764  0.85346  0.73287  1.0000
  C   C644      1.0  0.22402  0.86885  0.74305  1.0000
  P   P20       1.0  0.24476  0.85440  0.69800  1.0000
  C   C645      1.0  0.27657  0.84994  0.69185  1.0000
  C   C646      1.0  0.21117  0.82509  0.68333  1.0000
  C   C647      1.0  0.20617  0.79593  0.68265  1.0000
  H   H505      1.0  0.29626  0.96404  0.69977  1.0000
  H   H506      1.0  0.19203  0.85290  0.67451  1.0000
  H   H507      1.0  0.01885  0.49567  0.73718  1.0000
  C   C648      1.0  0.14317  0.74433  0.95670  1.0000
  H   H508      1.0  0.02513  0.58091  0.73424  1.0000
  H   H509      1.0  0.17663  0.70400  0.91726  1.0000
  C   C649      1.0  0.39978  0.92320  0.67744  1.0000
  C   C650      1.0  0.45924  0.95228  0.69339  1.0000
  C   C651      1.0  0.30179  0.86419  0.70806  1.0000
  H   H510      1.0  0.03200  0.52467  0.97275  1.0000
  H   H511      1.0  0.28543  0.92402  0.95375  1.0000
  C   C652      1.0  0.01865  0.54908  0.91507  1.0000
  C   C653      1.0  0.99558  0.61749  0.94364  1.0000
  H   H512      1.0  0.13755  0.76001  0.91890  1.0000
  P   P21       1.0  0.30554  0.88023  0.96494  1.0000
  H   H513      1.0  0.20763  0.87980  0.77782  1.0000
  P   P22       1.0  0.01877  0.53527  0.69556  1.0000
  H   H514      1.0  0.24187  0.82045  0.78970  1.0000
  H   H515      1.0  0.25285  0.82250  0.74210  1.0000
  H   H516      1.0  0.21830  0.88194  0.73018  1.0000
  C   C654      1.0  0.00146  0.53870  0.66579  1.0000
  H   H517      1.0  0.44562  0.56615  0.66871  1.0000
  H   H518      1.0  0.42002  0.93736  0.75644  1.0000
  H   H519      1.0  0.34667  0.87363  0.71478  1.0000
  C   C655      1.0  0.08061  0.51365  0.97856  1.0000
  C   C656      1.0  0.18927  0.83089  0.67338  1.0000
  C   C657      1.0  0.15728  0.73223  0.91500  1.0000
  H   H520      1.0  0.46241  0.53057  0.67883  1.0000
  H   H521      1.0  0.30210  0.87737  0.72471  1.0000
  H   H522      1.0  0.17728  0.75114  0.66919  1.0000
  C   C658      1.0  0.33243  0.92806  0.92981  1.0000
  C   C659      1.0  0.08762  0.62046  0.68928  1.0000
  H   H523      1.0  0.29515  0.85561  0.91086  1.0000
  H   H524      1.0  0.07839  0.54383  0.70778  1.0000
  H   H525      1.0  0.34161  0.93974  0.70295  1.0000
  H   H526      1.0  0.01490  0.56646  0.90737  1.0000
  C   C660      1.0  0.41781  0.95347  0.67238  1.0000
  C   C661      1.0  0.02109  0.50419  0.90829  1.0000
  H   H527      1.0  0.41096  0.97417  0.77959  1.0000
  C   C662      1.0  0.05549  0.56752  0.69635  1.0000
  H   H528      1.0  0.39783  0.88369  0.69299  1.0000
  C   C663      1.0  0.34048  0.94124  0.90486  1.0000
  C   C664      1.0  0.16369  0.80826  0.66148  1.0000
  H   H529      1.0  0.34753  0.84547  0.67543  1.0000
  C   C665      1.0  0.32764  0.84635  0.68036  1.0000
  C   C666      1.0  0.27748  0.83457  0.66948  1.0000
  S   S100      1.0  0.99256  0.60883  0.90897  1.0000
  C   C667      1.0  0.44786  0.96809  0.67982  1.0000
  C   C668      1.0  0.43325  0.97726  0.77853  1.0000
  C   C669      1.0  0.27666  0.94686  0.66185  1.0000
  C   C670      1.0  0.08055  0.56505  0.70270  1.0000
  C   C671      1.0  0.02758  0.50361  0.93514  1.0000
  H   H530      1.0  0.33880  0.93405  0.86298  1.0000
  C   C672      1.0  0.36634  0.90897  0.97819  1.0000
  H   H531      1.0  0.01237  0.52764  0.87750  1.0000
  H   H532      1.0  0.22684  0.75598  0.95510  1.0000
  C   C673      1.0  0.28702  0.89548  0.98438  1.0000
  S   S101      1.0  0.00766  0.62446  0.65280  1.0000
  C   C674      1.0  0.01722  0.52717  0.89826  1.0000
  C   C675      1.0  0.98913  0.55880  0.76142  1.0000
  H   H533      1.0  0.35312  0.96519  0.90301  1.0000
  C   C676      1.0  0.02537  0.63058  0.98456  1.0000
  H   H534      1.0  0.47052  0.94427  0.75434  1.0000
  C   C677      1.0  0.30277  0.83246  0.66396  1.0000
  H   H535      1.0  0.46782  0.88528  0.96920  1.0000
  C   C678      1.0  0.15255  0.72677  0.97014  1.0000
  C   C679      1.0  0.46719  0.96069  0.76432  1.0000
  H   H536      1.0  0.17342  0.69982  0.96584  1.0000
  C   C680      1.0  0.15946  0.77959  0.65996  1.0000
  H   H537      1.0  0.02966  0.50341  0.65246  1.0000
  H   H538      1.0  0.37824  0.54639  0.98336  1.0000
  H   H539      1.0  0.35977  0.58211  0.98028  1.0000
  H   H540      1.0  0.28552  0.96864  0.65298  1.0000
  H   H541      1.0  0.11978  0.66320  0.98490  1.0000
  H   H542      1.0  0.60732  0.10595  0.21427  1.0000
  H   H543      1.0  0.52365  0.11788  0.22726  1.0000
  C   C681      1.0  0.64484  0.98789  0.01747  1.0000
  H   H544      1.0  0.72669  0.00486  0.20336  1.0000
  H   H545      1.0  0.52021  0.43482  0.17384  1.0000
  C   C682      1.0  0.54027  0.43828  0.10064  1.0000
  C   C683      1.0  0.95725  0.42308  0.99291  1.0000
  C   C684      1.0  0.97343  0.46942  0.27603  1.0000
  H   H546      1.0  0.97422  0.33156  0.14562  1.0000
  C   C685      1.0  0.95662  0.41645  0.13458  1.0000
  H   H547      1.0  0.60650  0.44109  0.11118  1.0000
  C   C686      1.0  0.90455  0.42213  0.05065  1.0000
  C   C687      1.0  0.84711  0.31863  0.08455  1.0000
  H   H548      1.0  0.82520  0.30927  0.07579  1.0000
  C   C688      1.0  0.97232  0.44715  0.13054  1.0000
  H   H549      1.0  0.96930  0.46167  0.14389  1.0000
  H   H550      1.0  0.55658  0.09685  0.22142  1.0000
  C   C689      1.0  0.54052  0.45569  0.12190  1.0000
  C   C690      1.0  0.50898  0.42176  0.28477  1.0000
  H   H551      1.0  0.52295  0.03875  0.02159  1.0000
  C   C691      1.0  0.50323  0.00761  0.15497  1.0000
  H   H552      1.0  0.49877  0.11314  0.27032  1.0000
  C   C692      1.0  0.51326  0.10385  0.26775  1.0000
  H   H553      1.0  0.53383  0.48174  0.00143  1.0000
  C   C693      1.0  0.48830  0.45569  0.09745  1.0000
  C   C694      1.0  0.68049  0.00443  0.13638  1.0000
  C   C695      1.0  0.54599  0.09446  0.24029  1.0000
  H   H554      1.0  0.59075  0.01700  0.99998  1.0000
  C   C696      1.0  0.60968  0.02725  0.03846  1.0000
  H   H555      1.0  0.56771  0.22327  0.99828  1.0000
  C   C697      1.0  0.93893  0.41706  0.26921  1.0000
  C   C698      1.0  0.94535  0.44655  0.26846  1.0000
  C   C699      1.0  0.59886  0.08339  0.20756  1.0000
  C   C700      1.0  0.91063  0.45575  0.01491  1.0000
  H   H556      1.0  0.90005  0.38198  0.11328  1.0000
  H   H557      1.0  0.70809  0.98700  0.08286  1.0000
  C   C701      1.0  0.63875  0.09522  0.26277  1.0000
  H   H558      1.0  0.94140  0.40757  0.15109  1.0000
  C   C702      1.0  0.95972  0.33719  0.08084  1.0000
  C   C703      1.0  0.51790  0.08915  0.28872  1.0000
  C   C704      1.0  0.96064  0.39747  0.11749  1.0000
  C   C705      1.0  0.79637  0.99366  0.16365  1.0000
  P   P23       1.0  0.57697  0.06632  0.25869  1.0000
  C   C706      1.0  0.56289  0.03239  0.27745  1.0000
  H   H559      1.0  0.61759  0.09704  0.16864  1.0000
  H   H560      1.0  0.58662  0.99426  0.31564  1.0000
  C   C707      1.0  0.52172  0.19377  0.98858  1.0000
  H   H561      1.0  0.95571  0.38751  0.27848  1.0000
  H   H562      1.0  0.91696  0.39933  0.26396  1.0000
  H   H563      1.0  0.59450  0.11252  0.29968  1.0000
  C   C708      1.0  0.88961  0.35966  0.10559  1.0000
  C   C709      1.0  0.93540  0.47877  0.02765  1.0000
  H   H564      1.0  0.57302  0.00340  0.18373  1.0000
  H   H565      1.0  0.66934  0.01663  0.14161  1.0000
  H   H566      1.0  0.56359  0.41950  0.08048  1.0000
  C   C710      1.0  0.64193  0.13544  0.30088  1.0000
  H   H567      1.0  0.88838  0.31714  0.15575  1.0000
  C   C711      1.0  0.65221  0.02438  0.22948  1.0000
  H   H568      1.0  0.47998  0.47763  0.22767  1.0000
  C   C712      1.0  0.56398  0.43303  0.09688  1.0000
  H   H569      1.0  0.95082  0.42111  0.01345  1.0000
  C   C713      1.0  0.48820  0.47856  0.08265  1.0000
  P   P24       1.0  0.93989  0.35773  0.12273  1.0000
  C   C714      1.0  0.97493  0.32402  0.06961  1.0000
  H   H570      1.0  0.56166  0.01167  0.22898  1.0000
  H   H571      1.0  0.49515  0.37696  0.27310  1.0000
  C   C715      1.0  0.60449  0.02561  0.06560  1.0000
  H   H572      1.0  0.90495  0.44115  0.30791  1.0000
  H   H573      1.0  0.52127  0.00924  0.16693  1.0000
  C   C716      1.0  0.64853  0.01514  0.25608  1.0000
  C   C717      1.0  0.61249  0.09383  0.27183  1.0000
  H   H574      1.0  0.67813  0.98808  0.17553  1.0000
  C   C718      1.0  0.90401  0.34287  0.10700  1.0000
  C   C719      1.0  0.48926  0.39425  0.27380  1.0000
  H   H575      1.0  0.71666  0.01516  0.24862  1.0000
  C   C720      1.0  0.52728  0.10648  0.24352  1.0000
  H   H576      1.0  0.51670  0.01705  0.26805  1.0000
  C   C721      1.0  0.92811  0.34087  0.21255  1.0000
  C   C722      1.0  0.60492  0.07844  0.18176  1.0000
  C   C723      1.0  0.61427  0.11380  0.29134  1.0000
  P   P25       1.0  0.52499  0.98521  0.00798  1.0000
  H   H577      1.0  0.84999  0.27907  0.07890  1.0000
  H   H578      1.0  0.53028  0.42581  0.29211  1.0000
  C   C724      1.0  0.95566  0.36164  0.20214  1.0000
  C   C725      1.0  0.88928  0.31354  0.09771  1.0000
  C   C726      1.0  0.53674  0.07738  0.28560  1.0000
  C   C727      1.0  0.57967  0.02566  0.19025  1.0000
  H   H579      1.0  0.62299  0.03354  0.07921  1.0000
  C   C728      1.0  0.48689  0.02365  0.11665  1.0000
  H   H580      1.0  0.68640  0.02912  0.01560  1.0000
  H   H581      1.0  0.58947  0.48361  0.29135  1.0000
  C   C729      1.0  0.95923  0.36634  0.17489  1.0000
  H   H582      1.0  0.89948  0.29978  0.09933  1.0000
  C   C730      1.0  0.55646  0.00270  0.03016  1.0000
  H   H583      1.0  0.88268  0.30859  0.20381  1.0000
  C   C731      1.0  0.57544  0.01309  0.07510  1.0000
  H   H584      1.0  0.64310  0.15019  0.31650  1.0000
  C   C732      1.0  0.95944  0.34043  0.10835  1.0000
  H   H585      1.0  0.66393  0.04785  0.22500  1.0000
  H   H586      1.0  0.54064  0.06674  0.30228  1.0000
  C   C733      1.0  0.76640  0.98565  0.16155  1.0000
  C   C734      1.0  0.94359  0.47353  0.05265  1.0000
  C   C735      1.0  0.96064  0.41037  0.27743  1.0000
  C   C736      1.0  0.90734  0.32985  0.16842  1.0000
  S   S102      1.0  0.66466  0.04256  0.28151  1.0000
  C   C737      1.0  0.86108  0.30162  0.08630  1.0000
  H   H587      1.0  0.63221  0.03673  0.03108  1.0000
  H   H588      1.0  0.97403  0.46904  0.21851  1.0000
  H   H589      1.0  0.60045  0.04570  0.15329  1.0000
  C   C738      1.0  0.86129  0.34757  0.09435  1.0000
  C   C739      1.0  0.48654  0.44033  0.15327  1.0000
  C   C740      1.0  0.93504  0.35068  0.15783  1.0000
  H   H590      1.0  0.48352  0.02575  0.20312  1.0000
  H   H591      1.0  0.92824  0.45163  0.26277  1.0000
  H   H592      1.0  0.63800  0.07912  0.24880  1.0000
  H   H593      1.0  0.89297  0.40014  0.05926  1.0000
  H   H594      1.0  0.49197  0.03716  0.09903  1.0000
  C   C741      1.0  0.71177  0.98657  0.21592  1.0000
  C   C742      1.0  0.57324  0.03049  0.21595  1.0000
  C   C743      1.0  0.58870  0.46268  0.13527  1.0000
  H   H595      1.0  0.60622  0.04038  0.29018  1.0000
  C   C744      1.0  0.58268  0.05942  0.22480  1.0000
  H   H596      1.0  0.64495  0.01128  0.18835  1.0000
  C   C745      1.0  0.55090  0.07981  0.26137  1.0000
  H   H597      1.0  0.85021  0.36056  0.09336  1.0000
  C   C746      1.0  0.90396  0.32495  0.19570  1.0000
  C   C747      1.0  0.97414  0.32971  0.12439  1.0000
  H   H598      1.0  0.94874  0.34540  0.06794  1.0000
  H   H599      1.0  0.68646  0.11739  0.26576  1.0000
  H   H600      1.0  0.87670  0.40968  0.01608  1.0000
  C   C748      1.0  0.66797  0.13731  0.29111  1.0000
  C   C749      1.0  0.58241  0.02550  0.29080  1.0000
  C   C750      1.0  0.47928  0.02455  0.03706  1.0000
  H   H601      1.0  0.68459  0.01653  0.09527  1.0000
  H   H602      1.0  0.51509  0.18707  0.00884  1.0000
  H   H603      1.0  0.92567  0.33677  0.23366  1.0000
  H   H604      1.0  0.97588  0.32253  0.04832  1.0000
  C   C751      1.0  0.66636  0.11698  0.27229  1.0000
  H   H605      1.0  0.52205  0.42878  0.08680  1.0000
  H   H606      1.0  0.53279  0.04015  0.12690  1.0000
  C   C752      1.0  0.50985  0.02532  0.13236  1.0000
  H   H607      1.0  0.81315  0.01309  0.15331  1.0000
  C   C753      1.0  0.50147  0.01984  0.02636  1.0000
  C   C754      1.0  0.49732  0.42967  0.17352  1.0000
  P   P26       1.0  0.51057  0.46352  0.12704  1.0000
  C   C755      1.0  0.66680  0.01370  0.00474  1.0000
  H   H608      1.0  0.90295  0.45951  0.99618  1.0000
  C   C756      1.0  0.59532  0.04957  0.17311  1.0000
  C   C757      1.0  0.56501  0.46792  0.13913  1.0000
  C   C758      1.0  0.70645  0.99249  0.24161  1.0000
  C   C759      1.0  0.89547  0.42747  0.02626  1.0000
  H   H609      1.0  0.48654  0.40327  0.20904  1.0000
  C   C760      1.0  0.48462  0.39599  0.99404  1.0000
  H   H610      1.0  0.57123  0.01103  0.09615  1.0000
  H   H611      1.0  0.50713  0.08706  0.30758  1.0000
  C   C761      1.0  0.53216  0.01235  0.27845  1.0000
  H   H612      1.0  0.93519  0.44117  0.08302  1.0000
  C   C762      1.0  0.58584  0.01582  0.02078  1.0000
  H   H613      1.0  0.68934  0.15368  0.29899  1.0000
  C   C763      1.0  0.92841  0.44521  0.06396  1.0000
  C   C764      1.0  0.55154  0.00185  0.05749  1.0000
  C   C765      1.0  0.70240  0.98768  0.10333  1.0000
  C   C766      1.0  0.64147  0.00363  0.20857  1.0000
  H   H614      1.0  0.76056  0.99945  0.14986  1.0000
  H   H615      1.0  0.97445  0.37357  0.21520  1.0000
  H   H616      1.0  0.48348  0.04692  0.04013  1.0000
  C   C767      1.0  0.68899  0.00429  0.11028  1.0000
  C   C768      1.0  0.57131  0.99922  0.30533  1.0000
  C   C769      1.0  0.50077  0.44350  0.28740  1.0000
  H   H617      1.0  0.51595  0.46393  0.29714  1.0000
  C   C770      1.0  0.49590  0.99092  0.02159  1.0000
  H   H618      1.0  0.60746  0.47216  0.14866  1.0000
  C   C771      1.0  0.58817  0.44520  0.11417  1.0000
  H   H619      1.0  0.68294  0.47604  0.18516  1.0000
  C   C772      1.0  0.47827  0.41172  0.19359  1.0000
  C   C773      1.0  0.68566  0.98824  0.15564  1.0000
  H   H620      1.0  0.70621  0.46797  0.22478  1.0000
  H   H621      1.0  0.56572  0.48145  0.15564  1.0000
  C   C774      1.0  0.48502  0.42280  0.98986  1.0000
  H   H622      1.0  0.52914  0.99132  0.06536  1.0000
  C   C775      1.0  0.52111  0.98628  0.29329  1.0000
  C   C776      1.0  0.63301  0.98466  0.26145  1.0000
  H   H623      1.0  0.97737  0.32041  0.26062  1.0000
  C   C777      1.0  0.69843  0.48384  0.22534  1.0000
  C   C778      1.0  0.91840  0.47526  0.36737  1.0000
  H   H624      1.0  0.52278  0.41649  0.49522  1.0000
  S   S103      1.0  0.48316  0.03245  0.35063  1.0000
  S   S104      1.0  0.92404  0.33258  0.39640  1.0000
  H   H625      1.0  0.87366  0.37340  0.37617  1.0000
  Fe  Fe49      1.0  0.91174  0.30698  0.35815  1.0000
  S   S105      1.0  0.86362  0.26968  0.34908  1.0000
  Fe  Fe50      1.0  0.94324  0.37379  0.37131  1.0000
  S   S106      1.0  0.94194  0.41419  0.38686  1.0000
  S   S107      1.0  0.95582  0.30779  0.35519  1.0000
  Fe  Fe51      1.0  0.71659  0.09977  0.36555  1.0000
  S   S108      1.0  0.70188  0.05153  0.35690  1.0000
  S   S109      1.0  0.76648  0.13289  0.37296  1.0000
  Fe  Fe52      1.0  0.65165  0.08641  0.36428  1.0000
  S   S110      1.0  0.63333  0.03813  0.35592  1.0000
  S   S111      1.0  0.62305  0.10823  0.36719  1.0000
  Fe  Fe53      1.0  0.66563  0.04042  0.38733  1.0000
  C   C779      1.0  0.52779  0.45605  0.36008  1.0000
  C   C780      1.0  0.91082  0.46970  0.34073  1.0000
  S   S112      1.0  0.68175  0.08820  0.39729  1.0000
  C   C781      1.0  0.57420  0.46128  0.34460  1.0000
  C   C782      1.0  0.96873  0.42516  0.48682  1.0000
  C   C783      1.0  0.49131  0.04893  0.42604  1.0000
  C   C784      1.0  0.66829  0.02472  0.46835  1.0000
  H   H626      1.0  0.87046  0.33911  0.45392  1.0000
  H   H627      1.0  0.68450  0.04492  0.45863  1.0000
  C   C785      1.0  0.58437  0.08745  0.36106  1.0000
  C   C786      1.0  0.56695  0.10113  0.36363  1.0000
  C   C787      1.0  0.53585  0.08469  0.36044  1.0000
  C   C788      1.0  0.52201  0.05441  0.35469  1.0000
  C   C789      1.0  0.53944  0.04086  0.35181  1.0000
  C   C790      1.0  0.57045  0.05731  0.35480  1.0000
  H   H628      1.0  0.57755  0.12446  0.36843  1.0000
  H   H629      1.0  0.52263  0.09538  0.36258  1.0000
  C   C791      1.0  0.88952  0.28189  0.46929  1.0000
  H   H630      1.0  0.72593  0.98545  0.62040  1.0000
  C   C792      1.0  0.83717  0.23138  0.35564  1.0000
  C   C793      1.0  0.84477  0.21217  0.36847  1.0000
  C   C794      1.0  0.82296  0.18224  0.37327  1.0000
  C   C795      1.0  0.79318  0.17078  0.36523  1.0000
  C   C796      1.0  0.78560  0.18994  0.35225  1.0000
  C   C797      1.0  0.80740  0.21992  0.34756  1.0000
  H   H631      1.0  0.52732  0.01798  0.41235  1.0000
  C   C798      1.0  0.58859  0.01596  0.43383  1.0000
  H   H632      1.0  0.84539  0.32203  0.35878  1.0000
  H   H633      1.0  0.79640  0.28562  0.54661  1.0000
  C   C799      1.0  0.92898  0.43446  0.36869  1.0000
  C   C800      1.0  0.92118  0.42870  0.34208  1.0000
  H   H634      1.0  0.76289  0.18172  0.34601  1.0000
  H   H635      1.0  0.83106  0.24440  0.49544  1.0000
  C   C801      1.0  0.92695  0.45734  0.38139  1.0000
  C   C802      1.0  0.48495  0.22625  0.40509  1.0000
  H   H636      1.0  0.48102  0.20590  0.41456  1.0000
  H   H637      1.0  0.93801  0.35506  0.51208  1.0000
  S   S113      1.0  0.64741  0.00183  0.41771  1.0000
  C   C803      1.0  0.52937  0.41231  0.34591  1.0000
  C   C804      1.0  0.51355  0.42535  0.35597  1.0000
  H   H638      1.0  0.55295  0.47926  0.49545  1.0000
  C   C805      1.0  0.82534  0.27910  0.47756  1.0000
  H   H639      1.0  0.59769  0.47502  0.34055  1.0000
  H   H640      1.0  0.59623  0.00078  0.43925  1.0000
  C   C806      1.0  0.49753  0.43664  0.48108  1.0000
  C   C807      1.0  0.75832  0.21458  0.41219  1.0000
  C   C808      1.0  0.66880  0.02210  0.49615  1.0000
  H   H641      1.0  0.68544  0.04050  0.50748  1.0000
  H   H642      1.0  0.56244  0.07135  0.41445  1.0000
  C   C809      1.0  0.81480  0.29899  0.48155  1.0000
  C   C810      1.0  0.71071  0.01156  0.59981  1.0000
  H   H643      1.0  0.50127  0.24669  0.45691  1.0000
  H   H644      1.0  0.90954  0.47552  0.45836  1.0000
  H   H645      1.0  0.63161  0.05439  0.43978  1.0000
  C   C811      1.0  0.48861  0.36018  0.43016  1.0000
  C   C812      1.0  0.53543  0.39045  0.40789  1.0000
  C   C813      1.0  0.50578  0.42210  0.49983  1.0000
  C   C814      1.0  0.78231  0.24095  0.42155  1.0000
  Fe  Fe54      1.0  0.97205  0.35056  0.33183  1.0000
  H   H646      1.0  0.56062  0.04784  0.47953  1.0000
  C   C815      1.0  0.80735  0.21410  0.43470  1.0000
  H   H647      1.0  0.61532  0.02704  0.52841  1.0000
  C   C816      1.0  0.81402  0.26329  0.52331  1.0000
  C   C817      1.0  0.53913  0.02254  0.51493  1.0000
  C   C818      1.0  0.51692  0.05958  0.46800  1.0000
  C   C819      1.0  0.51188  0.26474  0.37259  1.0000
  H   H648      1.0  0.60890  0.05142  0.48893  1.0000
  S   S114      1.0  0.92765  0.34869  0.33329  1.0000
  H   H649      1.0  0.69179  0.03716  0.58429  1.0000
  C   C820      1.0  0.92458  0.27127  0.44716  1.0000
  S   S115      1.0  0.68760  0.10168  0.33363  1.0000
  C   C821      1.0  0.59916  0.06637  0.42746  1.0000
  C   C822      1.0  0.90648  0.26217  0.42479  1.0000
  H   H650      1.0  0.88397  0.29062  0.48633  1.0000
  P   P27       1.0  0.51589  0.44649  0.44938  1.0000
  H   H651      1.0  0.51525  0.46579  0.36788  1.0000
  C   C823      1.0  0.55927  0.00506  0.42526  1.0000
  C   C824      1.0  0.50654  0.23864  0.38528  1.0000
  C   C825      1.0  0.86385  0.33512  0.43341  1.0000
  C   C826      1.0  0.80462  0.30147  0.50645  1.0000
  H   H652      1.0  0.82924  0.16778  0.38331  1.0000
  H   H653      1.0  0.86661  0.25678  0.40686  1.0000
  H   H654      1.0  0.86749  0.22026  0.37456  1.0000
  C   C827      1.0  0.51201  0.99119  0.64942  1.0000
  H   H655      1.0  0.52320  0.08254  0.58746  1.0000
  H   H656      1.0  0.78151  0.26132  0.42010  1.0000
  C   C828      1.0  0.87991  0.26290  0.42464  1.0000
  C   C829      1.0  0.70616  0.00303  0.64722  1.0000
  H   H657      1.0  0.93088  0.28923  0.48629  1.0000
  H   H658      1.0  0.53175  0.04968  0.55862  1.0000
  H   H659      1.0  0.93201  0.46125  0.40219  1.0000
  H   H660      1.0  0.53343  0.07559  0.48131  1.0000
  C   C830      1.0  0.57060  0.01087  0.54225  1.0000
  C   C831      1.0  0.91621  0.28127  0.46935  1.0000
  C   C832      1.0  0.69628  0.02811  0.60188  1.0000
  C   C833      1.0  0.82419  0.26076  0.49844  1.0000
  P   P28       1.0  0.50287  0.01860  0.50875  1.0000
  H   H661      1.0  0.82603  0.21332  0.44335  1.0000
  C   C834      1.0  0.78320  0.18776  0.42555  1.0000
  C   C835      1.0  0.64839  0.99585  0.50936  1.0000
  H   H662      1.0  0.79665  0.31696  0.50945  1.0000
  C   C836      1.0  0.56959  0.05582  0.42024  1.0000
  C   C837      1.0  0.60862  0.04640  0.43439  1.0000
  C   C838      1.0  0.59420  0.02602  0.52473  1.0000
  H   H663      1.0  0.58347  0.04650  0.35271  1.0000
  C   C839      1.0  0.84048  0.30156  0.39680  1.0000
  C   C840      1.0  0.64761  0.00089  0.45316  1.0000
  C   C841      1.0  0.49929  0.02979  0.47575  1.0000
  H   H664      1.0  0.93059  0.44720  0.47930  1.0000
  H   H665      1.0  0.49038  0.41182  0.36086  1.0000
  H   H666      1.0  0.51874  0.22766  0.37944  1.0000
  C   C842      1.0  0.75883  0.18802  0.41411  1.0000
  C   C843      1.0  0.87104  0.27239  0.44695  1.0000
  C   C844      1.0  0.84982  0.32578  0.37974  1.0000
  C   C845      1.0  0.48292  0.25437  0.51953  1.0000
  C   C846      1.0  0.54326  0.00915  0.53745  1.0000
  H   H667      1.0  0.61487  0.09000  0.42707  1.0000
  H   H668      1.0  0.57331  0.00007  0.55947  1.0000
  H   H669      1.0  0.48820  0.05622  0.40680  1.0000
  C   C847      1.0  0.56301  0.03779  0.49735  1.0000
  C   C848      1.0  0.59046  0.03965  0.50241  1.0000
  H   H670      1.0  0.52379  0.26312  0.50079  1.0000
  H   H671      1.0  0.78368  0.16715  0.42653  1.0000
  H   H672      1.0  0.52827  0.27408  0.35695  1.0000
  H   H673      1.0  0.91345  0.25534  0.40726  1.0000
  C   C849      1.0  0.50029  0.25522  0.49810  1.0000
  C   C850      1.0  0.55805  0.47417  0.35434  1.0000
  H   H674      1.0  0.55226  0.39241  0.39406  1.0000
  C   C851      1.0  0.95969  0.40225  0.50558  1.0000
  C   C852      1.0  0.49692  0.04249  0.53077  1.0000
  C   C853      1.0  0.96030  0.41775  0.46034  1.0000
  C   C854      1.0  0.94418  0.38806  0.45268  1.0000
  C   C855      1.0  0.93621  0.36551  0.47123  1.0000
  C   C856      1.0  0.94370  0.37256  0.49772  1.0000
  C   C857      1.0  0.51311  0.06901  0.44316  1.0000
  C   C858      1.0  0.54005  0.99443  0.64483  1.0000
  S   S116      1.0  0.51150  0.37377  0.33949  1.0000
  H   H675      1.0  0.94558  0.27144  0.44699  1.0000
  C   C859      1.0  0.50980  0.07351  0.56988  1.0000
  H   H676      1.0  0.56113  0.48340  0.41069  1.0000
  H   H677      1.0  0.80110  0.23438  0.33757  1.0000
  H   H678      1.0  0.81400  0.31229  0.46544  1.0000
  H   H679      1.0  0.81338  0.24919  0.53939  1.0000
  C   C860      1.0  0.54972  0.02531  0.41891  1.0000
  C   C861      1.0  0.69187  0.01983  0.64911  1.0000
  C   C862      1.0  0.51447  0.05463  0.55344  1.0000
  H   H680      1.0  0.96552  0.40692  0.52615  1.0000
  H   H681      1.0  0.96664  0.43485  0.44542  1.0000
  H   H682      1.0  0.93852  0.38246  0.43217  1.0000
  H   H683      1.0  0.92489  0.34267  0.46481  1.0000
  H   H684      1.0  0.57235  0.42044  0.33282  1.0000
  H   H685      1.0  0.55639  0.43706  0.41410  1.0000
  C   C863      1.0  0.55986  0.43038  0.34043  1.0000
  H   H686      1.0  0.71743  0.00799  0.58055  1.0000
  H   H687      1.0  0.82904  0.27943  0.38858  1.0000
  H   H688      1.0  0.74064  0.16764  0.40625  1.0000
  H   H689      1.0  0.52689  0.09194  0.43716  1.0000
  C   C864      1.0  0.80438  0.28375  0.52736  1.0000
  C   C865      1.0  0.53756  0.41591  0.41927  1.0000
  C   C866      1.0  0.71550  0.99891  0.62237  1.0000
  H   H690      1.0  0.88618  0.38177  0.42360  1.0000
  C   C867      1.0  0.80733  0.24102  0.43227  1.0000
  H   H691      1.0  0.73944  0.21470  0.40317  1.0000
  P   P29       1.0  0.83758  0.27486  0.44541  1.0000
  C   C868      1.0  0.87288  0.35931  0.41633  1.0000
  C   C869      1.0  0.51509  0.41373  0.43618  1.0000
  H   H692      1.0  0.48376  0.09471  0.57682  1.0000
  C   C870      1.0  0.86588  0.35464  0.38951  1.0000
  C   C871      1.0  0.91167  0.44603  0.32829  1.0000
  C   C872      1.0  0.84710  0.30602  0.42383  1.0000
  H   H693      1.0  0.50887  0.34316  0.40351  1.0000
  H   H694      1.0  0.52895  0.01754  0.34712  1.0000
  Fe  Fe55      1.0  0.96887  0.33611  0.39252  1.0000
  C   C873      1.0  0.68689  0.03224  0.62652  1.0000
  H   H695      1.0  0.52521  0.99702  0.55127  1.0000
  C   C874      1.0  0.48763  0.08041  0.56388  1.0000
  C   C875      1.0  0.55340  0.47741  0.45271  1.0000
  H   H696      1.0  0.49819  0.40308  0.53889  1.0000
  C   C876      1.0  0.51092  0.36264  0.41318  1.0000
  Fe  Fe56      1.0  0.67054  0.05295  0.32637  1.0000
  H   H697      1.0  0.92237  0.41090  0.33219  1.0000
  H   H698      1.0  0.67490  0.04431  0.62810  1.0000
  H   H699      1.0  0.49295  0.26162  0.53882  1.0000
  C   C877      1.0  0.49524  0.45632  0.42662  1.0000
  C   C878      1.0  0.94503  0.47057  0.47530  1.0000
  H   H700      1.0  0.47921  0.99969  0.61390  1.0000
  H   H701      1.0  0.49956  0.29861  0.36966  1.0000
  C   C879      1.0  0.49067  0.38554  0.44162  1.0000
  C   C880      1.0  0.49573  0.27857  0.37977  1.0000
  C   C881      1.0  0.49199  0.41455  0.52458  1.0000
  H   H702      1.0  0.59157  0.98626  0.39277  1.0000
  S   S117      1.0  0.65134  0.99339  0.54446  1.0000
  C   C882      1.0  0.48740  0.24589  0.47318  1.0000
  C   C883      1.0  0.70436  0.02471  0.75480  1.0000
  S   S118      1.0  0.91995  0.34464  0.83312  1.0000
  H   H703      1.0  0.50376  0.41460  0.81935  1.0000
  P   P30       1.0  0.52835  0.99105  0.77536  1.0000
  S   S119      1.0  0.92020  0.33799  0.89789  1.0000
  H   H704      1.0  0.94428  0.34401  0.68367  1.0000
  Fe  Fe57      1.0  0.90470  0.30682  0.86278  1.0000
  S   S120      1.0  0.85492  0.26953  0.86057  1.0000
  Fe  Fe58      1.0  0.93824  0.37502  0.86794  1.0000
  S   S121      1.0  0.94209  0.41949  0.87758  1.0000
  S   S122      1.0  0.94818  0.30617  0.86014  1.0000
  Fe  Fe59      1.0  0.70377  0.09644  0.86493  1.0000
  S   S123      1.0  0.68902  0.04715  0.86260  1.0000
  S   S124      1.0  0.75480  0.13000  0.86453  1.0000
  Fe  Fe60      1.0  0.63915  0.08209  0.86932  1.0000
  S   S125      1.0  0.62134  0.03333  0.86659  1.0000
  S   S126      1.0  0.60639  0.09691  0.88144  1.0000
  Fe  Fe61      1.0  0.65680  0.03989  0.89585  1.0000
  C   C884      1.0  0.53415  0.03381  0.67834  1.0000
  Fe  Fe62      1.0  0.65414  0.04358  0.83358  1.0000
  H   H705      1.0  0.95275  0.47315  0.97237  1.0000
  S   S127      1.0  0.67355  0.08882  0.89994  1.0000
  S   S128      1.0  0.67003  0.09283  0.83433  1.0000
  H   H706      1.0  0.56320  0.03554  0.90529  1.0000
  C   C885      1.0  0.48576  0.00672  0.78839  1.0000
  C   C886      1.0  0.50059  0.18197  0.96839  1.0000
  C   C887      1.0  0.50304  0.39842  0.94970  1.0000
  H   H707      1.0  0.68137  0.03926  0.96841  1.0000
  C   C888      1.0  0.55427  0.99342  0.95984  1.0000
  C   C889      1.0  0.48433  0.22412  0.88931  1.0000
  C   C890      1.0  0.53007  0.15486  0.86486  1.0000
  H   H708      1.0  0.65236  0.05223  0.75559  1.0000
  H   H709      1.0  0.58159  0.05402  0.68384  1.0000
  C   C891      1.0  0.57450  0.08927  0.86293  1.0000
  C   C892      1.0  0.57330  0.08499  0.83564  1.0000
  C   C893      1.0  0.54890  0.08227  0.82114  1.0000
  C   C894      1.0  0.52515  0.08285  0.83390  1.0000
  C   C895      1.0  0.52575  0.08580  0.86133  1.0000
  C   C896      1.0  0.55058  0.08949  0.87572  1.0000
  H   H710      1.0  0.59171  0.08500  0.82563  1.0000
  H   H711      1.0  0.54866  0.08021  0.79994  1.0000
  H   H712      1.0  0.50759  0.08631  0.87132  1.0000
  H   H713      1.0  0.55147  0.09294  0.89681  1.0000
  C   C897      1.0  0.82751  0.23056  0.86198  1.0000
  C   C898      1.0  0.83499  0.20828  0.86540  1.0000
  C   C899      1.0  0.81255  0.17794  0.86605  1.0000
  C   C900      1.0  0.78211  0.16906  0.86358  1.0000
  C   C901      1.0  0.77464  0.19136  0.86020  1.0000
  C   C902      1.0  0.79710  0.22170  0.85932  1.0000
  H   H714      1.0  0.85809  0.21441  0.86752  1.0000
  H   H715      1.0  0.81885  0.16114  0.86868  1.0000
  H   H716      1.0  0.75151  0.18523  0.85824  1.0000
  H   H717      1.0  0.79079  0.23848  0.85670  1.0000
  C   C903      1.0  0.93206  0.44163  0.85851  1.0000
  C   C904      1.0  0.90876  0.42963  0.84027  1.0000
  C   C905      1.0  0.89913  0.44797  0.82836  1.0000
  H   H718      1.0  0.61355  0.45864  0.85708  1.0000
  C   C906      1.0  0.94646  0.47211  0.86375  1.0000
  H   H719      1.0  0.89753  0.40613  0.83626  1.0000
  H   H720      1.0  0.88038  0.43849  0.81505  1.0000
  C   C907      1.0  0.71985  0.04298  0.73349  1.0000
  H   H721      1.0  0.55490  0.00212  0.72202  1.0000
  H   H722      1.0  0.49245  0.36258  0.97685  1.0000
  C   C908      1.0  0.52753  0.43414  0.85528  1.0000
  C   C909      1.0  0.55279  0.45831  0.86630  1.0000
  C   C910      1.0  0.54614  0.04601  0.75178  1.0000
  C   C911      1.0  0.54450  0.45578  0.81177  1.0000
  C   C912      1.0  0.52319  0.43315  0.82798  1.0000
  C   C913      1.0  0.49486  0.33541  0.78118  1.0000
  H   H723      1.0  0.54135  0.45455  0.79063  1.0000
  C   C914      1.0  0.50352  0.42524  0.94551  1.0000
  H   H724      1.0  0.52368  0.03634  0.74423  1.0000
  S   S129      1.0  0.50287  0.40503  0.87618  1.0000
  C   C915      1.0  0.51053  0.27920  0.69623  1.0000
  C   C916      1.0  0.53512  0.03068  0.93851  1.0000
  C   C917      1.0  0.93990  0.34870  0.70346  1.0000
  C   C918      1.0  0.52535  0.01818  0.96358  1.0000
  C   C919      1.0  0.95610  0.38001  0.74211  1.0000
  C   C920      1.0  0.93022  0.35980  0.75538  1.0000
  C   C921      1.0  0.90863  0.33407  0.74263  1.0000
  C   C922      1.0  0.91384  0.32852  0.71661  1.0000
  P   P31       1.0  0.87623  0.30702  0.76061  1.0000
  C   C923      1.0  0.88550  0.28306  0.77930  1.0000
  C   C924      1.0  0.86323  0.32557  0.78252  1.0000
  C   C925      1.0  0.84900  0.31213  0.80630  1.0000
  C   C926      1.0  0.83977  0.32681  0.82363  1.0000
  C   C927      1.0  0.84413  0.35483  0.81713  1.0000
  C   C928      1.0  0.85758  0.36810  0.79318  1.0000
  C   C929      1.0  0.86702  0.35351  0.77587  1.0000
  C   C930      1.0  0.86295  0.25519  0.78807  1.0000
  C   C931      1.0  0.87006  0.23668  0.80264  1.0000
  C   C932      1.0  0.89970  0.24576  0.80846  1.0000
  C   C933      1.0  0.92227  0.27330  0.79958  1.0000
  C   C934      1.0  0.91521  0.29199  0.78528  1.0000
  C   C935      1.0  0.84680  0.28454  0.73780  1.0000
  C   C936      1.0  0.84636  0.26014  0.72551  1.0000
  C   C937      1.0  0.82341  0.24233  0.70813  1.0000
  C   C938      1.0  0.80078  0.24879  0.70285  1.0000
  C   C939      1.0  0.80115  0.27314  0.71486  1.0000
  C   C940      1.0  0.82408  0.29101  0.73225  1.0000
  C   C941      1.0  0.49357  0.38377  0.97393  1.0000
  C   C942      1.0  0.48953  0.06133  0.69462  1.0000
  H   H725      1.0  0.63075  0.47426  0.81124  1.0000
  H   H726      1.0  0.92757  0.36387  0.77588  1.0000
  H   H727      1.0  0.89820  0.30845  0.70656  1.0000
  H   H728      1.0  0.84551  0.29058  0.81193  1.0000
  H   H729      1.0  0.82978  0.31654  0.84236  1.0000
  H   H730      1.0  0.83750  0.36643  0.83085  1.0000
  H   H731      1.0  0.86121  0.38995  0.78828  1.0000
  H   H732      1.0  0.87752  0.36418  0.75747  1.0000
  H   H733      1.0  0.83979  0.24801  0.78427  1.0000
  H   H734      1.0  0.85248  0.21563  0.81005  1.0000
  H   H735      1.0  0.90511  0.23169  0.82029  1.0000
  H   H736      1.0  0.94529  0.28059  0.80431  1.0000
  H   H737      1.0  0.93301  0.31355  0.77937  1.0000
  H   H738      1.0  0.86373  0.25481  0.72945  1.0000
  H   H739      1.0  0.82310  0.22340  0.69892  1.0000
  C   C943      1.0  0.50908  0.19028  0.94204  1.0000
  H   H740      1.0  0.78353  0.27806  0.71087  1.0000
  H   H741      1.0  0.82386  0.30965  0.74144  1.0000
  C   C944      1.0  0.55134  0.21423  0.98264  1.0000
  C   C945      1.0  0.58405  0.04239  0.77687  1.0000
  H   H742      1.0  0.68364  0.02260  0.66786  1.0000
  H   H743      1.0  0.50310  0.10381  0.71253  1.0000
  H   H744      1.0  0.64615  0.04521  0.70697  1.0000
  C   C946      1.0  0.56216  0.03684  0.67385  1.0000
  H   H745      1.0  0.52776  0.04515  0.93010  1.0000
  H   H746      1.0  0.50904  0.38857  0.93371  1.0000
  S   S130      1.0  0.49607  0.08166  0.81480  1.0000
  C   C947      1.0  0.56989  0.47983  0.82281  1.0000
  H   H747      1.0  0.51046  0.99557  0.82996  1.0000
  H   H748      1.0  0.78288  0.23483  0.68954  1.0000
  C   C948      1.0  0.59556  0.08867  0.75558  1.0000
  C   C949      1.0  0.64174  0.03013  0.74739  1.0000
  H   H749      1.0  0.52279  0.14529  0.82334  1.0000
  H   H750      1.0  0.55621  0.45924  0.88741  1.0000
  C   C950      1.0  0.51561  0.15192  0.84085  1.0000
  C   C951      1.0  0.60435  0.07198  0.77090  1.0000
  C   C952      1.0  0.69041  0.99393  0.75221  1.0000
  P   P32       1.0  0.48197  0.17572  0.91589  1.0000
  C   C953      1.0  0.47995  0.26876  0.69604  1.0000
  H   H751      1.0  0.59146  0.03000  0.78882  1.0000
  H   H752      1.0  0.62683  0.08200  0.77853  1.0000
  C   C954      1.0  0.69045  0.44932  0.96444  1.0000
  C   C955      1.0  0.55977  0.22320  0.95653  1.0000
  C   C956      1.0  0.49158  0.31896  0.80419  1.0000
  H   H753      1.0  0.51995  0.26973  0.68298  1.0000
  H   H754      1.0  0.67242  0.41525  0.93473  1.0000
  C   C957      1.0  0.72118  0.03048  0.70947  1.0000
  C   C958      1.0  0.52892  0.30177  0.71362  1.0000
  H   H755      1.0  0.50970  0.43553  0.92619  1.0000
  H   H756      1.0  0.96441  0.48138  0.87782  1.0000
  C   C959      1.0  0.55467  0.02927  0.76761  1.0000
  C   C960      1.0  0.50893  0.33273  0.82643  1.0000
  C   C961      1.0  0.53026  0.36285  0.82563  1.0000
  C   C962      1.0  0.53480  0.37900  0.80233  1.0000
  C   C963      1.0  0.51723  0.36536  0.78014  1.0000
  C   C964      1.0  0.62514  0.99752  0.70841  1.0000
  H   H757      1.0  0.53138  0.33122  0.74427  1.0000
  H   H758      1.0  0.55261  0.30980  0.71384  1.0000
  C   C965      1.0  0.94515  0.40717  0.94757  1.0000
  H   H759      1.0  0.61125  0.11176  0.75144  1.0000
  C   C966      1.0  0.49113  0.15627  0.83966  1.0000
  H   H760      1.0  0.54288  0.37379  0.84319  1.0000
  H   H761      1.0  0.55132  0.40237  0.80179  1.0000
  H   H762      1.0  0.52064  0.37840  0.76245  1.0000
  H   H763      1.0  0.50369  0.07099  0.67754  1.0000
  H   H764      1.0  0.68524  0.43383  0.98063  1.0000
  C   C967      1.0  0.63826  0.02603  0.71972  1.0000
  H   H765      1.0  0.50377  0.02645  0.79726  1.0000
  H   H766      1.0  0.70278  0.03431  0.77331  1.0000
  C   C968      1.0  0.63949  0.99929  0.96306  1.0000
  H   H767      1.0  0.53257  0.04871  0.69210  1.0000
  H   H768      1.0  0.73064  0.06684  0.73562  1.0000
  C   C969      1.0  0.63712  0.47215  0.85302  1.0000
  H   H769      1.0  0.50501  0.32019  0.84455  1.0000
  H   H770      1.0  0.53094  0.16329  0.90626  1.0000
  H   H771      1.0  0.48518  0.26087  0.86857  1.0000
  P   P33       1.0  0.49079  0.46963  0.95892  1.0000
  C   C970      1.0  0.96096  0.37446  0.71617  1.0000
  C   C971      1.0  0.63214  0.00569  0.76430  1.0000
  H   H772      1.0  0.92931  0.39310  0.93276  1.0000
  C   C972      1.0  0.49467  0.43769  0.96561  1.0000
  C   C973      1.0  0.66398  0.01960  0.97790  1.0000
  C   C974      1.0  0.53867  0.21149  0.93632  1.0000
  H   H773      1.0  0.54543  0.21891  0.91621  1.0000
  H   H774      1.0  0.57981  0.00210  0.92402  1.0000
  C   C975      1.0  0.57372  0.48127  0.85017  1.0000
  H   H775      1.0  0.55957  0.08870  0.73436  1.0000
  C   C976      1.0  0.50884  0.01139  0.66561  1.0000
  C   C977      1.0  0.56650  0.07566  0.74593  1.0000
  S   S131      1.0  0.63668  0.00310  0.92809  1.0000
  Fe  Fe63      1.0  0.96387  0.34536  0.83186  1.0000
  H   H776      1.0  0.91421  0.38864  0.97977  1.0000
  C   C978      1.0  0.69005  0.45882  0.91765  1.0000
  C   C979      1.0  0.48135  0.16395  0.86243  1.0000
  C   C980      1.0  0.53535  0.99990  0.97474  1.0000
  H   H777      1.0  0.54837  0.15038  0.86585  1.0000
  S   S132      1.0  0.63755  0.00925  0.79939  1.0000
  H   H778      1.0  0.58267  0.23925  0.95193  1.0000
  Fe  Fe64      1.0  0.96413  0.33949  0.89401  1.0000
  C   C981      1.0  0.70488  0.47980  0.96934  1.0000
  H   H779      1.0  0.97220  0.31210  0.75555  1.0000
  C   C982      1.0  0.56422  0.00620  0.93492  1.0000
  C   C983      1.0  0.49621  0.16772  0.88648  1.0000
  C   C984      1.0  0.52023  0.16241  0.88769  1.0000
  H   H780      1.0  0.73354  0.04496  0.69324  1.0000
  H   H781      1.0  0.50005  0.22308  0.87596  1.0000
  C   C985      1.0  0.48604  0.30337  0.73092  1.0000
  C   C986      1.0  0.51676  0.31386  0.73089  1.0000
  C   C987      1.0  0.55487  0.02504  0.92435  1.0000
  C   C988      1.0  0.48901  0.08000  0.71419  1.0000
  C   C989      1.0  0.68317  0.43885  0.93859  1.0000
  H   H782      1.0  0.97306  0.39924  0.75246  1.0000
  H   H783      1.0  0.68487  0.45040  0.89767  1.0000
  H   H784      1.0  0.94394  0.47023  0.92435  1.0000
  C   C990      1.0  0.93667  0.40481  0.97401  1.0000
  H   H785      1.0  0.51011  0.02301  0.97400  1.0000
  H   H786      1.0  0.47911  0.15273  0.82130  1.0000
  H   H787      1.0  0.69376  0.99344  0.93876  1.0000
  C   C991      1.0  0.70645  0.99953  0.70646  1.0000
  C   C992      1.0  0.76958  0.00890  0.66488  1.0000
  C   C993      1.0  0.91309  0.47838  0.83438  1.0000
  C   C994      1.0  0.56515  0.01740  0.65685  1.0000
  H   H788      1.0  0.81663  0.02896  0.65756  1.0000
  H   H789      1.0  0.76793  0.02644  0.65484  1.0000
  C   C995      1.0  0.49111  0.98574  0.77595  1.0000
  C   C996      1.0  0.52581  0.98724  0.83063  1.0000
  C   C997      1.0  0.97423  0.42759  0.94004  1.0000
  H   H790      1.0  0.58684  0.01968  0.65345  1.0000
  S   S133      1.0  0.62208  0.99405  0.67313  1.0000
  H   H791      1.0  0.96736  0.36634  0.96450  1.0000
  H   H792      1.0  0.64957  0.47612  0.89378  1.0000
  C   C998      1.0  0.79728  0.01053  0.66657  1.0000
  C   C999      1.0  0.64682  0.48086  0.82712  1.0000
  H   H793      1.0  0.82164  0.99002  0.68161  1.0000
  C   C1000     1.0  0.80013  0.98864  0.68018  1.0000
  C   C1001     1.0  0.74441  0.98498  0.67637  1.0000
  C   C1002     1.0  0.65764  0.48190  0.87374  1.0000
  H   H794      1.0  0.70929  0.99197  0.98474  1.0000
  H   H795      1.0  0.52517  0.98574  0.87313  1.0000
  S   S134      1.0  0.61847  0.61681  0.27666  1.0000
  Fe  Fe65      1.0  0.62099  0.65434  0.05172  1.0000
  S   S135      1.0  0.58466  0.66508  0.04447  1.0000
  S   S136      1.0  0.65266  0.65663  0.01874  1.0000
  Fe  Fe66      1.0  0.60994  0.64987  0.11300  1.0000
  S   S137      1.0  0.57257  0.66023  0.10879  1.0000
  S   S138      1.0  0.63078  0.64298  0.15117  1.0000
  Fe  Fe67      1.0  0.55866  0.62879  0.07415  1.0000
  S   S139      1.0  0.51242  0.59317  0.06159  1.0000
  Fe  Fe68      1.0  0.60170  0.69591  0.07951  1.0000
  S   S140      1.0  0.61535  0.74566  0.07595  1.0000
  S   S141      1.0  0.59425  0.61655  0.07965  1.0000
  S   S142      1.0  0.63982  0.68705  0.08528  1.0000
  C   C1003     1.0  0.94146  0.53733  0.02677  1.0000
  Fe  Fe69      1.0  0.58280  0.88587  0.10465  1.0000
  S   S143      1.0  0.62868  0.92374  0.11312  1.0000
  S   S144      1.0  0.56865  0.83597  0.10600  1.0000
  Fe  Fe70      1.0  0.55682  0.92823  0.10514  1.0000
  S   S145      1.0  0.60137  0.96798  0.11364  1.0000
  S   S146      1.0  0.52363  0.94451  0.10420  1.0000
  Fe  Fe71      1.0  0.61808  0.94914  0.08232  1.0000
  H   H796      1.0  0.59672  0.84462  0.03733  1.0000
  Fe  Fe72      1.0  0.60742  0.93944  0.14351  1.0000
  H   H797      1.0  0.96347  0.55143  0.18419  1.0000
  S   S147      1.0  0.57317  0.91062  0.07250  1.0000
  S   S148      1.0  0.56197  0.90040  0.13621  1.0000
  C   C1004     1.0  0.67850  0.52510  0.22684  1.0000
  H   H798      1.0  0.49495  0.66731  0.19144  1.0000
  C   C1005     1.0  0.48942  0.56221  0.08166  1.0000
  C   C1006     1.0  0.51543  0.66766  0.18642  1.0000
  C   C1007     1.0  0.65939  0.56216  0.19588  1.0000
  H   H799      1.0  0.49094  0.52241  0.25386  1.0000
  H   H800      1.0  0.53357  0.57093  0.26538  1.0000
  H   H801      1.0  0.68450  0.94583  0.01044  1.0000
  H   H802      1.0  0.53555  0.94843  0.24520  1.0000
  C   C1008     1.0  0.93143  0.50353  0.24053  1.0000
  C   C1009     1.0  0.68753  0.96923  0.25822  1.0000
  C   C1010     1.0  0.59634  0.50219  0.27797  1.0000
  C   C1011     1.0  0.95738  0.55877  0.04607  1.0000
  C   C1012     1.0  0.62726  0.97316  0.21392  1.0000
  C   C1013     1.0  0.60200  0.77033  0.08496  1.0000
  C   C1014     1.0  0.57480  0.76069  0.09780  1.0000
  C   C1015     1.0  0.56511  0.78107  0.10399  1.0000
  C   C1016     1.0  0.58243  0.81146  0.09768  1.0000
  C   C1017     1.0  0.60979  0.82117  0.08513  1.0000
  C   C1018     1.0  0.61942  0.80077  0.07881  1.0000
  H   H803      1.0  0.56104  0.73745  0.10267  1.0000
  H   H804      1.0  0.54386  0.77315  0.11361  1.0000
  H   H805      1.0  0.62347  0.84437  0.08022  1.0000
  H   H806      1.0  0.64050  0.80861  0.06891  1.0000
  C   C1019     1.0  0.49136  0.50112  0.29069  1.0000
  H   H807      1.0  0.54177  0.60551  0.99029  1.0000
  C   C1020     1.0  0.64519  0.57886  0.14767  1.0000
  C   C1021     1.0  0.62264  0.62451  0.24180  1.0000
  C   C1022     1.0  0.59772  0.62016  0.22705  1.0000
  C   C1023     1.0  0.59967  0.62581  0.19955  1.0000
  C   C1024     1.0  0.62669  0.63598  0.18616  1.0000
  C   C1025     1.0  0.65168  0.64074  0.20100  1.0000
  C   C1026     1.0  0.64976  0.63523  0.22851  1.0000
  H   H808      1.0  0.57666  0.61228  0.23696  1.0000
  H   H809      1.0  0.58013  0.62195  0.18880  1.0000
  H   H810      1.0  0.67289  0.64914  0.19121  1.0000
  H   H811      1.0  0.66950  0.64002  0.23943  1.0000
  C   C1027     1.0  0.67537  0.50899  0.20373  1.0000
  C   C1028     1.0  0.59952  0.87574  0.00731  1.0000
  C   C1029     1.0  0.53660  0.54127  0.16680  1.0000
  C   C1030     1.0  0.50777  0.94940  0.17433  1.0000
  H   H812      1.0  0.55838  0.93760  0.20692  1.0000
  C   C1031     1.0  0.52814  0.50221  0.13585  1.0000
  C   C1032     1.0  0.50128  0.90027  0.02935  1.0000
  H   H813      1.0  0.95250  0.54432  0.10053  1.0000
  H   H814      1.0  0.66558  0.51242  0.18619  1.0000
  H   H815      1.0  0.67500  0.91848  0.08675  1.0000
  C   C1033     1.0  0.52122  0.51133  0.15956  1.0000
  C   C1034     1.0  0.67828  0.59032  0.18504  1.0000
  H   H816      1.0  0.94196  0.48790  0.20526  1.0000
  H   H817      1.0  0.48177  0.88165  0.09414  1.0000
  C   C1035     1.0  0.74811  0.61863  0.25219  1.0000
  C   C1036     1.0  0.74102  0.63634  0.26780  1.0000
  C   C1037     1.0  0.71135  0.62874  0.27122  1.0000
  C   C1038     1.0  0.68868  0.60308  0.25956  1.0000
  C   C1039     1.0  0.69551  0.58485  0.24427  1.0000
  C   C1040     1.0  0.72549  0.59317  0.24019  1.0000
  P   P34       1.0  0.66648  0.55226  0.22820  1.0000
  C   C1041     1.0  0.93066  0.64774  0.28897  1.0000
  H   H818      1.0  0.95889  0.62626  0.99581  1.0000
  S   S149      1.0  0.61620  0.94569  0.18852  1.0000
  H   H819      1.0  0.64826  0.69548  0.28534  1.0000
  C   C1042     1.0  0.94627  0.57642  0.05600  1.0000
  C   C1043     1.0  0.95531  0.54807  0.14273  1.0000
  H   H820      1.0  0.65005  0.71289  0.01721  1.0000
  C   C1044     1.0  0.52479  0.49641  0.00383  1.0000
  S   S150      1.0  0.64607  0.56533  0.31322  1.0000
  H   H821      1.0  0.70078  0.88925  0.08945  1.0000
  H   H822      1.0  0.51891  0.85264  0.02888  1.0000
  H   H823      1.0  0.69846  0.85780  0.05178  1.0000
  C   C1045     1.0  0.68292  0.91195  0.16376  1.0000
  C   C1046     1.0  0.67366  0.94003  0.24907  1.0000
  H   H824      1.0  0.86248  0.67793  0.31741  1.0000
  C   C1047     1.0  0.91902  0.57243  0.04717  1.0000
  C   C1048     1.0  0.51485  0.93116  0.02895  1.0000
  H   H825      1.0  0.77111  0.62443  0.24969  1.0000
  H   H826      1.0  0.75844  0.65568  0.27761  1.0000
  H   H827      1.0  0.63942  0.58580  0.12946  1.0000
  H   H828      1.0  0.66591  0.59762  0.26268  1.0000
  H   H829      1.0  0.73146  0.57988  0.22799  1.0000
  H   H830      1.0  0.60537  0.59890  0.99883  1.0000
  C   C1049     1.0  0.53058  0.94290  0.17838  1.0000
  H   H831      1.0  0.57624  0.55234  0.25835  1.0000
  C   C1050     1.0  0.63345  0.54236  0.18222  1.0000
  C   C1051     1.0  0.67868  0.93403  0.22327  1.0000
  S   S151      1.0  0.65089  0.98041  0.05081  1.0000
  H   H832      1.0  0.69809  0.60633  0.19533  1.0000
  H   H833      1.0  0.61168  0.94047  0.24501  1.0000
  H   H834      1.0  0.62143  0.57003  0.23168  1.0000
  P   P35       1.0  0.63641  0.88499  0.99683  1.0000
  C   C1052     1.0  0.91357  0.53273  0.01866  1.0000
  C   C1053     1.0  0.68745  0.87084  0.05051  1.0000
  C   C1054     1.0  0.49445  0.95530  0.19580  1.0000
  H   H835      1.0  0.56040  0.50956  0.28877  1.0000
  C   C1055     1.0  0.50458  0.95483  0.22145  1.0000
  H   H836      1.0  0.60629  0.53556  0.14787  1.0000
  C   C1056     1.0  0.49623  0.56070  0.10812  1.0000
  H   H837      1.0  0.54582  0.83035  0.05089  1.0000
  H   H838      1.0  0.52739  0.94335  0.04606  1.0000
  H   H839      1.0  0.55845  0.57845  0.30862  1.0000
  C   C1057     1.0  0.50284  0.49484  0.98657  1.0000
  C   C1058     1.0  0.62271  0.96392  0.24053  1.0000
  H   H840      1.0  0.70585  0.64248  0.28328  1.0000
  C   C1059     1.0  0.53942  0.55706  0.30382  1.0000
  H   H841      1.0  0.59602  0.66380  0.27182  1.0000
  C   C1060     1.0  0.49442  0.92903  0.98546  1.0000
  C   C1061     1.0  0.63545  0.74247  0.00256  1.0000
  H   H842      1.0  0.53387  0.55380  0.04255  1.0000
  H   H843      1.0  0.97768  0.49203  0.27573  1.0000
  H   H844      1.0  0.62980  0.97708  0.28169  1.0000
  C   C1062     1.0  0.58542  0.85474  0.02750  1.0000
  C   C1063     1.0  0.62649  0.55067  0.15815  1.0000
  H   H845      1.0  0.94047  0.55708  0.14407  1.0000
  H   H846      1.0  0.60247  0.94852  0.01245  1.0000
  C   C1064     1.0  0.96850  0.54477  0.16556  1.0000
  C   C1065     1.0  0.64675  0.63735  0.98812  1.0000
  C   C1066     1.0  0.61966  0.96829  0.00299  1.0000
  H   H847      1.0  0.90070  0.51599  0.00408  1.0000
  H   H848      1.0  0.50410  0.49545  0.17249  1.0000
  H   H849      1.0  0.80935  0.66353  0.31701  1.0000
  H   H850      1.0  0.95926  0.59387  0.07002  1.0000
  C   C1067     1.0  0.96231  0.54113  0.11818  1.0000
  C   C1068     1.0  0.69185  0.52047  0.24914  1.0000
  C   C1069     1.0  0.55527  0.88024  0.00285  1.0000
  H   H851      1.0  0.54003  0.62425  0.15886  1.0000
  H   H852      1.0  0.65865  0.92211  0.26188  1.0000
  C   C1070     1.0  0.65817  0.90369  0.04759  1.0000
  H   H853      1.0  0.69469  0.53285  0.26718  1.0000
  H   H854      1.0  0.57094  0.58536  0.15589  1.0000
  H   H855      1.0  0.58352  0.56938  0.11452  1.0000
  C   C1071     1.0  0.95197  0.67286  0.30231  1.0000
  C   C1072     1.0  0.65711  0.88631  0.02600  1.0000
  C   C1073     1.0  0.55068  0.52336  0.11962  1.0000
  H   H856      1.0  0.92692  0.52490  0.27520  1.0000
  C   C1074     1.0  0.90252  0.55040  0.02867  1.0000
  H   H857      1.0  0.77718  0.59667  0.29521  1.0000
  C   C1075     1.0  0.52521  0.53731  0.02700  1.0000
  H   H858      1.0  0.50114  0.50150  0.08860  1.0000
  C   C1076     1.0  0.54051  0.94245  0.20391  1.0000
  C   C1077     1.0  0.66100  0.75600  0.12950  1.0000
  C   C1078     1.0  0.67659  0.74061  0.13159  1.0000
  C   C1079     1.0  0.66999  0.72016  0.15198  1.0000
  C   C1080     1.0  0.64804  0.71532  0.17047  1.0000
  C   C1081     1.0  0.63259  0.73111  0.16887  1.0000
  C   C1082     1.0  0.63894  0.75116  0.14789  1.0000
  P   P36       1.0  0.60492  0.72520  0.19355  1.0000
  C   C1083     1.0  0.56948  0.69360  0.18503  1.0000
  C   C1084     1.0  0.61760  0.71731  0.22423  1.0000
  C   C1085     1.0  0.64727  0.73532  0.23219  1.0000
  C   C1086     1.0  0.65820  0.72768  0.25434  1.0000
  C   C1087     1.0  0.63966  0.70195  0.26862  1.0000
  C   C1088     1.0  0.61008  0.68409  0.26100  1.0000
  C   C1089     1.0  0.59901  0.69168  0.23894  1.0000
  C   C1090     1.0  0.56826  0.66860  0.17337  1.0000
  C   C1091     1.0  0.54081  0.64337  0.16818  1.0000
  P   P37       1.0  0.95581  0.51510  0.01269  1.0000
  H   H859      1.0  0.93736  0.63863  0.27288  1.0000
  C   C1092     1.0  0.54284  0.69277  0.19195  1.0000
  C   C1093     1.0  0.60118  0.75797  0.19587  1.0000
  C   C1094     1.0  0.61310  0.77748  0.21731  1.0000
  C   C1095     1.0  0.61016  0.80280  0.21865  1.0000
  C   C1096     1.0  0.59526  0.80879  0.19868  1.0000
  C   C1097     1.0  0.58323  0.78945  0.17734  1.0000
  C   C1098     1.0  0.58603  0.76409  0.17598  1.0000
  H   H860      1.0  0.66538  0.77107  0.11312  1.0000
  H   H861      1.0  0.69311  0.74381  0.11690  1.0000
  H   H862      1.0  0.68129  0.70737  0.15309  1.0000
  H   H863      1.0  0.64301  0.69896  0.18583  1.0000
  H   H864      1.0  0.62694  0.76300  0.14529  1.0000
  H   H865      1.0  0.66217  0.75481  0.22082  1.0000
  H   H866      1.0  0.71936  0.90546  0.15142  1.0000
  H   H867      1.0  0.57623  0.67697  0.23312  1.0000
  H   H868      1.0  0.58848  0.66854  0.16821  1.0000
  C   C1099     1.0  0.95071  0.50421  0.22088  1.0000
  C   C1100     1.0  0.94192  0.52518  0.26015  1.0000
  C   C1101     1.0  0.48486  0.92414  0.09946  1.0000
  H   H869      1.0  0.54312  0.71137  0.20177  1.0000
  H   H870      1.0  0.62455  0.77326  0.23309  1.0000
  H   H871      1.0  0.61939  0.81779  0.23522  1.0000
  H   H872      1.0  0.59298  0.82840  0.19972  1.0000
  H   H873      1.0  0.57177  0.79418  0.16177  1.0000
  H   H874      1.0  0.57655  0.74934  0.15924  1.0000
  C   C1102     1.0  0.63370  0.87013  0.15510  1.0000
  C   C1103     1.0  0.64637  0.85387  0.14530  1.0000
  C   C1104     1.0  0.67727  0.86663  0.14438  1.0000
  C   C1105     1.0  0.69553  0.89572  0.15322  1.0000
  H   H875      1.0  0.95144  0.59505  0.20013  1.0000
  C   C1106     1.0  0.65187  0.89896  0.16441  1.0000
  H   H876      1.0  0.63534  0.50149  0.26549  1.0000
  H   H877      1.0  0.90819  0.48650  0.24047  1.0000
  H   H878      1.0  0.50055  0.94985  0.15437  1.0000
  H   H879      1.0  0.49321  0.62360  0.16997  1.0000
  H   H880      1.0  0.68520  0.62066  0.15311  1.0000
  H   H881      1.0  0.54071  0.93846  0.16161  1.0000
  H   H882      1.0  0.49734  0.97137  0.29457  1.0000
  C   C1107     1.0  0.90098  0.63380  0.29700  1.0000
  H   H883      1.0  0.91091  0.58668  0.05449  1.0000
  C   C1108     1.0  0.69758  0.95733  0.20640  1.0000
  H   H884      1.0  0.49555  0.55164  0.01218  1.0000
  H   H885      1.0  0.68123  0.74132  0.26013  1.0000
  C   C1109     1.0  0.58868  0.54072  0.25931  1.0000
  C   C1110     1.0  0.61457  0.55091  0.24436  1.0000
  C   C1111     1.0  0.55894  0.56216  0.15045  1.0000
  H   H886      1.0  0.88143  0.54739  0.02176  1.0000
  C   C1112     1.0  0.54126  0.85899  0.02269  1.0000
  C   C1113     1.0  0.55639  0.84636  0.03508  1.0000
  H   H887      1.0  0.64073  0.75510  0.02072  1.0000
  H   H888      1.0  0.60973  0.86063  0.15491  1.0000
  H   H889      1.0  0.63220  0.83155  0.13804  1.0000
  H   H890      1.0  0.68699  0.85408  0.13637  1.0000
  H   H891      1.0  0.66777  0.91128  0.21667  1.0000
  H   H892      1.0  0.64168  0.91142  0.17155  1.0000
  H   H893      1.0  0.67095  0.85574  0.01161  1.0000
  H   H894      1.0  0.53118  0.54834  0.18504  1.0000
  C   C1114     1.0  0.57973  0.51659  0.27634  1.0000
  H   H895      1.0  0.55657  0.51675  0.10137  1.0000
  P   P38       1.0  0.70582  0.95028  0.17345  1.0000
  C   C1115     1.0  0.50145  0.52493  0.27279  1.0000
  C   C1116     1.0  0.52757  0.94848  0.22544  1.0000
  H   H896      1.0  0.55291  0.51881  0.03716  1.0000
  C   C1117     1.0  0.64063  0.71866  0.00063  1.0000
  C   C1118     1.0  0.67113  0.59857  0.16103  1.0000
  C   C1119     1.0  0.56595  0.55318  0.12693  1.0000
  C   C1120     1.0  0.52547  0.55271  0.27934  1.0000
  C   C1121     1.0  0.51133  0.94579  0.00708  1.0000
  H   H897      1.0  0.94468  0.59465  0.24876  1.0000
  C   C1122     1.0  0.51442  0.64299  0.17446  1.0000
  C   C1123     1.0  0.67176  0.86975  0.02768  1.0000
  H   H898      1.0  0.64674  0.91641  0.04684  1.0000
  H   H899      1.0  0.61830  0.52078  0.19052  1.0000
  H   H900      1.0  0.51627  0.57857  0.11662  1.0000
  H   H901      1.0  0.96193  0.49127  0.06325  1.0000
  C   C1124     1.0  0.63209  0.53735  0.24660  1.0000
  C   C1125     1.0  0.97157  0.54773  0.25998  1.0000
  C   C1126     1.0  0.70174  0.49991  0.24836  1.0000
  C   C1127     1.0  0.67414  0.90493  0.07026  1.0000
  C   C1128     1.0  0.68871  0.88848  0.07176  1.0000
  H   H902      1.0  0.48055  0.96300  0.10420  1.0000
  H   H903      1.0  0.68319  0.97400  0.27801  1.0000
  H   H904      1.0  0.49500  0.95945  0.23842  1.0000
  C   C1129     1.0  0.50351  0.53603  0.00983  1.0000
  C   C1130     1.0  0.53584  0.51752  0.02400  1.0000
  H   H905      1.0  0.88457  0.61374  0.28726  1.0000
  C   C1131     1.0  0.67765  0.94557  0.99029  1.0000
  C   C1132     1.0  0.62250  0.51254  0.26324  1.0000
  C   C1133     1.0  0.96657  0.60790  0.24026  1.0000
  C   C1134     1.0  0.58427  0.88854  0.99510  1.0000
  C   C1135     1.0  0.97051  0.60812  0.21256  1.0000
  H   H906      1.0  0.73677  0.92529  0.20223  1.0000
  H   H907      1.0  0.97513  0.68290  0.29656  1.0000
  C   C1136     1.0  0.49252  0.51505  0.98953  1.0000
  C   C1137     1.0  0.50503  0.50597  0.31556  1.0000
  H   H908      1.0  0.82804  0.98329  0.18109  1.0000
  H   H909      1.0  0.54384  0.89058  0.99363  1.0000
  H   H910      1.0  0.50361  0.88928  0.04665  1.0000
  H   H911      1.0  0.71210  0.49658  0.26565  1.0000
  H   H912      1.0  0.71771  0.95840  0.11688  1.0000
  C   C1138     1.0  0.48433  0.88370  0.00785  1.0000
  H   H913      1.0  0.48147  0.53578  0.14446  1.0000
  S   S152      1.0  0.90170  0.56578  0.31116  1.0000
  H   H914      1.0  0.82126  0.59154  0.30585  1.0000
  Fe  Fe73      1.0  0.64031  0.60550  0.31170  1.0000
  C   C1139     1.0  0.54068  0.97975  0.30678  1.0000
  C   C1140     1.0  0.78322  0.95224  0.19315  1.0000
  C   C1141     1.0  0.97656  0.62545  0.98520  1.0000
  C   C1142     1.0  0.74454  0.96051  0.17492  1.0000
  C   C1143     1.0  0.70764  0.97147  0.12258  1.0000
  C   C1144     1.0  0.75323  0.94417  0.19109  1.0000
  C   C1145     1.0  0.48110  0.89810  0.98582  1.0000
  H   H915      1.0  0.71099  0.48797  0.98932  1.0000
  C   C1146     1.0  0.69965  0.97196  0.14897  1.0000
  H   H916      1.0  0.78978  0.93953  0.20565  1.0000
  C   C1147     1.0  0.78090  0.59240  0.31534  1.0000
  C   C1148     1.0  0.68527  0.48838  0.20304  1.0000
  C   C1149     1.0  0.80477  0.97692  0.17936  1.0000
  H   H917      1.0  0.96441  0.80991  0.36424  1.0000
  H   H918      1.0  0.53811  0.88186  0.46617  1.0000
  Fe  Fe74      1.0  0.65101  0.61472  0.37361  1.0000
  S   S153      1.0  0.65853  0.57569  0.37772  1.0000
  S   S154      1.0  0.64420  0.64174  0.40646  1.0000
  Fe  Fe75      1.0  0.68574  0.59235  0.33993  1.0000
  C   C1150     1.0  0.80455  0.65903  0.35914  1.0000
  Fe  Fe76      1.0  0.61910  0.55201  0.35049  1.0000
  C   C1151     1.0  0.55023  0.94521  0.49632  1.0000
  S   S155      1.0  0.68057  0.63332  0.33731  1.0000
  S   S156      1.0  0.61107  0.59041  0.34768  1.0000
  Fe  Fe77      1.0  0.88725  0.58031  0.34775  1.0000
  S   S157      1.0  0.93422  0.61767  0.35657  1.0000
  S   S158      1.0  0.84351  0.58109  0.35630  1.0000
  Fe  Fe78      1.0  0.91004  0.53644  0.33848  1.0000
  H   H919      1.0  0.55724  0.61525  0.48699  1.0000
  Fe  Fe79      1.0  0.93958  0.58461  0.38166  1.0000
  C   C1152     1.0  0.58201  0.95619  0.36089  1.0000
  H   H920      1.0  0.59177  0.56702  0.42692  1.0000
  S   S159      1.0  0.89248  0.54808  0.37416  1.0000
  C   C1153     1.0  0.89970  0.62701  0.41814  1.0000
  H   H921      1.0  0.64774  0.94230  0.42404  1.0000
  H   H922      1.0  0.75058  0.58212  0.37647  1.0000
  C   C1154     1.0  0.91362  0.67076  0.33133  1.0000
  C   C1155     1.0  0.52478  0.51370  0.52316  1.0000
  C   C1156     1.0  0.76051  0.58976  0.33505  1.0000
  C   C1157     1.0  0.76582  0.58416  0.36099  1.0000
  C   C1158     1.0  0.56334  0.56523  0.52291  1.0000
  C   C1159     1.0  0.81159  0.58430  0.34734  1.0000
  H   H923      1.0  0.50033  0.91625  0.38532  1.0000
  C   C1160     1.0  0.66790  0.93120  0.45598  1.0000
  S   S160      1.0  0.59832  0.98129  0.60204  1.0000
  C   C1161     1.0  0.94368  0.76932  0.38679  1.0000
  C   C1162     1.0  0.80610  0.58960  0.32135  1.0000
  C   C1163     1.0  0.53711  0.91832  0.44667  1.0000
  C   C1164     1.0  0.63747  0.63963  0.44146  1.0000
  C   C1165     1.0  0.62965  0.65945  0.45309  1.0000
  C   C1166     1.0  0.64039  0.61958  0.45803  1.0000
  H   H924      1.0  0.62730  0.67509  0.44065  1.0000
  H   H925      1.0  0.64648  0.60426  0.44961  1.0000
  C   C1167     1.0  0.67190  0.93511  0.56167  1.0000
  H   H926      1.0  0.60295  0.52293  0.49898  1.0000
  Fe  Fe80      1.0  0.61040  0.66159  0.56496  1.0000
  S   S161      1.0  0.57966  0.68059  0.56215  1.0000
  S   S162      1.0  0.62580  0.64050  0.53265  1.0000
  Fe  Fe81      1.0  0.60941  0.66229  0.62745  1.0000
  S   S163      1.0  0.57882  0.68159  0.62782  1.0000
  Fe  Fe82      1.0  0.55384  0.64910  0.59525  1.0000
  S   S164      1.0  0.50341  0.62064  0.59726  1.0000
  Fe  Fe83      1.0  0.60695  0.71204  0.59484  1.0000
  S   S165      1.0  0.62475  0.76283  0.59175  1.0000
  S   S166      1.0  0.58267  0.62861  0.59632  1.0000
  S   S167      1.0  0.63955  0.69448  0.59613  1.0000
  Fe  Fe84      1.0  0.58860  0.90305  0.60769  1.0000
  S   S168      1.0  0.63290  0.94522  0.61323  1.0000
  S   S169      1.0  0.57586  0.85374  0.61230  1.0000
  Fe  Fe85      1.0  0.55637  0.93796  0.59690  1.0000
  H   H927      1.0  0.96753  0.55178  0.60210  1.0000
  S   S170      1.0  0.51935  0.94565  0.58252  1.0000
  Fe  Fe86      1.0  0.62000  0.96209  0.57686  1.0000
  H   H928      1.0  0.50390  0.96299  0.50373  1.0000
  C   C1168     1.0  0.48647  0.96385  0.39656  1.0000
  S   S171      1.0  0.57755  0.91935  0.57010  1.0000
  S   S172      1.0  0.56358  0.91872  0.63410  1.0000
  C   C1169     1.0  0.48760  0.53731  0.58083  1.0000
  C   C1170     1.0  0.97668  0.54752  0.61972  1.0000
  H   H929      1.0  0.54186  0.84802  0.56516  1.0000
  H   H930      1.0  0.51759  0.65615  0.53201  1.0000
  C   C1171     1.0  0.54701  0.91707  0.49329  1.0000
  H   H931      1.0  0.61140  0.95192  0.50393  1.0000
  C   C1172     1.0  0.61045  0.78756  0.59760  1.0000
  C   C1173     1.0  0.58085  0.77758  0.60473  1.0000
  C   C1174     1.0  0.57074  0.79806  0.60895  1.0000
  C   C1175     1.0  0.58987  0.82888  0.60603  1.0000
  C   C1176     1.0  0.61941  0.83887  0.59889  1.0000
  C   C1177     1.0  0.62960  0.81843  0.59476  1.0000
  H   H932      1.0  0.56573  0.75406  0.60709  1.0000
  H   H933      1.0  0.54785  0.78989  0.61460  1.0000
  H   H934      1.0  0.63445  0.86240  0.59699  1.0000
  H   H935      1.0  0.65256  0.82657  0.58945  1.0000
  C   C1178     1.0  0.50174  0.56831  0.58353  1.0000
  H   H936      1.0  0.96049  0.70316  0.33417  1.0000
  H   H937      1.0  0.52450  0.58198  0.57717  1.0000
  C   C1179     1.0  0.62534  0.65966  0.48069  1.0000
  C   C1180     1.0  0.62907  0.64018  0.49732  1.0000
  C   C1181     1.0  0.63630  0.61994  0.48566  1.0000
  H   H938      1.0  0.61981  0.67538  0.48914  1.0000
  H   H939      1.0  0.63923  0.60470  0.49815  1.0000
  H   H940      1.0  0.85913  0.66986  0.40231  1.0000
  H   H941      1.0  0.91704  0.49297  0.37724  1.0000
  H   H942      1.0  0.70311  0.89466  0.58284  1.0000
  H   H943      1.0  0.61950  0.55601  0.64545  1.0000
  C   C1182     1.0  0.61563  0.90326  0.44509  1.0000
  C   C1183     1.0  0.65309  0.91603  0.54218  1.0000
  C   C1184     1.0  0.57219  0.56879  0.43085  1.0000
  S   S173      1.0  0.95716  0.57021  0.34742  1.0000
  H   H944      1.0  0.49838  0.51641  0.39609  1.0000
  H   H945      1.0  0.94794  0.78047  0.40566  1.0000
  H   H946      1.0  0.94137  0.52923  0.44953  1.0000
  H   H947      1.0  0.59721  0.90033  0.43289  1.0000
  H   H948      1.0  0.80613  0.65570  0.40135  1.0000
  H   H949      1.0  0.54975  0.98181  0.47725  1.0000
  C   C1185     1.0  0.89177  0.64028  0.39810  1.0000
  C   C1186     1.0  0.51638  0.63639  0.52370  1.0000
  Fe  Fe87      1.0  0.60718  0.96134  0.63794  1.0000
  H   H950      1.0  0.53984  0.53722  0.34101  1.0000
  C   C1187     1.0  0.95081  0.51686  0.45867  1.0000
  H   H951      1.0  0.52387  0.55136  0.62547  1.0000
  H   H952      1.0  0.56650  0.92289  0.33058  1.0000
  C   C1188     1.0  0.92874  0.73833  0.38581  1.0000
  C   C1189     1.0  0.94945  0.66932  0.41849  1.0000
  H   H953      1.0  0.86952  0.62843  0.39013  1.0000
  C   C1190     1.0  0.56991  0.52936  0.54826  1.0000
  C   C1191     1.0  0.97544  0.48469  0.48160  1.0000
  C   C1192     1.0  0.84859  0.66842  0.38352  1.0000
  C   C1193     1.0  0.68977  0.92736  0.57644  1.0000
  H   H954      1.0  0.97021  0.49292  0.53361  1.0000
  C   C1194     1.0  0.49085  0.58291  0.51968  1.0000
  C   C1195     1.0  0.57427  0.96706  0.38288  1.0000
  H   H955      1.0  0.95849  0.70344  0.39005  1.0000
  C   C1196     1.0  0.94696  0.77148  0.33911  1.0000
  C   C1197     1.0  0.56530  0.55843  0.60992  1.0000
  H   H956      1.0  0.50450  0.57911  0.44529  1.0000
  C   C1198     1.0  0.51420  0.58479  0.50419  1.0000
  C   C1199     1.0  0.53219  0.56200  0.46014  1.0000
  H   H957      1.0  0.60924  0.56692  0.60032  1.0000
  H   H958      1.0  0.56085  0.56373  0.59037  1.0000
  C   C1200     1.0  0.82050  0.66532  0.33556  1.0000
  H   H959      1.0  0.56483  0.54869  0.46904  1.0000
  C   C1201     1.0  0.53517  0.54296  0.51465  1.0000
  S   S174      1.0  0.95609  0.58591  0.42455  1.0000
  H   H960      1.0  0.54225  0.97886  0.63216  1.0000
  C   C1202     1.0  0.81863  0.66076  0.38311  1.0000
  C   C1203     1.0  0.54188  0.50702  0.54020  1.0000
  C   C1204     1.0  0.92850  0.64154  0.42839  1.0000
  C   C1205     1.0  0.48629  0.58158  0.59400  1.0000
  H   H961      1.0  0.53191  0.90745  0.42769  1.0000
  H   H962      1.0  0.57212  0.58790  0.51640  1.0000
  S   S175      1.0  0.57428  0.51244  0.36092  1.0000
  Fe  Fe88      1.0  0.94863  0.60038  0.32138  1.0000
  C   C1206     1.0  0.61057  0.52726  0.45707  1.0000
  C   C1207     1.0  0.59391  0.51383  0.47976  1.0000
  C   C1208     1.0  0.59876  0.51588  0.43225  1.0000
  H   H963      1.0  0.54974  0.90580  0.51020  1.0000
  H   H964      1.0  0.48370  0.93480  0.45764  1.0000
  C   C1209     1.0  0.68931  0.90075  0.57139  1.0000
  H   H965      1.0  0.93892  0.53807  0.64395  1.0000
  C   C1210     1.0  0.59244  0.56013  0.61554  1.0000
  C   C1211     1.0  0.54426  0.55130  0.62985  1.0000
  C   C1212     1.0  0.79117  0.58161  0.36704  1.0000
  C   C1213     1.0  0.53842  0.58577  0.41737  1.0000
  C   C1214     1.0  0.94170  0.68244  0.39813  1.0000
  H   H966      1.0  0.64862  0.62420  0.62049  1.0000
  H   H967      1.0  0.88364  0.60510  0.42526  1.0000
  H   H968      1.0  0.49988  0.52735  0.57279  1.0000
  H   H969      1.0  0.50619  0.80385  0.53992  1.0000
  H   H970      1.0  0.63251  0.54666  0.45865  1.0000
  C   C1215     1.0  0.49203  0.60862  0.52937  1.0000
  H   H971      1.0  0.60237  0.57604  0.54570  1.0000
  H   H972      1.0  0.79498  0.57749  0.38721  1.0000
  H   H973      1.0  0.53181  0.59696  0.40312  1.0000
  H   H974      1.0  0.55544  0.95563  0.51559  1.0000
  H   H975      1.0  0.70394  0.94197  0.59179  1.0000
  P   P39       1.0  0.90328  0.68380  0.36024  1.0000
  H   H976      1.0  0.52384  0.78622  0.50226  1.0000
  H   H977      1.0  0.52506  0.50381  0.42897  1.0000
  C   C1216     1.0  0.66900  0.62375  0.62431  1.0000
  H   H978      1.0  0.85757  0.57012  0.64240  1.0000
  C   C1217     1.0  0.54051  0.90365  0.46847  1.0000
  H   H979      1.0  0.86972  0.63327  0.32483  1.0000
  S   S176      1.0  0.72963  0.59470  0.32609  1.0000
  H   H980      1.0  0.57573  0.59131  0.39423  1.0000
  H   H981      1.0  0.73386  0.63939  0.59449  1.0000
  S   S177      1.0  0.89969  0.49153  0.32262  1.0000
  C   C1218     1.0  0.56309  0.58251  0.41227  1.0000
  H   H982      1.0  0.93467  0.63097  0.44368  1.0000
  C   C1219     1.0  0.63648  0.79092  0.51792  1.0000
  C   C1220     1.0  0.65424  0.79316  0.49636  1.0000
  C   C1221     1.0  0.66400  0.81711  0.47888  1.0000
  C   C1222     1.0  0.65608  0.83891  0.48298  1.0000
  C   C1223     1.0  0.63805  0.83665  0.50451  1.0000
  C   C1224     1.0  0.62832  0.81250  0.52195  1.0000
  P   P40       1.0  0.62866  0.86510  0.51118  1.0000
  C   C1225     1.0  0.65216  0.88901  0.53719  1.0000
  C   C1226     1.0  0.63459  0.88830  0.48253  1.0000
  C   C1227     1.0  0.58069  0.55845  0.53948  1.0000
  H   H983      1.0  0.55880  0.66006  0.50414  1.0000
  C   C1228     1.0  0.61080  0.88406  0.46630  1.0000
  C   C1229     1.0  0.55689  0.55858  0.45474  1.0000
  C   C1230     1.0  0.86453  0.67379  0.35982  1.0000
  H   H984      1.0  0.50164  0.97572  0.38052  1.0000
  H   H985      1.0  0.61139  0.52640  0.41452  1.0000
  C   C1231     1.0  0.67073  0.88170  0.55173  1.0000
  C   C1232     1.0  0.58981  0.84624  0.52022  1.0000
  C   C1233     1.0  0.56943  0.82105  0.50602  1.0000
  C   C1234     1.0  0.53934  0.80591  0.51298  1.0000
  C   C1235     1.0  0.52937  0.81581  0.53414  1.0000
  C   C1236     1.0  0.54949  0.84079  0.54833  1.0000
  C   C1237     1.0  0.57964  0.85584  0.54158  1.0000
  H   H986      1.0  0.62926  0.77263  0.53179  1.0000
  H   H987      1.0  0.66060  0.77642  0.49336  1.0000
  H   H988      1.0  0.67793  0.81886  0.46227  1.0000
  H   H989      1.0  0.66413  0.85744  0.46943  1.0000
  H   H990      1.0  0.61480  0.81053  0.53898  1.0000
  C   C1238     1.0  0.53093  0.91707  0.35643  1.0000
  C   C1239     1.0  0.62713  0.97232  0.49425  1.0000
  H   H991      1.0  0.58844  0.86637  0.47013  1.0000
  H   H992      1.0  0.87954  0.62230  0.62732  1.0000
  H   H993      1.0  0.63937  0.92248  0.53097  1.0000
  H   H994      1.0  0.78110  0.65227  0.35875  1.0000
  C   C1240     1.0  0.49662  0.95624  0.41939  1.0000
  H   H995      1.0  0.67081  0.86123  0.54830  1.0000
  H   H996      1.0  0.57687  0.81293  0.48974  1.0000
  H   H997      1.0  0.60497  0.96719  0.35430  1.0000
  C   C1241     1.0  0.93289  0.48657  0.46362  1.0000
  C   C1242     1.0  0.52315  0.92785  0.37852  1.0000
  H   H998      1.0  0.59490  0.87440  0.55356  1.0000
  H   H999      1.0  0.49462  0.49841  0.63443  1.0000
  C   C1243     1.0  0.91263  0.66814  0.38800  1.0000
  C   C1244     1.0  0.48218  0.95770  0.51068  1.0000
  C   C1245     1.0  0.66323  0.91195  0.47707  1.0000
  H   H1000     1.0  0.92127  0.72575  0.40402  1.0000
  C   C1246     1.0  0.53959  0.63855  0.50815  1.0000
  P   P41       1.0  0.51386  0.55193  0.49190  1.0000
  H   H1001     1.0  0.66345  0.88005  0.64344  1.0000
  H   H1002     1.0  0.58318  0.52422  0.56144  1.0000
  C   C1247     1.0  0.54059  0.94676  0.44951  1.0000
  C   C1248     1.0  0.54707  0.96001  0.47453  1.0000
  H   H1003     1.0  0.61031  0.95640  0.45510  1.0000
  C   C1249     1.0  0.54480  0.95299  0.39197  1.0000
  C   C1250     1.0  0.48281  0.92842  0.59516  1.0000
  C   C1251     1.0  0.94356  0.68425  0.32354  1.0000
  H   H1004     1.0  0.68672  0.63927  0.58545  1.0000
  C   C1252     1.0  0.92329  0.72373  0.36146  1.0000
  H   H1005     1.0  0.68190  0.91591  0.48944  1.0000
  H   H1006     1.0  0.48575  0.89503  0.61806  1.0000
  C   C1253     1.0  0.64414  0.92686  0.43998  1.0000
  C   C1254     1.0  0.56038  0.93123  0.34763  1.0000
  P   P42       1.0  0.53504  0.96544  0.42171  1.0000
  C   C1255     1.0  0.93201  0.74049  0.33807  1.0000
  H   H1007     1.0  0.97594  0.50016  0.58171  1.0000
  C   C1256     1.0  0.53860  0.61293  0.49851  1.0000
  C   C1257     1.0  0.52305  0.57563  0.44123  1.0000
  H   H1008     1.0  0.67250  0.95591  0.56535  1.0000
  C   C1258     1.0  0.85047  0.67301  0.33588  1.0000
  C   C1259     1.0  0.62678  0.97486  0.46644  1.0000
  H   H1009     1.0  0.68986  0.94993  0.45230  1.0000
  H   H1010     1.0  0.51415  0.89763  0.34622  1.0000
  C   C1260     1.0  0.95290  0.78590  0.36347  1.0000
  H   H1011     1.0  0.74297  0.62463  0.63824  1.0000
  H   H1012     1.0  0.96599  0.51662  0.40139  1.0000
  C   C1261     1.0  0.69054  0.63236  0.60461  1.0000
  C   C1262     1.0  0.71710  0.63250  0.60978  1.0000
  C   C1263     1.0  0.72218  0.62414  0.63469  1.0000
  H   H1013     1.0  0.97185  0.68036  0.42631  1.0000
  H   H1014     1.0  0.49277  0.97260  0.64049  1.0000
  C   C1264     1.0  0.52899  0.53379  0.32201  1.0000
  C   C1265     1.0  0.48992  0.49341  0.40155  1.0000
  H   H1015     1.0  0.96259  0.57422  0.47916  1.0000
  C   C1266     1.0  0.59822  0.55400  0.64103  1.0000
  C   C1267     1.0  0.96057  0.53976  0.64331  1.0000
  C   C1268     1.0  0.56546  0.48899  0.47763  1.0000
  C   C1269     1.0  0.67394  0.61528  0.64918  1.0000
  C   C1270     1.0  0.87706  0.61718  0.64824  1.0000
  H   H1016     1.0  0.53210  0.95973  0.31848  1.0000
  H   H1017     1.0  0.49755  0.48810  0.32985  1.0000
  H   H1018     1.0  0.50344  0.49599  0.51691  1.0000
  C   C1271     1.0  0.57027  0.49128  0.43010  1.0000
  C   C1272     1.0  0.97744  0.59758  0.47584  1.0000
  H   H1019     1.0  0.70542  0.93074  0.65060  1.0000
  H   H1020     1.0  0.53330  0.48447  0.54713  1.0000
  C   C1273     1.0  0.50522  0.48612  0.42013  1.0000
  H   H1021     1.0  0.95377  0.78432  0.32101  1.0000
  C   C1274     1.0  0.89256  0.64506  0.31827  1.0000
  H   H1022     1.0  0.92709  0.72966  0.31903  1.0000
  Fe  Fe89      1.0  0.66292  0.61606  0.80959  1.0000
  S   S178      1.0  0.67108  0.58036  0.79439  1.0000
  S   S179      1.0  0.66070  0.65086  0.78298  1.0000
  Fe  Fe90      1.0  0.65470  0.59242  0.86710  1.0000
  S   S180      1.0  0.66217  0.55476  0.85478  1.0000
  S   S181      1.0  0.63387  0.58885  0.90826  1.0000
  Fe  Fe91      1.0  0.70046  0.58847  0.82994  1.0000
  S   S182      1.0  0.74041  0.58189  0.81964  1.0000
  Fe  Fe92      1.0  0.63298  0.54954  0.82024  1.0000
  S   S183      1.0  0.59706  0.50696  0.80187  1.0000
  S   S184      1.0  0.69483  0.62689  0.84411  1.0000
  S   S185      1.0  0.62302  0.58471  0.83350  1.0000
  H   H1023     1.0  0.58554  0.78683  0.95288  1.0000
  Fe  Fe93      1.0  0.90800  0.59899  0.84407  1.0000
  S   S186      1.0  0.95730  0.63252  0.84754  1.0000
  S   S187      1.0  0.87347  0.61407  0.85181  1.0000
  Fe  Fe94      1.0  0.92122  0.54894  0.83389  1.0000
  C   C1275     1.0  0.48980  0.60350  0.66526  1.0000
  Fe  Fe95      1.0  0.96076  0.59852  0.87300  1.0000
  C   C1276     1.0  0.53977  0.54096  0.71281  1.0000
  H   H1024     1.0  0.61299  0.86641  0.65883  1.0000
  H   H1025     1.0  0.75907  0.53856  0.74672  1.0000
  S   S188      1.0  0.91133  0.56605  0.87118  1.0000
  S   S189      1.0  0.91474  0.57966  0.80667  1.0000
  C   C1277     1.0  0.53411  0.98165  0.85533  1.0000
  C   C1278     1.0  0.71178  0.49981  0.94843  1.0000
  C   C1279     1.0  0.55460  0.97171  0.85710  1.0000
  C   C1280     1.0  0.71219  0.54768  0.90473  1.0000
  H   H1026     1.0  0.60459  0.95093  0.71722  1.0000
  H   H1027     1.0  0.59468  0.90513  0.97981  1.0000
  C   C1281     1.0  0.58167  0.62277  0.92243  1.0000
  C   C1282     1.0  0.61505  0.97304  0.72536  1.0000
  C   C1283     1.0  0.88145  0.51655  0.75740  1.0000
  H   H1028     1.0  0.48042  0.49252  0.90856  1.0000
  H   H1029     1.0  0.84926  0.50663  0.78812  1.0000
  C   C1284     1.0  0.54189  0.51719  0.72373  1.0000
  C   C1285     1.0  0.78436  0.51136  0.86267  1.0000
  C   C1286     1.0  0.77742  0.59119  0.82915  1.0000
  C   C1287     1.0  0.78967  0.57434  0.81908  1.0000
  C   C1288     1.0  0.81904  0.58123  0.82529  1.0000
  C   C1289     1.0  0.83653  0.60481  0.84223  1.0000
  C   C1290     1.0  0.82420  0.62150  0.85249  1.0000
  C   C1291     1.0  0.79499  0.61488  0.84596  1.0000
  H   H1030     1.0  0.77630  0.55566  0.80644  1.0000
  H   H1031     1.0  0.82794  0.56797  0.81738  1.0000
  H   H1032     1.0  0.83741  0.63979  0.86562  1.0000
  H   H1033     1.0  0.78616  0.62822  0.85387  1.0000
  C   C1292     1.0  0.64775  0.64666  0.74958  1.0000
  C   C1293     1.0  0.63709  0.61997  0.73585  1.0000
  C   C1294     1.0  0.62802  0.61781  0.70923  1.0000
  C   C1295     1.0  0.62935  0.64225  0.69580  1.0000
  C   C1296     1.0  0.63952  0.66883  0.70967  1.0000
  C   C1297     1.0  0.64860  0.67096  0.73634  1.0000
  H   H1034     1.0  0.63556  0.60091  0.74588  1.0000
  H   H1035     1.0  0.61973  0.59692  0.69905  1.0000
  H   H1036     1.0  0.64068  0.68785  0.69979  1.0000
  H   H1037     1.0  0.65667  0.69174  0.74668  1.0000
  C   C1298     1.0  0.63987  0.60817  0.93885  1.0000
  C   C1299     1.0  0.61892  0.59475  0.95932  1.0000
  C   C1300     1.0  0.66455  0.63617  0.94336  1.0000
  H   H1038     1.0  0.59993  0.57293  0.95629  1.0000
  H   H1039     1.0  0.68089  0.64684  0.92796  1.0000
  H   H1040     1.0  0.90629  0.57456  0.71477  1.0000
  C   C1301     1.0  0.61849  0.97713  0.75301  1.0000
  H   H1041     1.0  0.48235  0.61896  0.65997  1.0000
  H   H1042     1.0  0.68749  0.67193  0.97119  1.0000
  C   C1302     1.0  0.58569  0.64626  0.93877  1.0000
  P   P43       1.0  0.60787  0.68430  0.92768  1.0000
  C   C1303     1.0  0.68339  0.97273  0.94973  1.0000
  H   H1043     1.0  0.95274  0.61406  0.94792  1.0000
  H   H1044     1.0  0.74643  0.57679  0.87753  1.0000
  C   C1304     1.0  0.69158  0.98134  0.72820  1.0000
  C   C1305     1.0  0.63140  0.88856  0.66238  1.0000
  C   C1306     1.0  0.75135  0.52394  0.88632  1.0000
  C   C1307     1.0  0.80901  0.53579  0.87381  1.0000
  H   H1045     1.0  0.94866  0.51398  0.85573  1.0000
  H   H1046     1.0  0.51301  0.67317  0.89463  1.0000
  C   C1308     1.0  0.95148  0.66109  0.75876  1.0000
  C   C1309     1.0  0.58536  0.69344  0.90678  1.0000
  C   C1310     1.0  0.94969  0.53669  0.96402  1.0000
  C   C1311     1.0  0.57694  0.54631  0.66097  1.0000
  C   C1312     1.0  0.55068  0.70806  0.87423  1.0000
  C   C1313     1.0  0.53702  0.68530  0.89287  1.0000
  C   C1314     1.0  0.55427  0.67803  0.90916  1.0000
  C   C1315     1.0  0.52267  0.51501  0.88911  1.0000
  H   H1047     1.0  0.49096  0.93981  0.96859  1.0000
  H   H1048     1.0  0.62819  0.90128  0.94355  1.0000
  C   C1316     1.0  0.52017  0.61318  0.66622  1.0000
  C   C1317     1.0  0.94530  0.48866  0.93554  1.0000
  C   C1318     1.0  0.77625  0.54804  0.89789  1.0000
  H   H1049     1.0  0.61300  0.66865  0.87318  1.0000
  C   C1319     1.0  0.72794  0.59976  0.89814  1.0000
  H   H1050     1.0  0.96450  0.48794  0.71971  1.0000
  C   C1320     1.0  0.63041  0.81390  0.93879  1.0000
  C   C1321     1.0  0.77532  0.96525  0.69233  1.0000
  H   H1051     1.0  0.77365  0.56231  0.91183  1.0000
  H   H1052     1.0  0.53285  0.49627  0.71340  1.0000
  H   H1053     1.0  0.54327  0.66035  0.92348  1.0000
  H   H1054     1.0  0.47881  0.49470  0.71845  1.0000
  C   C1322     1.0  0.56829  0.54730  0.76150  1.0000
  C   C1323     1.0  0.68773  0.57023  0.92832  1.0000
  C   C1324     1.0  0.57055  0.63974  0.96305  1.0000
  H   H1055     1.0  0.58398  0.96125  0.83553  1.0000
  C   C1325     1.0  0.96381  0.53230  0.76849  1.0000
  H   H1056     1.0  0.71155  0.69729  0.71886  1.0000
  H   H1057     1.0  0.48223  0.96317  0.69970  1.0000
  C   C1326     1.0  0.62643  0.90959  0.67496  1.0000
  C   C1327     1.0  0.69031  0.54533  0.92245  1.0000
  C   C1328     1.0  0.51901  0.93689  0.75612  1.0000
  C   C1329     1.0  0.95016  0.49031  0.96276  1.0000
  H   H1058     1.0  0.67480  0.52422  0.93126  1.0000
  H   H1059     1.0  0.71244  0.55094  0.68453  1.0000
  C   C1330     1.0  0.70061  0.61554  0.65464  1.0000
  S   S190      1.0  0.61882  0.63829  0.66169  1.0000
  C   C1331     1.0  0.67896  0.94601  0.67129  1.0000
  C   C1332     1.0  0.54519  0.50038  0.93322  1.0000
  H   H1060     1.0  0.60512  0.73819  0.94218  1.0000
  C   C1333     1.0  0.55290  0.52396  0.89044  1.0000
  H   H1061     1.0  0.65305  0.94838  0.91849  1.0000
  C   C1334     1.0  0.58164  0.72369  0.87195  1.0000
  H   H1062     1.0  0.56174  0.96826  0.87625  1.0000
  H   H1063     1.0  0.55430  0.49489  0.95014  1.0000
  H   H1064     1.0  0.80700  0.58764  0.68565  1.0000
  C   C1335     1.0  0.53001  0.59310  0.67154  1.0000
  H   H1065     1.0  0.70408  0.61648  0.92037  1.0000
  H   H1066     1.0  0.64573  0.95460  0.68819  1.0000
  C   C1336     1.0  0.74760  0.96357  0.69068  1.0000
  C   C1337     1.0  0.94717  0.66788  0.78443  1.0000
  C   C1338     1.0  0.55259  0.61030  0.97116  1.0000
  H   H1067     1.0  0.91464  0.53329  0.72679  1.0000
  C   C1339     1.0  0.66762  0.70019  0.91961  1.0000
  C   C1340     1.0  0.60760  0.82920  0.97237  1.0000
  H   H1068     1.0  0.56945  0.97073  0.79203  1.0000
  S   S191      1.0  0.89915  0.50059  0.82129  1.0000
  C   C1341     1.0  0.54644  0.95998  0.70758  1.0000
  H   H1069     1.0  0.66730  0.55020  0.65871  1.0000
  C   C1342     1.0  0.49114  0.49980  0.67710  1.0000
  C   C1343     1.0  0.55242  0.56805  0.72641  1.0000
  C   C1344     1.0  0.56653  0.57111  0.75068  1.0000
  C   C1345     1.0  0.75916  0.56624  0.68471  1.0000
  H   H1070     1.0  0.68079  0.95745  0.72675  1.0000
  H   H1071     1.0  0.94323  0.55249  0.92663  1.0000
  H   H1072     1.0  0.73675  0.48617  0.86039  1.0000
  H   H1073     1.0  0.57661  0.59221  0.76092  1.0000
  H   H1074     1.0  0.57271  0.65726  0.97595  1.0000
  H   H1075     1.0  0.62294  0.72885  0.88624  1.0000
  C   C1346     1.0  0.69127  0.70226  0.90466  1.0000
  H   H1076     1.0  0.97372  0.67161  0.75050  1.0000
  H   H1077     1.0  0.72097  0.52329  0.83819  1.0000
  H   H1078     1.0  0.96026  0.53005  0.68442  1.0000
  H   H1079     1.0  0.93543  0.48630  0.75910  1.0000
  C   C1347     1.0  0.56419  0.51689  0.91260  1.0000
  H   H1080     1.0  0.53727  0.71351  0.86148  1.0000
  H   H1081     1.0  0.56118  0.57552  0.91799  1.0000
  C   C1348     1.0  0.70991  0.65752  0.70463  1.0000
  H   H1082     1.0  0.95103  0.53154  0.78571  1.0000
  C   C1349     1.0  0.78784  0.59075  0.68587  1.0000
  H   H1083     1.0  0.70067  0.65884  0.68589  1.0000
  C   C1350     1.0  0.67711  0.49901  0.82188  1.0000
  C   C1351     1.0  0.55872  0.97307  0.80945  1.0000
  H   H1084     1.0  0.59223  0.74124  0.85741  1.0000
  C   C1352     1.0  0.54490  0.97874  0.72647  1.0000
  H   H1085     1.0  0.85240  0.55833  0.69002  1.0000
  H   H1086     1.0  0.78763  0.49725  0.84902  1.0000
  C   C1353     1.0  0.66101  0.56820  0.72203  1.0000
  H   H1087     1.0  0.58773  0.52420  0.91365  1.0000
  C   C1354     1.0  0.63384  0.85674  0.97449  1.0000
  H   H1088     1.0  0.74201  0.62062  0.88816  1.0000
  C   C1355     1.0  0.73055  0.57492  0.89226  1.0000
  C   C1356     1.0  0.68661  0.69205  0.87865  1.0000
  C   C1357     1.0  0.63907  0.68795  0.90858  1.0000
  P   P44       1.0  0.71422  0.51526  0.89547  1.0000
  C   C1358     1.0  0.80494  0.55409  0.89140  1.0000
  C   C1359     1.0  0.64608  0.92079  0.95273  1.0000
  C   C1360     1.0  0.63230  0.52234  0.68556  1.0000
  H   H1089     1.0  0.67181  0.70779  0.93979  1.0000
  C   C1361     1.0  0.79181  0.61930  0.68763  1.0000
  C   C1362     1.0  0.73439  0.57024  0.68525  1.0000
  C   C1363     1.0  0.68364  0.92498  0.65800  1.0000
  C   C1364     1.0  0.89757  0.53579  0.73682  1.0000
  C   C1365     1.0  0.65456  0.91973  0.97889  1.0000
  C   C1366     1.0  0.62046  0.51950  0.71087  1.0000
  H   H1090     1.0  0.72869  0.94566  0.70068  1.0000
  C   C1367     1.0  0.65836  0.86253  0.95862  1.0000
  S   S192      1.0  0.97055  0.57851  0.83727  1.0000
  H   H1091     1.0  0.53610  0.63613  0.66206  1.0000
  P   P45       1.0  0.70898  0.98355  0.67562  1.0000
  C   C1368     1.0  0.97676  0.61008  0.72911  1.0000
  C   C1369     1.0  0.85579  0.54418  0.76470  1.0000
  C   C1370     1.0  0.87143  0.56323  0.74365  1.0000
  P   P46       1.0  0.86851  0.59584  0.73720  1.0000
  C   C1371     1.0  0.83265  0.59112  0.74597  1.0000
  C   C1372     1.0  0.89882  0.62512  0.75529  1.0000
  C   C1373     1.0  0.89473  0.63174  0.78125  1.0000
  C   C1374     1.0  0.55594  0.52034  0.74805  1.0000
  H   H1092     1.0  0.55745  0.50197  0.75657  1.0000
  H   H1093     1.0  0.58222  0.54235  0.68068  1.0000
  C   C1375     1.0  0.92750  0.63962  0.74430  1.0000
  C   C1376     1.0  0.83000  0.61559  0.75384  1.0000
  C   C1377     1.0  0.80205  0.61213  0.75951  1.0000
  C   C1378     1.0  0.77653  0.58441  0.75684  1.0000
  C   C1379     1.0  0.77890  0.56007  0.74851  1.0000
  C   C1380     1.0  0.80683  0.56343  0.74286  1.0000
  C   C1381     1.0  0.87209  0.60414  0.70239  1.0000
  C   C1382     1.0  0.86208  0.58123  0.68375  1.0000
  H   H1094     1.0  0.83135  0.54094  0.86851  1.0000
  C   C1383     1.0  0.88372  0.63352  0.69371  1.0000
  H   H1095     1.0  0.84091  0.54815  0.77676  1.0000
  H   H1096     1.0  0.87324  0.61975  0.79079  1.0000
  C   C1384     1.0  0.53121  0.96732  0.75094  1.0000
  C   C1385     1.0  0.86476  0.58779  0.65676  1.0000
  H   H1097     1.0  0.57941  0.54979  0.78025  1.0000
  H   H1098     1.0  0.93163  0.63386  0.72485  1.0000
  H   H1099     1.0  0.84948  0.63734  0.75578  1.0000
  H   H1100     1.0  0.80016  0.63080  0.76653  1.0000
  H   H1101     1.0  0.75498  0.58167  0.76190  1.0000
  H   H1102     1.0  0.80823  0.54444  0.73609  1.0000
  C   C1386     1.0  0.63288  0.70164  0.97765  1.0000
  Fe  Fe96      1.0  0.96389  0.61027  0.81170  1.0000
  H   H1103     1.0  0.89101  0.65147  0.70778  1.0000
  C   C1387     1.0  0.86056  0.52072  0.77130  1.0000
  C   C1388     1.0  0.95502  0.50684  0.75339  1.0000
  C   C1389     1.0  0.63483  0.54241  0.72908  1.0000
  H   H1104     1.0  0.55189  0.58704  0.71832  1.0000
  H   H1105     1.0  0.62564  0.54023  0.74875  1.0000
  C   C1390     1.0  0.53790  0.98278  0.80743  1.0000
  H   H1106     1.0  0.96068  0.59167  0.69034  1.0000
  C   C1391     1.0  0.56700  0.96757  0.83417  1.0000
  C   C1392     1.0  0.50945  0.56314  0.67648  1.0000
  C   C1393     1.0  0.47888  0.55360  0.67578  1.0000
  C   C1394     1.0  0.65663  0.84117  0.94089  1.0000
  C   C1395     1.0  0.93738  0.49052  0.85145  1.0000
  H   H1107     1.0  0.51143  0.89483  0.74135  1.0000
  C   C1396     1.0  0.66031  0.94725  0.93832  1.0000
  H   H1108     1.0  0.91563  0.65808  0.81579  1.0000
  C   C1397     1.0  0.61728  0.97372  0.97595  1.0000
  C   C1398     1.0  0.71488  0.63394  0.71063  1.0000
  C   C1399     1.0  0.70659  0.59743  0.91623  1.0000
  H   H1109     1.0  0.60015  0.49960  0.71648  1.0000
  C   C1400     1.0  0.65007  0.93828  0.67920  1.0000
  C   C1401     1.0  0.63476  0.67819  0.88223  1.0000
  C   C1402     1.0  0.73820  0.59890  0.68677  1.0000
  H   H1110     1.0  0.82418  0.57333  0.89959  1.0000
  C   C1403     1.0  0.70371  0.48939  0.92252  1.0000
  H   H1111     1.0  0.88593  0.49910  0.76334  1.0000
  C   C1404     1.0  0.72709  0.67814  0.74817  1.0000
  C   C1405     1.0  0.73222  0.65485  0.75426  1.0000
  C   C1406     1.0  0.72640  0.63296  0.73551  1.0000
  H   H1112     1.0  0.77060  0.64573  0.68924  1.0000
  C   C1407     1.0  0.54970  0.54488  0.65545  1.0000
  C   C1408     1.0  0.68816  0.49983  0.86857  1.0000
  H   H1113     1.0  0.67050  0.56836  0.94161  1.0000
  C   C1409     1.0  0.50363  0.49882  0.90988  1.0000
  H   H1114     1.0  0.81405  0.63828  0.68878  1.0000
  H   H1115     1.0  0.55368  0.60091  0.67121  1.0000
  C   C1410     1.0  0.61530  0.73263  0.95816  1.0000
  H   H1116     1.0  0.71311  0.71126  0.91344  1.0000
  H   H1117     1.0  0.93815  0.50953  0.90170  1.0000
  C   C1411     1.0  0.52058  0.91822  0.73715  1.0000
  C   C1412     1.0  0.67297  0.57142  0.69660  1.0000
  H   H1118     1.0  0.95220  0.55595  0.97448  1.0000
  H   H1119     1.0  0.72355  0.52340  0.95246  1.0000
  H   H1120     1.0  0.56770  0.53648  0.87436  1.0000
  C   C1413     1.0  0.95128  0.51379  0.97734  1.0000
  C   C1414     1.0  0.62015  0.70838  0.95623  1.0000
  H   H1121     1.0  0.73061  0.69455  0.76300  1.0000
  H   H1122     1.0  0.73999  0.65337  0.77377  1.0000
  H   H1123     1.0  0.73011  0.61483  0.74072  1.0000
  C   C1415     1.0  0.91880  0.65331  0.79562  1.0000
  P   P47       1.0  0.52239  0.53693  0.68093  1.0000
  H   H1124     1.0  0.95625  0.59517  0.73909  1.0000
  C   C1416     1.0  0.59896  0.71652  0.88823  1.0000
  C   C1417     1.0  0.53430  0.92978  0.71289  1.0000
  C   C1418     1.0  0.89269  0.55912  0.73003  1.0000
  H   H1125     1.0  0.75611  0.54409  0.68358  1.0000
  C   C1419     1.0  0.65847  0.54819  0.67844  1.0000
  C   C1420     1.0  0.48229  0.48706  0.65193  1.0000
  H   H1126     1.0  0.59304  0.62678  0.90374  1.0000
  H   H1127     1.0  0.59317  0.49973  0.85886  1.0000
  H   H1128     1.0  0.67146  0.58565  0.73643  1.0000
  H   H1129     1.0  0.62908  0.79743  0.92496  1.0000
  H   H1130     1.0  0.70480  0.69318  0.86721  1.0000
  C   C1421     1.0  0.56329  0.59340  0.93039  1.0000
  H   H1131     1.0  0.61086  0.95799  0.76576  1.0000
  H   H1132     1.0  0.63624  0.68276  0.97675  1.0000
  C   C1422     1.0  0.94222  0.51080  0.92268  1.0000
  H   H1133     1.0  0.59830  0.95773  0.96477  1.0000
  H   H1134     1.0  0.51399  0.52051  0.87187  1.0000
  C   C1423     1.0  0.65993  0.89630  0.65374  1.0000
  H   H1135     1.0  0.67563  0.84585  0.92867  1.0000
  H   H1136     1.0  0.68458  0.50669  0.80196  1.0000
  P   P48       1.0  0.70665  0.60481  0.68706  1.0000
  C   C1424     1.0  0.71622  0.67961  0.72331  1.0000
  H   H1137     1.0  0.53595  0.91547  0.69827  1.0000
  H   H1138     1.0  0.65476  0.67198  0.84726  1.0000
  H   H1139     1.0  0.65715  0.60919  0.66431  1.0000
  C   C1425     1.0  0.76713  0.62340  0.68801  1.0000
  C   C1426     1.0  0.88638  0.64001  0.66671  1.0000
  C   C1427     1.0  0.97297  0.61848  0.95792  1.0000
  C   C1428     1.0  0.69772  0.50841  0.84251  1.0000
  H   H1140     1.0  0.50842  0.92768  0.77491  1.0000
  C   C1429     1.0  0.66813  0.65042  0.96792  1.0000
  C   C1430     1.0  0.62196  0.60942  0.98356  1.0000
  H   H1141     1.0  0.60412  0.90381  0.68090  1.0000
  C   C1431     1.0  0.65838  0.68008  0.86742  1.0000
  C   C1432     1.0  0.97283  0.53527  0.66628  1.0000
  C   C1433     1.0  0.60591  0.80795  0.95450  1.0000
  C   C1434     1.0  0.54899  0.58715  0.95481  1.0000
  H   H1142     1.0  0.77762  0.94856  0.70328  1.0000
  H   H1143     1.0  0.67880  0.88365  0.95992  1.0000
  C   C1435     1.0  0.94482  0.53496  0.93683  1.0000
  C   C1436     1.0  0.75561  0.50533  0.86900  1.0000
  C   C1437     1.0  0.51469  0.49089  0.93189  1.0000
  H   H1144     1.0  0.62109  0.50457  0.67143  1.0000
  H   H1145     1.0  0.53566  0.56438  0.96119  1.0000
  H   H1146     1.0  0.67819  0.97991  0.76877  1.0000
  C   C1438     1.0  0.97165  0.50785  0.73126  1.0000
  H   H1147     1.0  0.55776  0.96897  0.68903  1.0000
  H   H1148     1.0  0.96601  0.68376  0.79593  1.0000
  H   H1149     1.0  0.56210  0.97916  0.96778  1.0000
  H   H1150     1.0  0.89602  0.66280  0.66010  1.0000
  C   C1439     1.0  0.69204  0.97189  0.97568  1.0000
  H   H1151     1.0  0.58833  0.82402  0.98430  1.0000
  C   C1440     1.0  0.62291  0.74955  0.98131  1.0000
  H   H1152     1.0  0.61865  0.76783  0.98311  1.0000
