data_image0
_chemical_formula_structural       S3FeS2FeS2FeSFeS3FeS2FeS2FeSFeS3H2CHC7SH3C6H4C2H2C7H3C6H4CH3C5PC19H5SH12CHCH4CHSH3CH2CFeHCHC2HFeHC3H2CHCHCHCHCH2C5PC3HC10H14CHCHC3HCHCHC6H4CHC3FeCPC5H4C4H6C2HC7H2C2HCH2FeHSCH2SHCFe2S2FeCFeS3H2CPC6H2CHCHC8H4SCHCHCHCH3CSHC2SH2C7PC18H6C2H2CH11SFeCHC3HC2H2CSCHC2HFeC2HSH2CHCSCHCHCH5CHC2H2C2H2C2H3SCFeH2CHCFeS2FeS2FeSFeS3HCFePSPC2S2CH2C2HC6H4C3H2C3H3C8H5C4PC7H4CH3C2HC2H3CH3CHC2HC2HCHCH7C3HCH4PCH2C2H4CHCHC8HCH2C3H2C3H2C2PC16H12C2H2C2H2C2H2C2HCH2C4HC3HC3HC2HC2H2C2H2C2H2C3HPC3HCHCH2C7HFeS2FeS2FeSFeS3FeS2FeSHFeSFeS6C6H3C7H3C6H4C6H4CH3C5H5C3FeH2C4HCH2CPH2C2HCHC2HCHC3H2CHC2HC3HC2HC6PC18H19C2HCHC2HCHC3H2C2H2CH3CH2CHC11H4CH4FeC5PC15HC3H5CH7C2HCHCHC4H2CHCHC3HCHPHCH2SHCSCHCH3CH2C2PCH6C3HC2HFeS3C2SCFeS2FeSCFe2S2C6H4C2H2C2H2C3SH3SCHPC2H4PC15HC3H2CH2CH3CH4C2HC2H2CH6CHC5HCHSC2H2C3HCH3C2HC3HC4HCH2C4HC2SC2HCH5C2H2CHC5HC2HCPH2C2HCHSCFeH2FeC2HCH2C3H2CHCFeH5C3H3CH2CHC3HC2H3SH2C2SC2SFeSFeSHFeSHFeS2FeSFeS3C2HC7H5C4H2C6H4CHPHC3H5C7PC18H20CH2CH2CH4C2HCH2CPCHC3HCHCH2CHC5H2CH2C5HC6HCH2CHC2HPCHCH4CH2C4H2CHCH2C2HSCHCHCHSH3CH2C6HFeSHCHFeS2FeS2FeSFeS3CHCHC3HC2H2CHC2H3C6H3C6H4C2HCH2C2HC3HC4H2C2HCHCH2C2HCSHC3HCH3PCHC2HC3HC2HPC2H2C2PCHCH3C6H2CHCH4CH2CHCH6C2H3C2H2C4HC5H2C6HC4HCHCHC2H2C2H3CH2CHSCH3FeS2C2SC2FeS2FeSFeSFeS3C3HCHC6H4C7H7SCSCHCPSCFeH2CSPCHCHCHCH4CHCHCHC2HC2H2CH2CHC5H3CHC2H3C2H2C5H3CH3C2Fe2C6PC7H2C2HCHCHC3HCHCH12CH3CHC3H4C4H3CH4C2HC2HC4HC5H2C2H3CH2CHPC2SCHC2H3FeSHFeS2FeSFeS3FeS2FeS2FeSFeS3FeS2FeSC3H2CH2C6H4C2H3C2HC6H4C6H4C4H6CHCHCH2C6SH5CHPC7H2C3SC2H8C4H5C7PC18H12C3HC3H2C2HC2HCHC2H2C2H2CHC5H4SC4HC3HCHCH2CFeHPC2HC3HCH4CH2PHCH5CHC3HC2H2C3H3C3HSH2CH5CHC3HFeS2FeS2FeHFeS3CHSFeSHC4SC8H4C6H3C7H6C3H2PHC7H2C3HCHCH2C2H3PC8H3C2HC2HC2HC2H3C2HCHCH2CHCH3C2HSCH2CHC2SCHC2HC3HC3H2CHCHCPC2HCHCH5CH4C3HCHCH3C3H2CH5C6PC8H2C4HC2H2C2H3C3H2CHC2HPHCHPHC2HFeHCHFeS2FeSFeSFeS3FeCSH2FeSCSC2H3C7H3CH2C4H2C6H5C2PCH2CH2C3HC3H3CH2C2HCH2C2HCHCH6CHC4HC2FeHPCSC3H4CHC3H2CH8CHC3H2CSHC2H2C3HC7PC5HC12H3PSHC3H2C3HC6HC4H3SH5SC2H2C2FeS2H2FeSFeS2FeS2FeSFeS3FeS2FeS2FeSFeS3CH2C2H2C7H4C6H4C3HC6H4C6H8CH2CHC5HCH4C2H5CSC3HCPH2C7PC16H18C6PC16HC3H13CHCH2PC3HC2HCHC2H2C2HC2SH2C3HC3H3C5H3CHC2H2C2HC2H3C3FeCH
_chemical_formula_sum              "S192 Fe96 H1152 C1440 P48"
_cell_length_a       47.4743
_cell_length_b       47.6488
_cell_length_c       47.7849
_cell_angle_alpha    90.1197
_cell_angle_beta     90.1418
_cell_angle_gamma    90.0599

_space_group_name_H-M_alt    "P 1"
_space_group_IT_number       1

loop_
  _space_group_symop_operation_xyz
  'x, y, z'

loop_
  _atom_site_type_symbol
  _atom_site_label
  _atom_site_symmetry_multiplicity
  _atom_site_fract_x
  _atom_site_fract_y
  _atom_site_fract_z
  _atom_site_occupancy
  S   S1        1.0  0.11203  0.12922  0.25720  1.0000
  S   S2        1.0  0.13363  0.21217  0.25905  1.0000
  S   S3        1.0  0.17489  0.07818  0.26761  1.0000
  Fe  Fe1       1.0  0.31559  0.08457  0.17762  1.0000
  S   S4        1.0  0.28817  0.06619  0.14390  1.0000
  S   S5        1.0  0.29979  0.09482  0.22161  1.0000
  Fe  Fe2       1.0  0.36585  0.09434  0.13819  1.0000
  S   S6        1.0  0.34041  0.07802  0.10158  1.0000
  S   S7        1.0  0.41043  0.11163  0.12860  1.0000
  Fe  Fe3       1.0  0.30372  0.10252  0.11810  1.0000
  S   S8        1.0  0.27055  0.12321  0.09023  1.0000
  Fe  Fe4       1.0  0.32702  0.04275  0.12998  1.0000
  S   S9        1.0  0.32664  0.00033  0.10678  1.0000
  S   S10       1.0  0.32967  0.12190  0.15237  1.0000
  S   S11       1.0  0.35379  0.05818  0.16609  1.0000
  Fe  Fe5       1.0  0.15081  0.29070  0.04409  1.0000
  S   S12       1.0  0.19229  0.31105  0.05420  1.0000
  S   S13       1.0  0.12724  0.28916  0.00203  1.0000
  Fe  Fe6       1.0  0.14127  0.27455  0.10572  1.0000
  S   S14       1.0  0.18179  0.29421  0.11994  1.0000
  S   S15       1.0  0.11159  0.24805  0.13226  1.0000
  Fe  Fe7       1.0  0.17055  0.33028  0.09157  1.0000
  S   S16       1.0  0.18423  0.37577  0.09980  1.0000
  Fe  Fe8       1.0  0.20058  0.27366  0.08198  1.0000
  S   S17       1.0  0.24425  0.25444  0.08764  1.0000
  S   S18       1.0  0.12826  0.31209  0.07987  1.0000
  S   S19       1.0  0.16068  0.25179  0.06920  1.0000
  H   H1        1.0  0.06369  0.33695  0.98945  1.0000
  H   H2        1.0  0.21403  0.25521  0.01151  1.0000
  C   C1        1.0  0.11671  0.15827  0.08714  1.0000
  H   H3        1.0  0.16164  0.17209  0.04833  1.0000
  C   C2        1.0  0.46419  0.00372  0.19045  1.0000
  C   C3        1.0  0.14670  0.45447  0.14237  1.0000
  C   C4        1.0  0.17311  0.45528  0.12955  1.0000
  C   C5        1.0  0.18418  0.43097  0.11676  1.0000
  C   C6        1.0  0.16918  0.40545  0.11683  1.0000
  C   C7        1.0  0.14293  0.40450  0.13005  1.0000
  C   C8        1.0  0.13175  0.42891  0.14266  1.0000
  S   S20       1.0  0.15633  0.15209  0.30532  1.0000
  H   H4        1.0  0.20458  0.43191  0.10676  1.0000
  H   H5        1.0  0.13118  0.38505  0.13042  1.0000
  H   H6        1.0  0.11135  0.42801  0.15263  1.0000
  C   C9        1.0  0.26366  0.15977  0.08975  1.0000
  C   C10       1.0  0.23810  0.16942  0.07838  1.0000
  C   C11       1.0  0.23178  0.19833  0.07775  1.0000
  C   C12       1.0  0.25116  0.21788  0.08813  1.0000
  C   C13       1.0  0.27698  0.20824  0.09890  1.0000
  C   C14       1.0  0.28308  0.17932  0.10005  1.0000
  H   H7        1.0  0.22293  0.15441  0.07049  1.0000
  H   H8        1.0  0.21185  0.20558  0.06954  1.0000
  H   H9        1.0  0.29226  0.22319  0.10665  1.0000
  H   H10       1.0  0.30291  0.17220  0.10868  1.0000
  C   C15       1.0  0.44577  0.10769  0.14139  1.0000
  C   C16       1.0  0.45309  0.08810  0.16196  1.0000
  H   H11       1.0  0.05984  0.08052  0.17660  1.0000
  H   H12       1.0  0.43690  0.07516  0.17121  1.0000
  C   C17       1.0  0.08154  0.07938  0.18357  1.0000
  C   C18       1.0  0.20822  0.08602  0.25253  1.0000
  C   C19       1.0  0.22648  0.10571  0.26460  1.0000
  C   C20       1.0  0.25443  0.10820  0.25494  1.0000
  C   C21       1.0  0.26405  0.09199  0.23224  1.0000
  C   C22       1.0  0.24532  0.07342  0.21917  1.0000
  C   C23       1.0  0.21777  0.07010  0.22960  1.0000
  H   H13       1.0  0.24447  0.29122  0.03312  1.0000
  H   H14       1.0  0.25222  0.06122  0.20141  1.0000
  H   H15       1.0  0.20384  0.05510  0.21980  1.0000
  C   C24       1.0  0.12795  0.22124  0.22348  1.0000
  C   C25       1.0  0.11292  0.20380  0.20518  1.0000
  C   C26       1.0  0.10808  0.21227  0.17732  1.0000
  C   C27       1.0  0.11877  0.23789  0.16729  1.0000
  C   C28       1.0  0.13389  0.25523  0.18557  1.0000
  C   C29       1.0  0.13838  0.24698  0.21352  1.0000
  H   H16       1.0  0.10449  0.18410  0.21266  1.0000
  H   H17       1.0  0.09580  0.19898  0.16356  1.0000
  H   H18       1.0  0.14165  0.27530  0.17832  1.0000
  H   H19       1.0  0.14965  0.26084  0.22758  1.0000
  C   C30       1.0  0.47439  0.06305  0.07483  1.0000
  H   H20       1.0  0.12038  0.06024  0.24028  1.0000
  H   H21       1.0  0.19155  0.20597  0.28241  1.0000
  H   H22       1.0  0.99123  0.06202  0.27823  1.0000
  C   C31       1.0  0.26205  0.20200  0.27031  1.0000
  C   C32       1.0  0.21180  0.20991  0.27271  1.0000
  C   C33       1.0  0.21313  0.22605  0.24833  1.0000
  C   C34       1.0  0.23911  0.23126  0.23531  1.0000
  C   C35       1.0  0.26347  0.21839  0.24606  1.0000
  P   P1        1.0  0.24017  0.25064  0.20278  1.0000
  C   C36       1.0  0.22512  0.22757  0.17683  1.0000
  C   C37       1.0  0.22186  0.28388  0.20399  1.0000
  C   C38       1.0  0.22144  0.30080  0.17996  1.0000
  C   C39       1.0  0.20749  0.32664  0.18014  1.0000
  C   C40       1.0  0.19393  0.33587  0.20435  1.0000
  C   C41       1.0  0.19473  0.31947  0.22856  1.0000
  C   C42       1.0  0.20888  0.29370  0.22853  1.0000
  C   C43       1.0  0.19926  0.23377  0.16409  1.0000
  C   C44       1.0  0.18768  0.21547  0.14427  1.0000
  C   C45       1.0  0.20184  0.19085  0.13712  1.0000
  C   C46       1.0  0.22775  0.18467  0.14953  1.0000
  C   C47       1.0  0.23928  0.20282  0.16949  1.0000
  C   C48       1.0  0.27562  0.25974  0.19264  1.0000
  C   C49       1.0  0.28429  0.25693  0.16467  1.0000
  C   C50       1.0  0.31147  0.26490  0.15678  1.0000
  C   C51       1.0  0.33005  0.27611  0.17659  1.0000
  C   C52       1.0  0.32131  0.27974  0.20428  1.0000
  C   C53       1.0  0.29408  0.27186  0.21224  1.0000
  C   C54       1.0  0.41527  0.01383  0.18003  1.0000
  H   H23       1.0  0.19373  0.23396  0.23932  1.0000
  H   H24       1.0  0.28346  0.22025  0.23539  1.0000
  H   H25       1.0  0.23165  0.29386  0.16088  1.0000
  H   H26       1.0  0.20690  0.33941  0.16133  1.0000
  H   H27       1.0  0.18285  0.35576  0.20428  1.0000
  S   S21       1.0  0.08839  0.16442  0.31126  1.0000
  H   H28       1.0  0.20960  0.28178  0.24769  1.0000
  H   H29       1.0  0.18807  0.25277  0.16924  1.0000
  H   H30       1.0  0.16787  0.22060  0.13425  1.0000
  H   H31       1.0  0.19313  0.17688  0.12146  1.0000
  H   H32       1.0  0.23899  0.16583  0.14357  1.0000
  H   H33       1.0  0.25935  0.19765  0.17898  1.0000
  H   H34       1.0  0.27001  0.24910  0.14872  1.0000
  H   H35       1.0  0.31794  0.26263  0.13514  1.0000
  H   H36       1.0  0.33555  0.28891  0.21951  1.0000
  H   H37       1.0  0.28733  0.27534  0.23360  1.0000
  H   H38       1.0  0.27419  0.98723  0.14393  1.0000
  H   H39       1.0  0.09375  0.45467  0.00092  1.0000
  C   C55       1.0  0.11614  0.39280  0.02815  1.0000
  H   H40       1.0  0.21928  0.11850  0.28185  1.0000
  C   C56       1.0  0.05135  0.29356  0.98848  1.0000
  H   H41       1.0  0.11430  0.43370  0.08639  1.0000
  H   H42       1.0  0.03729  0.25120  0.98145  1.0000
  H   H43       1.0  0.43384  0.04024  0.24373  1.0000
  H   H44       1.0  0.07085  0.06186  0.22378  1.0000
  C   C57       1.0  0.40095  0.04263  0.09112  1.0000
  H   H45       1.0  0.23781  0.02742  0.11041  1.0000
  S   S22       1.0  0.03949  0.09843  0.28226  1.0000
  H   H46       1.0  0.10597  0.17064  0.07140  1.0000
  H   H47       1.0  0.03262  0.47691  0.15714  1.0000
  H   H48       1.0  0.28086  0.19186  0.27826  1.0000
  C   C58       1.0  0.41746  0.03044  0.11200  1.0000
  H   H49       1.0  0.20363  0.01216  0.26369  1.0000
  H   H50       1.0  0.23508  0.18461  0.30207  1.0000
  C   C59       1.0  0.25356  0.27546  0.01957  1.0000
  Fe  Fe9       1.0  0.12189  0.17011  0.27843  1.0000
  H   H51       1.0  0.12607  0.38550  0.07154  1.0000
  C   C60       1.0  0.20528  0.03378  0.14122  1.0000
  H   H52       1.0  0.26931  0.98460  0.09296  1.0000
  C   C61       1.0  0.11861  0.40059  0.05623  1.0000
  C   C62       1.0  0.28264  0.27521  0.01533  1.0000
  H   H53       1.0  0.26091  0.18511  0.02240  1.0000
  Fe  Fe10      1.0  0.14472  0.11082  0.28594  1.0000
  H   H54       1.0  0.39712  0.01244  0.16631  1.0000
  C   C63       1.0  0.16397  0.18506  0.02990  1.0000
  C   C64       1.0  0.42112  0.00124  0.11282  1.0000
  C   C65       1.0  0.30555  0.01574  0.20743  1.0000
  H   H55       1.0  0.02287  0.44369  0.11817  1.0000
  H   H56       1.0  0.28469  0.10295  0.99482  1.0000
  C   C66       1.0  0.11561  0.06775  0.21939  1.0000
  H   H57       1.0  0.46209  0.13967  0.11396  1.0000
  C   C67       1.0  0.04433  0.47842  0.13776  1.0000
  H   H58       1.0  0.28508  0.14032  0.03095  1.0000
  C   C68       1.0  0.27415  0.12270  0.99075  1.0000
  H   H59       1.0  0.39865  0.06524  0.09041  1.0000
  C   C69       1.0  0.39095  0.99668  0.07191  1.0000
  H   H60       1.0  0.06028  0.28907  0.00892  1.0000
  C   C70       1.0  0.23645  0.25483  0.00742  1.0000
  H   H61       1.0  0.11547  0.12002  0.06312  1.0000
  H   H62       1.0  0.37997  0.98358  0.05688  1.0000
  C   C71       1.0  0.43580  0.02931  0.22391  1.0000
  C   C72       1.0  0.17038  0.98903  0.20492  1.0000
  C   C73       1.0  0.21872  0.06804  0.10643  1.0000
  C   C74       1.0  0.18190  0.07914  0.13996  1.0000
  C   C75       1.0  0.19897  0.08685  0.11723  1.0000
  P   P2        1.0  0.15924  0.10510  0.15583  1.0000
  C   C76       1.0  0.14366  0.12638  0.12864  1.0000
  C   C77       1.0  0.13127  0.08912  0.17594  1.0000
  C   C78       1.0  0.10319  0.08953  0.16649  1.0000
  H   H63       1.0  0.35109  0.28231  0.17037  1.0000
  C   C79       1.0  0.13724  0.07805  0.20246  1.0000
  C   C80       1.0  0.13827  0.15501  0.13301  1.0000
  C   C81       1.0  0.12505  0.17086  0.11221  1.0000
  C   C82       1.0  0.13540  0.11388  0.10324  1.0000
  C   C83       1.0  0.18012  0.12601  0.17967  1.0000
  C   C84       1.0  0.20969  0.12450  0.17933  1.0000
  C   C85       1.0  0.22559  0.13983  0.19862  1.0000
  C   C86       1.0  0.21222  0.15667  0.21841  1.0000
  C   C87       1.0  0.18287  0.15838  0.21893  1.0000
  C   C88       1.0  0.16683  0.14302  0.19971  1.0000
  H   H64       1.0  0.23230  0.07443  0.08936  1.0000
  H   H65       1.0  0.19786  0.10780  0.10848  1.0000
  H   H66       1.0  0.09771  0.09837  0.14639  1.0000
  H   H67       1.0  0.15856  0.07830  0.21045  1.0000
  H   H68       1.0  0.14405  0.16529  0.15241  1.0000
  H   H69       1.0  0.12095  0.19293  0.11567  1.0000
  H   H70       1.0  0.13890  0.09171  0.09960  1.0000
  H   H71       1.0  0.22079  0.11143  0.16452  1.0000
  H   H72       1.0  0.24839  0.13849  0.19833  1.0000
  H   H73       1.0  0.22472  0.16800  0.23352  1.0000
  H   H74       1.0  0.17249  0.17138  0.23441  1.0000
  H   H75       1.0  0.14407  0.14428  0.20067  1.0000
  H   H76       1.0  0.29573  0.29090  0.02544  1.0000
  H   H77       1.0  0.45161  0.02611  0.06182  1.0000
  C   C89       1.0  0.05467  0.46118  0.09118  1.0000
  H   H78       1.0  0.12706  0.23061  0.98930  1.0000
  C   C90       1.0  0.10325  0.44793  0.04483  1.0000
  H   H79       1.0  0.20723  0.17415  0.02444  1.0000
  C   C91       1.0  0.03893  0.45968  0.11585  1.0000
  C   C92       1.0  0.32829  0.00095  0.21861  1.0000
  C   C93       1.0  0.27445  0.14377  0.01110  1.0000
  H   H80       1.0  0.24257  0.98508  0.24287  1.0000
  C   C94       1.0  0.99477  0.12638  0.30852  1.0000
  H   H81       1.0  0.18431  0.32675  0.24737  1.0000
  C   C95       1.0  0.24853  0.23376  0.99077  1.0000
  H   H82       1.0  0.15397  0.46569  0.07024  1.0000
  C   C96       1.0  0.14460  0.21812  0.99674  1.0000
  C   C97       1.0  0.28157  0.00144  0.19819  1.0000
  C   C98       1.0  0.10061  0.43990  0.01663  1.0000
  C   C99       1.0  0.19367  0.20412  0.99314  1.0000
  C   C100      1.0  0.20044  0.00105  0.24408  1.0000
  C   C101      1.0  0.00408  0.10228  0.29453  1.0000
  H   H83       1.0  0.34680  0.01221  0.22575  1.0000
  H   H84       1.0  0.30642  0.03838  0.20607  1.0000
  H   H85       1.0  0.42774  0.04394  0.12718  1.0000
  H   H86       1.0  0.31734  0.25420  0.99546  1.0000
  C   C102      1.0  0.17446  0.00282  0.23045  1.0000
  H   H87       1.0  0.12118  0.20028  0.03076  1.0000
  C   C103      1.0  0.26068  0.16917  0.00615  1.0000
  C   C104      1.0  0.46735  0.12442  0.12986  1.0000
  C   C105      1.0  0.29476  0.25449  0.99855  1.0000
  Fe  Fe11      1.0  0.08092  0.12174  0.29228  1.0000
  C   C106      1.0  0.23626  0.19789  0.28373  1.0000
  P   P3        1.0  0.44517  0.98637  0.13793  1.0000
  C   C107      1.0  0.19000  0.18651  0.01638  1.0000
  C   C108      1.0  0.11203  0.42795  0.06456  1.0000
  C   C109      1.0  0.18539  0.05252  0.15207  1.0000
  C   C110      1.0  0.22189  0.04154  0.11840  1.0000
  C   C111      1.0  0.08772  0.06870  0.21010  1.0000
  H   H88       1.0  0.26864  0.12287  0.26498  1.0000
  H   H89       1.0  0.20832  0.01349  0.15085  1.0000
  H   H90       1.0  0.17334  0.04641  0.17023  1.0000
  H   H91       1.0  0.39278  0.03681  0.21182  1.0000
  C   C112      1.0  0.12201  0.12980  0.08256  1.0000
  C   C113      1.0  0.14124  0.20084  0.02004  1.0000
  C   C114      1.0  0.47925  0.99401  0.12303  1.0000
  C   C115      1.0  0.22253  0.98588  0.23202  1.0000
  H   H92       1.0  0.18499  0.47465  0.12952  1.0000
  H   H93       1.0  0.15015  0.99041  0.19445  1.0000
  H   H94       1.0  0.26411  0.01332  0.18968  1.0000
  H   H95       1.0  0.37361  0.03523  0.05586  1.0000
  H   H96       1.0  0.05038  0.44638  0.07446  1.0000
  H   H97       1.0  0.10523  0.40629  0.98659  1.0000
  C   C116      1.0  0.38732  0.02577  0.07134  1.0000
  C   C117      1.0  0.46150  0.01727  0.21629  1.0000
  H   H98       1.0  0.47947  0.01879  0.23025  1.0000
  C   C118      1.0  0.10703  0.41240  0.00837  1.0000
  C   C119      1.0  0.41265  0.02737  0.20590  1.0000
  C   C120      1.0  0.44129  0.00261  0.17182  1.0000
  C   C121      1.0  0.24622  0.17368  0.98082  1.0000
  C   C122      1.0  0.46944  0.03966  0.05781  1.0000
  C   C123      1.0  0.17076  0.22006  0.98353  1.0000
  C   C124      1.0  0.27778  0.23387  0.98625  1.0000
  H   H99       1.0  0.15766  0.01519  0.23965  1.0000
  H   H100      1.0  0.46050  0.06778  0.09219  1.0000
  C   C125      1.0  0.40816  0.98445  0.09229  1.0000
  C   C126      1.0  0.48149  0.08520  0.17059  1.0000
  H   H101      1.0  0.12151  0.37158  0.02178  1.0000
  C   C127      1.0  0.98440  0.08073  0.28910  1.0000
  H   H102      1.0  0.00946  0.14328  0.31257  1.0000
  H   H103      1.0  0.48272  0.47957  0.16600  1.0000
  Fe  Fe12      1.0  0.12235  0.14366  0.33721  1.0000
  H   H104      1.0  0.30963  0.44776  0.61379  1.0000
  S   S23       1.0  0.12647  0.16063  0.38220  1.0000
  C   C128      1.0  0.04163  0.09024  0.36129  1.0000
  H   H105      1.0  0.99920  0.26860  0.60034  1.0000
  H   H106      1.0  0.06734  0.15138  0.39404  1.0000
  S   S24       1.0  0.11324  0.10049  0.31993  1.0000
  H   H107      1.0  0.15481  0.21731  0.32417  1.0000
  C   C129      1.0  0.01249  0.04042  0.37253  1.0000
  Fe  Fe13      1.0  0.15934  0.16003  0.60449  1.0000
  Fe  Fe14      1.0  0.16950  0.13104  0.54733  1.0000
  S   S25       1.0  0.21236  0.11585  0.56144  1.0000
  S   S26       1.0  0.15406  0.11348  0.50494  1.0000
  Fe  Fe15      1.0  0.19103  0.10368  0.60170  1.0000
  C   C130      1.0  0.28295  0.12415  0.61110  1.0000
  Fe  Fe16      1.0  0.21791  0.15925  0.57988  1.0000
  S   S27       1.0  0.25973  0.18299  0.57762  1.0000
  S   S28       1.0  0.14792  0.11722  0.58734  1.0000
  S   S29       1.0  0.17677  0.17522  0.56310  1.0000
  H   H108      1.0  0.13471  0.10341  0.40407  1.0000
  H   H109      1.0  0.28218  0.24662  0.33386  1.0000
  C   C131      1.0  0.24339  0.23910  0.57872  1.0000
  P   P4        1.0  0.01509  0.12033  0.40409  1.0000
  C   C132      1.0  0.26445  0.21941  0.58454  1.0000
  C   C133      1.0  0.02263  0.15206  0.38480  1.0000
  C   C134      1.0  0.27478  0.27760  0.59281  1.0000
  C   C135      1.0  0.29559  0.25785  0.59934  1.0000
  C   C136      1.0  0.29056  0.22898  0.59487  1.0000
  C   C137      1.0  0.32230  0.46657  0.61288  1.0000
  H   H110      1.0  0.30707  0.21400  0.59924  1.0000
  H   H111      1.0  0.31255  0.00343  0.63898  1.0000
  C   C138      1.0  0.18140  0.01772  0.59923  1.0000
  H   H112      1.0  0.17816  0.03150  0.58154  1.0000
  C   C139      1.0  0.04672  0.06611  0.34535  1.0000
  H   H113      1.0  0.26673  0.08236  0.60459  1.0000
  C   C140      1.0  0.36273  0.45282  0.48841  1.0000
  C   C141      1.0  0.35151  0.46432  0.61560  1.0000
  C   C142      1.0  0.13467  0.14694  0.41600  1.0000
  C   C143      1.0  0.13833  0.16575  0.43851  1.0000
  C   C144      1.0  0.14485  0.15606  0.46569  1.0000
  C   C145      1.0  0.14738  0.12728  0.47084  1.0000
  C   C146      1.0  0.14367  0.10846  0.44832  1.0000
  C   C147      1.0  0.13753  0.11818  0.42106  1.0000
  H   H114      1.0  0.13604  0.18802  0.43493  1.0000
  H   H115      1.0  0.14757  0.17082  0.48272  1.0000
  H   H116      1.0  0.14547  0.08615  0.45204  1.0000
  H   H117      1.0  0.43277  0.30151  0.50793  1.0000
  S   S30       1.0  0.28093  0.31437  0.59568  1.0000
  C   C148      1.0  0.25879  0.98495  0.62688  1.0000
  H   H118      1.0  0.26256  0.10312  0.32599  1.0000
  C   C149      1.0  0.03590  0.24259  0.60564  1.0000
  H   H119      1.0  0.06159  0.06680  0.32824  1.0000
  C   C150      1.0  0.36583  0.48103  0.48091  1.0000
  H   H120      1.0  0.26019  0.41799  0.58098  1.0000
  C   C151      1.0  0.17627  0.98858  0.59659  1.0000
  H   H121      1.0  0.08350  0.07719  0.46991  1.0000
  H   H122      1.0  0.24486  0.36869  0.58818  1.0000
  H   H123      1.0  0.07763  0.19531  0.36910  1.0000
  C   C152      1.0  0.24374  0.38372  0.60524  1.0000
  S   S31       1.0  0.36860  0.43140  0.62062  1.0000
  H   H124      1.0  0.05020  0.07611  0.43026  1.0000
  C   C153      1.0  0.19132  0.02881  0.62455  1.0000
  C   C154      1.0  0.43271  0.31582  0.55067  1.0000
  S   S32       1.0  0.35967  0.34917  0.60580  1.0000
  H   H125      1.0  0.21676  0.07814  0.32353  1.0000
  H   H126      1.0  0.09096  0.12090  0.49683  1.0000
  C   C155      1.0  0.05262  0.09535  0.44205  1.0000
  C   C156      1.0  0.23803  0.18711  0.47326  1.0000
  C   C157      1.0  0.22765  0.16191  0.48400  1.0000
  C   C158      1.0  0.21709  0.14142  0.46584  1.0000
  C   C159      1.0  0.21665  0.14613  0.43694  1.0000
  C   C160      1.0  0.22737  0.17126  0.42590  1.0000
  C   C161      1.0  0.23786  0.19183  0.44436  1.0000
  P   P5        1.0  0.22630  0.17822  0.38865  1.0000
  C   C162      1.0  0.25815  0.19645  0.37876  1.0000
  C   C163      1.0  0.22410  0.14584  0.36883  1.0000
  C   C164      1.0  0.24737  0.13537  0.35395  1.0000
  C   C165      1.0  0.24475  0.11092  0.33784  1.0000
  C   C166      1.0  0.21899  0.09673  0.33651  1.0000
  C   C167      1.0  0.19585  0.10694  0.35131  1.0000
  C   C168      1.0  0.19841  0.13137  0.36734  1.0000
  C   C169      1.0  0.25772  0.21727  0.35797  1.0000
  C   C170      1.0  0.28268  0.23058  0.34991  1.0000
  C   C171      1.0  0.30821  0.22328  0.36254  1.0000
  C   C172      1.0  0.30883  0.20259  0.38322  1.0000
  C   C173      1.0  0.28393  0.18915  0.39126  1.0000
  C   C174      1.0  0.19589  0.19943  0.38018  1.0000
  C   C175      1.0  0.18197  0.21510  0.40088  1.0000
  C   C176      1.0  0.15857  0.23152  0.39388  1.0000
  C   C177      1.0  0.14892  0.23244  0.36624  1.0000
  C   C178      1.0  0.16269  0.21701  0.34552  1.0000
  C   C179      1.0  0.18603  0.20053  0.35247  1.0000
  H   H127      1.0  0.24595  0.20306  0.48749  1.0000
  H   H128      1.0  0.22746  0.15837  0.50643  1.0000
  H   H129      1.0  0.20862  0.12207  0.47429  1.0000
  H   H130      1.0  0.20762  0.13017  0.42354  1.0000
  H   H131      1.0  0.24560  0.21167  0.43646  1.0000
  H   H132      1.0  0.26746  0.14603  0.35442  1.0000
  C   C180      1.0  0.25246  0.41145  0.60126  1.0000
  C   C181      1.0  0.25225  0.43039  0.62368  1.0000
  H   H133      1.0  0.17575  0.09618  0.35003  1.0000
  H   H134      1.0  0.18028  0.13911  0.37851  1.0000
  C   C182      1.0  0.47823  0.31779  0.57353  1.0000
  H   H135      1.0  0.43905  0.32923  0.59326  1.0000
  H   H136      1.0  0.32753  0.23367  0.35632  1.0000
  H   H137      1.0  0.32863  0.19690  0.39301  1.0000
  H   H138      1.0  0.28481  0.17292  0.40710  1.0000
  H   H139      1.0  0.18865  0.21431  0.42250  1.0000
  H   H140      1.0  0.14754  0.24305  0.41003  1.0000
  H   H141      1.0  0.13045  0.24466  0.36093  1.0000
  H   H142      1.0  0.25978  0.45156  0.62048  1.0000
  H   H143      1.0  0.19621  0.18838  0.33629  1.0000
  H   H144      1.0  0.28618  0.12812  0.58900  1.0000
  H   H145      1.0  0.22328  0.23211  0.57059  1.0000
  S   S33       1.0  0.20082  0.06487  0.62874  1.0000
  Fe  Fe17      1.0  0.35172  0.38761  0.63272  1.0000
  C   C183      1.0  0.04226  0.14452  0.45003  1.0000
  H   H146      1.0  0.41007  0.31875  0.55147  1.0000
  C   C184      1.0  0.03474  0.20182  0.35577  1.0000
  C   C185      1.0  0.00763  0.06433  0.38883  1.0000
  C   C186      1.0  0.03784  0.11977  0.43456  1.0000
  H   H147      1.0  0.03958  0.22073  0.34416  1.0000
  C   C187      1.0  0.27215  0.09836  0.61986  1.0000
  C   C188      1.0  0.02189  0.08954  0.38307  1.0000
  H   H148      1.0  0.25874  0.00625  0.63484  1.0000
  H   H149      1.0  0.35802  0.43720  0.47256  1.0000
  C   C189      1.0  0.47472  0.30188  0.52543  1.0000
  S   S34       1.0  0.41465  0.29893  0.64536  1.0000
  C   C190      1.0  0.03197  0.04136  0.35072  1.0000
  H   H150      1.0  0.99098  0.98445  0.56791  1.0000
  C   C191      1.0  0.24864  0.26801  0.58261  1.0000
  C   C192      1.0  0.36520  0.44478  0.51644  1.0000
  H   H151      1.0  0.07263  0.21854  0.61734  1.0000
  Fe  Fe18      1.0  0.31718  0.33371  0.62060  1.0000
  C   C193      1.0  0.06121  0.14485  0.47250  1.0000
  C   C194      1.0  0.05599  0.23247  0.62447  1.0000
  H   H152      1.0  0.23242  0.28307  0.57744  1.0000
  S   S35       1.0  0.13235  0.19041  0.63000  1.0000
  H   H153      1.0  0.98480  0.13411  0.45639  1.0000
  H   H154      1.0  0.05290  0.10934  0.35627  1.0000
  C   C195      1.0  0.23461  0.37499  0.63159  1.0000
  H   H155      1.0  0.24040  0.99730  0.58756  1.0000
  C   C196      1.0  0.05618  0.18748  0.36974  1.0000
  S   S36       1.0  0.20078  0.14572  0.62151  1.0000
  C   C197      1.0  0.05027  0.16252  0.38389  1.0000
  H   H156      1.0  0.31584  0.26489  0.60706  1.0000
  C   C198      1.0  0.44907  0.32178  0.57425  1.0000
  H   H157      1.0  0.23826  0.22333  0.34789  1.0000
  C   C199      1.0  0.44553  0.30601  0.52623  1.0000
  H   H158      1.0  0.36258  0.42297  0.52236  1.0000
  H   H159      1.0  0.37171  0.45876  0.55882  1.0000
  H   H160      1.0  0.03689  0.23648  0.58380  1.0000
  H   H161      1.0  0.06515  0.16413  0.48393  1.0000
  H   H162      1.0  0.00095  0.02126  0.37662  1.0000
  C   C200      1.0  0.00109  0.16688  0.37112  1.0000
  H   H163      1.0  0.29596  0.16558  0.62338  1.0000
  C   C201      1.0  0.07152  0.09580  0.46458  1.0000
  C   C202      1.0  0.07581  0.12050  0.47978  1.0000
  H   H164      1.0  0.99257  0.06316  0.40575  1.0000
  H   H165      1.0  0.21710  0.22478  0.63153  1.0000
  C   C203      1.0  0.01470  0.26067  0.61499  1.0000
  C   C204      1.0  0.37044  0.46499  0.53702  1.0000
  H   H166      1.0  0.03551  0.02303  0.33776  1.0000
  H   H167      1.0  0.20947  0.46766  0.63499  1.0000
  C   C205      1.0  0.28829  0.14544  0.63063  1.0000
  C   C206      1.0  0.00719  0.19152  0.35645  1.0000
  H   H168      1.0  0.22876  0.35322  0.63481  1.0000
  H   H169      1.0  0.03156  0.16375  0.44430  1.0000
  H   H170      1.0  0.99059  0.20247  0.34538  1.0000
  S   S37       1.0  0.30780  0.37387  0.64408  1.0000
  C   C207      1.0  0.01363  0.26873  0.64317  1.0000
  Fe  Fe19      1.0  0.37702  0.32926  0.64505  1.0000
  H   H171      1.0  0.33438  0.05019  0.64317  1.0000
  H   H172      1.0  0.24189  0.18136  0.64423  1.0000
  C   C208      1.0  0.23413  0.22550  0.64670  1.0000
  H   H173      1.0  0.20995  0.20247  0.70989  1.0000
  C   C209      1.0  0.36713  0.20197  0.67116  1.0000
  Fe  Fe20      1.0  0.13328  0.25405  0.78123  1.0000
  S   S38       1.0  0.11650  0.29080  0.75751  1.0000
  S   S39       1.0  0.13961  0.21061  0.76214  1.0000
  Fe  Fe21      1.0  0.14625  0.28977  0.83353  1.0000
  S   S40       1.0  0.13067  0.32916  0.81257  1.0000
  S   S41       1.0  0.17053  0.29016  0.87510  1.0000
  Fe  Fe22      1.0  0.09426  0.30249  0.79739  1.0000
  S   S42       1.0  0.05149  0.32480  0.79590  1.0000
  Fe  Fe23      1.0  0.15383  0.31448  0.77431  1.0000
  S   S43       1.0  0.17595  0.34286  0.74283  1.0000
  S   S44       1.0  0.10868  0.26379  0.82072  1.0000
  S   S45       1.0  0.17186  0.27692  0.79588  1.0000
  H   H174      1.0  0.00086  0.35728  0.79273  1.0000
  C   C210      1.0  0.29804  0.42484  0.69788  1.0000
  Fe  Fe24      1.0  0.32754  0.35163  0.68044  1.0000
  P   P6        1.0  0.24638  0.44533  0.67974  1.0000
  S   S46       1.0  0.30863  0.35214  0.72423  1.0000
  P   P7        1.0  0.02026  0.31139  0.89869  1.0000
  C   C211      1.0  0.23987  0.43094  0.73628  1.0000
  C   C212      1.0  0.23755  0.20847  0.80950  1.0000
  S   S47       1.0  0.33487  0.31115  0.65764  1.0000
  S   S48       1.0  0.37120  0.36803  0.67130  1.0000
  C   C213      1.0  0.23419  0.99139  0.70674  1.0000
  H   H175      1.0  0.04490  0.34725  0.94227  1.0000
  H   H176      1.0  0.01377  0.20747  0.83971  1.0000
  C   C214      1.0  0.09565  0.34783  0.87846  1.0000
  C   C215      1.0  0.20664  0.22761  0.88365  1.0000
  H   H177      1.0  0.05869  0.23388  0.84107  1.0000
  C   C216      1.0  0.21303  0.34367  0.73817  1.0000
  C   C217      1.0  0.23134  0.34853  0.76068  1.0000
  C   C218      1.0  0.26050  0.35124  0.75601  1.0000
  C   C219      1.0  0.27176  0.34862  0.72898  1.0000
  C   C220      1.0  0.25355  0.34334  0.70654  1.0000
  C   C221      1.0  0.22428  0.34125  0.71110  1.0000
  H   H178      1.0  0.22295  0.35077  0.78159  1.0000
  H   H179      1.0  0.27441  0.35578  0.77334  1.0000
  H   H180      1.0  0.26196  0.34115  0.68562  1.0000
  H   H181      1.0  0.21029  0.33764  0.69354  1.0000
  C   C222      1.0  0.13002  0.28383  0.91676  1.0000
  C   C223      1.0  0.15823  0.28907  0.91029  1.0000
  C   C224      1.0  0.17746  0.29350  0.93238  1.0000
  H   H182      1.0  0.11520  0.27965  0.90005  1.0000
  H   H183      1.0  0.19940  0.29731  0.92767  1.0000
  C   C225      1.0  0.27303  0.11465  0.66788  1.0000
  C   C226      1.0  0.01539  0.31467  0.79728  1.0000
  C   C227      1.0  0.00690  0.28675  0.80043  1.0000
  H   H184      1.0  0.23227  0.27040  0.65175  1.0000
  H   H185      1.0  0.02259  0.27040  0.80167  1.0000
  H   H186      1.0  0.24669  0.20541  0.74681  1.0000
  C   C228      1.0  0.22464  0.42065  0.75909  1.0000
  C   C229      1.0  0.25640  0.18204  0.84851  1.0000
  C   C230      1.0  0.13690  0.19634  0.66651  1.0000
  C   C231      1.0  0.12739  0.22172  0.67813  1.0000
  C   C232      1.0  0.12813  0.22638  0.70726  1.0000
  C   C233      1.0  0.13877  0.20575  0.72521  1.0000
  C   C234      1.0  0.14886  0.18054  0.71357  1.0000
  C   C235      1.0  0.14810  0.17590  0.68436  1.0000
  H   H187      1.0  0.11947  0.23793  0.66444  1.0000
  H   H188      1.0  0.12034  0.24587  0.71578  1.0000
  H   H189      1.0  0.15707  0.16442  0.72721  1.0000
  H   H190      1.0  0.15539  0.15620  0.67573  1.0000
  H   H191      1.0  0.25000  0.24851  0.93621  1.0000
  C   C236      1.0  0.14009  0.28891  0.96699  1.0000
  C   C237      1.0  0.05024  0.19132  0.72957  1.0000
  C   C238      1.0  0.04044  0.21318  0.71267  1.0000
  C   C239      1.0  0.04444  0.24126  0.72088  1.0000
  P   P8        1.0  0.03346  0.26977  0.69851  1.0000
  C   C240      1.0  0.19891  0.42458  0.70656  1.0000
  C   C241      1.0  0.05865  0.29810  0.70250  1.0000
  C   C242      1.0  0.05420  0.31924  0.72254  1.0000
  C   C243      1.0  0.07396  0.34073  0.72623  1.0000
  C   C244      1.0  0.09854  0.34115  0.71022  1.0000
  C   C245      1.0  0.10331  0.32009  0.69041  1.0000
  C   C246      1.0  0.08351  0.29863  0.68657  1.0000
  H   H192      1.0  0.33814  0.40759  0.70991  1.0000
  H   H193      1.0  0.38595  0.14526  0.70998  1.0000
  H   H194      1.0  0.04833  0.16977  0.72257  1.0000
  H   H195      1.0  0.03029  0.20806  0.69302  1.0000
  C   C247      1.0  0.99457  0.33561  0.79529  1.0000
  H   H196      1.0  0.07068  0.35641  0.74238  1.0000
  H   H197      1.0  0.11439  0.35715  0.71389  1.0000
  H   H198      1.0  0.16233  0.40695  0.72667  1.0000
  C   C248      1.0  0.99881  0.28142  0.70903  1.0000
  C   C249      1.0  0.08810  0.36753  0.85817  1.0000
  H   H199      1.0  0.23520  0.15530  0.94076  1.0000
  C   C250      1.0  0.32726  0.42569  0.70144  1.0000
  C   C251      1.0  0.05993  0.37029  0.85013  1.0000
  H   H200      1.0  0.33143  0.46093  0.77089  1.0000
  H   H201      1.0  0.28751  0.21778  0.97350  1.0000
  H   H202      1.0  0.03590  0.31879  0.73602  1.0000
  C   C252      1.0  0.19667  0.41220  0.75562  1.0000
  H   H203      1.0  0.12278  0.31996  0.67861  1.0000
  H   H204      1.0  0.18861  0.18153  0.93472  1.0000
  H   H205      1.0  0.00224  0.32201  0.68900  1.0000
  C   C253      1.0  0.20008  0.19822  0.92440  1.0000
  H   H206      1.0  0.37636  0.21966  0.66017  1.0000
  C   C254      1.0  0.24613  0.15246  0.96039  1.0000
  C   C255      1.0  0.03058  0.30473  0.93454  1.0000
  H   H207      1.0  0.36526  0.44934  0.69449  1.0000
  C   C256      1.0  0.99307  0.26309  0.87939  1.0000
  C   C257      1.0  0.26008  0.12706  0.96538  1.0000
  H   H208      1.0  0.18346  0.29719  0.97726  1.0000
  C   C258      1.0  0.27796  0.22718  0.68571  1.0000
  H   H209      1.0  0.21403  0.17772  0.83269  1.0000
  C   C259      1.0  0.02825  0.27769  0.94600  1.0000
  H   H210      1.0  0.23472  0.41849  0.77933  1.0000
  H   H211      1.0  0.07068  0.23238  0.66679  1.0000
  H   H212      1.0  0.33388  0.07551  0.68852  1.0000
  H   H213      1.0  0.18870  0.42572  0.68630  1.0000
  H   H214      1.0  0.31192  0.05338  0.73017  1.0000
  H   H215      1.0  0.08810  0.28229  0.67158  1.0000
  H   H216      1.0  0.30969  0.16877  0.74206  1.0000
  C   C260      1.0  0.22077  0.21353  0.93899  1.0000
  C   C261      1.0  0.37247  0.16009  0.69923  1.0000
  C   C262      1.0  0.22723  0.43249  0.70971  1.0000
  H   H217      1.0  0.17302  0.23419  0.96596  1.0000
  C   C263      1.0  0.33416  0.48129  0.76116  1.0000
  H   H218      1.0  0.23680  0.14201  0.78774  1.0000
  H   H219      1.0  0.29453  0.22809  0.70122  1.0000
  H   H220      1.0  0.21956  0.21370  0.79649  1.0000
  H   H221      1.0  0.99719  0.28289  0.64990  1.0000
  P   P9        1.0  0.28806  0.16953  0.68368  1.0000
  C   C264      1.0  0.32573  0.17515  0.68477  1.0000
  H   H222      1.0  0.28672  0.40586  0.70336  1.0000
  H   H223      1.0  0.28702  0.15649  0.78682  1.0000
  C   C265      1.0  0.04041  0.24206  0.85181  1.0000
  C   C266      1.0  0.04656  0.33390  0.88308  1.0000
  H   H224      1.0  0.23729  0.26058  0.88776  1.0000
  H   H225      1.0  0.20035  0.23391  0.86274  1.0000
  H   H226      1.0  0.22832  0.38639  0.67443  1.0000
  H   H227      1.0  0.29894  0.19220  0.86066  1.0000
  C   C267      1.0  0.32442  0.04073  0.66123  1.0000
  H   H228      1.0  0.26149  0.43725  0.73953  1.0000
  C   C268      1.0  0.06541  0.22507  0.76430  1.0000
  H   H229      1.0  0.33441  0.13746  0.70841  1.0000
  C   C269      1.0  0.29885  0.01622  0.70784  1.0000
  C   C270      1.0  0.03377  0.25867  0.66223  1.0000
  C   C271      1.0  0.27265  0.16024  0.71690  1.0000
  C   C272      1.0  0.24684  0.14706  0.76804  1.0000
  C   C273      1.0  0.19304  0.20529  0.89686  1.0000
  C   C274      1.0  0.20909  0.98977  0.72192  1.0000
  C   C275      1.0  0.28369  0.44791  0.68658  1.0000
  C   C276      1.0  0.12100  0.28393  0.94490  1.0000
  H   H230      1.0  0.20240  0.01898  0.66693  1.0000
  C   C277      1.0  0.38435  0.18329  0.68579  1.0000
  H   H231      1.0  0.28948  0.00676  0.72620  1.0000
  H   H232      1.0  0.08121  0.31585  0.90635  1.0000
  C   C278      1.0  0.03923  0.35342  0.86236  1.0000
  C   C279      1.0  0.26444  0.25201  0.67778  1.0000
  C   C280      1.0  0.24404  0.15267  0.71779  1.0000
  H   H233      1.0  0.24127  0.01170  0.69947  1.0000
  H   H234      1.0  0.19728  0.00869  0.72647  1.0000
  C   C281      1.0  0.34248  0.44927  0.69295  1.0000
  C   C282      1.0  0.01830  0.27856  0.87973  1.0000
  C   C283      1.0  0.45121  0.30658  0.64949  1.0000
  H   H235      1.0  0.17633  0.19415  0.88605  1.0000
  H   H236      1.0  0.07151  0.18049  0.76796  1.0000
  C   C284      1.0  0.26348  0.22239  0.80632  1.0000
  C   C285      1.0  0.28542  0.21668  0.82521  1.0000
  P   P10       1.0  0.26694  0.25105  0.78190  1.0000
  C   C286      1.0  0.23940  0.24906  0.75587  1.0000
  C   C287      1.0  0.26452  0.28234  0.80324  1.0000
  C   C288      1.0  0.24107  0.28599  0.82066  1.0000
  C   C289      1.0  0.28456  0.32546  0.82210  1.0000
  C   C290      1.0  0.28658  0.30204  0.80451  1.0000
  C   C291      1.0  0.22379  0.27280  0.74846  1.0000
  C   C292      1.0  0.20335  0.27113  0.72735  1.0000
  C   C293      1.0  0.19852  0.24581  0.71346  1.0000
  C   C294      1.0  0.21394  0.22204  0.72075  1.0000
  C   C295      1.0  0.23453  0.22374  0.74166  1.0000
  C   C296      1.0  0.29895  0.25045  0.76159  1.0000
  C   C297      1.0  0.31744  0.22748  0.76236  1.0000
  C   C298      1.0  0.34180  0.22743  0.74587  1.0000
  C   C299      1.0  0.34788  0.25035  0.72865  1.0000
  C   C300      1.0  0.32938  0.27308  0.72759  1.0000
  C   C301      1.0  0.30476  0.27290  0.74350  1.0000
  H   H237      1.0  0.30494  0.22844  0.82424  1.0000
  H   H238      1.0  0.22450  0.27043  0.82112  1.0000
  H   H239      1.0  0.30145  0.34076  0.82263  1.0000
  H   H240      1.0  0.30545  0.29957  0.79218  1.0000
  H   H241      1.0  0.22722  0.29244  0.75914  1.0000
  H   H242      1.0  0.19105  0.28937  0.72177  1.0000
  H   H243      1.0  0.18289  0.24463  0.69695  1.0000
  H   H244      1.0  0.31306  0.20957  0.77543  1.0000
  H   H245      1.0  0.35609  0.20974  0.74643  1.0000
  H   H246      1.0  0.36686  0.25059  0.71606  1.0000
  H   H247      1.0  0.33409  0.29102  0.71450  1.0000
  H   H248      1.0  0.29043  0.29056  0.74195  1.0000
  C   C302      1.0  0.26063  0.32939  0.83859  1.0000
  C   C303      1.0  0.29780  0.00240  0.68187  1.0000
  H   H249      1.0  0.25980  0.11063  0.94968  1.0000
  H   H250      1.0  0.25888  0.34769  0.85196  1.0000
  C   C304      1.0  0.18378  0.41428  0.72940  1.0000
  C   C305      1.0  0.28260  0.14116  0.65906  1.0000
  H   H251      1.0  0.25354  0.16671  0.86499  1.0000
  H   H252      1.0  0.10417  0.38009  0.84812  1.0000
  C   C306      1.0  0.23184  0.47959  0.67283  1.0000
  C   C307      1.0  0.01509  0.22711  0.85110  1.0000
  H   H253      1.0  0.11760  0.34511  0.88424  1.0000
  H   H254      1.0  0.27078  0.27194  0.68681  1.0000
  C   C308      1.0  0.23457  0.23576  0.92539  1.0000
  C   C309      1.0  0.06308  0.19730  0.75521  1.0000
  H   H255      1.0  0.18516  0.40317  0.77300  1.0000
  C   C310      1.0  0.05598  0.24700  0.74733  1.0000
  H   H256      1.0  0.05799  0.26840  0.75478  1.0000
  H   H257      1.0  0.07523  0.22956  0.78422  1.0000
  C   C311      1.0  0.23419  0.18816  0.83030  1.0000
  C   C312      1.0  0.23896  0.30958  0.83796  1.0000
  C   C313      1.0  0.16848  0.29346  0.96056  1.0000
  C   C314      1.0  0.04277  0.32626  0.95069  1.0000
  H   H258      1.0  0.22049  0.31248  0.85093  1.0000
  C   C315      1.0  0.28198  0.19636  0.84602  1.0000
  C   C316      1.0  0.22750  0.24270  0.89782  1.0000
  C   C317      1.0  0.27517  0.15513  0.76746  1.0000
  H   H259      1.0  0.05421  0.38470  0.83356  1.0000
  C   C318      1.0  0.34329  0.15584  0.69846  1.0000
  C   C319      1.0  0.27040  0.20147  0.67333  1.0000
  C   C320      1.0  0.31172  0.01432  0.65887  1.0000
  H   H260      1.0  0.06172  0.27925  0.86583  1.0000
  C   C321      1.0  0.04202  0.26779  0.86591  1.0000
  C   C322      1.0  0.99143  0.23762  0.86490  1.0000
  H   H261      1.0  0.20909  0.14038  0.74368  1.0000
  C   C323      1.0  0.28802  0.16190  0.74199  1.0000
  C   C324      1.0  0.23124  0.14601  0.74323  1.0000
  H   H262      1.0  0.01900  0.26068  0.93409  1.0000
  H   H263      1.0  0.23153  0.15207  0.69873  1.0000
  C   C325      1.0  0.07497  0.33111  0.89084  1.0000
  C   C326      1.0  0.31169  0.04258  0.71020  1.0000
  H   H264      1.0  0.46316  0.26297  0.64806  1.0000
  H   H265      1.0  0.09907  0.28007  0.94958  1.0000
  C   C327      1.0  0.32841  0.47219  0.68130  1.0000
  C   C328      1.0  0.32418  0.05498  0.68682  1.0000
  H   H266      1.0  0.01776  0.35534  0.85504  1.0000
  H   H267      1.0  0.26919  0.11021  0.68969  1.0000
  C   C329      1.0  0.05489  0.24043  0.65258  1.0000
  C   C330      1.0  0.24820  0.20081  0.65399  1.0000
  C   C331      1.0  0.24259  0.25117  0.65816  1.0000
  H   H268      1.0  0.32528  0.21203  0.65799  1.0000
  P   P11       1.0  0.22730  0.20617  0.97560  1.0000
  C   C332      1.0  0.46132  0.33408  0.65188  1.0000
  C   C333      1.0  0.33800  0.19775  0.67032  1.0000
  C   C334      1.0  0.47071  0.28430  0.64998  1.0000
  H   H269      1.0  0.40695  0.18658  0.68625  1.0000
  C   C335      1.0  0.98923  0.30830  0.70160  1.0000
  H   H270      1.0  0.25878  0.07357  0.65492  1.0000
  C   C336      1.0  0.29915  0.47150  0.67794  1.0000
  H   H271      1.0  0.98677  0.34345  0.94010  1.0000
  H   H272      1.0  0.44666  0.35145  0.65143  1.0000
  C   C337      1.0  0.26755  0.09349  0.64828  1.0000
  C   C338      1.0  0.19529  0.01045  0.64724  1.0000
  C   C339      1.0  0.98625  0.32840  0.89726  1.0000
  C   C340      1.0  0.23440  0.39389  0.65402  1.0000
  C   C341      1.0  0.05331  0.32060  0.97745  1.0000
  C   C342      1.0  0.03859  0.27219  0.97288  1.0000
  C   C343      1.0  0.24315  0.42178  0.65023  1.0000
  H   H273      1.0  0.98852  0.24358  0.73206  1.0000
  Fe  Fe25      1.0  0.35340  0.79047  0.06383  1.0000
  S   S49       1.0  0.31098  0.80893  0.07489  1.0000
  S   S50       1.0  0.37635  0.78410  0.02173  1.0000
  Fe  Fe26      1.0  0.36337  0.77069  0.12506  1.0000
  S   S51       1.0  0.32323  0.78997  0.13895  1.0000
  S   S52       1.0  0.38770  0.73890  0.15166  1.0000
  Fe  Fe27      1.0  0.30031  0.76823  0.10079  1.0000
  S   S53       1.0  0.23688  0.73091  0.10549  1.0000
  Fe  Fe28      1.0  0.33409  0.82718  0.11227  1.0000
  S   S54       1.0  0.32791  0.86899  0.13604  1.0000
  S   S55       1.0  0.34406  0.75084  0.08719  1.0000
  S   S56       1.0  0.37661  0.80921  0.10087  1.0000
  Fe  Fe29      1.0  0.17585  0.58277  0.13929  1.0000
  S   S57       1.0  0.16159  0.60921  0.17516  1.0000
  S   S58       1.0  0.20474  0.60071  0.10595  1.0000
  Fe  Fe30      1.0  0.14683  0.53004  0.16167  1.0000
  S   S59       1.0  0.13062  0.55346  0.19958  1.0000
  H   H274      1.0  0.44250  0.54759  0.26945  1.0000
  Fe  Fe31      1.0  0.11936  0.58799  0.16965  1.0000
  S   S60       1.0  0.08071  0.61673  0.17157  1.0000
  Fe  Fe32      1.0  0.17411  0.57249  0.20180  1.0000
  S   S61       1.0  0.19585  0.58037  0.24370  1.0000
  S   S62       1.0  0.13291  0.56388  0.13156  1.0000
  S   S63       1.0  0.19104  0.54683  0.16612  1.0000
  S   S64       1.0  0.39303  0.62675  0.27907  1.0000
  S   S65       1.0  0.37190  0.70816  0.28110  1.0000
  S   S66       1.0  0.32948  0.58068  0.25909  1.0000
  C   C344      1.0  0.23304  0.57998  0.24764  1.0000
  C   C345      1.0  0.24499  0.58821  0.27333  1.0000
  C   C346      1.0  0.27446  0.58902  0.27701  1.0000
  C   C347      1.0  0.29226  0.58051  0.25532  1.0000
  C   C348      1.0  0.28026  0.57138  0.22995  1.0000
  C   C349      1.0  0.25084  0.57167  0.22588  1.0000
  H   H275      1.0  0.23137  0.59385  0.29053  1.0000
  H   H276      1.0  0.29384  0.56443  0.21320  1.0000
  H   H277      1.0  0.24195  0.56498  0.20611  1.0000
  C   C350      1.0  0.01681  0.54719  0.09245  1.0000
  C   C351      1.0  0.00447  0.57812  0.15842  1.0000
  C   C352      1.0  0.03363  0.58247  0.16260  1.0000
  C   C353      1.0  0.04422  0.60970  0.16594  1.0000
  C   C354      1.0  0.02523  0.63236  0.16528  1.0000
  C   C355      1.0  0.46674  0.58295  0.25533  1.0000
  C   C356      1.0  0.07558  0.50250  0.03029  1.0000
  H   H278      1.0  0.04788  0.56480  0.16328  1.0000
  H   H279      1.0  0.03313  0.65351  0.16791  1.0000
  H   H280      1.0  0.15113  0.70963  0.02402  1.0000
  C   C357      1.0  0.38115  0.72984  0.18724  1.0000
  C   C358      1.0  0.39104  0.70399  0.19760  1.0000
  C   C359      1.0  0.38737  0.69654  0.22595  1.0000
  C   C360      1.0  0.37449  0.71525  0.24456  1.0000
  C   C361      1.0  0.36454  0.74106  0.23419  1.0000
  C   C362      1.0  0.36749  0.74818  0.20566  1.0000
  H   H281      1.0  0.40181  0.68969  0.18368  1.0000
  H   H282      1.0  0.39520  0.67665  0.23353  1.0000
  H   H283      1.0  0.35471  0.75577  0.24839  1.0000
  H   H284      1.0  0.36002  0.76823  0.19813  1.0000
  C   C363      1.0  0.22937  0.69426  0.10659  1.0000
  C   C364      1.0  0.20336  0.68554  0.11758  1.0000
  C   C365      1.0  0.19598  0.65690  0.11840  1.0000
  C   C366      1.0  0.21419  0.63666  0.10737  1.0000
  C   C367      1.0  0.23999  0.64530  0.09597  1.0000
  C   C368      1.0  0.24774  0.67384  0.09590  1.0000
  H   H285      1.0  0.18887  0.70102  0.12572  1.0000
  H   H286      1.0  0.17589  0.65058  0.12695  1.0000
  H   H287      1.0  0.25403  0.62980  0.08712  1.0000
  H   H288      1.0  0.26760  0.67982  0.08690  1.0000
  C   C369      1.0  0.30294  0.95733  0.21169  1.0000
  H   H289      1.0  0.06312  0.63144  0.22896  1.0000
  H   H290      1.0  0.45769  0.70167  0.26420  1.0000
  H   H291      1.0  0.27618  0.90490  0.16670  1.0000
  C   C370      1.0  0.32836  0.94394  0.09366  1.0000
  C   C371      1.0  0.32866  0.91485  0.09942  1.0000
  C   C372      1.0  0.32917  0.90538  0.12711  1.0000
  C   C373      1.0  0.33004  0.92545  0.14882  1.0000
  C   C374      1.0  0.33007  0.95452  0.14302  1.0000
  H   H292      1.0  0.32744  0.95098  0.07217  1.0000
  H   H293      1.0  0.32804  0.89978  0.08247  1.0000
  H   H294      1.0  0.33078  0.91841  0.17030  1.0000
  H   H295      1.0  0.44299  0.58965  0.19642  1.0000
  H   H296      1.0  0.22023  0.86048  0.03960  1.0000
  C   C375      1.0  0.08119  0.50020  0.11035  1.0000
  C   C376      1.0  0.22585  0.93428  0.13967  1.0000
  C   C377      1.0  0.12851  0.53202  0.06105  1.0000
  Fe  Fe33      1.0  0.35254  0.60605  0.29253  1.0000
  H   H297      1.0  0.22789  0.73269  0.27545  1.0000
  H   H298      1.0  0.15354  0.56969  0.06565  1.0000
  C   C378      1.0  0.05090  0.58932  0.23966  1.0000
  C   C379      1.0  0.28007  0.97210  0.20017  1.0000
  C   C380      1.0  0.27635  0.84001  0.00053  1.0000
  C   C381      1.0  0.23561  0.71332  0.28441  1.0000
  H   H299      1.0  0.22849  0.87492  0.25398  1.0000
  C   C382      1.0  0.25850  0.66347  0.30516  1.0000
  H   H300      1.0  0.12569  0.78392  0.25025  1.0000
  H   H301      1.0  0.06011  0.60351  0.08508  1.0000
  C   C383      1.0  0.04644  0.61814  0.23693  1.0000
  P   P12       1.0  0.19416  0.68599  0.25300  1.0000
  H   H302      1.0  0.19736  0.54426  0.07710  1.0000
  H   H303      1.0  0.23706  0.95002  0.07114  1.0000
  C   C384      1.0  0.14661  0.62469  0.29041  1.0000
  C   C385      1.0  0.45730  0.90239  0.15179  1.0000
  H   H304      1.0  0.14698  0.76825  0.29506  1.0000
  C   C386      1.0  0.21889  0.97258  0.20595  1.0000
  H   H305      1.0  0.33654  0.81713  0.98771  1.0000
  C   C387      1.0  0.25448  0.86230  0.21927  1.0000
  C   C388      1.0  0.43928  0.94927  0.14280  1.0000
  H   H306      1.0  0.07104  0.58037  0.23374  1.0000
  C   C389      1.0  0.26539  0.89862  0.18566  1.0000
  H   H307      1.0  0.10935  0.54356  0.05683  1.0000
  C   C390      1.0  0.40704  0.90998  0.14833  1.0000
  C   C391      1.0  0.03175  0.52380  0.01460  1.0000
  C   C392      1.0  0.23632  0.90943  0.22592  1.0000
  H   H308      1.0  0.25600  0.87983  0.00709  1.0000
  H   H309      1.0  0.22434  0.92413  0.23842  1.0000
  C   C393      1.0  0.01829  0.60017  0.06758  1.0000
  H   H310      1.0  0.03618  0.50164  0.05323  1.0000
  C   C394      1.0  0.99805  0.61242  0.25245  1.0000
  C   C395      1.0  0.27038  0.72930  0.98926  1.0000
  H   H311      1.0  0.39368  0.95249  0.14185  1.0000
  C   C396      1.0  0.21786  0.65225  0.21196  1.0000
  C   C397      1.0  0.32702  0.97174  0.22071  1.0000
  C   C398      1.0  0.46257  0.55456  0.26118  1.0000
  H   H312      1.0  0.98625  0.56984  0.26311  1.0000
  C   C399      1.0  0.98549  0.60082  0.15764  1.0000
  C   C400      1.0  0.04098  0.56380  0.09474  1.0000
  H   H313      1.0  0.38576  0.90171  0.14874  1.0000
  C   C401      1.0  0.30887  0.54867  0.15521  1.0000
  C   C402      1.0  0.27994  0.55185  0.15081  1.0000
  C   C403      1.0  0.26848  0.57866  0.14802  1.0000
  C   C404      1.0  0.28583  0.60230  0.14983  1.0000
  C   C405      1.0  0.31485  0.59940  0.15459  1.0000
  C   C406      1.0  0.32631  0.57231  0.15707  1.0000
  P   P13       1.0  0.33662  0.63038  0.15868  1.0000
  C   C407      1.0  0.32061  0.65237  0.18518  1.0000
  C   C408      1.0  0.37096  0.61938  0.17099  1.0000
  C   C409      1.0  0.37482  0.61151  0.19905  1.0000
  C   C410      1.0  0.40061  0.60057  0.20802  1.0000
  C   C411      1.0  0.42300  0.59798  0.18931  1.0000
  C   C412      1.0  0.41940  0.60574  0.16136  1.0000
  C   C413      1.0  0.39339  0.61599  0.15211  1.0000
  C   C414      1.0  0.30704  0.63988  0.20805  1.0000
  C   C415      1.0  0.29543  0.65634  0.22931  1.0000
  C   C416      1.0  0.29711  0.68554  0.22785  1.0000
  C   C417      1.0  0.31017  0.69825  0.20496  1.0000
  C   C418      1.0  0.32191  0.68180  0.18369  1.0000
  C   C419      1.0  0.34030  0.64935  0.12610  1.0000
  C   C420      1.0  0.32299  0.64338  0.10293  1.0000
  C   C421      1.0  0.32664  0.65790  0.07776  1.0000
  C   C422      1.0  0.34773  0.67824  0.07543  1.0000
  C   C423      1.0  0.36508  0.68419  0.09835  1.0000
  C   C424      1.0  0.36125  0.67001  0.12359  1.0000
  H   H314      1.0  0.31770  0.52787  0.15768  1.0000
  H   H315      1.0  0.26632  0.53359  0.14980  1.0000
  H   H316      1.0  0.24603  0.58111  0.14471  1.0000
  H   H317      1.0  0.27662  0.62285  0.14755  1.0000
  H   H318      1.0  0.34855  0.56924  0.16093  1.0000
  H   H319      1.0  0.35779  0.61306  0.21398  1.0000
  H   H320      1.0  0.40301  0.59372  0.22948  1.0000
  H   H321      1.0  0.43665  0.60348  0.14674  1.0000
  H   H322      1.0  0.39081  0.62082  0.13015  1.0000
  H   H323      1.0  0.30601  0.61733  0.20978  1.0000
  H   H324      1.0  0.28554  0.64630  0.24710  1.0000
  H   H325      1.0  0.28866  0.69826  0.24464  1.0000
  H   H326      1.0  0.31190  0.72089  0.20404  1.0000
  H   H327      1.0  0.33242  0.69226  0.16662  1.0000
  H   H328      1.0  0.30678  0.62751  0.10400  1.0000
  H   H329      1.0  0.31311  0.65331  0.06002  1.0000
  H   H330      1.0  0.35059  0.68955  0.05598  1.0000
  H   H331      1.0  0.38136  0.70013  0.09679  1.0000
  H   H332      1.0  0.37476  0.67521  0.14118  1.0000
  C   C425      1.0  0.23457  0.66269  0.28806  1.0000
  C   C426      1.0  0.23869  0.88155  0.23484  1.0000
  H   H333      1.0  0.01895  0.62108  0.05875  1.0000
  C   C427      1.0  0.16803  0.73268  0.27665  1.0000
  H   H334      1.0  0.47936  0.95789  0.09547  1.0000
  C   C428      1.0  0.99390  0.58359  0.06499  1.0000
  C   C429      1.0  0.08874  0.51196  0.00576  1.0000
  H   H335      1.0  0.17666  0.72570  0.29644  1.0000
  C   C430      1.0  0.12960  0.61532  0.26836  1.0000
  H   H336      1.0  0.22595  0.64259  0.28183  1.0000
  C   C431      1.0  0.99613  0.62799  0.16105  1.0000
  C   C432      1.0  0.42982  0.89182  0.15192  1.0000
  C   C433      1.0  0.25948  0.97225  0.13515  1.0000
  H   H337      1.0  0.11506  0.59809  0.27150  1.0000
  H   H338      1.0  0.03269  0.54966  0.25125  1.0000
  C   C434      1.0  0.02922  0.57204  0.24933  1.0000
  C   C435      1.0  0.22241  0.68762  0.27826  1.0000
  H   H339      1.0  0.45003  0.59790  0.25928  1.0000
  H   H340      1.0  0.28342  0.59546  0.29684  1.0000
  C   C436      1.0  0.24966  0.91811  0.20123  1.0000
  H   H341      1.0  0.33075  0.96966  0.15985  1.0000
  H   H342      1.0  0.09799  0.51546  0.10913  1.0000
  H   H343      1.0  0.01337  0.59833  0.01051  1.0000
  C   C437      1.0  0.13175  0.62783  0.24205  1.0000
  H   H344      1.0  0.05885  0.55663  0.10692  1.0000
  H   H345      1.0  0.01707  0.65196  0.24015  1.0000
  C   C438      1.0  0.27102  0.68917  0.31190  1.0000
  H   H346      1.0  0.15303  0.65842  0.21693  1.0000
  C   C439      1.0  0.32883  0.96397  0.11540  1.0000
  C   C440      1.0  0.16069  0.72618  0.22684  1.0000
  C   C441      1.0  0.14373  0.75015  0.22622  1.0000
  C   C442      1.0  0.13900  0.76546  0.25075  1.0000
  C   C443      1.0  0.15135  0.64926  0.23759  1.0000
  C   C444      1.0  0.41167  0.93868  0.14420  1.0000
  C   C445      1.0  0.21210  0.67981  0.22051  1.0000
  C   C446      1.0  0.23352  0.64728  0.18779  1.0000
  C   C447      1.0  0.24383  0.66983  0.17225  1.0000
  C   C448      1.0  0.23814  0.69732  0.18060  1.0000
  C   C449      1.0  0.22270  0.70237  0.20491  1.0000
  H   H347      1.0  0.13400  0.75664  0.20673  1.0000
  H   H348      1.0  0.42608  0.86957  0.15502  1.0000
  H   H349      1.0  0.29213  0.84844  0.98647  1.0000
  H   H350      1.0  0.17889  0.65339  0.30346  1.0000
  C   C450      1.0  0.25603  0.85767  0.01215  1.0000
  H   H351      1.0  0.23757  0.62588  0.18129  1.0000
  H   H352      1.0  0.25602  0.66616  0.15355  1.0000
  H   H353      1.0  0.24555  0.71466  0.16804  1.0000
  H   H354      1.0  0.21920  0.72381  0.21151  1.0000
  Fe  Fe34      1.0  0.37568  0.66467  0.30093  1.0000
  C   C451      1.0  0.19242  0.97378  0.19278  1.0000
  C   C452      1.0  0.23594  0.84677  0.03049  1.0000
  C   C453      1.0  0.23625  0.81823  0.03731  1.0000
  C   C454      1.0  0.25672  0.80032  0.02585  1.0000
  C   C455      1.0  0.27674  0.81150  0.00738  1.0000
  P   P14       1.0  0.25789  0.76358  0.03542  1.0000
  C   C456      1.0  0.26959  0.75967  0.07154  1.0000
  C   C457      1.0  0.22365  0.74717  0.03172  1.0000
  C   C458      1.0  0.22025  0.71921  0.04015  1.0000
  C   C459      1.0  0.19417  0.70582  0.03767  1.0000
  C   C460      1.0  0.17140  0.71998  0.02574  1.0000
  C   C461      1.0  0.24405  0.95392  0.15225  1.0000
  C   C462      1.0  0.20093  0.76092  0.01872  1.0000
  C   C463      1.0  0.28573  0.73363  0.08001  1.0000
  C   C464      1.0  0.29186  0.72756  0.11064  1.0000
  C   C465      1.0  0.28151  0.74738  0.13299  1.0000
  C   C466      1.0  0.26547  0.77375  0.12478  1.0000
  C   C467      1.0  0.25954  0.77980  0.09423  1.0000
  C   C468      1.0  0.28122  0.74485  0.01194  1.0000
  C   C469      1.0  0.31051  0.74641  0.01559  1.0000
  C   C470      1.0  0.04168  0.59030  0.08240  1.0000
  H   H355      1.0  0.41118  0.96195  0.09187  1.0000
  C   C471      1.0  0.22317  0.93301  0.11054  1.0000
  C   C472      1.0  0.16606  0.64635  0.28609  1.0000
  C   C473      1.0  0.16904  0.65830  0.25943  1.0000
  H   H356      1.0  0.29289  0.79838  0.99841  1.0000
  H   H357      1.0  0.22041  0.81011  0.05143  1.0000
  H   H358      1.0  0.11871  0.62047  0.22485  1.0000
  H   H359      1.0  0.23781  0.70781  0.04898  1.0000
  H   H360      1.0  0.19167  0.68455  0.04535  1.0000
  C   C474      1.0  0.17486  0.74741  0.01597  1.0000
  H   H361      1.0  0.20316  0.78187  0.01046  1.0000
  H   H362      1.0  0.29204  0.71845  0.06440  1.0000
  H   H363      1.0  0.30291  0.70859  0.11653  1.0000
  H   H364      1.0  0.28540  0.74269  0.15481  1.0000
  H   H365      1.0  0.25753  0.78770  0.14080  1.0000
  H   H366      1.0  0.24712  0.79795  0.08913  1.0000
  H   H367      1.0  0.31944  0.75897  0.03226  1.0000
  C   C475      1.0  0.37173  0.78917  0.98483  1.0000
  C   C476      1.0  0.00292  0.58355  0.25589  1.0000
  H   H368      1.0  0.30246  0.93475  0.21371  1.0000
  C   C477      1.0  0.02013  0.62968  0.24318  1.0000
  H   H369      1.0  0.25659  0.84079  0.22631  1.0000
  C   C478      1.0  0.15105  0.75666  0.27597  1.0000
  H   H370      1.0  0.99655  0.55699  0.15573  1.0000
  C   C479      1.0  0.26785  0.87087  0.19470  1.0000
  C   C480      1.0  0.04692  0.50849  0.03453  1.0000
  C   C481      1.0  0.15339  0.48831  0.06867  1.0000
  C   C482      1.0  0.25966  0.71408  0.30141  1.0000
  H   H371      1.0  0.16357  0.71417  0.20776  1.0000
  H   H372      1.0  0.21400  0.91966  0.15238  1.0000
  C   C483      1.0  0.17343  0.71763  0.25196  1.0000
  H   H373      1.0  0.28047  0.85615  0.18269  1.0000
  C   C484      1.0  0.15346  0.54693  0.06600  1.0000
  H   H374      1.0  0.21055  0.63454  0.22407  1.0000
  C   C485      1.0  0.23870  0.95124  0.09372  1.0000
  C   C486      1.0  0.25680  0.97082  0.10603  1.0000
  C   C487      1.0  0.32858  0.73229  0.99731  1.0000
  H   H375      1.0  0.15726  0.75823  0.00639  1.0000
  C   C488      1.0  0.46670  0.69863  0.28486  1.0000
  H   H376      1.0  0.35120  0.73361  0.00030  1.0000
  P   P15       1.0  0.24808  0.95418  0.18992  1.0000
  H   H377      1.0  0.18879  0.96346  0.17294  1.0000
  C   C489      1.0  0.04498  0.53301  0.99019  1.0000
  H   H378      1.0  0.34470  0.96024  0.22931  1.0000
  H   H379      1.0  0.20935  0.91760  0.10101  1.0000
  S   S67       1.0  0.33458  0.64444  0.31263  1.0000
  H   H380      1.0  0.14511  0.61475  0.31070  1.0000
  C   C490      1.0  0.17825  0.53260  0.07253  1.0000
  S   S68       1.0  0.13128  0.48467  0.15804  1.0000
  C   C491      1.0  0.46204  0.93106  0.14754  1.0000
  H   H381      1.0  0.01601  0.52702  0.10286  1.0000
  C   C492      1.0  0.99460  0.59876  0.99769  1.0000
  H   H382      1.0  0.24795  0.72790  0.98552  1.0000
  H   H383      1.0  0.27003  0.73387  0.30586  1.0000
  H   H384      1.0  0.00970  0.52849  0.01808  1.0000
  C   C493      1.0  0.07346  0.52709  0.98578  1.0000
  H   H385      1.0  0.11087  0.50768  0.00216  1.0000
  H   H386      1.0  0.42701  0.70380  0.30586  1.0000
  C   C494      1.0  0.17822  0.50332  0.07376  1.0000
  C   C495      1.0  0.44934  0.69977  0.30837  1.0000
  P   P16       1.0  0.09583  0.48345  0.05614  1.0000
  C   C496      1.0  0.12829  0.50252  0.06226  1.0000
  H   H387      1.0  0.48097  0.51346  0.26207  1.0000
  H   H388      1.0  0.99411  0.60806  0.30988  1.0000
  H   H389      1.0  0.07034  0.51259  0.15230  1.0000
  H   H390      1.0  0.47491  0.88831  0.15506  1.0000
  H   H391      1.0  0.19736  0.49219  0.07919  1.0000
  H   H392      1.0  0.48269  0.63298  0.30162  1.0000
  C   C497      1.0  0.06539  0.49869  0.13496  1.0000
  C   C498      1.0  0.07596  0.48146  0.08827  1.0000
  C   C499      1.0  0.99327  0.55705  0.07777  1.0000
  H   H393      1.0  0.26782  0.64407  0.31255  1.0000
  C   C500      1.0  0.39436  0.71954  0.60032  1.0000
  C   C501      1.0  0.18098  0.97010  0.61913  1.0000
  H   H394      1.0  0.21219  0.60239  0.50091  1.0000
  Fe  Fe35      1.0  0.35633  0.63062  0.35242  1.0000
  S   S69       1.0  0.37134  0.59034  0.33278  1.0000
  S   S70       1.0  0.33105  0.62785  0.39339  1.0000
  S   S71       1.0  0.15986  0.85593  0.62551  1.0000
  C   C502      1.0  0.24037  0.72009  0.42022  1.0000
  C   C503      1.0  0.13869  0.77932  0.60119  1.0000
  S   S72       1.0  0.39630  0.65417  0.34267  1.0000
  C   C504      1.0  0.41688  0.53076  0.41808  1.0000
  Fe  Fe36      1.0  0.29741  0.65525  0.60690  1.0000
  S   S73       1.0  0.33762  0.67701  0.59591  1.0000
  S   S74       1.0  0.25734  0.67642  0.62242  1.0000
  Fe  Fe37      1.0  0.32402  0.59631  0.60187  1.0000
  S   S75       1.0  0.36650  0.61425  0.59106  1.0000
  C   C505      1.0  0.39765  0.73391  0.57511  1.0000
  Fe  Fe38      1.0  0.35807  0.64626  0.62506  1.0000
  Fe  Fe39      1.0  0.34290  0.64373  0.56255  1.0000
  S   S76       1.0  0.36276  0.65627  0.52070  1.0000
  S   S77       1.0  0.30079  0.62420  0.57135  1.0000
  C   C506      1.0  0.34083  0.63510  0.42870  1.0000
  C   C507      1.0  0.36553  0.64957  0.43559  1.0000
  C   C508      1.0  0.37189  0.65567  0.46383  1.0000
  C   C509      1.0  0.35383  0.64722  0.48559  1.0000
  C   C510      1.0  0.32934  0.63230  0.47876  1.0000
  C   C511      1.0  0.32282  0.62649  0.45047  1.0000
  H   H395      1.0  0.37946  0.65652  0.41911  1.0000
  H   H396      1.0  0.39086  0.66726  0.46884  1.0000
  H   H397      1.0  0.31530  0.62550  0.49521  1.0000
  H   H398      1.0  0.30369  0.61523  0.44539  1.0000
  C   C512      1.0  0.35523  0.51551  0.61017  1.0000
  C   C513      1.0  0.25853  0.69981  0.40920  1.0000
  H   H399      1.0  0.32240  0.73385  0.63856  1.0000
  H   H400      1.0  0.27643  0.66608  0.46920  1.0000
  C   C514      1.0  0.25086  0.71299  0.62012  1.0000
  C   C515      1.0  0.24059  0.66316  0.54723  1.0000
  H   H401      1.0  0.28587  0.66500  0.41842  1.0000
  H   H402      1.0  0.23689  0.63419  0.58156  1.0000
  C   C516      1.0  0.25664  0.75811  0.59715  1.0000
  C   C517      1.0  0.26493  0.72995  0.60081  1.0000
  C   C518      1.0  0.15909  0.74568  0.53177  1.0000
  S   S78       1.0  0.17576  0.93331  0.61389  1.0000
  H   H403      1.0  0.26692  0.77085  0.58152  1.0000
  H   H404      1.0  0.28146  0.72115  0.58799  1.0000
  H   H405      1.0  0.26311  0.69938  0.38698  1.0000
  S   S79       1.0  0.22176  0.80352  0.60428  1.0000
  C   C519      1.0  0.23478  0.72075  0.44897  1.0000
  H   H406      1.0  0.24802  0.68008  0.56056  1.0000
  P   P17       1.0  0.11431  0.73161  0.62383  1.0000
  C   C520      1.0  0.18437  0.71664  0.49848  1.0000
  C   C521      1.0  0.37496  0.76151  0.62195  1.0000
  H   H407      1.0  0.36808  0.53421  0.60897  1.0000
  H   H408      1.0  0.42704  0.55642  0.62894  1.0000
  H   H409      1.0  0.17611  0.66045  0.55045  1.0000
  H   H410      1.0  0.40046  0.69766  0.60191  1.0000
  P   P18       1.0  0.37383  0.53802  0.49215  1.0000
  C   C522      1.0  0.33826  0.55058  0.49630  1.0000
  C   C523      1.0  0.39791  0.55656  0.51480  1.0000
  C   C524      1.0  0.39371  0.58512  0.52048  1.0000
  C   C525      1.0  0.41309  0.59995  0.53692  1.0000
  C   C526      1.0  0.43672  0.58635  0.54786  1.0000
  C   C527      1.0  0.44126  0.55797  0.54194  1.0000
  C   C528      1.0  0.42210  0.54317  0.52520  1.0000
  C   C529      1.0  0.32780  0.55615  0.52320  1.0000
  C   C530      1.0  0.27130  0.68033  0.42695  1.0000
  C   C531      1.0  0.28182  0.56635  0.50364  1.0000
  C   C532      1.0  0.40827  0.55462  0.40338  1.0000
  C   C533      1.0  0.37861  0.77593  0.59660  1.0000
  C   C534      1.0  0.38722  0.54422  0.45731  1.0000
  C   C535      1.0  0.37973  0.56878  0.44290  1.0000
  C   C536      1.0  0.38976  0.57365  0.41585  1.0000
  H   H411      1.0  0.42626  0.52138  0.52027  1.0000
  C   C537      1.0  0.31998  0.55226  0.47320  1.0000
  C   C538      1.0  0.46068  0.69562  0.33507  1.0000
  C   C539      1.0  0.98648  0.94199  0.58268  1.0000
  H   H412      1.0  0.08274  0.90132  0.58329  1.0000
  H   H413      1.0  0.41607  0.55848  0.38238  1.0000
  C   C540      1.0  0.37213  0.50132  0.50135  1.0000
  H   H414      1.0  0.45158  0.59790  0.56073  1.0000
  H   H415      1.0  0.45151  0.66242  0.46016  1.0000
  C   C541      1.0  0.03851  0.89473  0.59166  1.0000
  H   H416      1.0  0.39057  0.48740  0.61547  1.0000
  H   H417      1.0  0.07181  0.80191  0.56028  1.0000
  H   H418      1.0  0.26007  0.57237  0.50653  1.0000
  C   C542      1.0  0.19024  0.98131  0.64464  1.0000
  H   H419      1.0  0.27044  0.91725  0.64668  1.0000
  H   H420      1.0  0.36599  0.58415  0.45246  1.0000
  H   H421      1.0  0.29649  0.78590  0.53009  1.0000
  H   H422      1.0  0.01682  0.84408  0.57451  1.0000
  C   C543      1.0  0.47431  0.67255  0.42245  1.0000
  C   C544      1.0  0.45477  0.65735  0.43830  1.0000
  H   H423      1.0  0.11606  0.82948  0.55588  1.0000
  C   C545      1.0  0.02656  0.88610  0.64014  1.0000
  C   C546      1.0  0.29631  0.76319  0.52884  1.0000
  H   H424      1.0  0.21961  0.59501  0.55187  1.0000
  H   H425      1.0  0.44681  0.69660  0.35302  1.0000
  C   C547      1.0  0.22021  0.61933  0.51384  1.0000
  H   H426      1.0  0.43165  0.61214  0.38799  1.0000
  H   H427      1.0  0.03248  0.89735  0.56995  1.0000
  H   H428      1.0  0.40455  0.60231  0.63912  1.0000
  H   H429      1.0  0.04028  0.80911  0.60839  1.0000
  H   H430      1.0  0.37560  0.59604  0.51203  1.0000
  H   H431      1.0  0.37288  0.79778  0.59472  1.0000
  C   C548      1.0  0.26506  0.93495  0.63354  1.0000
  H   H432      1.0  0.22679  0.73690  0.55249  1.0000
  C   C549      1.0  0.98841  0.81276  0.55891  1.0000
  C   C550      1.0  0.04229  0.81215  0.63070  1.0000
  C   C551      1.0  0.40653  0.52562  0.44502  1.0000
  C   C552      1.0  0.08984  0.77157  0.58849  1.0000
  C   C553      1.0  0.46282  0.64422  0.38189  1.0000
  H   H433      1.0  0.45977  0.54750  0.55011  1.0000
  C   C554      1.0  0.24817  0.97996  0.60003  1.0000
  H   H434      1.0  0.25460  0.76144  0.51174  1.0000
  S   S80       1.0  0.30850  0.55065  0.60397  1.0000
  C   C555      1.0  0.15941  0.72962  0.50722  1.0000
  C   C556      1.0  0.38997  0.76216  0.57331  1.0000
  H   H435      1.0  0.40616  0.72308  0.55703  1.0000
  H   H436      1.0  0.36293  0.48701  0.45924  1.0000
  C   C557      1.0  0.31984  0.74790  0.53742  1.0000
  C   C558      1.0  0.30983  0.80572  0.64383  1.0000
  C   C559      1.0  0.43939  0.63554  0.42596  1.0000
  H   H437      1.0  0.13981  0.75571  0.53861  1.0000
  C   C560      1.0  0.18362  0.74848  0.54773  1.0000
  H   H438      1.0  0.33827  0.75871  0.54526  1.0000
  H   H439      1.0  0.29157  0.56756  0.54766  1.0000
  H   H440      1.0  0.08624  0.82456  0.62851  1.0000
  C   C561      1.0  0.22954  0.72486  0.63671  1.0000
  C   C562      1.0  0.06697  0.89701  0.59907  1.0000
  H   H441      1.0  0.38309  0.59221  0.40451  1.0000
  C   C563      1.0  0.07209  0.69105  0.63052  1.0000
  C   C564      1.0  0.24562  0.95250  0.59006  1.0000
  C   C565      1.0  0.13957  0.80263  0.58352  1.0000
  H   H442      1.0  0.34116  0.55400  0.54151  1.0000
  C   C566      1.0  0.01801  0.88914  0.61211  1.0000
  C   C567      1.0  0.05950  0.73874  0.64278  1.0000
  C   C568      1.0  0.23451  0.76965  0.61292  1.0000
  C   C569      1.0  0.22422  0.61520  0.54252  1.0000
  H   H443      1.0  0.23097  0.73556  0.40650  1.0000
  C   C570      1.0  0.31971  0.71865  0.53555  1.0000
  H   H444      1.0  0.26983  0.82581  0.63695  1.0000
  H   H445      1.0  0.15907  0.81430  0.58123  1.0000
  C   C571      1.0  0.07521  0.89388  0.62697  1.0000
  C   C572      1.0  0.32594  0.51778  0.60799  1.0000
  C   C573      1.0  0.99500  0.83792  0.57267  1.0000
  C   C574      1.0  0.29198  0.56053  0.47684  1.0000
  H   H446      1.0  0.39279  0.77336  0.55381  1.0000
  C   C575      1.0  0.29964  0.56388  0.52679  1.0000
  C   C576      1.0  0.07922  0.71964  0.63206  1.0000
  S   S81       1.0  0.31761  0.62617  0.63798  1.0000
  C   C577      1.0  0.36790  0.48894  0.61386  1.0000
  C   C578      1.0  0.11996  0.69431  0.57913  1.0000
  H   H447      1.0  0.09764  0.69743  0.57550  1.0000
  C   C579      1.0  0.27249  0.74920  0.51871  1.0000
  H   H448      1.0  0.40969  0.62205  0.54117  1.0000
  H   H449      1.0  0.48166  0.74188  0.36346  1.0000
  H   H450      1.0  0.22139  0.73714  0.45724  1.0000
  H   H451      1.0  0.42428  0.62375  0.43822  1.0000
  H   H452      1.0  0.15761  0.77336  0.61249  1.0000
  C   C580      1.0  0.22626  0.64540  0.50184  1.0000
  C   C581      1.0  0.23705  0.66734  0.51840  1.0000
  H   H453      1.0  0.18421  0.70385  0.47972  1.0000
  H   H454      1.0  0.07053  0.75954  0.58968  1.0000
  C   C582      1.0  0.33931  0.80843  0.64286  1.0000
  H   H455      1.0  0.29629  0.68181  0.52417  1.0000
  C   C583      1.0  0.26575  0.68090  0.45567  1.0000
  C   C584      1.0  0.20922  0.71998  0.51412  1.0000
  C   C585      1.0  0.09057  0.79542  0.57146  1.0000
  C   C586      1.0  0.44346  0.62900  0.39776  1.0000
  C   C587      1.0  0.20839  0.73530  0.53921  1.0000
  H   H456      1.0  0.14029  0.72714  0.49505  1.0000
  C   C588      1.0  0.24696  0.70073  0.46681  1.0000
  C   C589      1.0  0.27178  0.71973  0.51778  1.0000
  H   H457      1.0  0.18361  0.76064  0.56692  1.0000
  C   C590      1.0  0.29579  0.70451  0.52576  1.0000
  P   P19       1.0  0.24110  0.70203  0.50408  1.0000
  H   H458      1.0  0.33830  0.70693  0.54152  1.0000
  H   H459      1.0  0.22221  0.64843  0.47975  1.0000
  C   C591      1.0  0.37353  0.49320  0.52960  1.0000
  C   C592      1.0  0.23404  0.63722  0.55923  1.0000
  H   H460      1.0  0.03940  0.66010  0.63644  1.0000
  C   C593      1.0  0.11543  0.81096  0.56899  1.0000
  H   H461      1.0  0.23590  0.94860  0.56987  1.0000
  S   S82       1.0  0.45081  0.58897  0.33089  1.0000
  C   C594      1.0  0.11383  0.76359  0.60377  1.0000
  Fe  Fe40      1.0  0.18212  0.89460  0.64181  1.0000
  H   H462      1.0  0.25071  0.90871  0.59952  1.0000
  H   H463      1.0  0.12466  0.66675  0.54360  1.0000
  Fe  Fe41      1.0  0.41068  0.61430  0.32113  1.0000
  C   C595      1.0  0.13524  0.67712  0.56087  1.0000
  C   C596      1.0  0.06845  0.82075  0.64207  1.0000
  H   H464      1.0  0.27814  0.56213  0.45885  1.0000
  C   C597      1.0  0.16423  0.67357  0.56470  1.0000
  H   H465      1.0  0.32713  0.54694  0.45236  1.0000
  H   H466      1.0  0.29084  0.87063  0.62123  1.0000
  C   C598      1.0  0.22147  0.75311  0.63326  1.0000
  C   C599      1.0  0.13353  0.70769  0.60164  1.0000
  C   C600      1.0  0.38293  0.73320  0.62357  1.0000
  H   H467      1.0  0.28697  0.49459  0.60719  1.0000
  H   H468      1.0  0.20054  0.68514  0.58947  1.0000
  C   C601      1.0  0.35110  0.83388  0.63377  1.0000
  H   H469      1.0  0.34285  0.87576  0.61882  1.0000
  C   C602      1.0  0.04498  0.68211  0.63784  1.0000
  Fe  Fe42      1.0  0.19997  0.83254  0.63542  1.0000
  H   H470      1.0  0.17398  0.71610  0.62087  1.0000
  H   H471      1.0  0.41373  0.50724  0.45622  1.0000
  H   H472      1.0  0.00507  0.79978  0.55052  1.0000
  H   H473      1.0  0.16900  0.98025  0.57678  1.0000
  H   H474      1.0  0.37660  0.50864  0.54602  1.0000
  C   C603      1.0  0.25398  0.93000  0.60683  1.0000
  C   C604      1.0  0.16277  0.70468  0.60476  1.0000
  C   C605      1.0  0.30961  0.49312  0.60913  1.0000
  H   H475      1.0  0.28999  0.68968  0.32460  1.0000
  H   H476      1.0  0.43158  0.51628  0.40851  1.0000
  H   H477      1.0  0.19054  0.51492  0.62626  1.0000
  C   C606      1.0  0.17798  0.68739  0.58664  1.0000
  H   H478      1.0  0.46580  0.63881  0.36010  1.0000
  H   H479      1.0  0.00075  0.94525  0.60014  1.0000
  C   C607      1.0  0.41180  0.55816  0.64568  1.0000
  H   H480      1.0  0.08742  0.67560  0.62401  1.0000
  C   C608      1.0  0.33369  0.85623  0.62594  1.0000
  C   C609      1.0  0.30441  0.85338  0.62721  1.0000
  C   C610      1.0  0.26799  0.96251  0.64359  1.0000
  H   H481      1.0  0.09729  0.89544  0.63276  1.0000
  C   C611      1.0  0.47830  0.66619  0.39401  1.0000
  C   C612      1.0  0.29254  0.82813  0.63608  1.0000
  H   H482      1.0  0.06508  0.76057  0.64575  1.0000
  H   H483      1.0  0.37375  0.83638  0.63269  1.0000
  H   H484      1.0  0.38058  0.72165  0.64293  1.0000
  S   S83       1.0  0.98689  0.79468  0.63243  1.0000
  H   H485      1.0  0.20445  0.76172  0.64561  1.0000
  H   H486      1.0  0.98764  0.61854  0.36001  1.0000
  C   C613      1.0  0.20360  0.51122  0.64451  1.0000
  C   C614      1.0  0.30585  0.94248  0.68921  1.0000
  S   S84       1.0  0.16767  0.88723  0.68601  1.0000
  C   C615      1.0  0.32648  0.73914  0.71946  1.0000
  C   C616      1.0  0.15570  0.74534  0.71010  1.0000
  S   S85       1.0  0.18640  0.82112  0.67889  1.0000
  Fe  Fe43      1.0  0.14760  0.84729  0.66997  1.0000
  S   S86       1.0  0.10386  0.83525  0.68683  1.0000
  Fe  Fe44      1.0  0.20749  0.86157  0.69126  1.0000
  S   S87       1.0  0.23352  0.86552  0.73139  1.0000
  H   H487      1.0  0.24957  0.49799  0.71036  1.0000
  Fe  Fe45      1.0  0.43988  0.78895  0.81387  1.0000
  S   S88       1.0  0.41572  0.75523  0.83745  1.0000
  H   H488      1.0  0.28898  0.48893  0.66758  1.0000
  Fe  Fe46      1.0  0.38469  0.81113  0.78693  1.0000
  S   S89       1.0  0.35857  0.77986  0.80971  1.0000
  S   S90       1.0  0.36327  0.83822  0.75338  1.0000
  Fe  Fe47      1.0  0.38472  0.78938  0.84811  1.0000
  S   S91       1.0  0.35990  0.79874  0.88874  1.0000
  Fe  Fe48      1.0  0.39156  0.74872  0.79706  1.0000
  S   S92       1.0  0.37333  0.70797  0.77902  1.0000
  S   S93       1.0  0.40929  0.82335  0.82586  1.0000
  S   S94       1.0  0.41747  0.77970  0.77291  1.0000
  C   C617      1.0  0.37889  0.58614  0.67246  1.0000
  C   C618      1.0  0.30719  0.93343  0.71712  1.0000
  H   H489      1.0  0.39665  0.60545  0.72124  1.0000
  C   C619      1.0  0.35027  0.80588  0.97369  1.0000
  C   C620      1.0  0.37740  0.69760  0.74346  1.0000
  C   C621      1.0  0.39972  0.70735  0.72706  1.0000
  C   C622      1.0  0.40363  0.69682  0.69974  1.0000
  C   C623      1.0  0.38477  0.67720  0.68812  1.0000
  C   C624      1.0  0.36183  0.66821  0.70413  1.0000
  C   C625      1.0  0.35846  0.67803  0.73180  1.0000
  H   H490      1.0  0.41451  0.72231  0.73576  1.0000
  H   H491      1.0  0.42156  0.70372  0.68764  1.0000
  H   H492      1.0  0.34722  0.65304  0.69555  1.0000
  H   H493      1.0  0.34120  0.67028  0.74432  1.0000
  H   H494      1.0  0.23642  0.77690  0.96302  1.0000
  C   C626      1.0  0.38744  0.77882  0.93680  1.0000
  C   C627      1.0  0.36569  0.79518  0.92564  1.0000
  C   C628      1.0  0.34719  0.80874  0.94437  1.0000
  C   C629      1.0  0.31524  0.51997  0.73417  1.0000
  H   H495      1.0  0.40192  0.76830  0.92284  1.0000
  H   H496      1.0  0.33063  0.82192  0.93614  1.0000
  C   C630      1.0  0.26897  0.85493  0.73734  1.0000
  C   C631      1.0  0.28509  0.84070  0.71728  1.0000
  C   C632      1.0  0.31356  0.83392  0.72295  1.0000
  C   C633      1.0  0.32612  0.84103  0.74876  1.0000
  C   C634      1.0  0.30985  0.85519  0.76862  1.0000
  C   C635      1.0  0.28153  0.86184  0.76307  1.0000
  H   H497      1.0  0.27578  0.83535  0.69729  1.0000
  H   H498      1.0  0.32597  0.82364  0.70703  1.0000
  H   H499      1.0  0.31965  0.86278  0.78754  1.0000
  H   H500      1.0  0.26957  0.87339  0.77845  1.0000
  C   C636      1.0  0.07146  0.82449  0.67099  1.0000
  H   H501      1.0  0.36049  0.88602  0.71192  1.0000
  P   P20       1.0  0.34736  0.56660  0.71740  1.0000
  H   H502      1.0  0.37985  0.51823  0.69493  1.0000
  C   C637      1.0  0.02174  0.81111  0.67683  1.0000
  C   C638      1.0  0.04789  0.81969  0.68821  1.0000
  C   C639      1.0  0.34159  0.53344  0.73484  1.0000
  H   H503      1.0  0.31142  0.61667  0.72738  1.0000
  H   H504      1.0  0.36902  0.60629  0.67630  1.0000
  H   H505      1.0  0.04989  0.82254  0.71059  1.0000
  H   H506      1.0  0.34030  0.48998  0.67363  1.0000
  H   H507      1.0  0.22996  0.54518  0.70156  1.0000
  C   C640      1.0  0.37230  0.56281  0.68911  1.0000
  C   C641      1.0  0.28898  0.76421  0.78642  1.0000
  C   C642      1.0  0.29960  0.73962  0.79836  1.0000
  C   C643      1.0  0.30187  0.73738  0.82742  1.0000
  C   C644      1.0  0.29322  0.75953  0.84463  1.0000
  C   C645      1.0  0.28195  0.78408  0.83286  1.0000
  C   C646      1.0  0.28049  0.78645  0.80354  1.0000
  P   P21       1.0  0.27094  0.81313  0.85476  1.0000
  C   C647      1.0  0.25943  0.80058  0.88857  1.0000
  C   C648      1.0  0.30005  0.83696  0.86015  1.0000
  C   C649      1.0  0.30138  0.85378  0.88431  1.0000
  C   C650      1.0  0.32394  0.87229  0.88836  1.0000
  C   C651      1.0  0.34496  0.87454  0.86805  1.0000
  C   C652      1.0  0.34336  0.85838  0.84369  1.0000
  C   C653      1.0  0.32116  0.83945  0.83989  1.0000
  C   C654      1.0  0.23078  0.80013  0.89583  1.0000
  C   C655      1.0  0.22253  0.79150  0.92260  1.0000
  C   C656      1.0  0.24278  0.78335  0.94226  1.0000
  C   C657      1.0  0.27130  0.78362  0.93512  1.0000
  C   C658      1.0  0.27956  0.79223  0.90845  1.0000
  C   C659      1.0  0.24278  0.83109  0.83663  1.0000
  C   C660      1.0  0.22143  0.81547  0.82339  1.0000
  C   C661      1.0  0.20128  0.82890  0.80675  1.0000
  C   C662      1.0  0.20215  0.85800  0.80339  1.0000
  C   C663      1.0  0.22286  0.87377  0.81708  1.0000
  C   C664      1.0  0.24315  0.86041  0.83363  1.0000
  H   H508      1.0  0.28801  0.76645  0.76388  1.0000
  H   H509      1.0  0.30712  0.72268  0.78517  1.0000
  H   H510      1.0  0.31127  0.71881  0.83655  1.0000
  H   H511      1.0  0.29601  0.75751  0.86696  1.0000
  H   H512      1.0  0.27319  0.80563  0.79377  1.0000
  H   H513      1.0  0.28524  0.85239  0.90019  1.0000
  H   H514      1.0  0.32539  0.88457  0.90739  1.0000
  H   H515      1.0  0.36269  0.88849  0.87132  1.0000
  H   H516      1.0  0.35959  0.86008  0.82790  1.0000
  H   H517      1.0  0.32068  0.82667  0.82121  1.0000
  H   H518      1.0  0.21479  0.80663  0.88106  1.0000
  H   H519      1.0  0.41336  0.84347  0.71664  1.0000
  H   H520      1.0  0.28720  0.77728  0.95017  1.0000
  H   H521      1.0  0.30177  0.79253  0.90333  1.0000
  H   H522      1.0  0.22095  0.79281  0.82515  1.0000
  H   H523      1.0  0.18545  0.81671  0.79575  1.0000
  H   H524      1.0  0.18716  0.86826  0.78964  1.0000
  H   H525      1.0  0.22376  0.89627  0.81400  1.0000
  H   H526      1.0  0.25954  0.87297  0.84322  1.0000
  H   H527      1.0  0.29744  0.52925  0.72356  1.0000
  C   C665      1.0  0.34553  0.90200  0.70555  1.0000
  H   H528      1.0  0.13928  0.78744  0.70735  1.0000
  H   H529      1.0  0.41071  0.63988  0.75678  1.0000
  C   C666      1.0  0.14127  0.76723  0.69702  1.0000
  H   H530      1.0  0.31312  0.54554  0.67110  1.0000
  H   H531      1.0  0.01160  0.88170  0.65653  1.0000
  C   C667      1.0  0.35280  0.61345  0.78910  1.0000
  H   H532      1.0  0.35616  0.77235  0.71357  1.0000
  H   H533      1.0  0.29646  0.70524  0.71951  1.0000
  H   H534      1.0  0.16523  0.74868  0.73046  1.0000
  H   H535      1.0  0.28011  0.70378  0.95322  1.0000
  C   C668      1.0  0.32692  0.91322  0.72517  1.0000
  C   C669      1.0  0.35968  0.59095  0.74386  1.0000
  H   H536      1.0  0.45661  0.76768  0.69426  1.0000
  C   C670      1.0  0.38503  0.53686  0.68318  1.0000
  H   H537      1.0  0.01714  0.74482  0.65776  1.0000
  H   H538      1.0  0.34060  0.61617  0.80803  1.0000
  C   C671      1.0  0.30204  0.60393  0.71108  1.0000
  P   P22       1.0  0.28052  0.96870  0.67876  1.0000
  C   C672      1.0  0.34278  0.75712  0.70313  1.0000
  H   H539      1.0  0.33185  0.70665  0.96037  1.0000
  C   C673      1.0  0.13137  0.73713  0.65713  1.0000
  C   C674      1.0  0.39133  0.81617  0.68799  1.0000
  C   C675      1.0  0.31503  0.57912  0.70176  1.0000
  H   H540      1.0  0.16839  0.70205  0.70734  1.0000
  C   C676      1.0  0.99747  0.60033  0.96856  1.0000
  H   H541      1.0  0.20041  0.79129  0.92811  1.0000
  C   C677      1.0  0.24917  0.96691  0.69999  1.0000
  H   H542      1.0  0.37278  0.82932  0.68791  1.0000
  H   H543      1.0  0.00406  0.69469  0.65301  1.0000
  C   C678      1.0  0.14499  0.71488  0.67082  1.0000
  H   H544      1.0  0.03313  0.54465  0.97467  1.0000
  C   C679      1.0  0.34440  0.59389  0.76884  1.0000
  C   C680      1.0  0.30878  0.71939  0.70675  1.0000
  C   C681      1.0  0.39249  0.62662  0.76034  1.0000
  C   C682      1.0  0.43863  0.78149  0.69204  1.0000
  C   C683      1.0  0.34190  0.75514  0.67383  1.0000
  H   H545      1.0  0.17895  0.96235  0.74161  1.0000
  H   H546      1.0  0.26888  0.56184  0.64966  1.0000
  C   C684      1.0  0.30292  0.56412  0.67942  1.0000
  H   H547      1.0  0.40727  0.76306  0.97439  1.0000
  H   H548      1.0  0.24583  0.60539  0.66670  1.0000
  C   C685      1.0  0.27697  0.61312  0.69869  1.0000
  C   C686      1.0  0.23692  0.50156  0.69181  1.0000
  C   C687      1.0  0.38411  0.60718  0.73998  1.0000
  C   C688      1.0  0.30750  0.71751  0.67759  1.0000
  C   C689      1.0  0.23828  0.94075  0.70808  1.0000
  H   H549      1.0  0.26741  0.63262  0.70546  1.0000
  C   C690      1.0  0.32392  0.73537  0.66114  1.0000
  C   C691      1.0  0.19866  0.96369  0.73030  1.0000
  C   C692      1.0  0.39894  0.58392  0.65121  1.0000
  C   C693      1.0  0.36025  0.49483  0.76244  1.0000
  C   C694      1.0  0.43796  0.80695  0.70654  1.0000
  C   C695      1.0  0.41577  0.77342  0.67535  1.0000
  H   H550      1.0  0.38279  0.64581  0.79996  1.0000
  C   C696      1.0  0.39201  0.79083  0.67291  1.0000
  H   H551      1.0  0.32771  0.90604  0.74665  1.0000
  H   H552      1.0  0.32828  0.74014  0.74202  1.0000
  C   C697      1.0  0.41434  0.82426  0.70449  1.0000
  H   H553      1.0  0.35959  0.90297  0.66285  1.0000
  C   C698      1.0  0.40472  0.53460  0.66156  1.0000
  C   C699      1.0  0.20927  0.53314  0.66319  1.0000
  H   H554      1.0  0.32563  0.58146  0.77239  1.0000
  P   P23       1.0  0.36179  0.77938  0.65269  1.0000
  C   C700      1.0  0.15750  0.71913  0.69703  1.0000
  H   H555      1.0  0.41652  0.75326  0.66499  1.0000
  C   C701      1.0  0.21328  0.93923  0.72343  1.0000
  H   H556      1.0  0.38430  0.53114  0.75061  1.0000
  H   H557      1.0  0.45537  0.81290  0.72004  1.0000
  H   H558      1.0  0.00399  0.80726  0.69045  1.0000
  H   H559      1.0  0.20499  0.91897  0.72957  1.0000
  C   C702      1.0  0.26476  0.59775  0.67686  1.0000
  H   H560      1.0  0.29388  0.70213  0.66768  1.0000
  H   H561      1.0  0.41434  0.51449  0.65698  1.0000
  C   C703      1.0  0.37671  0.62998  0.78473  1.0000
  C   C704      1.0  0.39039  0.77586  0.96613  1.0000
  C   C705      1.0  0.22577  0.52826  0.68694  1.0000
  C   C706      1.0  0.34483  0.91143  0.67789  1.0000
  H   H562      1.0  0.01823  0.60113  0.95924  1.0000
  H   H563      1.0  0.08374  0.53424  0.96686  1.0000
  C   C707      1.0  0.27775  0.57327  0.66724  1.0000
  H   H564      1.0  0.19380  0.96748  0.66219  1.0000
  C   C708      1.0  0.36392  0.52089  0.74952  1.0000
  H   H565      1.0  0.24882  0.92141  0.70231  1.0000
  H   H566      1.0  0.29294  0.94176  0.73271  1.0000
  C   C709      1.0  0.32518  0.93173  0.66973  1.0000
  C   C710      1.0  0.31162  0.49397  0.74725  1.0000
  H   H567      1.0  0.11804  0.78046  0.66089  1.0000
  S   S95       1.0  0.39199  0.66277  0.65456  1.0000
  C   C711      1.0  0.12926  0.76323  0.67058  1.0000
  H   H568      1.0  0.20072  0.55387  0.65935  1.0000
  C   C712      1.0  0.31767  0.71704  0.97480  1.0000
  H   H569      1.0  0.37771  0.48505  0.77335  1.0000
  C   C713      1.0  0.21462  0.48445  0.64941  1.0000
  H   H570      1.0  0.29990  0.78645  0.65056  1.0000
  S   S96       1.0  0.22328  0.87176  0.64816  1.0000
  H   H571      1.0  0.32500  0.93899  0.64827  1.0000
  H   H572      1.0  0.14591  0.69425  0.66132  1.0000
  H   H573      1.0  0.06154  0.88580  0.66906  1.0000
  C   C714      1.0  0.28856  0.71553  0.97078  1.0000
  H   H574      1.0  0.29143  0.48341  0.74630  1.0000
  H   H575      1.0  0.21872  0.71196  0.65188  1.0000
  C   C715      1.0  0.01881  0.80709  0.64798  1.0000
  C   C716      1.0  0.03242  0.72980  0.64997  1.0000
  C   C717      1.0  0.05500  0.88859  0.64746  1.0000
  C   C718      1.0  0.02508  0.70153  0.64732  1.0000
  C   C719      1.0  0.51557  0.07492  0.04717  1.0000
  C   C720      1.0  0.78790  0.15828  0.28898  1.0000
  H   H576      1.0  0.49391  0.43009  0.17772  1.0000
  Fe  Fe49      1.0  0.81935  0.06513  0.28379  1.0000
  S   S97       1.0  0.79961  0.06844  0.24028  1.0000
  H   H577      1.0  0.79145  0.21805  0.23809  1.0000
  C   C721      1.0  0.85756  0.18027  0.31209  1.0000
  H   H578      1.0  0.81111  0.34322  0.22172  1.0000
  Fe  Fe50      1.0  0.62970  0.14261  0.13064  1.0000
  S   S98       1.0  0.61893  0.09955  0.14730  1.0000
  S   S99       1.0  0.64382  0.15756  0.08689  1.0000
  Fe  Fe51      1.0  0.61695  0.17061  0.18750  1.0000
  S   S100      1.0  0.60433  0.12993  0.20700  1.0000
  S   S101      1.0  0.62199  0.21251  0.21016  1.0000
  Fe  Fe52      1.0  0.64300  0.11224  0.18628  1.0000
  S   S102      1.0  0.66800  0.08474  0.21673  1.0000
  Fe  Fe53      1.0  0.58085  0.12036  0.16687  1.0000
  S   S103      1.0  0.53879  0.09577  0.16966  1.0000
  S   S104      1.0  0.65658  0.15355  0.16835  1.0000
  S   S105      1.0  0.59065  0.16293  0.14874  1.0000
  C   C722      1.0  0.66427  0.14831  0.27203  1.0000
  H   H579      1.0  0.48428  0.99456  0.18483  1.0000
  C   C723      1.0  0.56703  0.16978  0.08063  1.0000
  H   H580      1.0  0.55033  0.01324  0.08742  1.0000
  C   C724      1.0  0.62169  0.21635  0.24713  1.0000
  C   C725      1.0  0.60948  0.19634  0.26477  1.0000
  C   C726      1.0  0.60925  0.20072  0.29398  1.0000
  H   H581      1.0  0.59899  0.18561  0.30732  1.0000
  C   C727      1.0  0.63458  0.24432  0.28826  1.0000
  C   C728      1.0  0.63377  0.24050  0.25906  1.0000
  H   H582      1.0  0.59981  0.17778  0.25588  1.0000
  H   H583      1.0  0.62068  0.31763  0.22024  1.0000
  C   C729      1.0  0.62212  0.22456  0.30589  1.0000
  H   H584      1.0  0.64246  0.25640  0.24563  1.0000
  C   C730      1.0  0.68106  0.31222  0.27477  1.0000
  C   C731      1.0  0.50307  0.10189  0.15904  1.0000
  H   H585      1.0  0.49739  0.18309  0.07065  1.0000
  H   H586      1.0  0.69437  0.21218  0.26314  1.0000
  H   H587      1.0  0.51194  0.13470  0.12949  1.0000
  C   C732      1.0  0.65759  0.12364  0.99672  1.0000
  C   C733      1.0  0.65093  0.10508  0.01870  1.0000
  C   C734      1.0  0.64660  0.11493  0.04634  1.0000
  C   C735      1.0  0.64900  0.14358  0.05246  1.0000
  C   C736      1.0  0.65574  0.16210  0.03049  1.0000
  C   C737      1.0  0.65998  0.15227  0.00285  1.0000
  H   H588      1.0  0.64915  0.08291  0.01427  1.0000
  H   H589      1.0  0.64163  0.10038  0.06294  1.0000
  H   H590      1.0  0.65769  0.18430  0.03488  1.0000
  C   C738      1.0  0.76312  0.07495  0.23461  1.0000
  C   C739      1.0  0.74307  0.06941  0.25526  1.0000
  C   C740      1.0  0.71414  0.07305  0.24956  1.0000
  C   C741      1.0  0.70486  0.08293  0.22338  1.0000
  C   C742      1.0  0.72494  0.08912  0.20289  1.0000
  C   C743      1.0  0.75388  0.08480  0.20838  1.0000
  H   H591      1.0  0.74987  0.06146  0.27530  1.0000
  H   H592      1.0  0.69883  0.06784  0.26542  1.0000
  H   H593      1.0  0.71813  0.09636  0.18253  1.0000
  H   H594      1.0  0.76918  0.08895  0.19217  1.0000
  C   C744      1.0  0.78197  0.15887  0.23863  1.0000
  C   C745      1.0  0.75475  0.14805  0.24166  1.0000
  H   H595      1.0  0.59425  0.12128  0.01266  1.0000
  C   C746      1.0  0.59437  0.11882  0.30365  1.0000
  H   H596      1.0  0.66778  0.30238  0.20523  1.0000
  H   H597      1.0  0.70802  0.22387  0.13910  1.0000
  C   C747      1.0  0.63259  0.32324  0.26339  1.0000
  C   C748      1.0  0.66438  0.30745  0.22706  1.0000
  H   H598      1.0  0.94124  0.06628  0.29329  1.0000
  C   C749      1.0  0.60066  0.08043  0.25977  1.0000
  C   C750      1.0  0.74638  0.37343  0.21708  1.0000
  C   C751      1.0  0.73088  0.25856  0.15754  1.0000
  H   H599      1.0  0.66500  0.16689  0.98631  1.0000
  C   C752      1.0  0.75485  0.22979  0.28268  1.0000
  C   C753      1.0  0.69708  0.24988  0.20451  1.0000
  C   C754      1.0  0.83386  0.24350  0.18704  1.0000
  C   C755      1.0  0.51913  0.02563  0.11763  1.0000
  H   H600      1.0  0.73655  0.39359  0.21324  1.0000
  H   H601      1.0  0.64413  0.26293  0.29709  1.0000
  C   C756      1.0  0.67467  0.17198  0.25832  1.0000
  C   C757      1.0  0.88737  0.15388  0.25651  1.0000
  H   H602      1.0  0.83932  0.99126  0.22530  1.0000
  C   C758      1.0  0.85790  0.22739  0.19218  1.0000
  H   H603      1.0  0.51156  0.09117  0.98982  1.0000
  C   C759      1.0  0.49572  0.12170  0.13870  1.0000
  H   H604      1.0  0.70696  0.35234  0.22299  1.0000
  H   H605      1.0  0.82445  0.23530  0.28051  1.0000
  C   C760      1.0  0.90622  0.13187  0.25169  1.0000
  C   C761      1.0  0.62355  0.08677  0.27711  1.0000
  H   H606      1.0  0.58601  0.17958  0.08875  1.0000
  C   C762      1.0  0.68827  0.19306  0.27352  1.0000
  S   S106      1.0  0.86218  0.04595  0.29204  1.0000
  H   H607      1.0  0.64388  0.07769  0.27228  1.0000
  C   C763      1.0  0.89649  0.10639  0.24086  1.0000
  C   C764      1.0  0.49635  0.47490  0.18361  1.0000
  C   C765      1.0  0.84361  0.19539  0.29097  1.0000
  H   H608      1.0  0.67093  0.17454  0.23606  1.0000
  C   C766      1.0  0.57464  0.09334  0.26423  1.0000
  H   H609      1.0  0.48448  0.03353  0.14499  1.0000
  H   H610      1.0  0.49987  0.13630  0.04857  1.0000
  H   H611      1.0  0.52991  0.04487  0.12354  1.0000
  P   P24       1.0  0.72088  0.29342  0.23571  1.0000
  C   C767      1.0  0.76090  0.14697  0.29187  1.0000
  H   H612      1.0  0.55725  0.08923  0.25003  1.0000
  C   C768      1.0  0.74220  0.32381  0.22801  1.0000
  C   C769      1.0  0.85853  0.15050  0.25064  1.0000
  H   H613      1.0  0.58848  0.13210  0.06874  1.0000
  C   C770      1.0  0.52014  0.44100  0.21297  1.0000
  C   C771      1.0  0.62054  0.10579  0.29940  1.0000
  C   C772      1.0  0.71075  0.23710  0.15743  1.0000
  H   H614      1.0  0.87642  0.22995  0.17919  1.0000
  C   C773      1.0  0.74433  0.14185  0.26823  1.0000
  C   C774      1.0  0.77571  0.37100  0.21670  1.0000
  H   H615      1.0  0.65312  0.13271  0.25979  1.0000
  P   P25       1.0  0.83389  0.17835  0.25849  1.0000
  C   C775      1.0  0.51721  0.17184  0.07019  1.0000
  C   C776      1.0  0.54142  0.18413  0.08155  1.0000
  H   H616      1.0  0.89527  0.17325  0.26544  1.0000
  H   H617      1.0  0.83373  0.25851  0.17002  1.0000
  C   C777      1.0  0.54403  0.13004  0.05834  1.0000
  C   C778      1.0  0.51863  0.14515  0.05805  1.0000
  P   P26       1.0  0.54632  0.09637  0.04122  1.0000
  C   C779      1.0  0.57436  0.07579  0.05621  1.0000
  H   H618      1.0  0.86027  0.08326  0.22617  1.0000
  C   C780      1.0  0.85806  0.20773  0.21390  1.0000
  H   H619      1.0  0.68380  0.24611  0.22247  1.0000
  H   H620      1.0  0.54473  0.45757  0.24678  1.0000
  H   H621      1.0  0.61006  0.47353  0.30380  1.0000
  C   C781      1.0  0.51097  0.05089  0.03071  1.0000
  C   C782      1.0  0.59363  0.06143  0.03913  1.0000
  C   C783      1.0  0.61415  0.04415  0.05111  1.0000
  C   C784      1.0  0.61514  0.04053  0.08010  1.0000
  C   C785      1.0  0.59554  0.05414  0.09713  1.0000
  C   C786      1.0  0.57544  0.07201  0.08532  1.0000
  H   H622      1.0  0.73496  0.23327  0.24281  1.0000
  H   H623      1.0  0.82707  0.12183  0.23420  1.0000
  C   C787      1.0  0.49763  0.08030  0.06987  1.0000
  H   H624      1.0  0.82992  0.98307  0.27564  1.0000
  C   C788      1.0  0.73853  0.27395  0.26311  1.0000
  H   H625      1.0  0.92827  0.13422  0.25721  1.0000
  H   H626      1.0  0.70470  0.40589  0.30852  1.0000
  H   H627      1.0  0.54046  0.20485  0.09088  1.0000
  H   H628      1.0  0.72363  0.13252  0.27038  1.0000
  C   C789      1.0  0.68624  0.30476  0.24679  1.0000
  H   H629      1.0  0.69738  0.31123  0.29048  1.0000
  H   H630      1.0  0.56064  0.08274  0.09891  1.0000
  C   C790      1.0  0.72964  0.34993  0.22266  1.0000
  H   H631      1.0  0.61183  0.32994  0.26996  1.0000
  C   C791      1.0  0.83409  0.20403  0.23065  1.0000
  H   H632      1.0  0.91100  0.08909  0.23794  1.0000
  H   H633      1.0  0.59309  0.06363  0.01660  1.0000
  H   H634      1.0  0.62953  0.03383  0.03790  1.0000
  H   H635      1.0  0.63122  0.02738  0.08943  1.0000
  H   H636      1.0  0.59607  0.05106  0.11959  1.0000
  H   H637      1.0  0.60354  0.06653  0.24200  1.0000
  C   C792      1.0  0.79865  0.16443  0.26234  1.0000
  C   C793      1.0  0.69386  0.23282  0.18091  1.0000
  H   H638      1.0  0.74955  0.29245  0.18056  1.0000
  H   H639      1.0  0.67797  0.21640  0.18076  1.0000
  H   H640      1.0  0.87686  0.19539  0.21736  1.0000
  C   C794      1.0  0.65437  0.32142  0.28297  1.0000
  C   C795      1.0  0.74894  0.28797  0.28691  1.0000
  H   H641      1.0  0.78180  0.30157  0.23170  1.0000
  H   H642      1.0  0.78862  0.38929  0.21249  1.0000
  C   C796      1.0  0.80997  0.24008  0.20371  1.0000
  C   C797      1.0  0.74209  0.24477  0.26099  1.0000
  C   C798      1.0  0.55279  0.10396  0.00479  1.0000
  C   C799      1.0  0.71720  0.27154  0.20486  1.0000
  H   H643      1.0  0.74197  0.14363  0.22334  1.0000
  C   C800      1.0  0.95596  0.08310  0.29758  1.0000
  C   C801      1.0  0.57845  0.11629  0.99701  1.0000
  C   C802      1.0  0.57151  0.11252  0.28617  1.0000
  C   C803      1.0  0.78837  0.34505  0.22190  1.0000
  C   C804      1.0  0.77170  0.32151  0.22756  1.0000
  H   H644      1.0  0.79123  0.25237  0.19964  1.0000
  H   H645      1.0  0.74378  0.26194  0.13918  1.0000
  C   C805      1.0  0.49342  0.01893  0.13013  1.0000
  C   C806      1.0  0.73409  0.27580  0.18112  1.0000
  C   C807      1.0  0.86798  0.10309  0.23432  1.0000
  C   C808      1.0  0.53055  0.00787  0.09732  1.0000
  C   C809      1.0  0.63762  0.31638  0.23541  1.0000
  C   C810      1.0  0.53211  0.09916  0.98424  1.0000
  H   H646      1.0  0.79008  0.16251  0.21779  1.0000
  C   C811      1.0  0.81012  0.22051  0.22547  1.0000
  C   C812      1.0  0.84909  0.12509  0.23903  1.0000
  C   C813      1.0  0.56835  0.14277  0.06925  1.0000
  C   C814      1.0  0.50264  0.44703  0.19020  1.0000
  H   H647      1.0  0.52541  0.04553  0.01402  1.0000
  C   C815      1.0  0.83586  0.22337  0.29606  1.0000
  H   H648      1.0  0.68817  0.45542  0.31170  1.0000
  C   C816      1.0  0.66754  0.14554  0.30113  1.0000
  H   H649      1.0  0.50169  0.09750  0.08413  1.0000
  C   C817      1.0  0.48785  0.03346  0.03589  1.0000
  C   C818      1.0  0.69291  0.18987  0.30221  1.0000
  H   H650      1.0  0.55158  0.12317  0.28908  1.0000
  H   H651      1.0  0.80038  0.16179  0.30761  1.0000
  C   C819      1.0  0.51622  0.98341  0.08952  1.0000
  C   C820      1.0  0.53136  0.46280  0.22920  1.0000
  H   H652      1.0  0.48426  0.01504  0.02304  1.0000
  H   H653      1.0  0.75663  0.20721  0.28131  1.0000
  H   H654      1.0  0.74672  0.31052  0.28904  1.0000
  C   C821      1.0  0.76482  0.24382  0.30634  1.0000
  H   H655      1.0  0.86313  0.15842  0.30914  1.0000
  H   H656      1.0  0.48679  0.06988  0.18641  1.0000
  C   C822      1.0  0.94662  0.10731  0.31134  1.0000
  H   H657      1.0  0.52498  0.41939  0.21812  1.0000
  S   S107      1.0  0.83021  0.10469  0.30702  1.0000
  C   C823      1.0  0.76190  0.27290  0.30848  1.0000
  H   H658      1.0  0.75305  0.14186  0.31247  1.0000
  H   H659      1.0  0.65060  0.32703  0.30466  1.0000
  H   H660      1.0  0.61682  0.15111  0.42849  1.0000
  Fe  Fe54      1.0  0.81139  0.08315  0.34400  1.0000
  S   S108      1.0  0.77773  0.10528  0.37036  1.0000
  S   S109      1.0  0.85297  0.06471  0.35785  1.0000
  C   C824      1.0  0.62322  0.14443  0.40781  1.0000
  C   C825      1.0  0.52526  0.23459  0.60304  1.0000
  S   S110      1.0  0.64845  0.24897  0.58825  1.0000
  C   C826      1.0  0.72172  0.13407  0.56084  1.0000
  C   C827      1.0  0.65861  0.18164  0.48161  1.0000
  Fe  Fe55      1.0  0.66746  0.28610  0.42080  1.0000
  S   S111      1.0  0.70880  0.30242  0.40395  1.0000
  S   S112      1.0  0.64988  0.29914  0.46395  1.0000
  Fe  Fe56      1.0  0.65215  0.25954  0.36381  1.0000
  S   S113      1.0  0.69179  0.27460  0.34347  1.0000
  Fe  Fe57      1.0  0.71298  0.26003  0.38283  1.0000
  S   S114      1.0  0.75515  0.23716  0.37931  1.0000
  Fe  Fe58      1.0  0.68407  0.31585  0.36584  1.0000
  S   S115      1.0  0.69358  0.35610  0.34081  1.0000
  S   S116      1.0  0.67365  0.24284  0.40245  1.0000
  S   S117      1.0  0.64246  0.30153  0.38339  1.0000
  C   C828      1.0  0.68078  0.39134  0.34395  1.0000
  C   C829      1.0  0.76284  0.36945  0.60916  1.0000
  C   C830      1.0  0.62380  0.16379  0.38593  1.0000
  H   H661      1.0  0.64187  0.14622  0.50457  1.0000
  C   C831      1.0  0.66186  0.39948  0.36486  1.0000
  H   H662      1.0  0.56886  0.33318  0.51322  1.0000
  C   C832      1.0  0.64995  0.26487  0.55455  1.0000
  C   C833      1.0  0.63510  0.28930  0.54776  1.0000
  C   C834      1.0  0.63560  0.29969  0.52006  1.0000
  C   C835      1.0  0.65091  0.28590  0.49885  1.0000
  C   C836      1.0  0.66671  0.26230  0.50606  1.0000
  C   C837      1.0  0.66610  0.25184  0.53364  1.0000
  H   H663      1.0  0.62282  0.29987  0.56365  1.0000
  H   H664      1.0  0.62387  0.31845  0.51497  1.0000
  H   H665      1.0  0.67959  0.25235  0.49039  1.0000
  H   H666      1.0  0.67844  0.23369  0.53894  1.0000
  C   C838      1.0  0.68356  0.16510  0.57373  1.0000
  C   C839      1.0  0.77110  0.14204  0.36982  1.0000
  C   C840      1.0  0.74364  0.15203  0.37480  1.0000
  C   C841      1.0  0.73815  0.18108  0.37704  1.0000
  C   C842      1.0  0.76020  0.20045  0.37465  1.0000
  C   C843      1.0  0.78749  0.19045  0.36916  1.0000
  C   C844      1.0  0.79292  0.16148  0.36655  1.0000
  H   H667      1.0  0.72654  0.13724  0.37719  1.0000
  H   H668      1.0  0.71700  0.18842  0.38116  1.0000
  H   H669      1.0  0.80466  0.20523  0.36735  1.0000
  H   H670      1.0  0.81416  0.15416  0.36288  1.0000
  H   H671      1.0  0.73539  0.08987  0.41375  1.0000
  H   H672      1.0  0.57695  0.27894  0.44231  1.0000
  H   H673      1.0  0.66747  0.21865  0.45694  1.0000
  S   S118      1.0  0.62129  0.22967  0.34269  1.0000
  C   C845      1.0  0.95790  0.11211  0.39380  1.0000
  S   S119      1.0  0.91090  0.11191  0.32236  1.0000
  C   C846      1.0  0.77781  0.32418  0.62675  1.0000
  H   H674      1.0  0.56713  0.31131  0.59746  1.0000
  C   C847      1.0  0.92931  0.11234  0.40063  1.0000
  P   P27       1.0  0.52893  0.30163  0.54929  1.0000
  S   S120      1.0  0.85734  0.98281  0.34303  1.0000
  C   C848      1.0  0.51829  0.25890  0.58821  1.0000
  Fe  Fe59      1.0  0.84206  0.02716  0.33069  1.0000
  H   H675      1.0  0.74425  0.24689  0.43494  1.0000
  H   H676      1.0  0.58001  0.20096  0.46830  1.0000
  C   C849      1.0  0.53760  0.27072  0.56937  1.0000
  S   S121      1.0  0.79878  0.04384  0.32031  1.0000
  P   P28       1.0  0.69511  0.17349  0.48924  1.0000
  C   C850      1.0  0.66193  0.44815  0.34758  1.0000
  H   H677      1.0  0.63801  0.43357  0.38299  1.0000
  C   C851      1.0  0.53593  0.27079  0.50020  1.0000
  H   H678      1.0  0.60087  0.16102  0.61637  1.0000
  C   C852      1.0  0.96959  0.12792  0.44066  1.0000
  H   H679      1.0  0.49791  0.26832  0.59178  1.0000
  C   C853      1.0  0.60868  0.17156  0.48745  1.0000
  H   H680      1.0  0.77457  0.23208  0.32316  1.0000
  H   H681      1.0  0.70678  0.13987  0.60307  1.0000
  H   H682      1.0  0.63316  0.38164  0.62030  1.0000
  H   H683      1.0  0.65443  0.38411  0.37975  1.0000
  C   C854      1.0  0.54432  0.33279  0.56443  1.0000
  H   H684      1.0  0.59145  0.22415  0.57792  1.0000
  C   C855      1.0  0.69914  0.10637  0.43541  1.0000
  H   H685      1.0  0.61811  0.23081  0.44886  1.0000
  C   C856      1.0  0.74998  0.25294  0.47909  1.0000
  H   H686      1.0  0.68641  0.16405  0.33824  1.0000
  C   C857      1.0  0.71724  0.20422  0.48544  1.0000
  C   C858      1.0  0.68020  0.17272  0.54571  1.0000
  H   H687      1.0  0.76236  0.27188  0.47651  1.0000
  C   C859      1.0  0.49129  0.30754  0.54919  1.0000
  C   C860      1.0  0.67303  0.36500  0.63384  1.0000
  H   H688      1.0  0.87506  0.18123  0.35362  1.0000
  H   H689      1.0  0.48411  0.29443  0.50625  1.0000
  C   C861      1.0  0.72407  0.07216  0.32793  1.0000
  H   H690      1.0  0.97961  0.15945  0.37143  1.0000
  H   H691      1.0  0.49051  0.32231  0.59219  1.0000
  C   C862      1.0  0.72364  0.21444  0.45863  1.0000
  H   H692      1.0  0.75141  0.16035  0.46723  1.0000
  C   C863      1.0  0.63188  0.15525  0.35915  1.0000
  C   C864      1.0  0.92079  0.12029  0.42745  1.0000
  C   C865      1.0  0.74405  0.24278  0.50580  1.0000
  C   C866      1.0  0.72783  0.21848  0.50904  1.0000
  C   C867      1.0  0.57262  0.35586  0.60007  1.0000
  H   H693      1.0  0.71242  0.11538  0.32529  1.0000
  H   H694      1.0  0.74635  0.07682  0.32909  1.0000
  H   H695      1.0  0.83606  0.25761  0.32563  1.0000
  C   C868      1.0  0.73976  0.23880  0.45559  1.0000
  H   H696      1.0  0.75171  0.25399  0.52398  1.0000
  C   C869      1.0  0.56570  0.38202  0.58889  1.0000
  C   C870      1.0  0.70426  0.14574  0.58133  1.0000
  H   H697      1.0  0.58978  0.32240  0.46749  1.0000
  H   H698      1.0  0.64492  0.08629  0.37269  1.0000
  H   H699      1.0  0.54250  0.24573  0.46314  1.0000
  C   C871      1.0  0.69778  0.16130  0.52498  1.0000
  C   C872      1.0  0.56209  0.33126  0.58788  1.0000
  H   H700      1.0  0.66696  0.12743  0.45867  1.0000
  H   H701      1.0  0.86162  0.23091  0.36223  1.0000
  C   C873      1.0  0.55146  0.22186  0.59912  1.0000
  C   C874      1.0  0.84240  0.23613  0.32167  1.0000
  C   C875      1.0  0.53722  0.35919  0.55345  1.0000
  C   C876      1.0  0.56223  0.31433  0.50245  1.0000
  C   C877      1.0  0.56719  0.28360  0.46230  1.0000
  H   H702      1.0  0.66408  0.18787  0.54037  1.0000
  H   H703      1.0  0.73266  0.13303  0.51729  1.0000
  H   H704      1.0  0.63186  0.17050  0.34244  1.0000
  C   C878      1.0  0.78279  0.38267  0.62631  1.0000
  H   H705      1.0  0.78453  0.40535  0.62640  1.0000
  H   H706      1.0  0.73783  0.11908  0.56670  1.0000
  H   H707      1.0  0.61792  0.18551  0.38949  1.0000
  C   C879      1.0  0.64005  0.12741  0.35405  1.0000
  C   C880      1.0  0.65256  0.42763  0.36663  1.0000
  Fe  Fe60      1.0  0.63202  0.26691  0.62969  1.0000
  Fe  Fe61      1.0  0.87133  0.08391  0.31874  1.0000
  C   C881      1.0  0.71331  0.24457  0.61641  1.0000
  C   C882      1.0  0.73405  0.22803  0.60392  1.0000
  C   C883      1.0  0.75457  0.24052  0.58714  1.0000
  C   C884      1.0  0.75409  0.26951  0.58261  1.0000
  C   C885      1.0  0.73291  0.28618  0.59461  1.0000
  C   C886      1.0  0.71269  0.27360  0.61185  1.0000
  P   P29       1.0  0.73297  0.32350  0.58834  1.0000
  C   C887      1.0  0.76044  0.34005  0.60893  1.0000
  C   C888      1.0  0.73780  0.32796  0.55102  1.0000
  C   C889      1.0  0.72154  0.31189  0.53229  1.0000
  C   C890      1.0  0.72382  0.31598  0.50342  1.0000
  C   C891      1.0  0.74295  0.33555  0.49292  1.0000
  C   C892      1.0  0.75990  0.35099  0.51133  1.0000
  C   C893      1.0  0.75739  0.34724  0.54028  1.0000
  H   H708      1.0  0.77077  0.22777  0.57752  1.0000
  H   H709      1.0  0.51042  0.22591  0.61790  1.0000
  C   C894      1.0  0.57429  0.30828  0.47645  1.0000
  C   C895      1.0  0.54806  0.38369  0.56552  1.0000
  H   H710      1.0  0.76904  0.28362  0.32724  1.0000
  C   C896      1.0  0.70012  0.33977  0.59872  1.0000
  H   H711      1.0  0.73404  0.20553  0.60708  1.0000
  C   C897      1.0  0.66657  0.06028  0.32405  1.0000
  H   H712      1.0  0.87176  0.46560  0.33169  1.0000
  C   C898      1.0  0.65422  0.35938  0.58710  1.0000
  C   C899      1.0  0.67828  0.34438  0.57931  1.0000
  C   C900      1.0  0.85675  0.22109  0.34233  1.0000
  H   H713      1.0  0.54234  0.40399  0.55707  1.0000
  C   C901      1.0  0.70472  0.09405  0.32545  1.0000
  H   H714      1.0  0.77019  0.27900  0.56966  1.0000
  C   C902      1.0  0.65180  0.37007  0.61422  1.0000
  H   H715      1.0  0.70644  0.29673  0.54004  1.0000
  H   H716      1.0  0.71042  0.30426  0.48912  1.0000
  H   H717      1.0  0.74444  0.33885  0.47051  1.0000
  H   H718      1.0  0.77476  0.36614  0.50311  1.0000
  H   H719      1.0  0.77068  0.35952  0.55399  1.0000
  H   H720      1.0  0.74895  0.38217  0.59638  1.0000
  H   H721      1.0  0.55698  0.20334  0.61104  1.0000
  H   H722      1.0  0.62982  0.10136  0.41971  1.0000
  H   H723      1.0  0.64435  0.05532  0.32274  1.0000
  H   H724      1.0  0.58528  0.35460  0.61889  1.0000
  H   H725      1.0  0.67888  0.01681  0.32673  1.0000
  H   H726      1.0  0.69607  0.28597  0.62128  1.0000
  C   C903      1.0  0.54792  0.26489  0.47412  1.0000
  H   H727      1.0  0.63743  0.36268  0.57205  1.0000
  H   H728      1.0  0.67956  0.33673  0.55809  1.0000
  H   H729      1.0  0.57352  0.40099  0.59874  1.0000
  C   C904      1.0  0.63066  0.11648  0.40285  1.0000
  H   H730      1.0  0.52154  0.25578  0.50944  1.0000
  C   C905      1.0  0.56399  0.25792  0.56576  1.0000
  C   C906      1.0  0.57085  0.23357  0.58053  1.0000
  C   C907      1.0  0.54276  0.29570  0.51449  1.0000
  H   H731      1.0  0.68477  0.09139  0.42604  1.0000
  H   H732      1.0  0.76839  0.12438  0.43413  1.0000
  H   H733      1.0  0.72337  0.21127  0.53000  1.0000
  H   H734      1.0  0.59206  0.15858  0.49601  1.0000
  C   C908      1.0  0.68917  0.12690  0.45388  1.0000
  C   C909      1.0  0.63694  0.16464  0.49227  1.0000
  C   C910      1.0  0.65145  0.20519  0.46553  1.0000
  C   C911      1.0  0.73654  0.14534  0.45870  1.0000
  H   H735      1.0  0.71598  0.20381  0.44001  1.0000
  H   H736      1.0  0.67016  0.17448  0.58953  1.0000
  H   H737      1.0  0.71296  0.34586  0.64198  1.0000
  C   C912      1.0  0.74637  0.12484  0.44018  1.0000
  H   H738      1.0  0.57936  0.26680  0.55159  1.0000
  H   H739      1.0  0.96404  0.10611  0.37277  1.0000
  H   H740      1.0  0.91378  0.10647  0.38494  1.0000
  H   H741      1.0  0.52309  0.36078  0.53568  1.0000
  C   C913      1.0  0.72770  0.10536  0.42856  1.0000
  C   C914      1.0  0.86427  0.19315  0.33754  1.0000
  H   H742      1.0  0.72465  0.46372  0.36078  1.0000
  C   C915      1.0  0.63916  0.10798  0.37610  1.0000
  C   C916      1.0  0.61830  0.15844  0.63080  1.0000
  H   H743      1.0  0.89858  0.12048  0.43261  1.0000
  C   C917      1.0  0.71862  0.14191  0.53277  1.0000
  C   C918      1.0  0.62325  0.21214  0.46082  1.0000
  C   C919      1.0  0.60185  0.19539  0.47184  1.0000
  C   C920      1.0  0.70780  0.14662  0.46564  1.0000
  H   H744      1.0  0.73459  0.07901  0.62968  1.0000
  C   C921      1.0  0.69693  0.34967  0.62627  1.0000
  C   C922      1.0  0.94091  0.12807  0.44746  1.0000
  C   C923      1.0  0.69011  0.41185  0.32482  1.0000
  C   C924      1.0  0.71483  0.04434  0.32832  1.0000
  C   C925      1.0  0.96621  0.12896  0.31653  1.0000
  H   H745      1.0  0.77578  0.30163  0.62805  1.0000
  H   H746      1.0  0.93428  0.13432  0.46822  1.0000
  C   C926      1.0  0.68074  0.44001  0.32654  1.0000
  C   C927      1.0  0.79756  0.33750  0.64405  1.0000
  H   H747      1.0  0.58289  0.47972  0.34734  1.0000
  H   H748      1.0  0.95914  0.14798  0.32662  1.0000
  H   H749      1.0  0.59175  0.13444  0.31988  1.0000
  C   C928      1.0  0.67586  0.08828  0.32303  1.0000
  H   H750      1.0  0.63089  0.20185  0.62860  1.0000
  H   H751      1.0  0.73005  0.02747  0.32986  1.0000
  C   C929      1.0  0.97830  0.11980  0.41379  1.0000
  H   H752      1.0  0.69710  0.23480  0.62895  1.0000
  P   P30       1.0  0.65103  0.11670  0.31940  1.0000
  C   C930      1.0  0.80016  0.36668  0.64371  1.0000
  C   C931      1.0  0.68605  0.03839  0.32652  1.0000
  S   S122      1.0  0.62422  0.31191  0.64095  1.0000
  C   C932      1.0  0.63524  0.18143  0.63765  1.0000
  H   H753      1.0  0.60999  0.11464  0.63818  1.0000
  C   C933      1.0  0.62347  0.13234  0.64308  1.0000
  C   C934      1.0  0.68294  0.16598  0.31594  1.0000
  H   H754      1.0  0.76600  0.48004  0.33396  1.0000
  H   H755      1.0  0.88803  0.48007  0.37897  1.0000
  H   H756      1.0  0.70340  0.20631  0.31402  1.0000
  Fe  Fe62      1.0  0.67652  0.12702  0.91942  1.0000
  S   S123      1.0  0.71435  0.10574  0.89976  1.0000
  H   H757      1.0  0.78408  0.47126  0.77726  1.0000
  Fe  Fe63      1.0  0.66430  0.16015  0.86477  1.0000
  S   S124      1.0  0.69992  0.13967  0.84225  1.0000
  S   S125      1.0  0.64347  0.19771  0.84357  1.0000
  Fe  Fe64      1.0  0.68650  0.09902  0.86223  1.0000
  S   S126      1.0  0.68139  0.06001  0.83417  1.0000
  Fe  Fe65      1.0  0.72439  0.14847  0.88147  1.0000
  S   S127      1.0  0.76808  0.16760  0.87539  1.0000
  S   S128      1.0  0.64825  0.11902  0.88194  1.0000
  S   S129      1.0  0.68907  0.17006  0.90399  1.0000
  Fe  Fe66      1.0  0.88044  0.31756  0.80198  1.0000
  S   S130      1.0  0.86162  0.34041  0.83899  1.0000
  S   S131      1.0  0.92100  0.29118  0.80312  1.0000
  Fe  Fe67      1.0  0.82768  0.32829  0.76540  1.0000
  S   S132      1.0  0.80595  0.35224  0.79946  1.0000
  S   S133      1.0  0.80801  0.31678  0.72318  1.0000
  Fe  Fe68      1.0  0.84772  0.37331  0.80768  1.0000
  S   S134      1.0  0.85737  0.42079  0.81180  1.0000
  Fe  Fe69      1.0  0.82120  0.31767  0.82791  1.0000
  S   S135      1.0  0.78796  0.29917  0.85708  1.0000
  S   S136      1.0  0.86888  0.35128  0.77113  1.0000
  S   S137      1.0  0.84070  0.29275  0.79334  1.0000
  Fe  Fe70      1.0  0.61719  0.24705  0.68895  1.0000
  S   S138      1.0  0.60789  0.29059  0.70425  1.0000
  S   S139      1.0  0.61306  0.20689  0.71405  1.0000
  Fe  Fe71      1.0  0.64730  0.30267  0.68106  1.0000
  S   S140      1.0  0.67661  0.33396  0.70235  1.0000
  C   C935      1.0  0.66938  0.26568  0.86843  1.0000
  C   C936      1.0  0.68827  0.39869  0.77370  1.0000
  C   C937      1.0  0.61340  0.38539  0.84763  1.0000
  H   H758      1.0  0.93183  0.33889  0.85162  1.0000
  H   H759      1.0  0.75068  0.14420  0.70917  1.0000
  C   C938      1.0  0.93297  0.35385  0.89424  1.0000
  H   H760      1.0  0.97170  0.22618  0.86419  1.0000
  H   H761      1.0  0.91235  0.36357  0.89300  1.0000
  C   C939      1.0  0.77144  0.32139  0.71753  1.0000
  C   C940      1.0  0.75600  0.34070  0.73324  1.0000
  C   C941      1.0  0.72718  0.34472  0.72777  1.0000
  C   C942      1.0  0.71320  0.32878  0.70728  1.0000
  C   C943      1.0  0.72851  0.30915  0.69168  1.0000
  C   C944      1.0  0.75763  0.30576  0.69658  1.0000
  H   H762      1.0  0.76637  0.35282  0.74941  1.0000
  H   H763      1.0  0.71553  0.35985  0.73991  1.0000
  H   H764      1.0  0.71798  0.29679  0.67578  1.0000
  H   H765      1.0  0.76945  0.29075  0.68435  1.0000
  C   C945      1.0  0.95715  0.30100  0.80043  1.0000
  C   C946      1.0  0.96564  0.32886  0.79672  1.0000
  H   H766      1.0  0.79608  0.21644  0.79560  1.0000
  H   H767      1.0  0.94995  0.34524  0.79523  1.0000
  H   H768      1.0  0.69534  0.18977  0.80067  1.0000
  C   C947      1.0  0.81648  0.45533  0.83696  1.0000
  C   C948      1.0  0.84301  0.45334  0.82432  1.0000
  H   H769      1.0  0.80404  0.43656  0.83985  1.0000
  C   C949      1.0  0.63719  0.19920  0.80702  1.0000
  C   C950      1.0  0.64439  0.22353  0.79200  1.0000
  C   C951      1.0  0.63689  0.22646  0.76359  1.0000
  C   C952      1.0  0.62199  0.20505  0.75000  1.0000
  C   C953      1.0  0.61460  0.18093  0.76508  1.0000
  C   C954      1.0  0.62248  0.17778  0.79331  1.0000
  H   H770      1.0  0.65554  0.24031  0.80247  1.0000
  H   H771      1.0  0.64252  0.24524  0.75223  1.0000
  H   H772      1.0  0.60230  0.16476  0.75492  1.0000
  H   H773      1.0  0.61627  0.15924  0.80477  1.0000
  C   C955      1.0  0.77302  0.20426  0.86999  1.0000
  C   C956      1.0  0.75135  0.22364  0.87442  1.0000
  C   C957      1.0  0.75625  0.25262  0.87063  1.0000
  C   C958      1.0  0.78266  0.26250  0.86158  1.0000
  C   C959      1.0  0.80419  0.24309  0.85668  1.0000
  C   C960      1.0  0.79949  0.21424  0.86133  1.0000
  H   H774      1.0  0.73093  0.21628  0.88110  1.0000
  H   H775      1.0  0.73944  0.26740  0.87455  1.0000
  H   H776      1.0  0.82467  0.25035  0.84994  1.0000
  H   H777      1.0  0.81648  0.19959  0.85822  1.0000
  C   C961      1.0  0.69086  0.02399  0.83840  1.0000
  C   C962      1.0  0.70798  0.01465  0.86036  1.0000
  C   C963      1.0  0.67879  0.30239  0.81113  1.0000
  C   C964      1.0  0.68103  0.00419  0.81873  1.0000
  H   H778      1.0  0.71590  0.02955  0.87559  1.0000
  H   H779      1.0  0.66797  0.01113  0.80151  1.0000
  H   H780      1.0  0.85246  0.13987  0.86626  1.0000
  H   H781      1.0  0.67423  0.25718  0.93892  1.0000
  H   H782      1.0  0.79013  0.11646  0.69027  1.0000
  H   H783      1.0  0.97169  0.25838  0.80491  1.0000
  C   C965      1.0  0.60226  0.00777  0.93033  1.0000
  H   H784      1.0  0.63105  0.40663  0.73148  1.0000
  C   C966      1.0  0.62539  0.99593  0.91628  1.0000
  H   H785      1.0  0.58279  0.04607  0.94490  1.0000
  C   C967      1.0  0.64627  0.01372  0.90551  1.0000
  H   H786      1.0  0.81541  0.37687  0.65726  1.0000
  H   H787      1.0  0.59911  0.34275  0.84458  1.0000
  C   C968      1.0  0.66337  0.43787  0.73796  1.0000
  C   C969      1.0  0.69773  0.29167  0.76518  1.0000
  C   C970      1.0  0.72509  0.29379  0.77575  1.0000
  C   C971      1.0  0.72939  0.30044  0.80385  1.0000
  C   C972      1.0  0.70641  0.30423  0.82165  1.0000
  C   C973      1.0  0.85890  0.47817  0.82116  1.0000
  S   S141      1.0  0.65805  0.25866  0.66853  1.0000
  H   H788      1.0  0.69421  0.28690  0.74329  1.0000
  H   H789      1.0  0.74304  0.29044  0.76220  1.0000
  H   H790      1.0  0.75066  0.30230  0.81189  1.0000
  H   H791      1.0  0.71030  0.30873  0.84357  1.0000
  H   H792      1.0  0.76086  0.25155  0.80768  1.0000
  C   C974      1.0  0.65044  0.41188  0.74233  1.0000
  H   H793      1.0  0.73018  0.15436  0.78693  1.0000
  P   P31       1.0  0.73614  0.43178  0.78377  1.0000
  C   C975      1.0  0.74104  0.41334  0.81652  1.0000
  C   C976      1.0  0.74199  0.42790  0.84215  1.0000
  C   C977      1.0  0.74674  0.41342  0.86717  1.0000
  C   C978      1.0  0.75059  0.38436  0.86685  1.0000
  C   C979      1.0  0.74968  0.36977  0.84153  1.0000
  C   C980      1.0  0.74512  0.38416  0.81645  1.0000
  C   C981      1.0  0.76251  0.41956  0.75942  1.0000
  H   H794      1.0  0.71032  0.23846  0.81139  1.0000
  H   H795      1.0  0.79640  0.42056  0.78988  1.0000
  C   C982      1.0  0.80374  0.39949  0.72242  1.0000
  C   C983      1.0  0.77605  0.40317  0.71313  1.0000
  C   C984      1.0  0.75549  0.41328  0.73150  1.0000
  S   S142      1.0  0.59166  0.25178  0.64932  1.0000
  C   C985      1.0  0.49987  0.28938  0.65322  1.0000
  C   C986      1.0  0.62145  0.05439  0.92311  1.0000
  H   H796      1.0  0.74820  0.42485  0.88675  1.0000
  H   H797      1.0  0.75497  0.37316  0.88611  1.0000
  H   H798      1.0  0.75350  0.34735  0.84131  1.0000
  H   H799      1.0  0.74543  0.37253  0.79693  1.0000
  H   H800      1.0  0.73990  0.45047  0.84304  1.0000
  H   H801      1.0  0.81958  0.39100  0.70852  1.0000
  H   H802      1.0  0.77031  0.39741  0.69195  1.0000
  H   H803      1.0  0.73413  0.41548  0.72392  1.0000
  C   C987      1.0  0.69750  0.11886  0.74471  1.0000
  C   C988      1.0  0.68763  0.10585  0.76902  1.0000
  C   C989      1.0  0.65881  0.10467  0.77446  1.0000
  C   C990      1.0  0.63978  0.11671  0.75573  1.0000
  H   H804      1.0  0.71993  0.11957  0.74119  1.0000
  H   H805      1.0  0.70219  0.09669  0.78389  1.0000
  H   H806      1.0  0.65128  0.09468  0.79340  1.0000
  H   H807      1.0  0.61746  0.11612  0.76030  1.0000
  H   H808      1.0  0.88041  0.20458  0.81031  1.0000
  C   C991      1.0  0.68891  0.44420  0.75126  1.0000
  C   C992      1.0  0.80176  0.18602  0.70279  1.0000
  C   C993      1.0  0.82554  0.17153  0.69343  1.0000
  C   C994      1.0  0.83868  0.15196  0.71085  1.0000
  C   C995      1.0  0.82812  0.14696  0.73768  1.0000
  C   C996      1.0  0.80426  0.16144  0.74725  1.0000
  C   C997      1.0  0.79109  0.18102  0.72959  1.0000
  P   P32       1.0  0.79230  0.15613  0.78270  1.0000
  C   C998      1.0  0.77748  0.12138  0.78755  1.0000
  C   C999      1.0  0.82264  0.16198  0.80512  1.0000
  C   C1000     1.0  0.82672  0.14634  0.82970  1.0000
  C   C1001     1.0  0.85001  0.15151  0.84695  1.0000
  C   C1002     1.0  0.86942  0.17237  0.83991  1.0000
  C   C1003     1.0  0.86566  0.18799  0.81549  1.0000
  C   C1004     1.0  0.84250  0.18275  0.79810  1.0000
  C   C1005     1.0  0.76397  0.11468  0.81278  1.0000
  C   C1006     1.0  0.75225  0.08810  0.81687  1.0000
  C   C1007     1.0  0.75349  0.06800  0.79563  1.0000
  C   C1008     1.0  0.76649  0.07452  0.77024  1.0000
  C   C1009     1.0  0.77846  0.10109  0.76616  1.0000
  C   C1010     1.0  0.76608  0.18235  0.79093  1.0000
  C   C1011     1.0  0.73732  0.17541  0.79151  1.0000
  C   C1012     1.0  0.71733  0.19558  0.79898  1.0000
  C   C1013     1.0  0.72573  0.22302  0.80494  1.0000
  C   C1014     1.0  0.75410  0.23042  0.80284  1.0000
  C   C1015     1.0  0.77421  0.21021  0.79607  1.0000
  H   H809      1.0  0.79194  0.20159  0.68950  1.0000
  H   H810      1.0  0.85739  0.14104  0.70380  1.0000
  H   H811      1.0  0.83887  0.13221  0.75126  1.0000
  H   H812      1.0  0.77286  0.19278  0.73650  1.0000
  H   H813      1.0  0.81176  0.13063  0.83625  1.0000
  H   H814      1.0  0.88705  0.17681  0.85367  1.0000
  H   H815      1.0  0.83987  0.19538  0.77947  1.0000
  H   H816      1.0  0.76234  0.13013  0.82936  1.0000
  H   H817      1.0  0.74181  0.08316  0.83645  1.0000
  H   H818      1.0  0.74399  0.04752  0.79887  1.0000
  H   H819      1.0  0.76724  0.05889  0.75377  1.0000
  H   H820      1.0  0.78828  0.10561  0.74633  1.0000
  C   C1016     1.0  0.65710  0.29245  0.86750  1.0000
  C   C1017     1.0  0.67469  0.29612  0.78267  1.0000
  C   C1018     1.0  0.70148  0.42474  0.76947  1.0000
  H   H821      1.0  0.65389  0.29442  0.77366  1.0000
  C   C1019     1.0  0.66950  0.26712  0.91907  1.0000
  C   C1020     1.0  0.63654  0.40354  0.84709  1.0000
  C   C1021     1.0  0.64954  0.13028  0.73168  1.0000
  H   H822      1.0  0.57222  0.30293  0.76434  1.0000
  H   H823      1.0  0.57718  0.23405  0.82205  1.0000
  C   C1022     1.0  0.50993  0.31687  0.65574  1.0000
  C   C1023     1.0  0.79041  0.41594  0.76846  1.0000
  H   H824      1.0  0.64156  0.32708  0.89261  1.0000
  C   C1024     1.0  0.67848  0.13100  0.72566  1.0000
  C   C1025     1.0  0.58180  0.29318  0.78251  1.0000
  H   H825      1.0  0.61252  0.32580  0.78792  1.0000
  C   C1026     1.0  0.94394  0.34002  0.87090  1.0000
  H   H826      1.0  0.65277  0.30467  0.93777  1.0000
  C   C1027     1.0  0.67538  0.25305  0.89411  1.0000
  C   C1028     1.0  0.72463  0.23620  0.71688  1.0000
  H   H827      1.0  0.73242  0.25691  0.72216  1.0000
  H   H828      1.0  0.69835  0.23305  0.75341  1.0000
  C   C1029     1.0  0.56372  0.11667  0.94848  1.0000
  C   C1030     1.0  0.60460  0.30608  0.79597  1.0000
  H   H829      1.0  0.83406  0.17580  0.67285  1.0000
  H   H830      1.0  0.67394  0.25425  0.84936  1.0000
  C   C1031     1.0  0.64429  0.04278  0.90884  1.0000
  H   H831      1.0  0.69775  0.38276  0.78664  1.0000
  C   C1032     1.0  0.65110  0.30648  0.89267  1.0000
  C   C1033     1.0  0.73329  0.22314  0.69218  1.0000
  C   C1034     1.0  0.70563  0.22270  0.73460  1.0000
  C   C1035     1.0  0.69562  0.19591  0.72802  1.0000
  C   C1036     1.0  0.76938  0.11457  0.68097  1.0000
  H   H832      1.0  0.92657  0.30867  0.73625  1.0000
  H   H833      1.0  0.55473  0.25687  0.78100  1.0000
  H   H834      1.0  0.63441  0.14067  0.71824  1.0000
  H   H835      1.0  0.73002  0.18649  0.66617  1.0000
  S   S143      1.0  0.66127  0.10993  0.96199  1.0000
  C   C1037     1.0  0.71563  0.10930  0.65742  1.0000
  C   C1038     1.0  0.96318  0.31802  0.71120  1.0000
  C   C1039     1.0  0.70465  0.18238  0.70356  1.0000
  C   C1040     1.0  0.72340  0.19627  0.68553  1.0000
  H   H836      1.0  0.68055  0.18606  0.74190  1.0000
  C   C1041     1.0  0.57187  0.26725  0.79191  1.0000
  C   C1042     1.0  0.66356  0.39283  0.84269  1.0000
  C   C1043     1.0  0.58396  0.12239  0.96896  1.0000
  H   H837      1.0  0.67079  0.37256  0.65514  1.0000
  C   C1044     1.0  0.81095  0.40623  0.74995  1.0000
  H   H838      1.0  0.68857  0.35626  0.83550  1.0000
  C   C1045     1.0  0.74698  0.13032  0.69160  1.0000
  H   H839      1.0  0.74746  0.23405  0.67817  1.0000
  H   H840      1.0  0.51454  0.27205  0.65392  1.0000
  C   C1046     1.0  0.61785  0.29298  0.81882  1.0000
  Fe  Fe72      1.0  0.58523  0.29646  0.66315  1.0000
  H   H841      1.0  0.68436  0.23218  0.89458  1.0000
  P   P33       1.0  0.69116  0.14815  0.69434  1.0000
  C   C1047     1.0  0.58442  0.25446  0.81507  1.0000
  C   C1048     1.0  0.97513  0.34238  0.92065  1.0000
  H   H842      1.0  0.69915  0.46401  0.74680  1.0000
  C   C1049     1.0  0.95548  0.27395  0.73501  1.0000
  C   C1050     1.0  0.71990  0.12786  0.67992  1.0000
  C   C1051     1.0  0.65738  0.29384  0.91836  1.0000
  H   H843      1.0  0.52178  0.10146  0.94030  1.0000
  C   C1052     1.0  0.64423  0.34572  0.83841  1.0000
  H   H844      1.0  0.94265  0.26105  0.74865  1.0000
  H   H845      1.0  0.64891  0.10904  0.67209  1.0000
  H   H846      1.0  0.61695  0.25644  0.84595  1.0000
  H   H847      1.0  0.66959  0.19673  0.66219  1.0000
  C   C1053     1.0  0.60720  0.26730  0.82859  1.0000
  H   H848      1.0  0.83246  0.40359  0.75719  1.0000
  H   H849      1.0  0.63357  0.42585  0.85036  1.0000
  P   P34       1.0  0.64920  0.30835  0.83413  1.0000
  H   H850      1.0  0.66071  0.05629  0.90064  1.0000
  C   C1054     1.0  0.97798  0.28001  0.80218  1.0000
  H   H851      1.0  0.95623  0.33907  0.70616  1.0000
  H   H852      1.0  0.66436  0.00501  0.89492  1.0000
  H   H853      1.0  0.56813  0.12150  0.92676  1.0000
  H   H854      1.0  0.97454  0.27075  0.89013  1.0000
  H   H855      1.0  0.58593  0.99467  0.93907  1.0000
  C   C1055     1.0  0.94638  0.30090  0.72801  1.0000
  H   H856      1.0  0.62033  0.07693  0.92618  1.0000
  C   C1056     1.0  0.94857  0.35507  0.91909  1.0000
  C   C1057     1.0  0.60037  0.03692  0.93374  1.0000
  C   C1058     1.0  0.66743  0.36404  0.83851  1.0000
  H   H857      1.0  0.65337  0.37179  0.76282  1.0000
  C   C1059     1.0  0.66292  0.39231  0.76016  1.0000
  C   C1060     1.0  0.74023  0.46903  0.79014  1.0000
  H   H858      1.0  0.59248  0.39363  0.85140  1.0000
  H   H859      1.0  0.97871  0.31691  0.85407  1.0000
  C   C1061     1.0  0.53771  0.10526  0.95614  1.0000
  C   C1062     1.0  0.61722  0.35656  0.84356  1.0000
  C   C1063     1.0  0.65741  0.17837  0.65671  1.0000
  H   H860      1.0  0.68158  0.40681  0.84268  1.0000
  H   H861      1.0  0.60397  0.13172  0.96316  1.0000
  H   H862      1.0  0.65390  0.45286  0.72377  1.0000
  C   C1064     1.0  0.64558  0.12924  0.66225  1.0000
  C   C1065     1.0  0.66281  0.15223  0.66920  1.0000
  C   C1066     1.0  0.98161  0.26422  0.72567  1.0000
  H   H863      1.0  0.93998  0.36579  0.93717  1.0000
  S   S144      1.0  0.54641  0.32472  0.65992  1.0000
  H   H864      1.0  0.63153  0.98486  0.85798  1.0000
  H   H865      1.0  0.69789  0.47436  0.80606  1.0000
  C   C1067     1.0  0.49048  0.33915  0.65488  1.0000
  H   H866      1.0  0.49800  0.36051  0.65674  1.0000
  H   H867      1.0  0.69507  0.10665  0.64809  1.0000
  H   H868      1.0  0.87944  0.47705  0.81147  1.0000
  H   H869      1.0  0.66841  0.98368  0.95516  1.0000
  H   H870      1.0  0.81046  0.32525  0.65828  1.0000
  C   C1068     1.0  0.97048  0.32747  0.87237  1.0000
  H   H871      1.0  0.78226  0.08374  0.65055  1.0000
  C   C1069     1.0  0.71472  0.98585  0.86279  1.0000
  C   C1070     1.0  0.76494  0.09617  0.65860  1.0000
  C   C1071     1.0  0.73809  0.09355  0.64682  1.0000
  H   H872      1.0  0.84993  0.77233  0.27072  1.0000
  Fe  Fe73      1.0  0.85669  0.63536  0.11918  1.0000
  S   S145      1.0  0.86882  0.59625  0.14294  1.0000
  S   S146      1.0  0.83331  0.63157  0.07697  1.0000
  Fe  Fe74      1.0  0.87441  0.67290  0.16893  1.0000
  S   S147      1.0  0.88826  0.63627  0.19468  1.0000
  S   S148      1.0  0.87354  0.71755  0.18627  1.0000
  Fe  Fe75      1.0  0.90826  0.62003  0.15507  1.0000
  H   H873      1.0  0.73184  0.62934  0.09203  1.0000
  Fe  Fe76      1.0  0.84791  0.61594  0.18032  1.0000
  S   S149      1.0  0.82408  0.59541  0.21631  1.0000
  S   S150      1.0  0.89692  0.65835  0.12966  1.0000
  S   S151      1.0  0.83312  0.65343  0.15626  1.0000
  C   C1072     1.0  0.78645  0.71311  0.99341  1.0000
  H   H874      1.0  0.70885  0.76534  0.30832  1.0000
  S   S152      1.0  0.63583  0.53905  0.28878  1.0000
  Fe  Fe77      1.0  0.67650  0.56182  0.27940  1.0000
  S   S153      1.0  0.69556  0.56246  0.23557  1.0000
  H   H875      1.0  0.76974  0.85333  0.23962  1.0000
  C   C1073     1.0  0.78860  0.84469  0.23033  1.0000
  C   C1074     1.0  0.49552  0.69354  0.28806  1.0000
  C   C1075     1.0  0.94805  0.65425  0.04185  1.0000
  C   C1076     1.0  0.78597  0.82261  0.21112  1.0000
  S   S154      1.0  0.94898  0.59400  0.15167  1.0000
  C   C1077     1.0  0.78713  0.88215  0.28535  1.0000
  C   C1078     1.0  0.60189  0.53694  0.18695  1.0000
  C   C1079     1.0  0.78720  0.59075  0.22047  1.0000
  C   C1080     1.0  0.77611  0.59001  0.24770  1.0000
  C   C1081     1.0  0.74786  0.58230  0.25242  1.0000
  C   C1082     1.0  0.73046  0.57482  0.23000  1.0000
  C   C1083     1.0  0.74123  0.57646  0.20264  1.0000
  C   C1084     1.0  0.76944  0.58455  0.19786  1.0000
  H   H876      1.0  0.78969  0.59467  0.26531  1.0000
  H   H877      1.0  0.73968  0.58137  0.27343  1.0000
  H   H878      1.0  0.72790  0.57083  0.18513  1.0000
  H   H879      1.0  0.77776  0.58477  0.17681  1.0000
  C   C1085     1.0  0.72766  0.76541  0.29553  1.0000
  C   C1086     1.0  0.87750  0.63985  0.00352  1.0000
  C   C1087     1.0  0.87063  0.63967  0.03231  1.0000
  C   C1088     1.0  0.84374  0.63140  0.04100  1.0000
  C   C1089     1.0  0.82397  0.62330  0.02044  1.0000
  C   C1090     1.0  0.58515  0.55524  0.23992  1.0000
  H   H880      1.0  0.89818  0.64660  0.99699  1.0000
  H   H881      1.0  0.88598  0.64622  0.04774  1.0000
  H   H882      1.0  0.80319  0.61667  0.02685  1.0000
  C   C1091     1.0  0.82564  0.93828  0.27089  1.0000
  C   C1092     1.0  0.87974  0.73962  0.27998  1.0000
  C   C1093     1.0  0.89466  0.71681  0.26885  1.0000
  C   C1094     1.0  0.89094  0.70841  0.24084  1.0000
  C   C1095     1.0  0.87386  0.72412  0.22292  1.0000
  C   C1096     1.0  0.85893  0.74714  0.23393  1.0000
  C   C1097     1.0  0.86135  0.75452  0.26251  1.0000
  H   H883      1.0  0.94315  0.64970  0.02023  1.0000
  H   H884      1.0  0.90226  0.69051  0.23280  1.0000
  H   H885      1.0  0.84564  0.75940  0.22025  1.0000
  H   H886      1.0  0.74133  0.76072  0.16171  1.0000
  H   H887      1.0  0.78273  0.67231  0.03213  1.0000
  H   H888      1.0  0.80801  0.79309  0.18481  1.0000
  C   C1098     1.0  0.76263  0.66297  0.03728  1.0000
  C   C1099     1.0  0.80852  0.52661  0.24545  1.0000
  C   C1100     1.0  0.96771  0.59798  0.00983  1.0000
  H   H889      1.0  0.69355  0.62420  0.05686  1.0000
  H   H890      1.0  0.69049  0.62165  0.24827  1.0000
  P   P35       1.0  0.53917  0.51938  0.24342  1.0000
  H   H891      1.0  0.83288  0.90267  0.20930  1.0000
  C   C1101     1.0  0.94130  0.58576  0.22398  1.0000
  C   C1102     1.0  0.52639  0.61971  0.30264  1.0000
  C   C1103     1.0  0.88900  0.58390  0.25062  1.0000
  C   C1104     1.0  0.76017  0.51260  0.25312  1.0000
  C   C1105     1.0  0.76358  0.51692  0.28188  1.0000
  C   C1106     1.0  0.83220  0.91997  0.22398  1.0000
  C   C1107     1.0  0.81304  0.72548  0.99095  1.0000
  H   H892      1.0  0.92277  0.59886  0.00117  1.0000
  H   H893      1.0  0.51667  0.52009  0.30140  1.0000
  C   C1108     1.0  0.51105  0.54459  0.24807  1.0000
  C   C1109     1.0  0.95322  0.65868  0.21137  1.0000
  C   C1110     1.0  0.89387  0.56728  0.22703  1.0000
  H   H894      1.0  0.70468  0.64218  0.20311  1.0000
  C   C1111     1.0  0.83043  0.96549  0.26114  1.0000
  H   H895      1.0  0.53510  0.58113  0.23511  1.0000
  C   C1112     1.0  0.96401  0.63992  0.08783  1.0000
  H   H896      1.0  0.90247  0.51474  0.03349  1.0000
  H   H897      1.0  0.92364  0.55580  0.19505  1.0000
  C   C1113     1.0  0.84875  0.66764  0.28682  1.0000
  C   C1114     1.0  0.73420  0.63821  0.07129  1.0000
  H   H898      1.0  0.97447  0.54426  0.07727  1.0000
  H   H899      1.0  0.86925  0.90891  0.29098  1.0000
  H   H900      1.0  0.90548  0.61466  0.27866  1.0000
  P   P36       1.0  0.81952  0.88047  0.26557  1.0000
  C   C1115     1.0  0.49055  0.97657  0.10217  1.0000
  C   C1116     1.0  0.93231  0.57668  0.05411  1.0000
  C   C1117     1.0  0.92955  0.55033  0.04110  1.0000
  C   C1118     1.0  0.90465  0.53488  0.04384  1.0000
  C   C1119     1.0  0.88224  0.54575  0.05932  1.0000
  C   C1120     1.0  0.88484  0.57190  0.07230  1.0000
  C   C1121     1.0  0.90983  0.58727  0.06997  1.0000
  C   C1122     1.0  0.93760  0.65195  0.30524  1.0000
  H   H901      1.0  0.60331  0.90982  0.00170  1.0000
  H   H902      1.0  0.78389  0.74815  0.13422  1.0000
  H   H903      1.0  0.77143  0.72181  0.00808  1.0000
  C   C1123     1.0  0.81540  0.85468  0.23803  1.0000
  C   C1124     1.0  0.94993  0.68807  0.07974  1.0000
  H   H904      1.0  0.50897  0.69249  0.26981  1.0000
  C   C1125     1.0  0.53681  0.50959  0.30134  1.0000
  C   C1126     1.0  0.58945  0.48332  0.30300  1.0000
  H   H905      1.0  0.82544  0.53171  0.23114  1.0000
  C   C1127     1.0  0.71269  0.63534  0.05148  1.0000
  C   C1128     1.0  0.83588  0.97005  0.23281  1.0000
  H   H906      1.0  0.66130  0.73336  0.99631  1.0000
  C   C1129     1.0  0.95017  0.68361  0.19626  1.0000
  C   C1130     1.0  0.55232  0.50647  0.27654  1.0000
  H   H907      1.0  0.86269  0.53413  0.06101  1.0000
  H   H908      1.0  0.86717  0.58055  0.08372  1.0000
  H   H909      1.0  0.74551  0.51418  0.29528  1.0000
  C   C1131     1.0  0.78261  0.51746  0.23491  1.0000
  C   C1132     1.0  0.95508  0.70942  0.20928  1.0000
  H   H910      1.0  0.78314  0.80723  0.27883  1.0000
  C   C1133     1.0  0.71609  0.64634  0.02457  1.0000
  H   H911      1.0  0.85529  0.81142  0.19714  1.0000
  C   C1134     1.0  0.95813  0.63321  0.05980  1.0000
  H   H912      1.0  0.91112  0.60761  0.08003  1.0000
  H   H913      1.0  0.77621  0.65340  0.07925  1.0000
  C   C1135     1.0  0.82658  0.91530  0.25242  1.0000
  H   H914      1.0  0.73910  0.80766  0.30670  1.0000
  C   C1136     1.0  0.96643  0.68539  0.25250  1.0000
  H   H915      1.0  0.76921  0.91585  0.26056  1.0000
  H   H916      1.0  0.90921  0.70565  0.28209  1.0000
  H   H917      1.0  0.73968  0.50684  0.24482  1.0000
  C   C1137     1.0  0.93657  0.60279  0.24753  1.0000
  C   C1138     1.0  0.75916  0.65193  0.06414  1.0000
  H   H918      1.0  0.71247  0.63830  0.29241  1.0000
  S   S155      1.0  0.58219  0.60365  0.30295  1.0000
  C   C1139     1.0  0.83665  0.82092  0.20620  1.0000
  H   H919      1.0  0.92332  0.66115  0.29016  1.0000
  H   H920      1.0  0.62199  0.58165  0.23892  1.0000
  C   C1140     1.0  0.77759  0.76467  0.26470  1.0000
  H   H921      1.0  0.80467  0.66033  0.23120  1.0000
  C   C1141     1.0  0.59617  0.91744  0.98155  1.0000
  C   C1142     1.0  0.48453  0.53539  0.25732  1.0000
  S   S156      1.0  0.66213  0.60198  0.29929  1.0000
  C   C1143     1.0  0.83093  0.62331  0.99167  1.0000
  H   H922      1.0  0.87703  0.55447  0.21847  1.0000
  C   C1144     1.0  0.83680  0.94731  0.21424  1.0000
  C   C1145     1.0  0.84845  0.86841  0.28719  1.0000
  H   H923      1.0  0.93552  0.69751  0.03803  1.0000
  C   C1146     1.0  0.69747  0.70677  0.99006  1.0000
  C   C1147     1.0  0.89314  0.87668  0.31087  1.0000
  C   C1148     1.0  0.94381  0.68152  0.05186  1.0000
  H   H924      1.0  0.55382  0.90191  0.98671  1.0000
  C   C1149     1.0  0.96062  0.65937  0.23977  1.0000
  C   C1150     1.0  0.80999  0.81057  0.19925  1.0000
  C   C1151     1.0  0.85780  0.63158  0.98299  1.0000
  H   H925      1.0  0.72497  0.91810  0.28722  1.0000
  H   H926      1.0  0.96110  0.58673  0.21281  1.0000
  C   C1152     1.0  0.81376  0.70461  0.28674  1.0000
  H   H927      1.0  0.83083  0.48868  0.30992  1.0000
  C   C1153     1.0  0.92006  0.56809  0.21383  1.0000
  H   H928      1.0  0.50251  0.51826  0.19441  1.0000
  C   C1154     1.0  0.81197  0.53106  0.27420  1.0000
  P   P37       1.0  0.96359  0.62702  0.25929  1.0000
  C   C1155     1.0  0.83684  0.69138  0.29923  1.0000
  C   C1156     1.0  0.74087  0.66074  0.01738  1.0000
  H   H929      1.0  0.98204  0.64569  0.16005  1.0000
  C   C1157     1.0  0.61794  0.55701  0.20127  1.0000
  H   H930      1.0  0.94642  0.54203  0.02834  1.0000
  C   C1158     1.0  0.78208  0.86359  0.30750  1.0000
  H   H931      1.0  0.76359  0.61506  0.98858  1.0000
  H   H932      1.0  0.63728  0.56505  0.19226  1.0000
  H   H933      1.0  0.76531  0.81450  0.20577  1.0000
  H   H934      1.0  0.86026  0.85035  0.23099  1.0000
  H   H935      1.0  0.74743  0.67670  0.29161  1.0000
  C   C1159     1.0  0.83937  0.84300  0.22537  1.0000
  H   H936      1.0  0.73621  0.74401  0.21034  1.0000
  H   H937      1.0  0.72185  0.72299  0.28217  1.0000
  H   H938      1.0  0.79715  0.76454  0.25305  1.0000
  H   H939      1.0  0.84618  0.63815  0.25268  1.0000
  C   C1160     1.0  0.96346  0.71030  0.23733  1.0000
  C   C1161     1.0  0.78963  0.52588  0.29271  1.0000
  C   C1162     1.0  0.94381  0.59899  0.99240  1.0000
  H   H940      1.0  0.83176  0.53941  0.28186  1.0000
  C   C1163     1.0  0.67888  0.72835  0.98278  1.0000
  H   H941      1.0  0.82135  0.71917  0.15576  1.0000
  C   C1164     1.0  0.51499  0.57320  0.24209  1.0000
  H   H942      1.0  0.86836  0.58379  0.26030  1.0000
  H   H943      1.0  0.94639  0.70912  0.08758  1.0000
  H   H944      1.0  0.96695  0.73035  0.24749  1.0000
  C   C1165     1.0  0.85068  0.83977  0.29378  1.0000
  C   C1166     1.0  0.95937  0.63420  0.29622  1.0000
  C   C1167     1.0  0.96022  0.66731  0.09765  1.0000
  H   H945      1.0  0.97131  0.62393  0.10220  1.0000
  H   H946      1.0  0.73944  0.68048  0.20161  1.0000
  C   C1168     1.0  0.91019  0.60160  0.26084  1.0000
  H   H947      1.0  0.69955  0.64329  0.00918  1.0000
  H   H948      1.0  0.96465  0.67224  0.11935  1.0000
  H   H949      1.0  0.53384  0.63753  0.29083  1.0000
  H   H950      1.0  0.56572  0.51004  0.18790  1.0000
  H   H951      1.0  0.81682  0.70271  0.20424  1.0000
  C   C1169     1.0  0.71794  0.64812  0.27275  1.0000
  C   C1170     1.0  0.70560  0.63867  0.24790  1.0000
  C   C1171     1.0  0.71349  0.65043  0.22238  1.0000
  C   C1172     1.0  0.73322  0.67220  0.22170  1.0000
  C   C1173     1.0  0.74506  0.68243  0.24672  1.0000
  C   C1174     1.0  0.73775  0.66981  0.27219  1.0000
  P   P38       1.0  0.77133  0.70977  0.24636  1.0000
  C   C1175     1.0  0.80239  0.69413  0.26162  1.0000
  C   C1176     1.0  0.77610  0.72204  0.21094  1.0000
  C   C1177     1.0  0.80009  0.71522  0.19533  1.0000
  C   C1178     1.0  0.80278  0.72465  0.16775  1.0000
  C   C1179     1.0  0.78168  0.74105  0.15563  1.0000
  C   C1180     1.0  0.75779  0.74812  0.17112  1.0000
  C   C1181     1.0  0.75499  0.73865  0.19865  1.0000
  C   C1182     1.0  0.49738  0.61721  0.30876  1.0000
  H   H952      1.0  0.57927  0.56205  0.26073  1.0000
  H   H953      1.0  0.60871  0.52958  0.16661  1.0000
  C   C1183     1.0  0.83715  0.65669  0.26223  1.0000
  C   C1184     1.0  0.81381  0.66960  0.24988  1.0000
  C   C1185     1.0  0.76064  0.74051  0.26571  1.0000
  C   C1186     1.0  0.73542  0.74114  0.28097  1.0000
  H   H954      1.0  0.94335  0.68293  0.17462  1.0000
  C   C1187     1.0  0.57745  0.52594  0.19913  1.0000
  C   C1188     1.0  0.76964  0.78894  0.27911  1.0000
  H   H955      1.0  0.94950  0.63889  0.20085  1.0000
  H   H956      1.0  0.83474  0.82498  0.28699  1.0000
  C   C1189     1.0  0.60939  0.56635  0.22761  1.0000
  C   C1190     1.0  0.52511  0.49086  0.22272  1.0000
  H   H957      1.0  0.95180  0.72873  0.19778  1.0000
  H   H958      1.0  0.82133  0.93514  0.29293  1.0000
  H   H959      1.0  0.69403  0.69570  0.00944  1.0000
  C   C1191     1.0  0.87002  0.88678  0.29574  1.0000
  C   C1192     1.0  0.74085  0.90278  0.29282  1.0000
  C   C1193     1.0  0.56896  0.53501  0.22582  1.0000
  H   H960      1.0  0.97303  0.68660  0.27415  1.0000
  H   H961      1.0  0.80486  0.72282  0.29700  1.0000
  C   C1194     1.0  0.76612  0.90155  0.27788  1.0000
  H   H962      1.0  0.86695  0.65779  0.29623  1.0000
  C   C1195     1.0  0.74480  0.78924  0.29472  1.0000
  C   C1196     1.0  0.54585  0.59922  0.31141  1.0000
  H   H963      1.0  0.84101  0.95095  0.19227  1.0000
  P   P39       1.0  0.96321  0.59774  0.04742  1.0000
  H   H964      1.0  0.77955  0.51538  0.21252  1.0000
  C   C1197     1.0  0.87376  0.82981  0.30898  1.0000
  H   H965      1.0  0.81855  0.74344  0.00377  1.0000
  P   P40       1.0  0.74541  0.67312  0.98187  1.0000
  H   H966      1.0  0.52491  0.96985  0.07351  1.0000
  C   C1198     1.0  0.57872  0.49318  0.27759  1.0000
  C   C1199     1.0  0.50755  0.49675  0.19977  1.0000
  H   H967      1.0  0.59126  0.49072  0.25884  1.0000
  Fe  Fe78      1.0  0.62270  0.57844  0.31155  1.0000
  H   H968      1.0  0.49622  0.61434  0.24162  1.0000
  C   C1200     1.0  0.49283  0.59220  0.24551  1.0000
  H   H969      1.0  0.48343  0.93895  0.14803  1.0000
  Fe  Fe79      1.0  0.84406  0.76721  0.41000  1.0000
  S   S157      1.0  0.80113  0.78663  0.40467  1.0000
  S   S158      1.0  0.86755  0.75336  0.44971  1.0000
  Fe  Fe80      1.0  0.85432  0.76618  0.34644  1.0000
  S   S159      1.0  0.81275  0.78633  0.33698  1.0000
  Fe  Fe81      1.0  0.82204  0.81539  0.37323  1.0000
  S   S160      1.0  0.80702  0.86135  0.37299  1.0000
  Fe  Fe82      1.0  0.79509  0.75624  0.36881  1.0000
  S   S161      1.0  0.75346  0.73592  0.35560  1.0000
  S   S162      1.0  0.86535  0.79745  0.38046  1.0000
  S   S163      1.0  0.83633  0.73462  0.37634  1.0000
  Fe  Fe83      1.0  0.88406  0.78227  0.61712  1.0000
  C   C1201     1.0  0.76422  0.52258  0.34993  1.0000
  S   S164      1.0  0.85850  0.79265  0.57766  1.0000
  H   H970      1.0  0.60624  0.67366  0.35674  1.0000
  H   H971      1.0  0.78325  0.74337  0.59680  1.0000
  Fe  Fe84      1.0  0.68169  0.58510  0.33844  1.0000
  S   S165      1.0  0.71230  0.60860  0.36710  1.0000
  C   C1202     1.0  0.72708  0.53122  0.38382  1.0000
  S   S166      1.0  0.64141  0.56441  0.35264  1.0000
  C   C1203     1.0  0.80202  0.63096  0.32922  1.0000
  C   C1204     1.0  0.50686  0.57360  0.33255  1.0000
  H   H972      1.0  0.54208  0.70206  0.41822  1.0000
  H   H973      1.0  0.52926  0.68521  0.31667  1.0000
  H   H974      1.0  0.49944  0.55561  0.34416  1.0000
  C   C1205     1.0  0.75101  0.67571  0.64040  1.0000
  C   C1206     1.0  0.74299  0.70020  0.35852  1.0000
  C   C1207     1.0  0.71823  0.69130  0.34486  1.0000
  C   C1208     1.0  0.70866  0.66336  0.34709  1.0000
  C   C1209     1.0  0.72354  0.64404  0.36342  1.0000
  C   C1210     1.0  0.74821  0.65297  0.37722  1.0000
  C   C1211     1.0  0.75810  0.68079  0.37453  1.0000
  H   H975      1.0  0.72116  0.73933  0.62675  1.0000
  H   H976      1.0  0.75991  0.63821  0.38988  1.0000
  H   H977      1.0  0.77709  0.68734  0.38528  1.0000
  C   C1212     1.0  0.82147  0.89468  0.36370  1.0000
  H   H978      1.0  0.78063  0.91421  0.36073  1.0000
  H   H979      1.0  0.95872  0.82692  0.49880  1.0000
  C   C1213     1.0  0.84257  0.94914  0.35056  1.0000
  C   C1214     1.0  0.86089  0.92634  0.35518  1.0000
  C   C1215     1.0  0.85047  0.89935  0.36175  1.0000
  C   C1216     1.0  0.83793  0.49569  0.33031  1.0000
  H   H980      1.0  0.88339  0.92964  0.35384  1.0000
  H   H981      1.0  0.86488  0.88222  0.36560  1.0000
  C   C1217     1.0  0.86502  0.76512  0.48506  1.0000
  C   C1218     1.0  0.84290  0.78208  0.49436  1.0000
  C   C1219     1.0  0.84119  0.78985  0.52283  1.0000
  C   C1220     1.0  0.86178  0.78138  0.54226  1.0000
  C   C1221     1.0  0.88409  0.76467  0.53297  1.0000
  C   C1222     1.0  0.88559  0.75651  0.50456  1.0000
  H   H982      1.0  0.82680  0.78871  0.47973  1.0000
  H   H983      1.0  0.82356  0.80221  0.52998  1.0000
  H   H984      1.0  0.90004  0.75786  0.54766  1.0000
  H   H985      1.0  0.90273  0.74331  0.49763  1.0000
  H   H986      1.0  0.83362  0.95373  0.42755  1.0000
  C   C1223     1.0  0.93895  0.82011  0.56843  1.0000
  C   C1224     1.0  0.85158  0.94109  0.43366  1.0000
  P   P41       1.0  0.50396  0.68480  0.37317  1.0000
  C   C1225     1.0  0.97357  0.85416  0.58479  1.0000
  H   H987      1.0  0.79910  0.96169  0.34911  1.0000
  H   H988      1.0  0.91268  0.84038  0.32954  1.0000
  C   C1226     1.0  0.75532  0.49452  0.34782  1.0000
  H   H989      1.0  0.75718  0.56217  0.37155  1.0000
  H   H990      1.0  0.71580  0.54567  0.39729  1.0000
  C   C1227     1.0  0.75047  0.54063  0.36876  1.0000
  C   C1228     1.0  0.77623  0.61818  0.32344  1.0000
  C   C1229     1.0  0.57406  0.48679  0.32761  1.0000
  H   H991      1.0  0.83374  0.86203  0.43336  1.0000
  C   C1230     1.0  0.80420  0.72190  0.63090  1.0000
  C   C1231     1.0  0.87018  0.49048  0.36936  1.0000
  C   C1232     1.0  0.97369  0.62789  0.34467  1.0000
  H   H992      1.0  0.95191  0.79300  0.45981  1.0000
  H   H993      1.0  0.68464  0.70877  0.60640  1.0000
  H   H994      1.0  0.68949  0.65691  0.33661  1.0000
  C   C1233     1.0  0.52305  0.77066  0.41396  1.0000
  H   H995      1.0  0.87087  0.82809  0.44239  1.0000
  H   H996      1.0  0.75569  0.83094  0.46572  1.0000
  C   C1234     1.0  0.82571  0.61448  0.33475  1.0000
  C   C1235     1.0  0.79721  0.57226  0.33020  1.0000
  H   H997      1.0  0.55065  0.56058  0.33389  1.0000
  C   C1236     1.0  0.53703  0.74656  0.42313  1.0000
  H   H998      1.0  0.75796  0.63088  0.31886  1.0000
  H   H999      1.0  0.78564  0.84441  0.42568  1.0000
  C   C1237     1.0  0.71768  0.50358  0.38075  1.0000
  C   C1238     1.0  0.82418  0.72887  0.58463  1.0000
  H   H1000     1.0  0.92217  0.86177  0.50943  1.0000
  C   C1239     1.0  0.85074  0.70386  0.61987  1.0000
  H   H1001     1.0  0.93507  0.93176  0.52020  1.0000
  C   C1240     1.0  0.96242  0.96061  0.54198  1.0000
  H   H1002     1.0  0.86288  0.51785  0.40457  1.0000
  H   H1003     1.0  0.94455  0.89243  0.55198  1.0000
  H   H1004     1.0  0.87528  0.80773  0.31398  1.0000
  H   H1005     1.0  0.73309  0.63591  0.62836  1.0000
  H   H1006     1.0  0.91557  0.89412  0.45241  1.0000
  H   H1007     1.0  0.87153  0.84210  0.53656  1.0000
  C   C1241     1.0  0.96041  0.80383  0.55687  1.0000
  H   H1008     1.0  0.55250  0.74801  0.43979  1.0000
  C   C1242     1.0  0.85606  0.51179  0.38375  1.0000
  C   C1243     1.0  0.90062  0.92868  0.42791  1.0000
  C   C1244     1.0  0.83294  0.52513  0.37143  1.0000
  C   C1245     1.0  0.81352  0.94447  0.35252  1.0000
  H   H1009     1.0  0.60641  0.62277  0.36695  1.0000
  C   C1246     1.0  0.95220  0.64595  0.35339  1.0000
  C   C1247     1.0  0.93414  0.65797  0.33365  1.0000
  Fe  Fe85      1.0  0.65673  0.52587  0.32918  1.0000
  H   H1010     1.0  0.80344  0.65365  0.32951  1.0000
  P   P42       1.0  0.98119  0.88714  0.60206  1.0000
  C   C1248     1.0  0.54770  0.49980  0.32676  1.0000
  S   S167      1.0  0.91840  0.75109  0.62629  1.0000
  C   C1249     1.0  0.98089  0.96429  0.56452  1.0000
  C   C1250     1.0  0.95853  0.88954  0.63239  1.0000
  C   C1251     1.0  0.80311  0.91747  0.35913  1.0000
  H   H1011     1.0  0.90829  0.79435  0.43149  1.0000
  H   H1012     1.0  0.84577  0.62448  0.33893  1.0000
  H   H1013     1.0  0.75333  0.57957  0.32034  1.0000
  H   H1014     1.0  0.87066  0.92917  0.51165  1.0000
  C   C1252     1.0  0.82848  0.70703  0.63874  1.0000
  H   H1015     1.0  0.82104  0.85500  0.52271  1.0000
  C   C1253     1.0  0.53671  0.63605  0.37709  1.0000
  C   C1254     1.0  0.53636  0.66495  0.37136  1.0000
  C   C1255     1.0  0.56201  0.62107  0.37598  1.0000
  H   H1016     1.0  0.80281  0.77938  0.63653  1.0000
  H   H1017     1.0  0.48610  0.68920  0.43247  1.0000
  C   C1256     1.0  0.58685  0.66335  0.36283  1.0000
  H   H1018     1.0  0.82807  0.91654  0.46304  1.0000
  H   H1019     1.0  0.92872  0.85723  0.59168  1.0000
  H   H1020     1.0  0.91727  0.81299  0.56717  1.0000
  H   H1021     1.0  0.86978  0.69312  0.62641  1.0000
  H   H1022     1.0  0.56212  0.59866  0.37976  1.0000
  H   H1023     1.0  0.51755  0.62479  0.38193  1.0000
  H   H1024     1.0  0.82272  0.73765  0.56377  1.0000
  H   H1025     1.0  0.52768  0.79081  0.42350  1.0000
  C   C1257     1.0  0.53114  0.72057  0.41078  1.0000
  H   H1026     1.0  0.70626  0.70618  0.33261  1.0000
  C   C1258     1.0  0.56166  0.67848  0.36418  1.0000
  C   C1259     1.0  0.97729  0.62199  0.31618  1.0000
  C   C1260     1.0  0.70301  0.69952  0.61620  1.0000
  H   H1027     1.0  0.86619  0.71311  0.57850  1.0000
  H   H1028     1.0  0.94055  0.93002  0.62177  1.0000
  C   C1261     1.0  0.73202  0.48515  0.36305  1.0000
  S   S168      1.0  0.69824  0.54578  0.31793  1.0000
  H   H1029     1.0  0.91754  0.67213  0.34033  1.0000
  C   C1262     1.0  0.51128  0.71851  0.38902  1.0000
  C   C1263     1.0  0.84871  0.71499  0.59292  1.0000
  H   H1030     1.0  0.79002  0.82885  0.64239  1.0000
  H   H1031     1.0  0.92063  0.93190  0.41755  1.0000
  C   C1264     1.0  0.80195  0.73223  0.60348  1.0000
  C   C1265     1.0  0.58702  0.63466  0.36875  1.0000
  C   C1266     1.0  0.74761  0.70497  0.64075  1.0000
  H   H1032     1.0  0.56187  0.70065  0.35927  1.0000
  C   C1267     1.0  0.87759  0.94551  0.42082  1.0000
  C   C1268     1.0  0.87523  0.87237  0.56961  1.0000
  C   C1269     1.0  0.87682  0.90080  0.57664  1.0000
  C   C1270     1.0  0.87534  0.92117  0.55563  1.0000
  C   C1271     1.0  0.87215  0.91312  0.52758  1.0000
  C   C1272     1.0  0.87084  0.88457  0.52039  1.0000
  C   C1273     1.0  0.87262  0.86428  0.54162  1.0000
  P   P43       1.0  0.86663  0.87346  0.48440  1.0000
  C   C1274     1.0  0.83154  0.85949  0.47871  1.0000
  C   C1275     1.0  0.87143  0.90250  0.46051  1.0000
  C   C1276     1.0  0.89761  0.90725  0.44769  1.0000
  C   C1277     1.0  0.94552  0.84510  0.58240  1.0000
  C   C1278     1.0  0.86106  0.48238  0.34269  1.0000
  H   H1033     1.0  0.77366  0.83649  0.51425  1.0000
  C   C1279     1.0  0.84852  0.91986  0.45361  1.0000
  C   C1280     1.0  0.81397  0.85270  0.50136  1.0000
  C   C1281     1.0  0.78680  0.84230  0.49669  1.0000
  C   C1282     1.0  0.77667  0.83914  0.46942  1.0000
  C   C1283     1.0  0.79365  0.84654  0.44682  1.0000
  C   C1284     1.0  0.82101  0.85648  0.45134  1.0000
  C   C1285     1.0  0.89337  0.84748  0.47698  1.0000
  C   C1286     1.0  0.88996  0.82847  0.45476  1.0000
  C   C1287     1.0  0.91127  0.80926  0.44842  1.0000
  C   C1288     1.0  0.93588  0.80848  0.46442  1.0000
  C   C1289     1.0  0.93960  0.82746  0.48643  1.0000
  C   C1290     1.0  0.91859  0.84705  0.49254  1.0000
  H   H1034     1.0  0.87575  0.85644  0.58585  1.0000
  H   H1035     1.0  0.87888  0.90696  0.59841  1.0000
  H   H1036     1.0  0.87634  0.94321  0.56113  1.0000
  P   P44       1.0  0.79374  0.53456  0.32931  1.0000
  S   S169      1.0  0.90738  0.81833  0.63662  1.0000
  H   H1037     1.0  0.69033  0.65702  0.60712  1.0000
  C   C1291     1.0  0.50311  0.76876  0.39247  1.0000
  C   C1292     1.0  0.77372  0.58901  0.32421  1.0000
  C   C1293     1.0  0.82401  0.51749  0.34444  1.0000
  H   H1038     1.0  0.95530  0.78407  0.54677  1.0000
  H   H1039     1.0  0.94952  0.65068  0.37543  1.0000
  C   C1294     1.0  0.94942  0.93462  0.53765  1.0000
  C   C1295     1.0  0.73030  0.65848  0.62854  1.0000
  C   C1296     1.0  0.82345  0.58517  0.33485  1.0000
  H   H1040     1.0  0.84216  0.57278  0.33847  1.0000
  C   C1297     1.0  0.48735  0.59392  0.32346  1.0000
  C   C1298     1.0  0.50697  0.68945  0.31478  1.0000
  C   C1299     1.0  0.70625  0.67037  0.61654  1.0000
  C   C1300     1.0  0.94057  0.91266  0.63629  1.0000
  C   C1301     1.0  0.49719  0.74280  0.38005  1.0000
  C   C1302     1.0  0.97377  0.91570  0.57830  1.0000
  H   H1041     1.0  0.69902  0.49651  0.39176  1.0000
  C   C1303     1.0  0.72370  0.71682  0.62805  1.0000
  C   C1304     1.0  0.53590  0.57624  0.32663  1.0000
  C   C1305     1.0  0.48957  0.69023  0.33850  1.0000
  C   C1306     1.0  0.95498  0.91225  0.55575  1.0000
  H   H1042     1.0  0.82191  0.54138  0.38293  1.0000
  H   H1043     1.0  0.75356  0.85100  0.34008  1.0000
  H   H1044     1.0  0.49224  0.78743  0.38536  1.0000
  S   S170      1.0  0.64947  0.48343  0.35131  1.0000
  H   H1045     1.0  0.53594  0.50281  0.34592  1.0000
  H   H1046     1.0  0.95821  0.97789  0.52787  1.0000
  H   H1047     1.0  0.84578  0.69991  0.31834  1.0000
  H   H1048     1.0  0.87969  0.96161  0.40489  1.0000
  H   H1049     1.0  0.79779  0.84853  0.31392  1.0000
  S   S171      1.0  0.88657  0.74963  0.31519  1.0000
  C   C1307     1.0  0.89493  0.84823  0.31761  1.0000
  C   C1308     1.0  0.75678  0.86484  0.32238  1.0000
  H   H1050     1.0  0.90947  0.89106  0.31768  1.0000
  H   H1051     1.0  0.71686  0.88566  0.32704  1.0000
  C   C1309     1.0  0.78300  0.78440  0.64644  1.0000
  C   C1310     1.0  0.73622  0.88448  0.31515  1.0000
  Fe  Fe86      1.0  0.89738  0.74456  0.66835  1.0000
  S   S172      1.0  0.92269  0.77813  0.69004  1.0000
  S   S173      1.0  0.88624  0.70174  0.68677  1.0000
  H   H1052     1.0  0.76630  0.67304  0.74358  1.0000
  H   H1053     1.0  0.50621  0.82774  0.77900  1.0000
  Fe  Fe87      1.0  0.88664  0.80636  0.67721  1.0000
  S   S174      1.0  0.86640  0.83852  0.70650  1.0000
  Fe  Fe88      1.0  0.70087  0.88821  0.82701  1.0000
  S   S175      1.0  0.68168  0.87818  0.78492  1.0000
  S   S176      1.0  0.71434  0.93000  0.84728  1.0000
  Fe  Fe89      1.0  0.70518  0.82526  0.84239  1.0000
  S   S177      1.0  0.68562  0.81160  0.80192  1.0000
  S   S178      1.0  0.72401  0.79615  0.87553  1.0000
  Fe  Fe90      1.0  0.71415  0.84358  0.78200  1.0000
  S   S179      1.0  0.73775  0.82710  0.74371  1.0000
  Fe  Fe91      1.0  0.65440  0.84687  0.80827  1.0000
  S   S180      1.0  0.60732  0.84671  0.79529  1.0000
  S   S181      1.0  0.73503  0.85560  0.82217  1.0000
  S   S182      1.0  0.67228  0.85865  0.85059  1.0000
  Fe  Fe92      1.0  0.85055  0.64116  0.84277  1.0000
  S   S183      1.0  0.80932  0.62109  0.83075  1.0000
  S   S184      1.0  0.87864  0.67025  0.81670  1.0000
  Fe  Fe93      1.0  0.84326  0.62653  0.90567  1.0000
  S   S185      1.0  0.80110  0.60646  0.89750  1.0000
  S   S186      1.0  0.86818  0.63156  0.94702  1.0000
  Fe  Fe94      1.0  0.82142  0.58556  0.85997  1.0000
  S   S187      1.0  0.80691  0.53946  0.85341  1.0000
  Fe  Fe95      1.0  0.79224  0.64307  0.86883  1.0000
  S   S188      1.0  0.75002  0.66545  0.86341  1.0000
  S   S189      1.0  0.86430  0.60424  0.86945  1.0000
  S   S190      1.0  0.83264  0.66454  0.87966  1.0000
  C   C1311     1.0  0.82196  0.50654  0.84276  1.0000
  H   H1054     1.0  0.71449  0.80504  0.68536  1.0000
  H   H1055     1.0  0.72783  0.97888  0.87997  1.0000
  C   C1312     1.0  0.84856  0.50449  0.83034  1.0000
  C   C1313     1.0  0.67944  0.96670  0.94483  1.0000
  H   H1056     1.0  0.61123  0.91565  0.80397  1.0000
  H   H1057     1.0  0.86110  0.52324  0.82754  1.0000
  C   C1314     1.0  0.72663  0.62033  0.91637  1.0000
  C   C1315     1.0  0.73350  0.76066  0.86882  1.0000
  C   C1316     1.0  0.75699  0.74893  0.88254  1.0000
  C   C1317     1.0  0.76325  0.72007  0.88004  1.0000
  C   C1318     1.0  0.74510  0.70236  0.86507  1.0000
  C   C1319     1.0  0.72143  0.71401  0.85180  1.0000
  C   C1320     1.0  0.71615  0.74309  0.85287  1.0000
  H   H1058     1.0  0.77025  0.76214  0.89545  1.0000
  H   H1059     1.0  0.78146  0.71139  0.89055  1.0000
  H   H1060     1.0  0.70715  0.70033  0.84068  1.0000
  H   H1061     1.0  0.69800  0.75179  0.84232  1.0000
  C   C1321     1.0  0.57415  0.83091  0.80415  1.0000
  C   C1322     1.0  0.55058  0.83582  0.78679  1.0000
  C   C1323     1.0  0.52394  0.82378  0.79267  1.0000
  C   C1324     1.0  0.52041  0.80646  0.81606  1.0000
  C   C1325     1.0  0.54395  0.80170  0.83349  1.0000
  C   C1326     1.0  0.57051  0.81386  0.82770  1.0000
  H   H1062     1.0  0.55294  0.84905  0.76858  1.0000
  H   H1063     1.0  0.89014  0.78994  0.83325  1.0000
  H   H1064     1.0  0.54157  0.78851  0.85172  1.0000
  H   H1065     1.0  0.58799  0.81027  0.84171  1.0000
  C   C1327     1.0  0.76925  0.69697  0.70534  1.0000
  C   C1328     1.0  0.54140  0.73666  0.80692  1.0000
  C   C1329     1.0  0.76614  0.48249  0.78548  1.0000
  H   H1066     1.0  0.84045  0.68317  0.94061  1.0000
  C   C1330     1.0  0.88276  0.69416  0.72310  1.0000
  C   C1331     1.0  0.86848  0.66966  0.73146  1.0000
  C   C1332     1.0  0.86600  0.66253  0.76005  1.0000
  C   C1333     1.0  0.87831  0.67959  0.78061  1.0000
  C   C1334     1.0  0.89232  0.70423  0.77223  1.0000
  C   C1335     1.0  0.89437  0.71159  0.74371  1.0000
  H   H1067     1.0  0.85943  0.65600  0.71572  1.0000
  H   H1068     1.0  0.85536  0.64341  0.76610  1.0000
  H   H1069     1.0  0.90205  0.71754  0.78787  1.0000
  H   H1070     1.0  0.90561  0.73033  0.73764  1.0000
  C   C1336     1.0  0.83152  0.83383  0.71955  1.0000
  C   C1337     1.0  0.81553  0.81017  0.71256  1.0000
  C   C1338     1.0  0.78749  0.80762  0.72175  1.0000
  C   C1339     1.0  0.77474  0.82885  0.73773  1.0000
  C   C1340     1.0  0.79107  0.85195  0.74596  1.0000
  C   C1341     1.0  0.81932  0.85441  0.73689  1.0000
  H   H1071     1.0  0.82458  0.79402  0.69964  1.0000
  H   H1072     1.0  0.77543  0.78930  0.71590  1.0000
  H   H1073     1.0  0.78163  0.86847  0.75835  1.0000
  H   H1074     1.0  0.83151  0.87270  0.74273  1.0000
  H   H1075     1.0  0.53703  0.74036  0.73604  1.0000
  H   H1076     1.0  0.70453  0.52434  0.81855  1.0000
  H   H1077     1.0  0.81566  0.61666  0.97621  1.0000
  H   H1078     1.0  0.90795  0.93101  0.66186  1.0000
  C   C1342     1.0  0.82514  0.86521  0.83840  1.0000
  H   H1079     1.0  0.80958  0.69369  0.76440  1.0000
  H   H1080     1.0  0.91765  0.79057  0.74804  1.0000
  C   C1343     1.0  0.70893  0.92339  0.91850  1.0000
  H   H1081     1.0  0.90655  0.89126  0.69535  1.0000
  C   C1344     1.0  0.92131  0.89111  0.67803  1.0000
  C   C1345     1.0  0.90687  0.79056  0.79164  1.0000
  C   C1346     1.0  0.54646  0.73850  0.75661  1.0000
  C   C1347     1.0  0.93938  0.86830  0.67451  1.0000
  C   C1348     1.0  0.80864  0.72916  0.70280  1.0000
  H   H1082     1.0  0.76899  0.84653  0.87843  1.0000
  C   C1349     1.0  0.72154  0.51269  0.80893  1.0000
  H   H1083     1.0  0.92823  0.79464  0.79853  1.0000
  H   H1084     1.0  0.57046  0.94396  0.90914  1.0000
  H   H1085     1.0  0.79004  0.52075  0.78998  1.0000
  H   H1086     1.0  0.65264  0.71769  0.88867  1.0000
  C   C1350     1.0  0.66606  0.95064  0.92396  1.0000
  C   C1351     1.0  0.57784  0.93670  0.92936  1.0000
  H   H1087     1.0  0.75087  0.54736  0.81104  1.0000
  H   H1088     1.0  0.97570  0.60277  0.92889  1.0000
  H   H1089     1.0  0.67160  0.91643  0.89440  1.0000
  H   H1090     1.0  0.83606  0.88368  0.83090  1.0000
  H   H1091     1.0  0.52801  0.73751  0.82527  1.0000
  C   C1352     1.0  0.56829  0.91301  0.97313  1.0000
  S   S191      1.0  0.48766  0.78944  0.82415  1.0000
  C   C1353     1.0  0.61203  0.90639  0.84798  1.0000
  C   C1354     1.0  0.61665  0.91691  0.87494  1.0000
  C   C1355     1.0  0.62327  0.94540  0.87905  1.0000
  H   H1092     1.0  0.72053  0.90710  0.90763  1.0000
  C   C1356     1.0  0.74213  0.64266  0.95951  1.0000
  P   P45       1.0  0.63011  0.95831  0.91406  1.0000
  H   H1093     1.0  0.60705  0.88438  0.84488  1.0000
  H   H1094     1.0  0.61542  0.90265  0.89250  1.0000
  C   C1357     1.0  0.62108  0.95239  0.82871  1.0000
  C   C1358     1.0  0.64218  0.78213  0.86012  1.0000
  C   C1359     1.0  0.64879  0.76187  0.88013  1.0000
  C   C1360     1.0  0.64751  0.73341  0.87313  1.0000
  C   C1361     1.0  0.64029  0.72526  0.84588  1.0000
  C   C1362     1.0  0.63497  0.74563  0.82526  1.0000
  C   C1363     1.0  0.63503  0.77405  0.83287  1.0000
  P   P46       1.0  0.62600  0.73546  0.78987  1.0000
  C   C1364     1.0  0.64080  0.76091  0.76587  1.0000
  C   C1365     1.0  0.64091  0.70129  0.78271  1.0000
  C   C1366     1.0  0.62499  0.68025  0.76945  1.0000
  C   C1367     1.0  0.63674  0.65373  0.76470  1.0000
  C   C1368     1.0  0.66434  0.64801  0.77326  1.0000
  C   C1369     1.0  0.68030  0.66885  0.78647  1.0000
  C   C1370     1.0  0.66866  0.69538  0.79107  1.0000
  C   C1371     1.0  0.62567  0.78539  0.75943  1.0000
  C   C1372     1.0  0.63747  0.80599  0.74225  1.0000
  C   C1373     1.0  0.66450  0.80242  0.73139  1.0000
  C   C1374     1.0  0.67961  0.77801  0.73734  1.0000
  C   C1375     1.0  0.66785  0.75731  0.75444  1.0000
  C   C1376     1.0  0.58809  0.73527  0.78620  1.0000
  C   C1377     1.0  0.57066  0.73502  0.80992  1.0000
  C   C1378     1.0  0.72220  0.93964  0.93902  1.0000
  C   C1379     1.0  0.57575  0.73671  0.75949  1.0000
  H   H1095     1.0  0.64290  0.80418  0.86561  1.0000
  H   H1096     1.0  0.65510  0.76831  0.90096  1.0000
  H   H1097     1.0  0.79489  0.88885  0.86245  1.0000
  H   H1098     1.0  0.63919  0.70311  0.84098  1.0000
  H   H1099     1.0  0.62975  0.79010  0.81776  1.0000
  H   H1100     1.0  0.60351  0.68414  0.76294  1.0000
  H   H1101     1.0  0.62433  0.63752  0.75455  1.0000
  H   H1102     1.0  0.67334  0.62740  0.76980  1.0000
  H   H1103     1.0  0.70162  0.66441  0.79343  1.0000
  H   H1104     1.0  0.68124  0.71140  0.80128  1.0000
  H   H1105     1.0  0.60511  0.78919  0.76847  1.0000
  H   H1106     1.0  0.62602  0.82529  0.73838  1.0000
  H   H1107     1.0  0.67414  0.81900  0.71921  1.0000
  H   H1108     1.0  0.70097  0.77576  0.72968  1.0000
  H   H1109     1.0  0.68042  0.73912  0.75919  1.0000
  H   H1110     1.0  0.57947  0.73433  0.83080  1.0000
  H   H1111     1.0  0.50667  0.74102  0.77832  1.0000
  H   H1112     1.0  0.58880  0.73714  0.74094  1.0000
  C   C1380     1.0  0.87338  0.78284  0.75414  1.0000
  C   C1381     1.0  0.90092  0.78815  0.76313  1.0000
  C   C1382     1.0  0.80201  0.86814  0.85622  1.0000
  C   C1383     1.0  0.88525  0.78779  0.81119  1.0000
  C   C1384     1.0  0.85754  0.78235  0.80233  1.0000
  C   C1385     1.0  0.85163  0.78027  0.77363  1.0000
  P   P47       1.0  0.82992  0.77973  0.82800  1.0000
  C   C1386     1.0  0.84382  0.75946  0.85689  1.0000
  C   C1387     1.0  0.81931  0.81449  0.83892  1.0000
  C   C1388     1.0  0.79569  0.81774  0.85615  1.0000
  C   C1389     1.0  0.78745  0.84436  0.86526  1.0000
  C   C1390     1.0  0.83386  0.83850  0.82983  1.0000
  C   C1391     1.0  0.83734  0.76621  0.88476  1.0000
  C   C1392     1.0  0.84910  0.75079  0.90675  1.0000
  C   C1393     1.0  0.86756  0.72866  0.90112  1.0000
  C   C1394     1.0  0.87408  0.72181  0.87348  1.0000
  C   C1395     1.0  0.86211  0.73694  0.85146  1.0000
  C   C1396     1.0  0.79979  0.76187  0.81316  1.0000
  C   C1397     1.0  0.77936  0.77713  0.79830  1.0000
  C   C1398     1.0  0.75597  0.76346  0.78677  1.0000
  C   C1399     1.0  0.75282  0.73450  0.78991  1.0000
  C   C1400     1.0  0.77311  0.71915  0.80455  1.0000
  C   C1401     1.0  0.79658  0.73271  0.81605  1.0000
  H   H1113     1.0  0.86885  0.78106  0.73198  1.0000
  C   C1402     1.0  0.74751  0.52578  0.80454  1.0000
  C   C1403     1.0  0.76966  0.51075  0.79258  1.0000
  C   C1404     1.0  0.60595  0.94101  0.93756  1.0000
  H   H1114     1.0  0.83036  0.77683  0.76618  1.0000
  H   H1115     1.0  0.78348  0.79965  0.86236  1.0000
  H   H1116     1.0  0.85158  0.83684  0.81574  1.0000
  H   H1117     1.0  0.82330  0.78327  0.88977  1.0000
  H   H1118     1.0  0.84380  0.75604  0.92814  1.0000
  H   H1119     1.0  0.87658  0.71652  0.91806  1.0000
  H   H1120     1.0  0.88793  0.70428  0.86895  1.0000
  H   H1121     1.0  0.86706  0.73086  0.83016  1.0000
  H   H1122     1.0  0.78142  0.79962  0.79553  1.0000
  H   H1123     1.0  0.74021  0.77548  0.77559  1.0000
  H   H1124     1.0  0.73456  0.72400  0.78127  1.0000
  H   H1125     1.0  0.77053  0.69674  0.80745  1.0000
  H   H1126     1.0  0.81188  0.72030  0.82737  1.0000
  C   C1405     1.0  0.61433  0.92408  0.82486  1.0000
  H   H1127     1.0  0.68025  0.96052  0.80574  1.0000
  C   C1406     1.0  0.72910  0.64429  0.93316  1.0000
  H   H1128     1.0  0.83590  0.73023  0.73885  1.0000
  H   H1129     1.0  0.72707  0.75494  0.68006  1.0000
  P   P48       1.0  0.77531  0.72673  0.65495  1.0000
  C   C1407     1.0  0.73719  0.59462  0.92567  1.0000
  C   C1408     1.0  0.78505  0.71669  0.69015  1.0000
  C   C1409     1.0  0.77801  0.68876  0.73211  1.0000
  H   H1130     1.0  0.63652  0.93438  0.97068  1.0000
  C   C1410     1.0  0.70592  0.73746  0.94095  1.0000
  C   C1411     1.0  0.75292  0.61677  0.96860  1.0000
  H   H1131     1.0  0.53756  0.91906  0.94042  1.0000
  C   C1412     1.0  0.68100  0.92884  0.91096  1.0000
  H   H1132     1.0  0.92809  0.60181  0.95018  1.0000
  C   C1413     1.0  0.71787  0.48443  0.80176  1.0000
  C   C1414     1.0  0.52932  0.73869  0.78034  1.0000
  H   H1133     1.0  0.75036  0.68776  0.69663  1.0000
  H   H1134     1.0  0.74403  0.93571  0.94434  1.0000
  C   C1415     1.0  0.72453  0.71591  0.94814  1.0000
  C   C1416     1.0  0.74041  0.77084  0.67081  1.0000
  H   H1135     1.0  0.73600  0.57629  0.91225  1.0000
  C   C1417     1.0  0.70466  0.96599  0.84326  1.0000
  C   C1418     1.0  0.82539  0.69150  0.95541  1.0000
  S   S192      1.0  0.86105  0.77255  0.65708  1.0000
  H   H1136     1.0  0.71730  0.62194  0.89571  1.0000
  H   H1137     1.0  0.74228  0.71155  0.93460  1.0000
  C   C1419     1.0  0.70743  0.96126  0.95224  1.0000
  C   C1420     1.0  0.55912  0.92269  0.94706  1.0000
  C   C1421     1.0  0.68787  0.97541  0.82110  1.0000
  H   H1138     1.0  0.70937  0.74953  0.92203  1.0000
  C   C1422     1.0  0.81716  0.72111  0.72959  1.0000
  C   C1423     1.0  0.97356  0.60130  0.95143  1.0000
  C   C1424     1.0  0.79902  0.67875  0.95813  1.0000
  H   H1139     1.0  0.79419  0.66068  0.94519  1.0000
  H   H1140     1.0  0.72124  0.66396  0.92510  1.0000
  H   H1141     1.0  0.82092  0.74457  0.69167  1.0000
  C   C1425     1.0  0.61497  0.93140  0.96386  1.0000
  C   C1426     1.0  0.73315  0.79914  0.67378  1.0000
  C   C1427     1.0  0.75042  0.59287  0.95175  1.0000
  C   C1428     1.0  0.80220  0.70055  0.74403  1.0000
  C   C1429     1.0  0.94674  0.60067  0.96337  1.0000
  H   H1142     1.0  0.93856  0.85089  0.68909  1.0000
  H   H1143     1.0  0.83061  0.69808  0.65943  1.0000
  H   H1144     1.0  0.85344  0.72361  0.97056  1.0000
  C   C1430     1.0  0.92200  0.91336  0.65902  1.0000
  H   H1145     1.0  0.75933  0.57311  0.95862  1.0000
  C   C1431     1.0  0.62569  0.96303  0.85567  1.0000
  C   C1432     1.0  0.72034  0.70017  0.97263  1.0000
  H   H1146     1.0  0.97104  0.84919  0.64888  1.0000
  H   H1147     1.0  0.71780  0.97407  0.96795  1.0000
  C   C1433     1.0  0.83263  0.71446  0.97215  1.0000
  C   C1434     1.0  0.68310  0.74368  0.95825  1.0000
  H   H1148     1.0  0.66888  0.76057  0.95275  1.0000
  C   C1435     1.0  0.77954  0.68920  0.97757  1.0000
  C   C1436     1.0  0.95770  0.86738  0.65167  1.0000
  H   H1149     1.0  0.78544  0.48290  0.85545  1.0000
  H   H1150     1.0  0.74583  0.84194  0.66682  1.0000
  H   H1151     1.0  0.62335  0.96602  0.81074  1.0000
  C   C1437     1.0  0.75086  0.82003  0.66332  1.0000
  C   C1438     1.0  0.76520  0.76323  0.65673  1.0000
  C   C1439     1.0  0.77577  0.81266  0.64966  1.0000
  Fe  Fe96      1.0  0.94136  0.78705  0.64750  1.0000
  C   C1440     1.0  0.80605  0.48170  0.84597  1.0000
  H   H1152     1.0  0.76986  0.66626  0.64912  1.0000
