data_image0
_chemical_formula_structural       HCHC2HCSCH3CSC2H3CHC3H2C2HCH2CH4CHC5HC2H2C3H2C2HCH6C2HFeSFeS2FeHFeCS2FeSFeSFeSFeS2C6H3CHSC2H11CH2CSH3C2HC6PC3HCHCHC9H3CH2CH4SHCH2CHC2HC2HCFeSFeSHFeSFeSHSFeSFeS2FeSFeS3HC7H4C2HC2HCH2C8H2CSC2HCHC4H2CH2CH3C3HCH2C2H5CHC6HCH3CHCH4C2PC4H2C3HC3PSHC3HCHC2HCPC2H2C3H4C2HCH3C2H2FeS2FeS2FeSFeS3C2H2C7HCH2C6H5C2HCH2PCH2C4H2SCHC5HC3HCH3C5H4C6H4CH2CH4C3PCHCH4PC2H2C2HC11H2C3HCH3C4HPC3HC2HC2HC3HCHC2HCH5CH2CHC3HC2H2C2HC2H7CHC3HC2PHC2HC3HC3H2CHC3HCH3C3H2C2H3C2HC3H4C3H2SCH2C2HC3PC2HCHC2H2C2HCHCH5CHCHC2HC3HCFeS2FeS2FeSFeS3C3HC7H2CHC6H4C3HCPC3H2CHC2HC3HC2HPH3CH2CHC2HCH2C2SCHCH2C4H3C4H2C4H2CH8C3HC2HCHPCH2CHCHCFeSCFeSHFeSFeS3PHC6H2CHC6H4CHCSH2C3H2C3HC4HC2H2CH2C6HCH2CHCH3C2HC2HCHCHC4PHCHCH2SHC3H5C4H2SHC4H2C5H2CSCHC3HC11PCHC4HCH8C2H2PHC2H3CHC2H2C2HC2HCH2C2HC3H3CHCH3C2H2CH4CFeS2FeS2FeSFeS3C7H2CH2C7H3CH3C2HC6PC2H4PHCHCHC3H2C4HCHC4H2CH2CHCHC3PCH2CHC2HC7HC3PH5CHCH7SCHCHC4HC2H2C2HC2HC2HC7H4CSCH2C3HCH3CHCH3CHC2HCHC2HC2FeSH2SFeSFeS3FeSFeSCFeSFeS3C6H7C2HC2H3CSH2C2H2PC2HC2HCHC2FeH2CH2C2HSC2HCPCHC4H3C9H2CH4CH3C5H2CH2C2FeSHFeS2Fe2S2FeCSFeS2FeCFeS3H4C6HCH3C2HSH2CHC2HC2HCH3C3SC4HC2HCH2C2H2CHCHCH2C2HC3H4CH2C3HC3H2C6H4C3PCH5C2H2C11H2C2SHCH2CH2CH2CH4CH5C6H2C3H3C6HCH
_chemical_formula_sum              "H576 C720 S96 Fe48 P24"
_cell_length_a       31.8576
_cell_length_b       31.688
_cell_length_c       48.0498
_cell_angle_alpha    90.2353
_cell_angle_beta     90.023
_cell_angle_gamma    89.5568

_space_group_name_H-M_alt    "P 1"
_space_group_IT_number       1

loop_
  _space_group_symop_operation_xyz
  'x, y, z'

loop_
  _atom_site_type_symbol
  _atom_site_label
  _atom_site_symmetry_multiplicity
  _atom_site_fract_x
  _atom_site_fract_y
  _atom_site_fract_z
  _atom_site_occupancy
  H   H1        1.0  0.47830  0.14056  0.12943  1.0000
  C   C1        1.0  0.38224  0.40484  0.99598  1.0000
  H   H2        1.0  0.08306  0.26131  0.30013  1.0000
  C   C2        1.0  0.42482  0.00721  0.30176  1.0000
  C   C3        1.0  0.27094  0.05292  0.31041  1.0000
  H   H3        1.0  0.07419  0.33852  0.29329  1.0000
  C   C4        1.0  0.41712  0.09135  0.25846  1.0000
  S   S1        1.0  0.12164  0.01621  0.30601  1.0000
  C   C5        1.0  0.20838  0.09278  0.29765  1.0000
  H   H4        1.0  0.26818  0.36925  0.01065  1.0000
  H   H5        1.0  0.01112  0.36648  0.26953  1.0000
  H   H6        1.0  0.35032  0.09189  0.25158  1.0000
  C   C6        1.0  0.22536  0.12911  0.30962  1.0000
  S   S2        1.0  0.48513  0.39147  0.30969  1.0000
  C   C7        1.0  0.48333  0.03035  0.00506  1.0000
  C   C8        1.0  0.45648  0.07970  0.24788  1.0000
  H   H7        1.0  0.37946  0.01389  0.99443  1.0000
  H   H8        1.0  0.39049  0.49702  0.25675  1.0000
  H   H9        1.0  0.20730  0.15825  0.31018  1.0000
  C   C9        1.0  0.49136  0.09793  0.16327  1.0000
  H   H10       1.0  0.17707  0.09359  0.28880  1.0000
  C   C10       1.0  0.22698  0.44369  0.31000  1.0000
  C   C11       1.0  0.49484  0.47733  0.26540  1.0000
  C   C12       1.0  0.05585  0.27357  0.28917  1.0000
  H   H11       1.0  0.31202  0.39595  0.04891  1.0000
  H   H12       1.0  0.44205  0.43788  0.25585  1.0000
  C   C13       1.0  0.02553  0.24581  0.27913  1.0000
  C   C14       1.0  0.49532  0.11258  0.13597  1.0000
  H   H13       1.0  0.47152  0.11527  0.17767  1.0000
  C   C15       1.0  0.45973  0.05931  0.22192  1.0000
  H   H14       1.0  0.41488  0.10733  0.27842  1.0000
  H   H15       1.0  0.02908  0.21216  0.28260  1.0000
  C   C16       1.0  0.05073  0.31701  0.28538  1.0000
  H   H16       1.0  0.29421  0.02712  0.25527  1.0000
  H   H17       1.0  0.38514  0.41856  0.03991  1.0000
  H   H18       1.0  0.42482  0.03602  0.18645  1.0000
  H   H19       1.0  0.35545  0.05613  0.20559  1.0000
  C   C17       1.0  0.42298  0.05118  0.20668  1.0000
  H   H20       1.0  0.48415  0.08711  0.25996  1.0000
  C   C18       1.0  0.45242  0.46985  0.25993  1.0000
  C   C19       1.0  0.32456  0.39470  0.02795  1.0000
  C   C20       1.0  0.01511  0.33268  0.27170  1.0000
  C   C21       1.0  0.02376  0.03173  0.26019  1.0000
  C   C22       1.0  0.36579  0.40732  0.02290  1.0000
  H   H21       1.0  0.03990  0.43059  0.01593  1.0000
  C   C23       1.0  0.25303  0.47206  0.29625  1.0000
  C   C24       1.0  0.38072  0.08264  0.24333  1.0000
  H   H22       1.0  0.28680  0.46945  0.29864  1.0000
  H   H23       1.0  0.16335  0.42526  0.31800  1.0000
  C   C25       1.0  0.02467  0.45662  0.00537  1.0000
  C   C26       1.0  0.18342  0.44730  0.30725  1.0000
  C   C27       1.0  0.16584  0.47947  0.29095  1.0000
  H   H24       1.0  0.13209  0.48171  0.28933  1.0000
  H   H25       1.0  0.46615  0.05587  0.01495  1.0000
  C   C28       1.0  0.38365  0.06254  0.21744  1.0000
  C   C29       1.0  0.23092  0.05480  0.29817  1.0000
  H   H26       1.0  0.45052  0.02159  0.13077  1.0000
  C   C30       1.0  0.29959  0.37995  0.00607  1.0000
  H   H27       1.0  0.02629  0.06261  0.25075  1.0000
  H   H28       1.0  0.21644  0.02661  0.28982  1.0000
  H   H29       1.0  0.21636  0.49310  0.22054  1.0000
  H   H30       1.0  0.00777  0.34948  0.21107  1.0000
  H   H31       1.0  0.41444  0.41397  0.99215  1.0000
  H   H32       1.0  0.02187  0.41186  0.18195  1.0000
  C   C31       1.0  0.23558  0.50404  0.27982  1.0000
  C   C32       1.0  0.42339  0.50307  0.26070  1.0000
  H   H33       1.0  0.25737  0.50389  0.17762  1.0000
  Fe  Fe1       1.0  0.35008  0.39111  0.36785  1.0000
  S   S3        1.0  0.28705  0.35571  0.36238  1.0000
  Fe  Fe2       1.0  0.42054  0.43105  0.40452  1.0000
  S   S4        1.0  0.44613  0.46851  0.36883  1.0000
  S   S5        1.0  0.44768  0.43167  0.44905  1.0000
  Fe  Fe3       1.0  0.37882  0.48350  0.35815  1.0000
  H   H34       1.0  0.04607  0.34656  0.54535  1.0000
  Fe  Fe4       1.0  0.43769  0.40898  0.34364  1.0000
  C   C33       1.0  0.06180  0.33228  0.52762  1.0000
  S   S6        1.0  0.35325  0.44915  0.39543  1.0000
  S   S7        1.0  0.41569  0.36985  0.37980  1.0000
  Fe  Fe5       1.0  0.05180  0.13800  0.35503  1.0000
  S   S8        1.0  0.08401  0.14838  0.39622  1.0000
  Fe  Fe6       1.0  0.10708  0.06031  0.34275  1.0000
  S   S9        1.0  0.14210  0.06611  0.38331  1.0000
  Fe  Fe7       1.0  0.07803  0.07814  0.40260  1.0000
  S   S10       1.0  0.05725  0.06107  0.44737  1.0000
  Fe  Fe8       1.0  0.14489  0.13613  0.37380  1.0000
  S   S11       1.0  0.20816  0.17059  0.37945  1.0000
  S   S12       1.0  0.04264  0.06854  0.36222  1.0000
  C   C34       1.0  0.26632  0.30357  0.36683  1.0000
  C   C35       1.0  0.28928  0.27064  0.37905  1.0000
  C   C36       1.0  0.27090  0.23047  0.38272  1.0000
  C   C37       1.0  0.22935  0.22233  0.37421  1.0000
  C   C38       1.0  0.20644  0.25519  0.36186  1.0000
  C   C39       1.0  0.22473  0.29542  0.35834  1.0000
  H   H35       1.0  0.32114  0.27618  0.38586  1.0000
  H   H36       1.0  0.28909  0.20551  0.39231  1.0000
  H   H37       1.0  0.17475  0.24962  0.35483  1.0000
  C   C40       1.0  0.41117  0.02677  0.34965  1.0000
  H   H38       1.0  0.27748  0.15552  0.33195  1.0000
  S   S13       1.0  0.37209  0.42717  0.33003  1.0000
  C   C41       1.0  0.47941  0.46759  0.46871  1.0000
  C   C42       1.0  0.05966  0.28839  0.48627  1.0000
  H   H39       1.0  0.15570  0.33960  0.41529  1.0000
  H   H40       1.0  0.15813  0.32654  0.49760  1.0000
  H   H41       1.0  0.12197  0.35895  0.53763  1.0000
  H   H42       1.0  0.34656  0.02701  0.36237  1.0000
  H   H43       1.0  0.20650  0.32048  0.34890  1.0000
  H   H44       1.0  0.05955  0.32881  0.43600  1.0000
  H   H45       1.0  0.04178  0.26877  0.47213  1.0000
  H   H46       1.0  0.47288  0.02371  0.33138  1.0000
  H   H47       1.0  0.09080  0.13018  0.48936  1.0000
  H   H48       1.0  0.02232  0.15215  0.46203  1.0000
  H   H49       1.0  0.19170  0.21013  0.43182  1.0000
  C   C43       1.0  0.06572  0.30713  0.41902  1.0000
  H   H50       1.0  0.19960  0.13338  0.43688  1.0000
  H   H51       1.0  0.08850  0.23328  0.35615  1.0000
  C   C44       1.0  0.04112  0.30995  0.39493  1.0000
  S   S14       1.0  0.11311  0.12943  0.33239  1.0000
  H   H52       1.0  0.08222  0.20703  0.48478  1.0000
  H   H53       1.0  0.22427  0.37283  0.40731  1.0000
  H   H54       1.0  0.31794  0.08908  0.33270  1.0000
  C   C45       1.0  0.01709  0.03524  0.49553  1.0000
  C   C46       1.0  0.39406  0.47907  0.59514  1.0000
  H   H55       1.0  0.14877  0.09303  0.46536  1.0000
  C   C47       1.0  0.25346  0.30204  0.45675  1.0000
  C   C48       1.0  0.25683  0.33438  0.43722  1.0000
  C   C49       1.0  0.22131  0.34810  0.42271  1.0000
  C   C50       1.0  0.18255  0.32890  0.42717  1.0000
  C   C51       1.0  0.17905  0.29574  0.44632  1.0000
  C   C52       1.0  0.21462  0.28307  0.46154  1.0000
  P   P1        1.0  0.12891  0.27100  0.45225  1.0000
  C   C53       1.0  0.10268  0.29513  0.48175  1.0000
  C   C54       1.0  0.09793  0.27668  0.42090  1.0000
  C   C55       1.0  0.10680  0.25118  0.39769  1.0000
  H   H56       1.0  0.02955  0.28438  0.35389  1.0000
  C   C56       1.0  0.10456  0.33923  0.52327  1.0000
  H   H57       1.0  0.21254  0.25807  0.47677  1.0000
  C   C57       1.0  0.03937  0.30685  0.50912  1.0000
  H   H58       1.0  0.38675  0.50147  0.51986  1.0000
  C   C58       1.0  0.04907  0.28306  0.37238  1.0000
  C   C59       1.0  0.46680  0.49028  0.58308  1.0000
  C   C60       1.0  0.12499  0.32073  0.50047  1.0000
  C   C61       1.0  0.13648  0.21493  0.45800  1.0000
  C   C62       1.0  0.10828  0.19186  0.47441  1.0000
  C   C63       1.0  0.11309  0.14815  0.47725  1.0000
  C   C64       1.0  0.14594  0.12707  0.46376  1.0000
  C   C65       1.0  0.17442  0.14974  0.44774  1.0000
  C   C66       1.0  0.16976  0.19342  0.44488  1.0000
  H   H59       1.0  0.28113  0.29134  0.46787  1.0000
  H   H60       1.0  0.28708  0.34846  0.43290  1.0000
  H   H61       1.0  0.13250  0.22864  0.39813  1.0000
  C   C67       1.0  0.08226  0.25413  0.37365  1.0000
  H   H62       1.0  0.42254  0.03635  0.36997  1.0000
  H   H63       1.0  0.44525  0.43887  0.60829  1.0000
  C   C68       1.0  0.02652  0.02502  0.46760  1.0000
  H   H64       1.0  0.02814  0.06469  0.50416  1.0000
  H   H65       1.0  0.01581  0.33288  0.39375  1.0000
  H   H66       1.0  0.02341  0.21333  0.42980  1.0000
  H   H67       1.0  0.37681  0.48025  0.47111  1.0000
  S   S15       1.0  0.00523  0.18933  0.34137  1.0000
  H   H68       1.0  0.37028  0.46063  0.60549  1.0000
  C   C69       1.0  0.43620  0.46674  0.59668  1.0000
  H   H69       1.0  0.22485  0.01872  0.35122  1.0000
  H   H70       1.0  0.00623  0.30136  0.51255  1.0000
  C   C70       1.0  0.48863  0.45823  0.49672  1.0000
  H   H71       1.0  0.47617  0.42980  0.50584  1.0000
  C   C71       1.0  0.36812  0.02150  0.34525  1.0000
  C   C72       1.0  0.43951  0.01965  0.32791  1.0000
  H   H72       1.0  0.24066  0.41905  0.32289  1.0000
  C   C73       1.0  0.28784  0.08960  0.32236  1.0000
  C   C74       1.0  0.26509  0.12753  0.32189  1.0000
  H   H73       1.0  0.49946  0.48053  0.58412  1.0000
  C   C75       1.0  0.35299  0.00952  0.31893  1.0000
  Fe  Fe9       1.0  0.37304  0.02641  0.86216  1.0000
  S   S16       1.0  0.35682  0.06950  0.89834  1.0000
  Fe  Fe10      1.0  0.45466  0.07440  0.85028  1.0000
  S   S17       1.0  0.44356  0.11979  0.88549  1.0000
  H   H74       1.0  0.38666  0.22494  0.81338  1.0000
  Fe  Fe11      1.0  0.42519  0.06236  0.91053  1.0000
  S   S18       1.0  0.44261  0.05637  0.95707  1.0000
  Fe  Fe12      1.0  0.37626  0.12302  0.87067  1.0000
  S   S19       1.0  0.34654  0.18780  0.86070  1.0000
  H   H75       1.0  0.08510  0.04264  0.77847  1.0000
  S   S20       1.0  0.38864  0.08038  0.83392  1.0000
  Fe  Fe13      1.0  0.06160  0.38665  0.85369  1.0000
  S   S21       1.0  0.07215  0.35087  0.89331  1.0000
  Fe  Fe14      1.0  0.13824  0.44259  0.86331  1.0000
  S   S22       1.0  0.15380  0.41009  0.90390  1.0000
  S   S23       1.0  0.01414  0.37112  0.81937  1.0000
  Fe  Fe15      1.0  0.14079  0.34903  0.88154  1.0000
  S   S24       1.0  0.17482  0.28586  0.88972  1.0000
  Fe  Fe16      1.0  0.08443  0.41443  0.91304  1.0000
  S   S25       1.0  0.06414  0.42517  0.95853  1.0000
  S   S26       1.0  0.12950  0.38089  0.84054  1.0000
  S   S27       1.0  0.06973  0.45086  0.87392  1.0000
  H   H76       1.0  0.02423  0.21375  0.69591  1.0000
  C   C76       1.0  0.29963  0.43335  0.92217  1.0000
  C   C77       1.0  0.29779  0.21366  0.86832  1.0000
  C   C78       1.0  0.26932  0.19800  0.88780  1.0000
  C   C79       1.0  0.23188  0.22042  0.89378  1.0000
  C   C80       1.0  0.22239  0.25896  0.88061  1.0000
  C   C81       1.0  0.25078  0.27461  0.86102  1.0000
  C   C82       1.0  0.28824  0.25214  0.85502  1.0000
  H   H77       1.0  0.27625  0.16870  0.89839  1.0000
  H   H78       1.0  0.21021  0.20785  0.90890  1.0000
  H   H79       1.0  0.24391  0.30396  0.85051  1.0000
  H   H80       1.0  0.31008  0.26469  0.84002  1.0000
  C   C83       1.0  0.15847  0.12863  0.85453  1.0000
  C   C84       1.0  0.49877  0.30476  0.79032  1.0000
  H   H81       1.0  0.30853  0.49194  0.90027  1.0000
  C   C85       1.0  0.35608  0.26657  0.91194  1.0000
  C   C86       1.0  0.17304  0.21782  0.76717  1.0000
  H   H82       1.0  0.08030  0.24682  0.90061  1.0000
  C   C87       1.0  0.19714  0.29010  0.76530  1.0000
  H   H83       1.0  0.42905  0.33216  0.85767  1.0000
  H   H84       1.0  0.24185  0.39622  0.85542  1.0000
  C   C88       1.0  0.41428  0.30800  0.81656  1.0000
  C   C89       1.0  0.40637  0.33146  0.84091  1.0000
  C   C90       1.0  0.36875  0.35417  0.84389  1.0000
  C   C91       1.0  0.33874  0.35349  0.82268  1.0000
  C   C92       1.0  0.34645  0.33043  0.79834  1.0000
  C   C93       1.0  0.38411  0.30792  0.79522  1.0000
  C   C94       1.0  0.35735  0.39013  0.97406  1.0000
  C   C95       1.0  0.29653  0.46008  0.89913  1.0000
  H   H85       1.0  0.11059  0.34447  0.97517  1.0000
  H   H86       1.0  0.20605  0.24455  0.73238  1.0000
  C   C96       1.0  0.15636  0.22505  0.79385  1.0000
  S   S28       1.0  0.18579  0.49095  0.84751  1.0000
  C   C97       1.0  0.16543  0.38361  0.97703  1.0000
  C   C98       1.0  0.14411  0.34619  0.97144  1.0000
  H   H87       1.0  0.27291  0.46755  0.85737  1.0000
  C   C99       1.0  0.20857  0.31448  0.95425  1.0000
  H   H88       1.0  0.13160  0.20889  0.87151  1.0000
  C   C100      1.0  0.41083  0.20848  0.80173  1.0000
  C   C101      1.0  0.35202  0.23206  0.92971  1.0000
  C   C102      1.0  0.25921  0.40602  0.87371  1.0000
  C   C103      1.0  0.19315  0.25033  0.75292  1.0000
  H   H89       1.0  0.08934  0.25459  0.70093  1.0000
  H   H90       1.0  0.36270  0.37222  0.86267  1.0000
  C   C104      1.0  0.06447  0.09243  0.75123  1.0000
  H   H91       1.0  0.32310  0.32976  0.78195  1.0000
  H   H92       1.0  0.38958  0.29006  0.77626  1.0000
  C   C105      1.0  0.05293  0.22035  0.82394  1.0000
  H   H93       1.0  0.18481  0.32792  0.80182  1.0000
  H   H94       1.0  0.44529  0.21502  0.85626  1.0000
  H   H95       1.0  0.14880  0.28326  0.95454  1.0000
  C   C106      1.0  0.24260  0.13068  0.83806  1.0000
  C   C107      1.0  0.16565  0.31169  0.96001  1.0000
  C   C108      1.0  0.48480  0.26859  0.84683  1.0000
  H   H96       1.0  0.10003  0.30063  0.74230  1.0000
  C   C109      1.0  0.10116  0.21667  0.86280  1.0000
  H   H97       1.0  0.47644  0.20269  0.90248  1.0000
  H   H98       1.0  0.37474  0.26348  0.89316  1.0000
  C   C110      1.0  0.48759  0.22848  0.88983  1.0000
  C   C111      1.0  0.16109  0.26491  0.80632  1.0000
  H   H99       1.0  0.24794  0.34837  0.89572  1.0000
  H   H100      1.0  0.04881  0.14802  0.72792  1.0000
  H   H101      1.0  0.27537  0.13176  0.83195  1.0000
  H   H102      1.0  0.42738  0.11298  0.77088  1.0000
  H   H103      1.0  0.45207  0.34511  0.77076  1.0000
  C   C112      1.0  0.06541  0.25655  0.71691  1.0000
  H   H104      1.0  0.33809  0.33039  0.90354  1.0000
  C   C113      1.0  0.09169  0.20710  0.83496  1.0000
  C   C114      1.0  0.47811  0.02326  0.97627  1.0000
  C   C115      1.0  0.07211  0.23849  0.87939  1.0000
  C   C116      1.0  0.10546  0.14734  0.78833  1.0000
  C   C117      1.0  0.21272  0.15531  0.82412  1.0000
  C   C118      1.0  0.08470  0.16317  0.76472  1.0000
  H   H105      1.0  0.04538  0.21494  0.80237  1.0000
  C   C119      1.0  0.45045  0.22660  0.79766  1.0000
  H   H106      1.0  0.21284  0.31527  0.75433  1.0000
  H   H107      1.0  0.12425  0.49455  0.95462  1.0000
  H   H108      1.0  0.17104  0.18694  0.75753  1.0000
  C   C120      1.0  0.26257  0.37910  0.89659  1.0000
  H   H109      1.0  0.25386  0.08584  0.87079  1.0000
  C   C121      1.0  0.27648  0.44636  0.87490  1.0000
  H   H110      1.0  0.17930  0.08422  0.88566  1.0000
  H   H111      1.0  0.22396  0.41639  0.97458  1.0000
  H   H112      1.0  0.12595  0.12704  0.86096  1.0000
  H   H113      1.0  0.31380  0.44527  0.94103  1.0000
  C   C122      1.0  0.30649  0.27350  0.95976  1.0000
  C   C123      1.0  0.02837  0.23335  0.71415  1.0000
  P   P2        1.0  0.46228  0.27750  0.81281  1.0000
  C   C124      1.0  0.28322  0.39236  0.92086  1.0000
  C   C125      1.0  0.30950  0.30793  0.94158  1.0000
  C   C126      1.0  0.33476  0.30430  0.91773  1.0000
  C   C127      1.0  0.03355  0.25133  0.86828  1.0000
  H   H114      1.0  0.36742  0.20238  0.92455  1.0000
  H   H115      1.0  0.08434  0.19667  0.76057  1.0000
  C   C128      1.0  0.40229  0.16809  0.79157  1.0000
  C   C129      1.0  0.32729  0.23553  0.95363  1.0000
  C   C130      1.0  0.18127  0.29729  0.79202  1.0000
  H   H116      1.0  0.30946  0.37075  0.82512  1.0000
  C   C131      1.0  0.47315  0.16244  0.77392  1.0000
  C   C132      1.0  0.23033  0.35183  0.96009  1.0000
  C   C133      1.0  0.08478  0.07637  0.77471  1.0000
  P   P3        1.0  0.28474  0.35757  0.95047  1.0000
  S   S29       1.0  0.44007  0.01636  0.87600  1.0000
  H   H117      1.0  0.22399  0.28804  0.94411  1.0000
  C   C134      1.0  0.17027  0.15427  0.83210  1.0000
  C   C135      1.0  0.18852  0.10415  0.86849  1.0000
  C   C136      1.0  0.03060  0.46159  0.97652  1.0000
  H   H118      1.0  0.22308  0.17488  0.80712  1.0000
  C   C137      1.0  0.02400  0.24235  0.84053  1.0000
  H   H119      1.0  0.12066  0.09018  0.81114  1.0000
  C   C138      1.0  0.48173  0.20299  0.78389  1.0000
  C   C139      1.0  0.04042  0.28550  0.76059  1.0000
  H   H120      1.0  0.14964  0.27106  0.82721  1.0000
  C   C140      1.0  0.07148  0.28251  0.74016  1.0000
  P   P4        1.0  0.13083  0.18308  0.81254  1.0000
  C   C141      1.0  0.23052  0.10498  0.86014  1.0000
  C   C142      1.0  0.10507  0.10363  0.79325  1.0000
  H   H121      1.0  0.37180  0.15424  0.79525  1.0000
  H   H122      1.0  0.04898  0.07119  0.73681  1.0000
  C   C143      1.0  0.06444  0.13580  0.74623  1.0000
  C   C144      1.0  0.00344  0.26238  0.75790  1.0000
  C   C145      1.0  0.43351  0.14494  0.77781  1.0000
  H   H123      1.0  0.48411  0.13183  0.94006  1.0000
  H   H124      1.0  0.04471  0.30620  0.77844  1.0000
  H   H125      1.0  0.32407  0.20863  0.96729  1.0000
  H   H126      1.0  0.49776  0.14391  0.76407  1.0000
  C   C146      1.0  0.47008  0.23557  0.86353  1.0000
  C   C147      1.0  0.01066  0.49549  0.96326  1.0000
  H   H127      1.0  0.28785  0.27593  0.97855  1.0000
  C   C148      1.0  0.48480  0.33613  0.77181  1.0000
  H   H128      1.0  0.01152  0.26925  0.88092  1.0000
  H   H129      1.0  0.37075  0.38758  0.95339  1.0000
  H   H130      1.0  0.01509  0.49998  0.94116  1.0000
  C   C149      1.0  0.31551  0.37853  0.97881  1.0000
  C   C150      1.0  0.20827  0.38663  0.97111  1.0000
  H   H131      1.0  0.00653  0.35822  0.93705  1.0000
  H   H132      1.0  0.14825  0.41069  0.98510  1.0000
  Fe  Fe17      1.0  0.22833  0.79903  0.25760  1.0000
  S   S30       1.0  0.22179  0.82387  0.21427  1.0000
  S   S31       1.0  0.21160  0.83549  0.29728  1.0000
  Fe  Fe18      1.0  0.26644  0.71522  0.23728  1.0000
  S   S32       1.0  0.26300  0.73527  0.19214  1.0000
  S   S33       1.0  0.29114  0.64816  0.24406  1.0000
  Fe  Fe19      1.0  0.28720  0.79798  0.20708  1.0000
  S   S34       1.0  0.33272  0.84412  0.18639  1.0000
  Fe  Fe20      1.0  0.19823  0.75903  0.20295  1.0000
  S   S35       1.0  0.14206  0.75372  0.17348  1.0000
  S   S36       1.0  0.29503  0.77636  0.25136  1.0000
  S   S37       1.0  0.20012  0.73572  0.24702  1.0000
  C   C151      1.0  0.46692  0.68457  0.28471  1.0000
  C   C152      1.0  0.04001  0.88044  0.19550  1.0000
  H   H133      1.0  0.37131  0.99271  0.27674  1.0000
  H   H134      1.0  0.26682  0.82505  0.04569  1.0000
  C   C153      1.0  0.48230  0.86521  0.02954  1.0000
  C   C154      1.0  0.11029  0.70819  0.16955  1.0000
  C   C155      1.0  0.08196  0.70583  0.14710  1.0000
  C   C156      1.0  0.05496  0.67104  0.14399  1.0000
  C   C157      1.0  0.05597  0.63820  0.16332  1.0000
  C   C158      1.0  0.08465  0.64032  0.18558  1.0000
  C   C159      1.0  0.11163  0.67510  0.18872  1.0000
  H   H135      1.0  0.08089  0.73099  0.13196  1.0000
  C   C160      1.0  0.47897  0.55132  0.27302  1.0000
  H   H136      1.0  0.08566  0.61513  0.20066  1.0000
  H   H137      1.0  0.13312  0.67652  0.20612  1.0000
  C   C161      1.0  0.38424  0.83574  0.17311  1.0000
  C   C162      1.0  0.40728  0.87056  0.16355  1.0000
  C   C163      1.0  0.44835  0.86540  0.15294  1.0000
  C   C164      1.0  0.46706  0.82532  0.15217  1.0000
  C   C165      1.0  0.44378  0.79049  0.16141  1.0000
  C   C166      1.0  0.40256  0.79558  0.17163  1.0000
  H   H138      1.0  0.39325  0.90174  0.16427  1.0000
  H   H139      1.0  0.46570  0.89245  0.14566  1.0000
  H   H140      1.0  0.45772  0.75929  0.16055  1.0000
  H   H141      1.0  0.38499  0.76845  0.17839  1.0000
  H   H142      1.0  0.04377  0.74045  0.04481  1.0000
  C   C167      1.0  0.15716  0.94909  0.27784  1.0000
  C   C168      1.0  0.17705  0.90931  0.27532  1.0000
  H   H143      1.0  0.11485  0.68970  0.00845  1.0000
  C   C169      1.0  0.18851  0.88674  0.29916  1.0000
  H   H144      1.0  0.14823  0.96613  0.25928  1.0000
  H   H145      1.0  0.18308  0.89596  0.25495  1.0000
  P   P5        1.0  0.16991  0.55136  0.25700  1.0000
  C   C170      1.0  0.20236  0.60660  0.29710  1.0000
  H   H146      1.0  0.09058  0.55296  0.28766  1.0000
  H   H147      1.0  0.49822  0.76685  0.07619  1.0000
  C   C171      1.0  0.31014  0.62269  0.27442  1.0000
  C   C172      1.0  0.32226  0.58000  0.27260  1.0000
  C   C173      1.0  0.33648  0.55786  0.29625  1.0000
  C   C174      1.0  0.19185  0.50830  0.27718  1.0000
  H   H148      1.0  0.27916  0.90856  0.21307  1.0000
  H   H149      1.0  0.32024  0.56384  0.25277  1.0000
  S   S38       1.0  0.02197  0.59416  0.16083  1.0000
  C   C175      1.0  0.38904  0.69531  0.21754  1.0000
  H   H150      1.0  0.39153  0.85682  0.23873  1.0000
  C   C176      1.0  0.07423  0.79948  0.24592  1.0000
  C   C177      1.0  0.01320  0.80038  0.10034  1.0000
  C   C178      1.0  0.28935  0.97256  0.28207  1.0000
  C   C179      1.0  0.47070  0.98285  0.09638  1.0000
  C   C180      1.0  0.49970  0.73653  0.23690  1.0000
  H   H151      1.0  0.12197  0.68588  0.05949  1.0000
  C   C181      1.0  0.03472  0.81781  0.16674  1.0000
  C   C182      1.0  0.28090  0.90575  0.25781  1.0000
  C   C183      1.0  0.44107  0.64060  0.22588  1.0000
  H   H152      1.0  0.11696  0.62770  0.25644  1.0000
  C   C184      1.0  0.20106  0.55933  0.22606  1.0000
  H   H153      1.0  0.22676  0.58339  0.30079  1.0000
  H   H154      1.0  0.04198  0.57733  0.06095  1.0000
  H   H155      1.0  0.40026  0.85864  0.99780  1.0000
  C   C185      1.0  0.22808  0.60562  0.19016  1.0000
  C   C186      1.0  0.20515  0.59980  0.21462  1.0000
  C   C187      1.0  0.46062  0.94969  0.07840  1.0000
  C   C188      1.0  0.02797  0.74914  0.06397  1.0000
  C   C189      1.0  0.48969  0.91658  0.20787  1.0000
  H   H156      1.0  0.28215  0.91170  0.30207  1.0000
  H   H157      1.0  0.23151  0.63711  0.18178  1.0000
  H   H158      1.0  0.19124  0.62715  0.22462  1.0000
  H   H159      1.0  0.46311  0.89546  0.20814  1.0000
  C   C190      1.0  0.14173  0.66921  0.28760  1.0000
  C   C191      1.0  0.29035  0.99325  0.25624  1.0000
  C   C192      1.0  0.08256  0.85370  0.28114  1.0000
  C   C193      1.0  0.05835  0.60162  0.04945  1.0000
  C   C194      1.0  0.42229  0.76103  0.26423  1.0000
  C   C195      1.0  0.03912  0.86134  0.28124  1.0000
  H   H160      1.0  0.01378  0.74120  0.18621  1.0000
  H   H161      1.0  0.44683  0.00148  0.28494  1.0000
  H   H162      1.0  0.37605  0.72644  0.22138  1.0000
  H   H163      1.0  0.32777  0.86413  0.02824  1.0000
  C   C196      1.0  0.01334  0.83763  0.26342  1.0000
  H   H164      1.0  0.30424  0.67631  0.30175  1.0000
  H   H165      1.0  0.26494  0.57584  0.15802  1.0000
  C   C197      1.0  0.39620  0.91617  0.02217  1.0000
  H   H166      1.0  0.49013  0.70226  0.19816  1.0000
  H   H167      1.0  0.11885  0.69388  0.28350  1.0000
  H   H168      1.0  0.41407  0.56952  0.26829  1.0000
  H   H169      1.0  0.36608  0.60632  0.18087  1.0000
  C   C198      1.0  0.09903  0.66478  0.01949  1.0000
  C   C199      1.0  0.31331  0.64342  0.30006  1.0000
  C   C200      1.0  0.17313  0.67571  0.30744  1.0000
  P   P6        1.0  0.45404  0.71578  0.25437  1.0000
  C   C201      1.0  0.14070  0.63151  0.27238  1.0000
  H   H170      1.0  0.13081  0.52693  0.20340  1.0000
  C   C202      1.0  0.43624  0.65836  0.29642  1.0000
  H   H171      1.0  0.40295  0.73679  0.30440  1.0000
  H   H172      1.0  0.13371  0.81758  0.26355  1.0000
  H   H173      1.0  0.40494  0.65691  0.28755  1.0000
  H   H174      1.0  0.27663  0.87189  0.25843  1.0000
  P   P7        1.0  0.40724  0.89033  0.05494  1.0000
  C   C203      1.0  0.36242  0.86077  0.06706  1.0000
  C   C204      1.0  0.45232  0.85594  0.05006  1.0000
  H   H175      1.0  0.43719  0.81289  0.08360  1.0000
  H   H176      1.0  0.08520  0.63023  0.08601  1.0000
  C   C205      1.0  0.38316  0.62740  0.19451  1.0000
  C   C206      1.0  0.40145  0.76284  0.28999  1.0000
  H   H177      1.0  0.28722  0.98625  0.21159  1.0000
  C   C207      1.0  0.36123  0.84605  0.09459  1.0000
  C   C208      1.0  0.32638  0.82413  0.10442  1.0000
  C   C209      1.0  0.29238  0.81651  0.08680  1.0000
  C   C210      1.0  0.29325  0.83087  0.05933  1.0000
  C   C211      1.0  0.32806  0.85299  0.04947  1.0000
  C   C212      1.0  0.42134  0.93023  0.08015  1.0000
  C   C213      1.0  0.28209  0.92648  0.23225  1.0000
  C   C214      1.0  0.38316  0.97988  0.99540  1.0000
  C   C215      1.0  0.10003  0.82299  0.26355  1.0000
  C   C216      1.0  0.43668  0.54384  0.26721  1.0000
  C   C217      1.0  0.37795  0.79867  0.29739  1.0000
  H   H178      1.0  0.06933  0.93462  0.25770  1.0000
  H   H179      1.0  0.43431  0.79471  0.22592  1.0000
  C   C218      1.0  0.24284  0.53066  0.18798  1.0000
  C   C219      1.0  0.08254  0.63145  0.06350  1.0000
  C   C220      1.0  0.10662  0.52958  0.21912  1.0000
  H   H180      1.0  0.05398  0.81167  0.06542  1.0000
  C   C221      1.0  0.03372  0.78919  0.07561  1.0000
  H   H181      1.0  0.38712  0.85194  0.10861  1.0000
  H   H182      1.0  0.32565  0.81333  0.12582  1.0000
  H   H183      1.0  0.26533  0.79964  0.09453  1.0000
  C   C222      1.0  0.17078  0.59966  0.27722  1.0000
  C   C223      1.0  0.05460  0.60330  0.02049  1.0000
  C   C224      1.0  0.42561  0.68151  0.23110  1.0000
  C   C225      1.0  0.14850  0.96684  0.30414  1.0000
  H   H184      1.0  0.48335  0.93979  0.06287  1.0000
  P   P8        1.0  0.01732  0.90221  0.30349  1.0000
  C   C226      1.0  0.04769  0.95921  0.26416  1.0000
  C   C227      1.0  0.41888  0.79545  0.24599  1.0000
  C   C228      1.0  0.39226  0.94466  0.10012  1.0000
  H   H185      1.0  0.36115  0.93138  0.10134  1.0000
  C   C229      1.0  0.37482  0.83276  0.27911  1.0000
  C   C230      1.0  0.41971  0.61353  0.20781  1.0000
  H   H186      1.0  0.08795  0.77602  0.23203  1.0000
  C   C231      1.0  0.45842  0.82021  0.06686  1.0000
  C   C232      1.0  0.05908  0.84632  0.18188  1.0000
  H   H187      1.0  0.03534  0.58038  0.01002  1.0000
  C   C233      1.0  0.49307  0.79361  0.06260  1.0000
  C   C234      1.0  0.07426  0.63516  0.00522  1.0000
  C   C235      1.0  0.24703  0.57113  0.17689  1.0000
  H   H188      1.0  0.47978  0.89359  0.01714  1.0000
  C   C236      1.0  0.10312  0.66285  0.04851  1.0000
  H   H189      1.0  0.09282  0.84156  0.18318  1.0000
  C   C237      1.0  0.36815  0.66836  0.19915  1.0000
  C   C238      1.0  0.38963  0.96004  0.02100  1.0000
  H   H190      1.0  0.33936  0.67875  0.18923  1.0000
  C   C239      1.0  0.03264  0.52750  0.23066  1.0000
  H   H191      1.0  0.05024  0.79154  0.15645  1.0000
  H   H192      1.0  0.05899  0.90237  0.20732  1.0000
  H   H193      1.0  0.35581  0.86003  0.28461  1.0000
  H   H194      1.0  0.00464  0.67565  0.21241  1.0000
  H   H195      1.0  0.03330  0.66956  0.12673  1.0000
  C   C240      1.0  0.28423  0.92862  0.28265  1.0000
  H   H196      1.0  0.34532  0.52495  0.29467  1.0000
  H   H197      1.0  0.10299  0.87173  0.29459  1.0000
  C   C241      1.0  0.28665  0.97025  0.23146  1.0000
  H   H198      1.0  0.45161  0.97203  0.21132  1.0000
  C   C242      1.0  0.44222  0.99621  0.11671  1.0000
  C   C243      1.0  0.39504  0.83102  0.25334  1.0000
  C   C244      1.0  0.04992  0.99870  0.25136  1.0000
  H   H199      1.0  0.43127  0.58171  0.20428  1.0000
  C   C245      1.0  0.01888  0.95237  0.28574  1.0000
  C   C246      1.0  0.20341  0.64444  0.31216  1.0000
  H   H200      1.0  0.36140  0.79963  0.31709  1.0000
  H   H201      1.0  0.48849  0.58285  0.27874  1.0000
  C   C247      1.0  0.03087  0.80668  0.24596  1.0000
  C   C248      1.0  0.48336  0.96025  0.20972  1.0000
  H   H202      1.0  0.01750  0.83176  0.10883  1.0000
  C   C249      1.0  0.11636  0.54066  0.24672  1.0000
  C   C250      1.0  0.06490  0.52322  0.21117  1.0000
  H   H203      1.0  0.50084  0.99801  0.09446  1.0000
  H   H204      1.0  0.05738  0.51626  0.18961  1.0000
  H   H205      1.0  0.07306  0.00417  0.23530  1.0000
  H   H206      1.0  0.39040  0.97930  0.03962  1.0000
  H   H207      1.0  0.01698  0.54128  0.27332  1.0000
  H   H208      1.0  0.46948  0.62957  0.23593  1.0000
  H   H209      1.0  0.01093  0.78869  0.23210  1.0000
  C   C251      1.0  0.08376  0.54435  0.26629  1.0000
  H   H210      1.0  0.38061  0.98762  0.13414  1.0000
  C   C252      1.0  0.40297  0.97707  0.11860  1.0000
  C   C253      1.0  0.39518  0.89248  0.99739  1.0000
  C   C254      1.0  0.21978  0.52471  0.21242  1.0000
  H   H211      1.0  0.25616  0.52590  0.26946  1.0000
  C   C255      1.0  0.04208  0.53778  0.25826  1.0000
  C   C256      1.0  0.38175  0.00229  0.29720  1.0000
  P   P9        1.0  0.29722  0.00247  0.31376  1.0000
  H   H212      1.0  0.17455  0.70536  0.31875  1.0000
  C   C257      1.0  0.28351  0.91916  0.37802  1.0000
  C   C258      1.0  0.07684  0.94644  0.37351  1.0000
  H   H213      1.0  0.37395  0.60209  0.60426  1.0000
  C   C259      1.0  0.37799  0.54369  0.45535  1.0000
  C   C260      1.0  0.07944  0.72803  0.63330  1.0000
  C   C261      1.0  0.38203  0.58642  0.46204  1.0000
  H   H214      1.0  0.04920  0.86506  0.62179  1.0000
  C   C262      1.0  0.34874  0.61308  0.59092  1.0000
  C   C263      1.0  0.45762  0.66885  0.64722  1.0000
  C   C264      1.0  0.22759  0.97082  0.38237  1.0000
  H   H215      1.0  0.39117  0.63208  0.49462  1.0000
  H   H216      1.0  0.09474  0.84170  0.38346  1.0000
  C   C265      1.0  0.38899  0.56863  0.51107  1.0000
  H   H217      1.0  0.08330  0.97678  0.38306  1.0000
  C   C266      1.0  0.35159  0.60843  0.56188  1.0000
  C   C267      1.0  0.10294  0.74483  0.61149  1.0000
  C   C268      1.0  0.24823  0.93473  0.39208  1.0000
  H   H218      1.0  0.32582  0.92746  0.34375  1.0000
  C   C269      1.0  0.37923  0.51345  0.47640  1.0000
  H   H219      1.0  0.42168  0.61409  0.32895  1.0000
  H   H220      1.0  0.10769  0.91109  0.40587  1.0000
  H   H221      1.0  0.49248  0.61656  0.34998  1.0000
  C   C270      1.0  0.28374  0.64343  0.55726  1.0000
  C   C271      1.0  0.31879  0.62382  0.54511  1.0000
  C   C272      1.0  0.43879  0.62920  0.64890  1.0000
  H   H222      1.0  0.48940  0.51230  0.43588  1.0000
  H   H223      1.0  0.33065  0.63775  0.34338  1.0000
  C   C273      1.0  0.44011  0.62328  0.54663  1.0000
  C   C274      1.0  0.47261  0.61980  0.52700  1.0000
  H   H224      1.0  0.31203  0.63667  0.62537  1.0000
  H   H225      1.0  0.34971  0.52372  0.57871  1.0000
  H   H226      1.0  0.13678  0.74701  0.61352  1.0000
  C   C275      1.0  0.44066  0.65678  0.56589  1.0000
  C   C276      1.0  0.31375  0.63274  0.60296  1.0000
  H   H227      1.0  0.25444  0.66362  0.59565  1.0000
  C   C277      1.0  0.27714  0.97552  0.34402  1.0000
  C   C278      1.0  0.45547  0.52643  0.56814  1.0000
  C   C279      1.0  0.05530  0.94450  0.34816  1.0000
  H   H228      1.0  0.25860  0.65546  0.54427  1.0000
  H   H229      1.0  0.32009  0.62091  0.52271  1.0000
  H   H230      1.0  0.15448  0.95798  0.34819  1.0000
  H   H231      1.0  0.47379  0.59355  0.51250  1.0000
  C   C280      1.0  0.08345  0.87037  0.37368  1.0000
  C   C281      1.0  0.06109  0.85395  0.64156  1.0000
  C   C282      1.0  0.09084  0.90943  0.38629  1.0000
  H   H232      1.0  0.41696  0.65995  0.58185  1.0000
  H   H233      1.0  0.37436  0.53389  0.43382  1.0000
  S   S39       1.0  0.35966  0.55279  0.35198  1.0000
  C   C283      1.0  0.10130  0.83498  0.64318  1.0000
  H   H234      1.0  0.12008  0.83200  0.62454  1.0000
  H   H235      1.0  0.18926  0.88777  0.34403  1.0000
  C   C284      1.0  0.41332  0.53931  0.56676  1.0000
  C   C285      1.0  0.38752  0.59889  0.48978  1.0000
  H   H236      1.0  0.04573  0.97375  0.33845  1.0000
  C   C286      1.0  0.24181  0.99110  0.35839  1.0000
  C   C287      1.0  0.06162  0.86828  0.34844  1.0000
  C   C288      1.0  0.47262  0.68674  0.56503  1.0000
  P   P10       1.0  0.39826  0.58503  0.54668  1.0000
  C   C289      1.0  0.03543  0.72681  0.63162  1.0000
  C   C290      1.0  0.01545  0.74265  0.60770  1.0000
  H   H237      1.0  0.38135  0.60977  0.44565  1.0000
  C   C291      1.0  0.29817  0.93966  0.35424  1.0000
  H   H238      1.0  0.10103  0.77550  0.57161  1.0000
  C   C292      1.0  0.28129  0.64799  0.58617  1.0000
  C   C293      1.0  0.18046  0.90481  0.32543  1.0000
  H   H239      1.0  0.00236  0.99036  0.38791  1.0000
  H   H240      1.0  0.47972  0.54403  0.55759  1.0000
  C   C294      1.0  0.16067  0.94462  0.32789  1.0000
  C   C295      1.0  0.08278  0.76113  0.58801  1.0000
  H   H241      1.0  0.20022  0.98296  0.39325  1.0000
  C   C296      1.0  0.01199  0.98657  0.45701  1.0000
  H   H242      1.0  0.29949  0.89116  0.38558  1.0000
  C   C297      1.0  0.04710  0.90534  0.33554  1.0000
  H   H243      1.0  0.23686  0.91887  0.41051  1.0000
  H   H244      1.0  0.47325  0.71199  0.58032  1.0000
  H   H245      1.0  0.01957  0.97752  0.43593  1.0000
  H   H246      1.0  0.09600  0.71723  0.65159  1.0000
  H   H247      1.0  0.22825  0.64972  0.32716  1.0000
  C   C298      1.0  0.48554  0.63531  0.33169  1.0000
  H   H248      1.0  0.45551  0.60155  0.64142  1.0000
  C   C299      1.0  0.03904  0.76004  0.58611  1.0000
  H   H249      1.0  0.05604  0.83771  0.33904  1.0000
  C   C300      1.0  0.38486  0.52573  0.50413  1.0000
  C   C301      1.0  0.38258  0.51505  0.58009  1.0000
  H   H250      1.0  0.02333  0.77337  0.56813  1.0000
  C   C302      1.0  0.44553  0.63404  0.31988  1.0000
  C   C303      1.0  0.33972  0.57851  0.32189  1.0000
  C   C304      1.0  0.32814  0.62143  0.32363  1.0000
  H   H251      1.0  0.00463  0.65292  0.60849  1.0000
  C   C305      1.0  0.49613  0.50445  0.45730  1.0000
  Fe  Fe21      1.0  0.28298  0.70174  0.70776  1.0000
  S   S40       1.0  0.28494  0.70658  0.75458  1.0000
  S   S41       1.0  0.32432  0.65428  0.68373  1.0000
  Fe  Fe22      1.0  0.20760  0.76439  0.70370  1.0000
  S   S42       1.0  0.20562  0.77435  0.75023  1.0000
  S   S43       1.0  0.16724  0.79346  0.66878  1.0000
  Fe  Fe23      1.0  0.27659  0.77692  0.74815  1.0000
  S   S44       1.0  0.32652  0.82092  0.76668  1.0000
  Fe  Fe24      1.0  0.21432  0.70322  0.75323  1.0000
  S   S45       1.0  0.16851  0.66417  0.77960  1.0000
  S   S46       1.0  0.27813  0.77159  0.70126  1.0000
  S   S47       1.0  0.21267  0.69360  0.70679  1.0000
  C   C306      1.0  0.09979  0.55754  0.96077  1.0000
  C   C307      1.0  0.11266  0.76739  0.93623  1.0000
  C   C308      1.0  0.42613  0.66694  0.76108  1.0000
  H   H252      1.0  0.41378  0.78831  0.77156  1.0000
  C   C309      1.0  0.01019  0.63509  0.96013  1.0000
  C   C310      1.0  0.17411  0.61518  0.79751  1.0000
  C   C311      1.0  0.21336  0.59702  0.80321  1.0000
  C   C312      1.0  0.21619  0.55895  0.81833  1.0000
  C   C313      1.0  0.17992  0.53825  0.82779  1.0000
  C   C314      1.0  0.14065  0.55624  0.82197  1.0000
  C   C315      1.0  0.13785  0.59456  0.80709  1.0000
  H   H253      1.0  0.24152  0.61279  0.79646  1.0000
  H   H254      1.0  0.24675  0.54555  0.82282  1.0000
  C   C316      1.0  0.13227  0.53263  0.91805  1.0000
  H   H255      1.0  0.10734  0.60836  0.80292  1.0000
  C   C317      1.0  0.32417  0.86513  0.78972  1.0000
  C   C318      1.0  0.36110  0.88810  0.79483  1.0000
  C   C319      1.0  0.36123  0.92288  0.81332  1.0000
  C   C320      1.0  0.32439  0.93492  0.82718  1.0000
  C   C321      1.0  0.28747  0.91194  0.82208  1.0000
  C   C322      1.0  0.28725  0.87739  0.80339  1.0000
  H   H256      1.0  0.38983  0.87894  0.78438  1.0000
  H   H257      1.0  0.38985  0.94015  0.81701  1.0000
  H   H258      1.0  0.25879  0.92091  0.83267  1.0000
  H   H259      1.0  0.25863  0.86008  0.79973  1.0000
  C   C323      1.0  0.11728  0.81954  0.66855  1.0000
  C   C324      1.0  0.09293  0.82465  0.69257  1.0000
  C   C325      1.0  0.05305  0.84442  0.69107  1.0000
  H   H260      1.0  0.10487  0.81335  0.71227  1.0000
  C   C326      1.0  0.08861  0.68969  0.72345  1.0000
  P   P11       1.0  0.00461  0.70462  0.65954  1.0000
  C   C327      1.0  0.39485  0.70051  0.66862  1.0000
  C   C328      1.0  0.37584  0.66094  0.67012  1.0000
  C   C329      1.0  0.49163  0.56595  0.82562  1.0000
  H   H261      1.0  0.37807  0.72820  0.67598  1.0000
  H   H262      1.0  0.11468  0.66883  0.72844  1.0000
  C   C330      1.0  0.12518  0.57196  0.90590  1.0000
  H   H263      1.0  0.03815  0.77668  0.74858  1.0000
  C   C331      1.0  0.43538  0.70440  0.65712  1.0000
  C   C332      1.0  0.47314  0.59776  0.73349  1.0000
  H   H264      1.0  0.27522  0.60303  0.75074  1.0000
  C   C333      1.0  0.38112  0.59049  0.74283  1.0000
  C   C334      1.0  0.30473  0.59047  0.74297  1.0000
  C   C335      1.0  0.44875  0.68769  0.78212  1.0000
  H   H265      1.0  0.38373  0.59462  0.66125  1.0000
  C   C336      1.0  0.11948  0.52539  0.94542  1.0000
  C   C337      1.0  0.49020  0.55670  0.73308  1.0000
  H   H266      1.0  0.03462  0.84826  0.70981  1.0000
  P   P12       1.0  0.43006  0.61032  0.75663  1.0000
  H   H267      1.0  0.47615  0.65978  0.71466  1.0000
  H   H268      1.0  0.09694  0.72772  0.76016  1.0000
  H   H269      1.0  0.34207  0.62911  0.76988  1.0000
  C   C338      1.0  0.03669  0.85892  0.66555  1.0000
  H   H270      1.0  0.11247  0.54087  0.82913  1.0000
  H   H271      1.0  0.37909  0.97201  0.95096  1.0000
  C   C339      1.0  0.40857  0.57181  0.80704  1.0000
  H   H272      1.0  0.27522  0.55033  0.71268  1.0000
  C   C340      1.0  0.06577  0.68389  0.69890  1.0000
  C   C341      1.0  0.44113  0.58684  0.79013  1.0000
  H   H273      1.0  0.38262  0.67567  0.72698  1.0000
  C   C342      1.0  0.40030  0.69078  0.74334  1.0000
  H   H274      1.0  0.46445  0.81031  0.72625  1.0000
  H   H275      1.0  0.13492  0.57728  0.88456  1.0000
  C   C343      1.0  0.30472  0.56074  0.72144  1.0000
  C   C344      1.0  0.05565  0.72310  0.95178  1.0000
  S   S48       1.0  0.32291  0.97756  0.85152  1.0000
  C   C345      1.0  0.07854  0.72297  0.74141  1.0000
  H   H276      1.0  0.01964  0.52892  0.83686  1.0000
  C   C346      1.0  0.34272  0.60537  0.75360  1.0000
  H   H277      1.0  0.12372  0.79732  0.92831  1.0000
  H   H278      1.0  0.09959  0.63411  0.91102  1.0000
  C   C347      1.0  0.08389  0.68942  0.95582  1.0000
  C   C348      1.0  0.39624  0.73439  0.74699  1.0000
  C   C349      1.0  0.44459  0.73139  0.78574  1.0000
  C   C350      1.0  0.38081  0.56062  0.72114  1.0000
  H   H279      1.0  0.38879  0.89431  0.95267  1.0000
  H   H280      1.0  0.46131  0.74723  0.80234  1.0000
  H   H281      1.0  0.37521  0.75240  0.73370  1.0000
  C   C351      1.0  0.03266  0.71155  0.69200  1.0000
  C   C352      1.0  0.07004  0.76189  0.94194  1.0000
  C   C353      1.0  0.34272  0.54581  0.71055  1.0000
  C   C354      1.0  0.48962  0.62837  0.71559  1.0000
  H   H282      1.0  0.40970  0.54943  0.71181  1.0000
  H   H283      1.0  0.46918  0.67032  0.79597  1.0000
  C   C355      1.0  0.02255  0.74479  0.71029  1.0000
  C   C356      1.0  0.10537  0.60414  0.92112  1.0000
  C   C357      1.0  0.09278  0.59738  0.94883  1.0000
  C   C358      1.0  0.41808  0.75465  0.76832  1.0000
  H   H284      1.0  0.01973  0.62074  0.91647  1.0000
  H   H285      1.0  0.47894  0.73939  0.70648  1.0000
  C   C359      1.0  0.48275  0.58387  0.79970  1.0000
  H   H286      1.0  0.17407  0.73846  0.93604  1.0000
  H   H287      1.0  0.44948  0.73527  0.65572  1.0000
  H   H288      1.0  0.37619  0.57382  0.80043  1.0000
  H   H289      1.0  0.14918  0.66998  0.95372  1.0000
  H   H290      1.0  0.04807  0.78764  0.93853  1.0000
  H   H291      1.0  0.08958  0.55066  0.98169  1.0000
  H   H292      1.0  0.34263  0.52371  0.69331  1.0000
  H   H293      1.0  0.02250  0.71953  0.95604  1.0000
  C   C360      1.0  0.38874  0.91250  0.97182  1.0000
  C   C361      1.0  0.39811  0.62536  0.66023  1.0000
  C   C362      1.0  0.38303  0.95623  0.97081  1.0000
  H   H294      1.0  0.46594  0.53726  0.86237  1.0000
  C   C363      1.0  0.04540  0.75037  0.73491  1.0000
  C   C364      1.0  0.14103  0.73420  0.94058  1.0000
  H   H295      1.0  0.47736  0.53234  0.74625  1.0000
  C   C365      1.0  0.12679  0.69542  0.95047  1.0000
  H   H296      1.0  0.49669  0.98378  0.94194  1.0000
  P   P13       1.0  0.06564  0.63887  0.96795  1.0000
  C   C366      1.0  0.41755  0.55397  0.83297  1.0000
  H   H297      1.0  0.07465  0.65837  0.68501  1.0000
  H   H298      1.0  0.14741  0.50770  0.90612  1.0000
  C   C367      1.0  0.45904  0.55101  0.84225  1.0000
  H   H299      1.0  0.39221  0.54259  0.84590  1.0000
  C   C368      1.0  0.50062  0.99002  0.96392  1.0000
  H   H300      1.0  0.00220  0.56088  0.88262  1.0000
  C   C369      1.0  0.49541  0.80280  0.71813  1.0000
  Fe  Fe25      1.0  0.68663  0.25252  0.27776  1.0000
  S   S49       1.0  0.67924  0.27565  0.23404  1.0000
  C   C370      1.0  0.98447  0.30493  0.26146  1.0000
  Fe  Fe26      1.0  0.77496  0.21533  0.26595  1.0000
  S   S50       1.0  0.77310  0.23665  0.22109  1.0000
  H   H301      1.0  0.89726  0.36576  0.98905  1.0000
  Fe  Fe27      1.0  0.74617  0.29769  0.23785  1.0000
  S   S51       1.0  0.75941  0.36716  0.22785  1.0000
  Fe  Fe28      1.0  0.70657  0.21252  0.22097  1.0000
  S   S52       1.0  0.67786  0.17761  0.18377  1.0000
  S   S53       1.0  0.75207  0.27767  0.28286  1.0000
  S   S54       1.0  0.70965  0.18801  0.26465  1.0000
  P   P14       1.0  0.93679  0.32588  0.24610  1.0000
  H   H302      1.0  0.84646  0.34289  0.24545  1.0000
  C   C371      1.0  0.79429  0.38875  0.20275  1.0000
  C   C372      1.0  0.79556  0.43285  0.19936  1.0000
  C   C373      1.0  0.82267  0.45148  0.17974  1.0000
  C   C374      1.0  0.84911  0.42615  0.16334  1.0000
  C   C375      1.0  0.84818  0.38208  0.16701  1.0000
  C   C376      1.0  0.82096  0.36343  0.18653  1.0000
  H   H303      1.0  0.77515  0.45277  0.21180  1.0000
  H   H304      1.0  0.61176  0.15834  0.22815  1.0000
  C   C377      1.0  0.91970  0.40724  0.22572  1.0000
  H   H305      1.0  0.82046  0.32950  0.18891  1.0000
  C   C378      1.0  0.65775  0.03457  0.17031  1.0000
  C   C379      1.0  0.67302  0.04979  0.19593  1.0000
  C   C380      1.0  0.68018  0.09324  0.20022  1.0000
  C   C381      1.0  0.67124  0.12222  0.17911  1.0000
  C   C382      1.0  0.65575  0.10701  0.15353  1.0000
  C   C383      1.0  0.64948  0.06344  0.14903  1.0000
  H   H306      1.0  0.67963  0.02780  0.21254  1.0000
  H   H307      1.0  0.69218  0.10436  0.21997  1.0000
  H   H308      1.0  0.64891  0.12910  0.13700  1.0000
  H   H309      1.0  0.97009  0.47060  0.17969  1.0000
  C   C384      1.0  0.54097  0.04161  0.15313  1.0000
  H   H310      1.0  0.86287  0.20557  0.17274  1.0000
  C   C385      1.0  0.89970  0.14082  0.30533  1.0000
  S   S55       1.0  0.88451  0.44765  0.13850  1.0000
  H   H311      1.0  0.87130  0.24444  0.30498  1.0000
  H   H312      1.0  0.54371  0.36385  0.26824  1.0000
  C   C386      1.0  0.85704  0.34413  0.26689  1.0000
  C   C387      1.0  0.99935  0.48506  0.02084  1.0000
  C   C388      1.0  0.94852  0.37348  0.22691  1.0000
  H   H313      1.0  0.89012  0.40623  0.23666  1.0000
  H   H314      1.0  0.51465  0.01139  0.04314  1.0000
  C   C389      1.0  0.91182  0.33751  0.30158  1.0000
  C   C390      1.0  0.82802  0.35352  0.28786  1.0000
  C   C391      1.0  0.89935  0.33685  0.27350  1.0000
  H   H315      1.0  0.60363  0.31319  0.26868  1.0000
  C   C392      1.0  0.64924  0.47257  0.22811  1.0000
  C   C393      1.0  0.99378  0.41084  0.19462  1.0000
  C   C394      1.0  0.59536  0.29614  0.31154  1.0000
  C   C395      1.0  0.92801  0.44241  0.20917  1.0000
  H   H316      1.0  0.79562  0.35991  0.28243  1.0000
  C   C396      1.0  0.59748  0.49052  0.26362  1.0000
  C   C397      1.0  0.98998  0.26131  0.26536  1.0000
  H   H317      1.0  0.89653  0.26953  0.15342  1.0000
  H   H318      1.0  0.97549  0.05120  0.28894  1.0000
  C   C398      1.0  0.59998  0.44895  0.27356  1.0000
  H   H319      1.0  0.56646  0.04084  0.11165  1.0000
  H   H320      1.0  0.94400  0.33115  0.30746  1.0000
  C   C399      1.0  0.96481  0.44409  0.19346  1.0000
  C   C400      1.0  0.65124  0.43125  0.23802  1.0000
  C   C401      1.0  0.99518  0.02530  0.28177  1.0000
  C   C402      1.0  0.58527  0.31829  0.28733  1.0000
  C   C403      1.0  0.91328  0.28814  0.22255  1.0000
  C   C404      1.0  0.56808  0.10851  0.21901  1.0000
  H   H321      1.0  0.67201  0.40829  0.22818  1.0000
  C   C405      1.0  0.98568  0.37563  0.21121  1.0000
  H   H322      1.0  0.73999  0.43130  0.27490  1.0000
  H   H323      1.0  0.66854  0.48156  0.21055  1.0000
  C   C406      1.0  0.89334  0.25233  0.23321  1.0000
  H   H324      1.0  0.51633  0.45080  0.26511  1.0000
  C   C407      1.0  0.87507  0.17700  0.30002  1.0000
  H   H325      1.0  0.92869  0.32168  0.18456  1.0000
  H   H326      1.0  0.86104  0.19457  0.22384  1.0000
  H   H327      1.0  0.63846  0.05224  0.12909  1.0000
  C   C408      1.0  0.51388  0.06202  0.17201  1.0000
  C   C409      1.0  0.70587  0.38450  0.29773  1.0000
  H   H328      1.0  0.82303  0.48538  0.17721  1.0000
  C   C410      1.0  0.84054  0.35410  0.31569  1.0000
  C   C411      1.0  0.89014  0.21640  0.30848  1.0000
  H   H329      1.0  0.90495  0.46762  0.20745  1.0000
  C   C412      1.0  0.52654  0.35357  0.31104  1.0000
  H   H330      1.0  0.86850  0.36220  0.15448  1.0000
  C   C413      1.0  0.72774  0.42226  0.29508  1.0000
  H   H331      1.0  0.62795  0.38743  0.26814  1.0000
  C   C414      1.0  0.55115  0.34689  0.28713  1.0000
  C   C415      1.0  0.59839  0.12882  0.23517  1.0000
  C   C416      1.0  0.89634  0.26433  0.17570  1.0000
  C   C417      1.0  0.54501  0.05651  0.12593  1.0000
  P   P15       1.0  0.51042  0.04450  0.20771  1.0000
  H   H332      1.0  0.55988  0.01477  0.15933  1.0000
  C   C418      1.0  0.91455  0.29399  0.19357  1.0000
  H   H333      1.0  0.52577  0.10354  0.09627  1.0000
  C   C419      1.0  0.61247  0.11058  0.25991  1.0000
  H   H334      1.0  0.70137  0.36436  0.27966  1.0000
  H   H335      1.0  0.55314  0.02193  0.25967  1.0000
  S   S56       1.0  0.63886  0.26072  0.31284  1.0000
  H   H336      1.0  0.96673  0.23900  0.25841  1.0000
  C   C420      1.0  0.87735  0.22835  0.18654  1.0000
  C   C421      1.0  0.62648  0.41950  0.26062  1.0000
  C   C422      1.0  0.87623  0.22220  0.21530  1.0000
  H   H337      1.0  0.63636  0.12626  0.27215  1.0000
  H   H338      1.0  0.58120  0.43911  0.29119  1.0000
  H   H339      1.0  0.99541  0.48078  0.04301  1.0000
  H   H340      1.0  0.55831  0.12311  0.19972  1.0000
  H   H341      1.0  0.60752  0.05778  0.28765  1.0000
  C   C423      1.0  0.56558  0.05171  0.25260  1.0000
  C   C424      1.0  0.55129  0.06984  0.22767  1.0000
  C   C425      1.0  0.59618  0.07199  0.26859  1.0000
  C   C426      1.0  0.52213  0.09186  0.11730  1.0000
  H   H342      1.0  0.89092  0.24759  0.25539  1.0000
  H   H343      1.0  0.88819  0.11017  0.29909  1.0000
  S   S57       1.0  0.82585  0.17067  0.28303  1.0000
  H   H344      1.0  0.75097  0.47725  0.31627  1.0000
  C   C427      1.0  0.73391  0.44801  0.31839  1.0000
  C   C428      1.0  0.62236  0.50210  0.24073  1.0000
  C   C429      1.0  0.51067  0.00492  0.02122  1.0000
  C   C430      1.0  0.93924  0.14389  0.31838  1.0000
  H   H345      1.0  0.95788  0.11583  0.32216  1.0000
  H   H346      1.0  0.72559  0.49001  0.44727  1.0000
  C   C431      1.0  0.55720  0.41860  0.37166  1.0000
  C   C432      1.0  0.99373  0.00760  0.51259  1.0000
  C   C433      1.0  0.73157  0.45852  0.43919  1.0000
  C   C434      1.0  0.88544  0.02877  0.46318  1.0000
  C   C435      1.0  0.54340  0.42262  0.39916  1.0000
  H   H347      1.0  0.78357  0.44677  0.46683  1.0000
  H   H348      1.0  0.91261  0.16822  0.38965  1.0000
  C   C436      1.0  0.95558  0.03488  0.40156  1.0000
  S   S58       1.0  0.85039  0.03987  0.62398  1.0000
  C   C437      1.0  0.96708  0.19483  0.40841  1.0000
  H   H349      1.0  0.97806  0.05306  0.41340  1.0000
  C   C438      1.0  0.81326  0.13437  0.36219  1.0000
  C   C439      1.0  0.71868  0.43569  0.34444  1.0000
  C   C440      1.0  0.92992  0.21953  0.32125  1.0000
  H   H350      1.0  0.68557  0.46093  0.63752  1.0000
  C   C441      1.0  0.99753  0.15641  0.44687  1.0000
  C   C442      1.0  0.57081  0.41406  0.42108  1.0000
  C   C443      1.0  0.87586  0.10137  0.47811  1.0000
  C   C444      1.0  0.77636  0.13828  0.40613  1.0000
  C   C445      1.0  0.59844  0.40572  0.36598  1.0000
  C   C446      1.0  0.91304  0.04640  0.40103  1.0000
  C   C447      1.0  0.76424  0.43414  0.45023  1.0000
  C   C448      1.0  0.77169  0.39339  0.44005  1.0000
  C   C449      1.0  0.74630  0.37681  0.41896  1.0000
  C   C450      1.0  0.71303  0.40089  0.40800  1.0000
  C   C451      1.0  0.70622  0.44211  0.41805  1.0000
  P   P16       1.0  0.67942  0.37977  0.38106  1.0000
  C   C452      1.0  0.68134  0.32267  0.38168  1.0000
  H   H351      1.0  0.74822  0.14585  0.41784  1.0000
  C   C453      1.0  0.64988  0.25533  0.39325  1.0000
  C   C454      1.0  0.64897  0.29945  0.39404  1.0000
  C   C455      1.0  0.95478  0.18336  0.32612  1.0000
  C   C456      1.0  0.77711  0.14435  0.37732  1.0000
  H   H352      1.0  0.81765  0.36066  0.33183  1.0000
  C   C457      1.0  0.88241  0.34584  0.32257  1.0000
  H   H353      1.0  0.79692  0.37445  0.44873  1.0000
  H   H354      1.0  0.75247  0.34507  0.41163  1.0000
  H   H355      1.0  0.68087  0.46139  0.40987  1.0000
  H   H356      1.0  0.53567  0.42494  0.35469  1.0000
  H   H357      1.0  0.62414  0.23766  0.40203  1.0000
  H   H358      1.0  0.62236  0.31507  0.40366  1.0000
  H   H359      1.0  0.74969  0.15654  0.36659  1.0000
  H   H360      1.0  0.63252  0.39377  0.43288  1.0000
  C   C458      1.0  0.87022  0.08774  0.50553  1.0000
  C   C459      1.0  0.69682  0.39759  0.34727  1.0000
  H   H361      1.0  0.57774  0.28517  0.35419  1.0000
  H   H362      1.0  0.87510  0.13485  0.47369  1.0000
  P   P17       1.0  0.89422  0.09024  0.42177  1.0000
  H   H363      1.0  0.51736  0.33545  0.35372  1.0000
  C   C460      1.0  0.93457  0.13001  0.42429  1.0000
  C   C461      1.0  0.96590  0.12627  0.44473  1.0000
  H   H364      1.0  0.86881  0.03410  0.53311  1.0000
  H   H365      1.0  0.96191  0.12569  0.64363  1.0000
  H   H366      1.0  0.86482  0.11044  0.52210  1.0000
  C   C462      1.0  0.68975  0.37259  0.32354  1.0000
  H   H367      1.0  0.80707  0.11837  0.63268  1.0000
  C   C463      1.0  0.57049  0.30243  0.33542  1.0000
  C   C464      1.0  0.51419  0.48498  0.51306  1.0000
  H   H368      1.0  0.51132  0.43187  0.40363  1.0000
  H   H369      1.0  0.85125  0.02818  0.38657  1.0000
  C   C465      1.0  0.84833  0.11216  0.40475  1.0000
  C   C466      1.0  0.81179  0.12213  0.41983  1.0000
  H   H370      1.0  0.98704  0.01601  0.53398  1.0000
  C   C467      1.0  0.88452  0.02089  0.38641  1.0000
  C   C468      1.0  0.84868  0.11829  0.37578  1.0000
  H   H371      1.0  0.60808  0.40177  0.34452  1.0000
  C   C469      1.0  0.93552  0.16457  0.40604  1.0000
  H   H372      1.0  0.96668  0.09940  0.45863  1.0000
  H   H373      1.0  0.72442  0.45574  0.36227  1.0000
  C   C470      1.0  0.88337  0.07197  0.45667  1.0000
  C   C471      1.0  0.87237  0.04474  0.51179  1.0000
  H   H374      1.0  0.87643  0.11068  0.36363  1.0000
  C   C472      1.0  0.62627  0.39719  0.38793  1.0000
  C   C473      1.0  0.61204  0.40118  0.41555  1.0000
  C   C474      1.0  0.68304  0.23406  0.38016  1.0000
  H   H375      1.0  0.81028  0.11720  0.44206  1.0000
  H   H376      1.0  0.81381  0.13901  0.33983  1.0000
  H   H377      1.0  0.68276  0.19998  0.37863  1.0000
  C   C475      1.0  0.71568  0.25686  0.36814  1.0000
  H   H378      1.0  0.74002  0.31808  0.35898  1.0000
  C   C476      1.0  0.71494  0.30097  0.36896  1.0000
  H   H379      1.0  0.55969  0.41693  0.44237  1.0000
  H   H380      1.0  0.74077  0.24043  0.35727  1.0000
  H   H381      1.0  0.96824  0.22074  0.39379  1.0000
  C   C477      1.0  0.87987  0.01534  0.49062  1.0000
  C   C478      1.0  0.99813  0.19073  0.42874  1.0000
  H   H382      1.0  0.89209  0.34575  0.34417  1.0000
  H   H383      1.0  0.52159  0.47663  0.53428  1.0000
  C   C479      1.0  0.53615  0.33088  0.33518  1.0000
  H   H384      1.0  0.67235  0.34346  0.32498  1.0000
  H   H385      1.0  0.94161  0.25018  0.32726  1.0000
  H   H386      1.0  0.73285  0.40216  0.65206  1.0000
  H   H387      1.0  0.89233  0.00525  0.44744  1.0000
  C   C480      1.0  0.64948  0.03418  0.94168  1.0000
  Fe  Fe29      1.0  0.77026  0.20645  0.74421  1.0000
  S   S59       1.0  0.75740  0.21177  0.79022  1.0000
  S   S60       1.0  0.80651  0.14544  0.73418  1.0000
  Fe  Fe30      1.0  0.73548  0.29600  0.73368  1.0000
  S   S61       1.0  0.72194  0.30726  0.77917  1.0000
  S   S62       1.0  0.73192  0.34339  0.69750  1.0000
  Fe  Fe31      1.0  0.78488  0.27668  0.78765  1.0000
  S   S63       1.0  0.82918  0.29398  0.82343  1.0000
  Fe  Fe32      1.0  0.69563  0.24104  0.77881  1.0000
  S   S64       1.0  0.63739  0.23077  0.80605  1.0000
  S   S65       1.0  0.80062  0.27015  0.74253  1.0000
  S   S66       1.0  0.70575  0.23118  0.73265  1.0000
  C   C481      1.0  0.96314  0.34877  0.82114  1.0000
  C   C482      1.0  0.94086  0.34190  0.79624  1.0000
  C   C483      1.0  0.90015  0.32464  0.79648  1.0000
  C   C484      1.0  0.88103  0.31439  0.82175  1.0000
  C   C485      1.0  0.90346  0.32098  0.84665  1.0000
  C   C486      1.0  0.94430  0.33798  0.84640  1.0000
  C   C487      1.0  0.93384  0.47856  0.88352  1.0000
  H   H388      1.0  0.88333  0.31979  0.77718  1.0000
  H   H389      1.0  0.88900  0.31313  0.86630  1.0000
  C   C488      1.0  0.93142  0.19469  0.76639  1.0000
  H   H390      1.0  0.88585  0.34400  0.70420  1.0000
  H   H391      1.0  0.55335  0.26990  0.80470  1.0000
  C   C489      1.0  0.54166  0.29407  0.79079  1.0000
  C   C490      1.0  0.54631  0.11934  0.81701  1.0000
  C   C491      1.0  0.57795  0.11747  0.79655  1.0000
  C   C492      1.0  0.60640  0.15100  0.79309  1.0000
  C   C493      1.0  0.60339  0.18691  0.80998  1.0000
  C   C494      1.0  0.57213  0.18852  0.83067  1.0000
  C   C495      1.0  0.54380  0.15498  0.83421  1.0000
  H   H392      1.0  0.58017  0.09017  0.78309  1.0000
  H   H393      1.0  0.63051  0.14932  0.77732  1.0000
  H   H394      1.0  0.56976  0.21593  0.84406  1.0000
  C   C496      1.0  0.60389  0.01692  0.72699  1.0000
  H   H395      1.0  0.63094  0.10252  0.73800  1.0000
  H   H396      1.0  0.84617  0.20365  0.80879  1.0000
  H   H397      1.0  0.86719  0.21523  0.76019  1.0000
  C   C497      1.0  0.67942  0.08385  0.70866  1.0000
  C   C498      1.0  0.81795  0.11653  0.70326  1.0000
  H   H398      1.0  0.83106  0.31180  0.67445  1.0000
  C   C499      1.0  0.58466  0.09635  0.93233  1.0000
  C   C500      1.0  0.81634  0.10694  0.65298  1.0000
  C   C501      1.0  0.85518  0.43087  0.88250  1.0000
  C   C502      1.0  0.53398  0.28771  0.88341  1.0000
  C   C503      1.0  0.89005  0.20305  0.77475  1.0000
  C   C504      1.0  0.69684  0.38555  0.68833  1.0000
  P   P18       1.0  0.89385  0.45499  0.90496  1.0000
  C   C505      1.0  0.66099  0.39564  0.70394  1.0000
  C   C506      1.0  0.56998  0.31418  0.77313  1.0000
  H   H399      1.0  0.60299  0.30538  0.77361  1.0000
  H   H400      1.0  0.50235  0.38019  0.73976  1.0000
  H   H401      1.0  0.61716  0.17138  0.71624  1.0000
  H   H402      1.0  0.60643  0.43630  0.70774  1.0000
  P   P19       1.0  0.68969  0.03342  0.72502  1.0000
  H   H403      1.0  0.71696  0.10658  0.75853  1.0000
  C   C507      1.0  0.99722  0.23575  0.73478  1.0000
  H   H404      1.0  0.99456  0.25347  0.83174  1.0000
  C   C508      1.0  0.76682  0.08406  0.78453  1.0000
  H   H405      1.0  0.84954  0.06675  0.72564  1.0000
  C   C509      1.0  0.58121  0.15628  0.96409  1.0000
  C   C510      1.0  0.70232  0.09669  0.68523  1.0000
  C   C511      1.0  0.83754  0.39174  0.88925  1.0000
  H   H406      1.0  0.70001  0.12801  0.82216  1.0000
  H   H407      1.0  0.53667  0.00959  0.72897  1.0000
  C   C512      1.0  0.55581  0.34522  0.75477  1.0000
  C   C513      1.0  0.94538  0.45956  0.85815  1.0000
  C   C514      1.0  0.95996  0.17754  0.78566  1.0000
  C   C515      1.0  0.69418  0.13583  0.67293  1.0000
  H   H408      1.0  0.70097  0.05036  0.82914  1.0000
  C   C516      1.0  0.64858  0.11114  0.71969  1.0000
  H   H409      1.0  0.57783  0.36054  0.74094  1.0000
  C   C517      1.0  0.85392  0.29189  0.68497  1.0000
  C   C518      1.0  0.66541  0.05326  0.86736  1.0000
  C   C519      1.0  0.94765  0.17037  0.81316  1.0000
  C   C520      1.0  0.95151  0.11873  0.72393  1.0000
  H   H410      1.0  0.89712  0.17532  0.84292  1.0000
  H   H411      1.0  0.93629  0.29911  0.72954  1.0000
  C   C521      1.0  0.73009  0.04018  0.75102  1.0000
  H   H412      1.0  0.79636  0.34182  0.87593  1.0000
  H   H413      1.0  0.96993  0.15775  0.82805  1.0000
  C   C522      1.0  0.87788  0.19602  0.80228  1.0000
  H   H414      1.0  0.97947  0.26587  0.77377  1.0000
  C   C523      1.0  0.84014  0.07806  0.70535  1.0000
  H   H415      1.0  0.87567  0.18829  0.69624  1.0000
  C   C524      1.0  0.84333  0.45069  0.85754  1.0000
  C   C525      1.0  0.90668  0.18005  0.82154  1.0000
  C   C526      1.0  0.79762  0.39239  0.84631  1.0000
  P   P20       1.0  0.94876  0.20661  0.73154  1.0000
  C   C527      1.0  0.67850  0.44300  0.65602  1.0000
  H   H416      1.0  0.59895  0.02778  0.97164  1.0000
  H   H417      1.0  0.65402  0.37768  0.72242  1.0000
  C   C528      1.0  0.64484  0.07948  0.88679  1.0000
  H   H418      1.0  0.51978  0.15686  0.85005  1.0000
  C   C529      1.0  0.85027  0.05405  0.68141  1.0000
  C   C530      1.0  0.66498  0.14062  0.85953  1.0000
  H   H419      1.0  0.53381  0.24813  0.91979  1.0000
  C   C531      1.0  0.68555  0.07067  0.84423  1.0000
  C   C532      1.0  0.91703  0.41611  0.92781  1.0000
  C   C533      1.0  0.63406  0.42898  0.69554  1.0000
  C   C534      1.0  0.80882  0.37272  0.87122  1.0000
  C   C535      1.0  0.95380  0.35848  0.96492  1.0000
  C   C536      1.0  0.81478  0.43141  0.83950  1.0000
  C   C537      1.0  0.56441  0.02137  0.87427  1.0000
  H   H420      1.0  0.94655  0.11578  0.74607  1.0000
  C   C538      1.0  0.95706  0.39917  0.92237  1.0000
  C   C539      1.0  0.95273  0.08192  0.70773  1.0000
  C   C540      1.0  0.91099  0.24015  0.71397  1.0000
  P   P21       1.0  0.61568  0.05612  0.91513  1.0000
  H   H421      1.0  0.97472  0.40853  0.90420  1.0000
  H   H422      1.0  0.56718  0.05139  0.86373  1.0000
  H   H423      1.0  0.86434  0.41586  0.95632  1.0000
  H   H424      1.0  0.96096  0.34309  0.86572  1.0000
  H   H425      1.0  0.95506  0.35029  0.77660  1.0000
  C   C541      1.0  0.64461  0.12337  0.88256  1.0000
  H   H426      1.0  0.62800  0.14452  0.89647  1.0000
  C   C542      1.0  0.68522  0.11434  0.84030  1.0000
  H   H427      1.0  0.82642  0.23391  0.67053  1.0000
  H   H428      1.0  0.52475  0.07681  0.91533  1.0000
  H   H429      1.0  0.96853  0.33705  0.97954  1.0000
  H   H430      1.0  0.66519  0.01930  0.86986  1.0000
  H   H431      1.0  0.66417  0.17446  0.85612  1.0000
  H   H432      1.0  0.77655  0.37668  0.83194  1.0000
  H   H433      1.0  0.98459  0.46301  0.82176  1.0000
  S   S67       1.0  0.60693  0.49441  0.66189  1.0000
  C   C543      1.0  0.97521  0.37037  0.94088  1.0000
  H   H434      1.0  0.80655  0.44620  0.81993  1.0000
  C   C544      1.0  0.64053  0.15025  0.70734  1.0000
  H   H435      1.0  0.78924  0.16044  0.67497  1.0000
  C   C545      1.0  0.91313  0.28431  0.71633  1.0000
  C   C546      1.0  0.73567  0.07930  0.76427  1.0000
  C   C547      1.0  0.51787  0.13037  0.94247  1.0000
  C   C548      1.0  0.80614  0.13088  0.67691  1.0000
  H   H436      1.0  0.99178  0.17004  0.77942  1.0000
  C   C549      1.0  0.78666  0.01068  0.77903  1.0000
  C   C550      1.0  0.86893  0.49574  0.92584  1.0000
  H   H437      1.0  0.51950  0.18241  0.97133  1.0000
  H   H438      1.0  0.95617  0.05597  0.66623  1.0000
  C   C551      1.0  0.85119  0.24799  0.68283  1.0000
  C   C552      1.0  0.95478  0.15853  0.71131  1.0000
  H   H439      1.0  0.77218  0.11483  0.79375  1.0000
  C   C553      1.0  0.51980  0.25422  0.89964  1.0000
  C   C554      1.0  0.64254  0.45294  0.67152  1.0000
  H   H440      1.0  0.91259  0.48962  0.96022  1.0000
  C   C555      1.0  0.89530  0.40328  0.95174  1.0000
  C   C556      1.0  0.87924  0.22221  0.69751  1.0000
  H   H441      1.0  0.72684  0.07707  0.67643  1.0000
  C   C557      1.0  0.95673  0.08448  0.67885  1.0000
  C   C558      1.0  0.97570  0.47809  0.84123  1.0000
  C   C559      1.0  0.88469  0.31000  0.70187  1.0000
  C   C560      1.0  0.51628  0.29519  0.85723  1.0000
  C   C561      1.0  0.53782  0.15884  0.96024  1.0000
  C   C562      1.0  0.54107  0.09909  0.92854  1.0000
  C   C563      1.0  0.60455  0.12513  0.95024  1.0000
  H   H442      1.0  0.85670  0.48072  0.85175  1.0000
  H   H443      1.0  0.63816  0.12335  0.95356  1.0000
  H   H444      1.0  0.86735  0.02457  0.68335  1.0000
  H   H445      1.0  0.55903  0.30765  0.89098  1.0000
  C   C564      1.0  0.69243  0.02713  0.93687  1.0000
  S   S68       1.0  0.51027  0.07691  0.81995  1.0000
  C   C565      1.0  0.70531  0.40955  0.66435  1.0000
  H   H446      1.0  0.81728  0.05412  0.80695  1.0000
  H   H447      1.0  0.94908  0.05135  0.71743  1.0000
  C   C566      1.0  0.91375  0.37476  0.97029  1.0000
  C   C567      1.0  0.64175  0.01712  0.74200  1.0000
  C   C568      1.0  0.79247  0.04991  0.79179  1.0000
  H   H448      1.0  0.93112  0.43031  0.85136  1.0000
  C   C569      1.0  0.51326  0.35623  0.75414  1.0000
  H   H449      1.0  0.84645  0.37524  0.90800  1.0000
  H   H450      1.0  0.77031  0.02277  0.69693  1.0000
  H   H451      1.0  0.65755  0.19321  0.67465  1.0000
  C   C570      1.0  0.66328  0.16257  0.68393  1.0000
  H   H452      1.0  0.52752  0.32147  0.84508  1.0000
  C   C571      1.0  0.95997  0.12385  0.66611  1.0000
  H   H453      1.0  0.71235  0.14565  0.65506  1.0000
  H   H454      1.0  0.70669  0.03574  0.91731  1.0000
  H   H455      1.0  0.51313  0.21504  0.78141  1.0000
  C   C572      1.0  0.56592  0.00871  0.74049  1.0000
  H   H456      1.0  0.60359  0.02450  0.70501  1.0000
  C   C573      1.0  0.83841  0.06838  0.65503  1.0000
  C   C574      1.0  0.95906  0.16072  0.68223  1.0000
  H   H457      1.0  0.96006  0.19099  0.67187  1.0000
  C   C575      1.0  0.64101  0.00850  0.77069  1.0000
  H   H458      1.0  0.66942  0.00918  0.78298  1.0000
  C   C576      1.0  0.63213  0.02291  0.96749  1.0000
  C   C577      1.0  0.58379  0.01488  0.90014  1.0000
  H   H459      1.0  0.59672  0.17808  0.97807  1.0000
  C   C578      1.0  0.71752  0.00878  0.95756  1.0000
  C   C579      1.0  0.75546  0.00573  0.75881  1.0000
  Fe  Fe33      1.0  0.96619  0.58384  0.13148  1.0000
  S   S69       1.0  0.93978  0.62345  0.09669  1.0000
  H   H460      1.0  0.81216  0.82467  0.16581  1.0000
  H   H461      1.0  0.54923  0.78224  0.03867  1.0000
  S   S70       1.0  0.86702  0.55049  0.08915  1.0000
  Fe  Fe34      1.0  0.93287  0.56154  0.07314  1.0000
  S   S71       1.0  0.94915  0.55756  0.02638  1.0000
  Fe  Fe35      1.0  0.87589  0.60985  0.11495  1.0000
  S   S72       1.0  0.82459  0.65839  0.12808  1.0000
  S   S73       1.0  0.96355  0.52335  0.10679  1.0000
  S   S74       1.0  0.90317  0.57316  0.15127  1.0000
  Fe  Fe36      1.0  0.56696  0.86299  0.12199  1.0000
  S   S75       1.0  0.59401  0.84910  0.07960  1.0000
  Fe  Fe37      1.0  0.62656  0.93738  0.13051  1.0000
  S   S76       1.0  0.65668  0.92834  0.08840  1.0000
  C   C580      1.0  0.59493  0.66206  0.24953  1.0000
  Fe  Fe38      1.0  0.59032  0.91944  0.07236  1.0000
  S   S77       1.0  0.56907  0.93867  0.02790  1.0000
  Fe  Fe39      1.0  0.65804  0.85849  0.09844  1.0000
  S   S78       1.0  0.71576  0.81811  0.08501  1.0000
  S   S79       1.0  0.56003  0.93272  0.11424  1.0000
  S   S80       1.0  0.63126  0.86809  0.14129  1.0000
  C   C581      1.0  0.79473  0.70271  0.11543  1.0000
  C   C582      1.0  0.80180  0.72104  0.08938  1.0000
  C   C583      1.0  0.77728  0.75601  0.08052  1.0000
  C   C584      1.0  0.74510  0.77324  0.09737  1.0000
  C   C585      1.0  0.73822  0.75508  0.12349  1.0000
  C   C586      1.0  0.76291  0.72028  0.13242  1.0000
  H   H462      1.0  0.82611  0.70826  0.07603  1.0000
  H   H463      1.0  0.78321  0.76976  0.06036  1.0000
  H   H464      1.0  0.71392  0.76789  0.13685  1.0000
  H   H465      1.0  0.75708  0.70663  0.15263  1.0000
  H   H466      1.0  0.53165  0.70462  0.28782  1.0000
  H   H467      1.0  0.59060  0.79096  0.19682  1.0000
  H   H468      1.0  0.89198  0.72314  0.14826  1.0000
  C   C587      1.0  0.60972  0.64844  0.27541  1.0000
  C   C588      1.0  0.59996  0.60803  0.28503  1.0000
  H   H469      1.0  0.57489  0.81171  0.24565  1.0000
  C   C589      1.0  0.50722  0.68532  0.29654  1.0000
  C   C590      1.0  0.50901  0.72499  0.20929  1.0000
  H   H470      1.0  0.51607  0.77852  0.27079  1.0000
  H   H471      1.0  0.93849  0.91955  0.27388  1.0000
  H   H472      1.0  0.53474  0.86641  0.20148  1.0000
  C   C591      1.0  0.98455  0.72446  0.18417  1.0000
  S   S81       1.0  0.51942  0.81684  0.14050  1.0000
  H   H473      1.0  0.54220  0.57418  0.22960  1.0000
  H   H474      1.0  0.59603  0.91462  0.20129  1.0000
  C   C592      1.0  0.53015  0.90006  0.20451  1.0000
  C   C593      1.0  0.96323  0.88965  0.31101  1.0000
  H   H475      1.0  0.88309  0.65880  0.17555  1.0000
  H   H476      1.0  0.98857  0.65023  0.00194  1.0000
  P   P22       1.0  0.56283  0.52829  0.28044  1.0000
  C   C594      1.0  0.57043  0.63525  0.23320  1.0000
  C   C595      1.0  0.52370  0.76798  0.24991  1.0000
  H   H477      1.0  0.93844  0.86265  0.17776  1.0000
  C   C596      1.0  0.55685  0.78702  0.23571  1.0000
  C   C597      1.0  0.54201  0.74428  0.19513  1.0000
  H   H478      1.0  0.88363  0.80030  0.17837  1.0000
  C   C598      1.0  0.99092  0.82306  0.16507  1.0000
  H   H479      1.0  0.61193  0.59807  0.30505  1.0000
  C   C599      1.0  0.53326  0.97171  0.00887  1.0000
  C   C600      1.0  0.98737  0.77119  0.11390  1.0000
  Fe  Fe40      1.0  0.89839  0.51534  0.12445  1.0000
  H   H480      1.0  0.85055  0.84045  0.08107  1.0000
  H   H481      1.0  0.79565  0.84480  0.11730  1.0000
  C   C601      1.0  0.97948  0.51903  0.00765  1.0000
  H   H482      1.0  0.93967  0.63390  0.20711  1.0000
  H   H483      1.0  0.92214  0.81635  0.09288  1.0000
  C   C602      1.0  0.97950  0.68716  0.19921  1.0000
  C   C603      1.0  0.57525  0.58096  0.26876  1.0000
  H   H484      1.0  0.86458  0.90396  0.28468  1.0000
  S   S82       1.0  0.64907  0.97938  0.16639  1.0000
  C   C604      1.0  0.56454  0.92712  0.20433  1.0000
  C   C605      1.0  0.93115  0.90257  0.29277  1.0000
  H   H485      1.0  0.63694  0.51071  0.31483  1.0000
  C   C606      1.0  0.55841  0.97069  0.20694  1.0000
  P   P23       1.0  0.95979  0.78571  0.14542  1.0000
  C   C607      1.0  0.95291  0.73851  0.16596  1.0000
  H   H486      1.0  0.97122  0.98178  0.31173  1.0000
  C   C608      1.0  0.97199  0.85750  0.17880  1.0000
  C   C609      1.0  0.98093  0.73150  0.10169  1.0000
  C   C610      1.0  0.56588  0.77528  0.20827  1.0000
  C   C611      1.0  0.56067  0.59485  0.24272  1.0000
  H   H487      1.0  0.98175  0.91260  0.20447  1.0000
  H   H488      1.0  0.62908  0.66912  0.28794  1.0000
  H   H489      1.0  0.97980  0.84303  0.26276  1.0000
  C   C612      1.0  0.94297  0.66353  0.19617  1.0000
  C   C613      1.0  0.91131  0.67731  0.17822  1.0000
  C   C614      1.0  0.91639  0.71427  0.16289  1.0000
  C   C615      1.0  0.90860  0.80709  0.13670  1.0000
  C   C616      1.0  0.89890  0.81868  0.10922  1.0000
  C   C617      1.0  0.85836  0.83247  0.10237  1.0000
  C   C618      1.0  0.82729  0.83491  0.12282  1.0000
  C   C619      1.0  0.83667  0.82361  0.15020  1.0000
  C   C620      1.0  0.87716  0.80985  0.15717  1.0000
  H   H490      1.0  0.54813  0.73649  0.17347  1.0000
  H   H491      1.0  0.55952  0.64557  0.21295  1.0000
  C   C621      1.0  0.51673  0.83839  0.02523  1.0000
  H   H492      1.0  0.96018  0.70904  0.11134  1.0000
  H   H493      1.0  0.60276  0.69324  0.24198  1.0000
  H   H494      1.0  0.00030  0.52345  0.22417  1.0000
  H   H495      1.0  0.58543  0.99123  0.20630  1.0000
  C   C622      1.0  0.99649  0.88603  0.19397  1.0000
  H   H496      1.0  0.91390  0.64313  0.99086  1.0000
  H   H497      1.0  0.62148  0.53380  0.23255  1.0000
  H   H498      1.0  0.54024  0.84648  0.00988  1.0000
  C   C623      1.0  0.50849  0.51817  0.27200  1.0000
  C   C624      1.0  0.99280  0.98584  0.29457  1.0000
  C   C625      1.0  0.52187  0.80234  0.04153  1.0000
  C   C626      1.0  0.51776  0.98779  0.20898  1.0000
  C   C627      1.0  0.88919  0.89368  0.29877  1.0000
  H   H499      1.0  0.99669  0.68938  0.06787  1.0000
  H   H500      1.0  0.87861  0.54419  0.98909  1.0000
  C   C628      1.0  0.00145  0.72037  0.07695  1.0000
  H   H501      1.0  0.71912  0.98253  0.99897  1.0000
  H   H502      1.0  0.64322  0.99468  0.00757  1.0000
  C   C629      1.0  0.57034  0.52460  0.31766  1.0000
  C   C630      1.0  0.65715  0.00419  0.98796  1.0000
  Fe  Fe41      1.0  0.58283  0.57016  0.56705  1.0000
  S   S83       1.0  0.54400  0.55815  0.60553  1.0000
  H   H503      1.0  0.95235  0.94660  0.36123  1.0000
  Fe  Fe42      1.0  0.64932  0.62245  0.60052  1.0000
  S   S84       1.0  0.61393  0.61256  0.64051  1.0000
  S   S85       1.0  0.71374  0.65666  0.60048  1.0000
  Fe  Fe43      1.0  0.60602  0.54474  0.62719  1.0000
  Fe  Fe44      1.0  0.55494  0.62613  0.61640  1.0000
  S   S86       1.0  0.64457  0.55320  0.58811  1.0000
  S   S87       1.0  0.59070  0.63961  0.57693  1.0000
  Fe  Fe45      1.0  0.85672  0.88133  0.60279  1.0000
  C   C631      1.0  0.99877  0.63256  0.62607  1.0000
  S   S88       1.0  0.79430  0.84343  0.60381  1.0000
  Fe  Fe46      1.0  0.92601  0.92779  0.56803  1.0000
  S   S89       1.0  0.94894  0.96476  0.60525  1.0000
  S   S90       1.0  0.95031  0.93200  0.52256  1.0000
  Fe  Fe47      1.0  0.94306  0.90332  0.62873  1.0000
  C   C632      1.0  0.59321  0.78986  0.58785  1.0000
  Fe  Fe48      1.0  0.88050  0.97484  0.61585  1.0000
  S   S91       1.0  0.56452  0.55645  0.52110  1.0000
  S   S92       1.0  0.92382  0.86497  0.59106  1.0000
  S   S93       1.0  0.85777  0.94121  0.57728  1.0000
  H   H504      1.0  0.51651  0.53291  0.37891  1.0000
  H   H505      1.0  0.61723  0.85275  0.59292  1.0000
  H   H506      1.0  0.53013  0.64603  0.51155  1.0000
  H   H507      1.0  0.97660  0.85624  0.34938  1.0000
  C   C633      1.0  0.73546  0.70900  0.60040  1.0000
  C   C634      1.0  0.71057  0.74556  0.59879  1.0000
  C   C635      1.0  0.72921  0.78605  0.59941  1.0000
  C   C636      1.0  0.77309  0.79099  0.60157  1.0000
  C   C637      1.0  0.79806  0.75443  0.60269  1.0000
  C   C638      1.0  0.77938  0.71393  0.60225  1.0000
  H   H508      1.0  0.67694  0.74262  0.59700  1.0000
  C   C639      1.0  0.97946  0.96898  0.50205  1.0000
  H   H509      1.0  0.83180  0.75729  0.60393  1.0000
  H   H510      1.0  0.79921  0.68612  0.60328  1.0000
  H   H511      1.0  0.70939  0.81383  0.59822  1.0000
  C   C640      1.0  0.98329  0.56280  0.64364  1.0000
  C   C641      1.0  0.95266  0.86694  0.33503  1.0000
  H   H512      1.0  0.58479  0.79426  0.56620  1.0000
  S   S94       1.0  0.50872  0.67593  0.63313  1.0000
  H   H513      1.0  0.50508  0.53661  0.32830  1.0000
  H   H514      1.0  0.59073  0.71506  0.63823  1.0000
  C   C642      1.0  0.61147  0.82277  0.60291  1.0000
  H   H515      1.0  0.98159  0.74213  0.60577  1.0000
  C   C643      1.0  0.51641  0.66079  0.31997  1.0000
  C   C644      1.0  0.54281  0.52865  0.36481  1.0000
  H   H516      1.0  0.90269  0.84089  0.35967  1.0000
  C   C645      1.0  0.52180  0.53115  0.47366  1.0000
  C   C646      1.0  0.61572  0.77788  0.64376  1.0000
  H   H517      1.0  0.87663  0.96584  0.36047  1.0000
  C   C647      1.0  0.53102  0.52176  0.50171  1.0000
  H   H518      1.0  0.88238  0.98206  0.49567  1.0000
  H   H519      1.0  0.57031  0.72615  0.58947  1.0000
  H   H520      1.0  0.52963  0.70607  0.54486  1.0000
  C   C648      1.0  0.91065  0.85814  0.34098  1.0000
  C   C649      1.0  0.94127  0.97440  0.37216  1.0000
  C   C650      1.0  0.58551  0.75132  0.60080  1.0000
  S   S95       1.0  0.87576  0.91634  0.64177  1.0000
  C   C651      1.0  0.59701  0.74518  0.62857  1.0000
  C   C652      1.0  0.61653  0.51362  0.35736  1.0000
  C   C653      1.0  0.61042  0.51588  0.32857  1.0000
  C   C654      1.0  0.89872  0.98529  0.37177  1.0000
  H   H521      1.0  0.74936  0.91766  0.64235  1.0000
  C   C655      1.0  0.50457  0.64973  0.52627  1.0000
  C   C656      1.0  0.53650  0.53072  0.33602  1.0000
  H   H522      1.0  0.97756  0.52958  0.63993  1.0000
  C   C657      1.0  0.87893  0.87157  0.32290  1.0000
  H   H523      1.0  0.63482  0.84334  0.64249  1.0000
  H   H524      1.0  0.53462  0.55940  0.46452  1.0000
  C   C658      1.0  0.99160  0.58963  0.62132  1.0000
  C   C659      1.0  0.62195  0.81710  0.63093  1.0000
  H   H525      1.0  0.84639  0.86470  0.32754  1.0000
  H   H526      1.0  0.54745  0.66165  0.32916  1.0000
  C   C660      1.0  0.58276  0.52013  0.37548  1.0000
  H   H527      1.0  0.97796  0.92923  0.46558  1.0000
  C   C661      1.0  0.96954  0.99908  0.38713  1.0000
  H   H528      1.0  0.58727  0.51775  0.39781  1.0000
  C   C662      1.0  0.98860  0.95896  0.47405  1.0000
  H   H529      1.0  0.64735  0.50640  0.36565  1.0000
  H   H530      1.0  0.99221  0.57724  0.60028  1.0000
  C   C663      1.0  0.50443  0.68336  0.54514  1.0000
  C   C664      1.0  0.73797  0.93904  0.65845  1.0000
  H   H531      1.0  0.70545  0.85915  0.74742  1.0000
  C   C665      1.0  0.98904  0.62183  0.67557  1.0000
  C   C666      1.0  0.88521  0.50592  0.95218  1.0000
  C   C667      1.0  0.57529  0.78344  0.69652  1.0000
  H   H532      1.0  0.50840  0.59563  0.78720  1.0000
  H   H533      1.0  0.56658  0.56974  0.68455  1.0000
  H   H534      1.0  0.54831  0.72262  0.68635  1.0000
  H   H535      1.0  0.94431  0.61548  0.90559  1.0000
  C   C668      1.0  0.83044  0.55831  0.95894  1.0000
  H   H536      1.0  0.84512  0.78736  0.65552  1.0000
  H   H537      1.0  0.89120  0.62625  0.94270  1.0000
  C   C669      1.0  0.54066  0.57764  0.69825  1.0000
  C   C670      1.0  0.67368  0.63689  0.69886  1.0000
  C   C671      1.0  0.95119  0.77446  0.65801  1.0000
  H   H538      1.0  0.54490  0.93885  0.97026  1.0000
  C   C672      1.0  0.52365  0.61838  0.69833  1.0000
  C   C673      1.0  0.69985  0.99716  0.98303  1.0000
  C   C674      1.0  0.53638  0.95053  0.87524  1.0000
  H   H539      1.0  0.60529  0.70996  0.72453  1.0000
  H   H540      1.0  0.67705  0.91057  0.66086  1.0000
  C   C675      1.0  0.73774  0.85256  0.70825  1.0000
  C   C676      1.0  0.68233  0.96326  0.68927  1.0000
  C   C677      1.0  0.67396  0.69983  0.67045  1.0000
  C   C678      1.0  0.95490  0.51494  0.89246  1.0000
  C   C679      1.0  0.86599  0.53695  0.96865  1.0000
  C   C680      1.0  0.56635  0.82406  0.70685  1.0000
  H   H541      1.0  0.58950  0.84879  0.70577  1.0000
  H   H542      1.0  0.65066  0.95972  0.69686  1.0000
  H   H543      1.0  0.51739  0.92608  0.86583  1.0000
  H   H544      1.0  0.75144  0.97514  0.74908  1.0000
  C   C681      1.0  0.64308  0.65518  0.71603  1.0000
  C   C682      1.0  0.54317  0.75325  0.69596  1.0000
  C   C683      1.0  0.52669  0.83350  0.71790  1.0000
  P   P24       1.0  0.62532  0.77149  0.68046  1.0000
  C   C684      1.0  0.52385  0.54675  0.71548  1.0000
  H   H545      1.0  0.81541  0.58209  0.97191  1.0000
  H   H546      1.0  0.91076  0.82892  0.65505  1.0000
  H   H547      1.0  0.59394  0.96935  0.93320  1.0000
  H   H548      1.0  0.55158  0.91394  0.91159  1.0000
  H   H549      1.0  0.68481  0.60503  0.70275  1.0000
  C   C685      1.0  0.87738  0.72746  0.65918  1.0000
  C   C686      1.0  0.55554  0.94377  0.90099  1.0000
  H   H550      1.0  0.76430  0.87153  0.71456  1.0000
  H   H551      1.0  0.64542  0.81505  0.73320  1.0000
  C   C687      1.0  0.52792  0.96454  0.98010  1.0000
  C   C688      1.0  0.66860  0.80421  0.69140  1.0000
  C   C689      1.0  0.64299  0.71831  0.68741  1.0000
  C   C690      1.0  0.81427  0.54883  0.93262  1.0000
  C   C691      1.0  0.70285  0.81004  0.67345  1.0000
  C   C692      1.0  0.62819  0.69600  0.71060  1.0000
  C   C693      1.0  0.67022  0.82121  0.71840  1.0000
  C   C694      1.0  0.98547  0.52402  0.97876  1.0000
  C   C695      1.0  0.69717  0.93523  0.66883  1.0000
  C   C696      1.0  0.70445  0.84579  0.72665  1.0000
  C   C697      1.0  0.83342  0.51770  0.91608  1.0000
  H   H552      1.0  0.63085  0.63758  0.73347  1.0000
  H   H553      1.0  0.76314  0.83889  0.66750  1.0000
  C   C698      1.0  0.68942  0.65942  0.67627  1.0000
  C   C699      1.0  0.57939  0.97565  0.91334  1.0000
  S   S96       1.0  0.98569  0.88273  0.66495  1.0000
  H   H554      1.0  0.97049  0.55017  0.96828  1.0000
  C   C700      1.0  0.92429  0.62916  0.94745  1.0000
  H   H555      1.0  0.53644  0.64196  0.68454  1.0000
  H   H556      1.0  0.70337  0.79546  0.65307  1.0000
  C   C701      1.0  0.73708  0.83434  0.68174  1.0000
  H   H557      1.0  0.99779  0.76707  0.70543  1.0000
  H   H558      1.0  0.82020  0.51078  0.89588  1.0000
  C   C702      1.0  0.76417  0.97058  0.66876  1.0000
  H   H559      1.0  0.51982  0.86488  0.72580  1.0000
  H   H560      1.0  0.94800  0.52902  0.91252  1.0000
  C   C703      1.0  0.99550  0.51513  0.84979  1.0000
  H   H561      1.0  0.98725  0.63400  0.69665  1.0000
  H   H562      1.0  0.53695  0.51505  0.71490  1.0000
  H   H563      1.0  0.84868  0.70930  0.65907  1.0000
  H   H564      1.0  0.78663  0.56536  0.92511  1.0000
  C   C704      1.0  0.91220  0.79486  0.65675  1.0000
  H   H565      1.0  0.52591  0.99456  0.84194  1.0000
  H   H566      1.0  0.79569  0.97395  0.66048  1.0000
  H   H567      1.0  0.60224  0.99535  0.80642  1.0000
  H   H568      1.0  0.52381  0.56377  0.83282  1.0000
  H   H569      1.0  0.80678  0.98427  0.78449  1.0000
  C   C705      1.0  0.98557  0.53318  0.87558  1.0000
  C   C706      1.0  0.87529  0.77143  0.65719  1.0000
  C   C707      1.0  0.95426  0.62286  0.92660  1.0000
  C   C708      1.0  0.74958  0.99838  0.68931  1.0000
  C   C709      1.0  0.60294  0.00048  0.78413  1.0000
  C   C710      1.0  0.70834  0.99546  0.69946  1.0000
  H   H570      1.0  0.97521  0.55821  0.68805  1.0000
  H   H571      1.0  0.71271  0.64510  0.66264  1.0000
  C   C711      1.0  0.93704  0.63901  0.97450  1.0000
  C   C712      1.0  0.91642  0.70694  0.66070  1.0000
  C   C713      1.0  0.95372  0.73039  0.66004  1.0000
  H   H572      1.0  0.97951  0.79303  0.65694  1.0000
  H   H573      1.0  0.53579  0.99604  0.77974  1.0000
  H   H574      1.0  0.91719  0.67289  0.66187  1.0000
  C   C714      1.0  0.98197  0.57891  0.67075  1.0000
  C   C715      1.0  0.99704  0.62576  0.93289  1.0000
  C   C716      1.0  0.54115  0.98917  0.86179  1.0000
  C   C717      1.0  0.56541  0.00080  0.76908  1.0000
  C   C718      1.0  0.97974  0.64249  0.98079  1.0000
  C   C719      1.0  0.99803  0.64886  0.65329  1.0000
  H   H575      1.0  0.75065  0.00334  0.95383  1.0000
  C   C720      1.0  0.50361  0.76276  0.70706  1.0000
  H   H576      1.0  0.68609  0.71641  0.65256  1.0000
