data_image0
_chemical_formula_structural       FeS2FeS2FeSFeHS2FeS2FeS2FeSFeS3HFeS2CSCH3C7H4C6H4C5HFeC6H5C4HC11PC15H2CH17CPHC6PC15HC2H18FeHC2HC8HCHC5PC6HC3PH10CHCHC4HC2H7C2H3C5PCH4C9HCH4CH9SHCHC3H2PC3HC7H2C3HCHSH2C3HCHCHCHC3SCH2C2H7C4H2C3H2CH2SCH2C2H2CSCH2C4HCH2CHCSH4C2HCHC2HC4PHCSHC2FeCHC2HC2HC3H2C2FeCFeS2FeSHFeSFeS3HCHCH2CSC2SC2FeSC5H3C9H4C3H2SHC3HPHC3HCH3CHC2H2CPCH2FeH2C6HCH4SCHC2H2CHCH7CH7CHCH2CHC2H2C2HCHC2H2C3H5CH6CH3C6PC4HC13H3CH3C13H2C3HC2FeSHFeSHFeSFeS4FeSFeS2FeS2FeSFeS3FeS2CFeC8H4C8H4C6H4C3HC2H3CH3C2HC3HC6PC18H13CH6CHC6PC16H5C2H4CH5CHCHCHCHC4H4C3HCHC3H2CHSC3H4PHC7HC3H2CHC7H2CH5CH2SCH2CH2PHCHCH4C9PHCH5CHCHCHC2HCH2C2H3C2HC2SCHS2HCH2CH3C3HC4H2C2PH2C2HSCHCFeC3SH4C3HCHC2HCHSC2H2SFeHCH5SH5CHCHC3HC2HC2HCHCHFeSCFeS2FeSFeS3FeHS3H2CSFeSHC2H3C3H2C3HCH2C6H4CHCH2C3HSC3SC2H2CHC2H2C4HCH3C3PC2HCH3C3H3CHC4H3CHFeC2HC12H2C2H2CH4C3H3C2H4C7HPHCHCHCHCH2CH2C3H5CHCH4C3HCPHSFeS2FeS2FeSFeS3FeS2FeS2FeSFeS3FeS2FeSFeS3CHC2H2CH3C3HC9H6C7H4C2HC2HC6H4C3HC2H2C10H2CHC3HCHC2H3FeH2CHC3H3C2PC2HC5H2CH3C2H2C2HCHCH2CH5CHCHCPH2CHSCHCH2CHC3HCHCHC2H2CH3C8PC15HC2H8CH7CHCHCHCHC4H2C2H2C3HC2H2C6H3C7H4CHC5HCHCHPCH7PC4HCHCHCPH2CH3C2HC2HCHC3HCHCH2C4H3C2HC2SH7C5H3CFeS2FeS2FeSFeS3HCS2CFeS2FeS2FeSFeS3C2HC3HC7HCH3CHC6H2CHCHCHSHCHCH3C3HC7H6C7H3C2HC3HPC3HCSHC12H3CH3CH12C6HCSH3CHC7PC18H24C4H2C2HC5H2C3FeC2HSH3CHCPH2CH2PC3HCHCH3CH3CH2CSH2CH2C4HCHCHC4HC2PCH2C4H4CPC3H3CH2CFeC2FeCH4CH2FeC4HC2HSHC6H2C3HC2HC2H2C4H3SCFeS2FeS2FeSFeS3FeS2FeS2FeSFeS3FeS3H5C2HC4HC13H6C3H2C6H4C5H2CHC7H5C2H2C5PC18H17CH2C3PC8H2CHC6H2CH9CH7FeHC5HC6HC3PC14H3PCHPH4C2H7CSCH3CH3C7HCH2C2H9C6H2C3HC5PHCPC3FeC2SH3CHC2HCH4SH2CH5CHC4H3C2HCH2CHCHCHFeCHC3H2C2HC2H4C2HFeS2FeS2FeSFeS3HS2HFeS2FeS2FeSFeS3CH2CH2CH3C2HCH2C7H5CHCHC2HCHCH3C4HC6H4C6H4CHC4HCHC8PC2H4C12H5C5H7CHCHC4H2CHCHC2HC3HCSCHC4H5C3H4C2PH2CHCPCHC11HCH3C2H6C2HC6PC7H2C9H7CHC3H2C3H2C2H4CH2C4HCH2CH2C4H2CH2C2H2CH3C2HC2HPCH2C2H2CHCH3C2H2C4H2CHC2HCHC4SH5C2P2CH2CHC6H6FeCH2C4S2C2H3CHFeC4HCHCHC2HC3FeS2C2FeSFeSH2SHFeS2FeS2FeSFeCS2C4H2C3HC2HC6H4C2H3CHC4FeH3C2H2C8PC17H18C3H2CH3CHCHC3HC3HCFeH7C2H2PSC5H2CHC4HC2HSCH2SC2HFeSFeS2HFe2S2FeSH2FeS2FeS2FeSFeS3HFeHFeS2C3S2HC3PC3H3CH2C3HC6H6C6H5C7H4C5H2CHC3HCHCH2CH4CSH5C2H3C6PC8H5FeHC2HC6PC18H19C2HSC2HSH3CS2C6PC10HC7H2CH7CH7C2HCHC2H2C3SC8HCHC2H2CHCH2C2H2C2HC6HPSC3H2CPHPC2HCHC2HC2HCHCH3C2HCHC3HC2H5C2H3CH3C3H3C2H2SCSH2CHC2HCH8CHCH2PCH3C2HCHC2HCHC6H4CHC2SC2FeSFeSCFeSH3FeS2FeS2FeCFeS3C4H2C3H4C6H4C3H2CHC3HCSH2CHC6HC2H3CHC2HCH2CHCH2CHC2H2C2HCHCH2PC2H2SHCHCH2C5HC4HC4HC2H3CHPHSCHCH2CH3CHCHFeHCHPH2C7H2CHC3H3C2H2CHC2H3C2HC2HFeSFeSFeSFeS2FeSHFeS2FeS2FeSFeS3HC2FeS2HCSHC2H2C2H2SC6H6C6H4CS2C2HC6H4C5H3C2HPC8H2CSC4H7FeHCH7CH3SH2CHCH2CHCH2C4HFeC3PC14FeC3HC2H14CH2C3HC2H3C7PC18H20CHC2PH3CHC3HCHC9HCHCHC2H5CH3PH3CHCH2C3SHC4HCHC5H3CFeCHCH2C4H2C2H3CHCHC2HSHC2SH2C3HC2HCH2CHC2SCHC2HC3HC3HC3HC7HCHC3H2CHCH2CSC
_chemical_formula_sum              "Fe128 S256 H1536 C1920 P64"
_cell_length_a       82.7508
_cell_length_b       41.6446
_cell_length_c       47.3931
_cell_angle_alpha    90.2701
_cell_angle_beta     89.7378
_cell_angle_gamma    90.7286

_space_group_name_H-M_alt    "P 1"
_space_group_IT_number       1

loop_
  _space_group_symop_operation_xyz
  'x, y, z'

loop_
  _atom_site_type_symbol
  _atom_site_label
  _atom_site_symmetry_multiplicity
  _atom_site_fract_x
  _atom_site_fract_y
  _atom_site_fract_z
  _atom_site_occupancy
  Fe  Fe1       1.0  0.03927  0.18457  0.13544  1.0000
  S   S1        1.0  0.01403  0.19491  0.11883  1.0000
  S   S2        1.0  0.05587  0.22633  0.15205  1.0000
  Fe  Fe2       1.0  0.03165  0.11147  0.13577  1.0000
  S   S3        1.0  0.00651  0.11768  0.11965  1.0000
  S   S4        1.0  0.03995  0.06347  0.15315  1.0000
  Fe  Fe3       1.0  0.01730  0.15289  0.08855  1.0000
  S   S5        1.0  0.01180  0.14464  0.04055  1.0000
  Fe  Fe4       1.0  0.00502  0.15854  0.15098  1.0000
  H   H1        1.0  0.11452  0.40909  0.42230  1.0000
  S   S6        1.0  0.04310  0.14452  0.10356  1.0000
  S   S7        1.0  0.02963  0.15051  0.16861  1.0000
  Fe  Fe5       1.0  0.14678  0.30561  0.19690  1.0000
  S   S8        1.0  0.13838  0.32662  0.23808  1.0000
  S   S9        1.0  0.13026  0.27366  0.16817  1.0000
  Fe  Fe6       1.0  0.18273  0.32848  0.20814  1.0000
  S   S10       1.0  0.17607  0.35007  0.24997  1.0000
  S   S11       1.0  0.20846  0.33750  0.19066  1.0000
  Fe  Fe7       1.0  0.16083  0.30593  0.25621  1.0000
  S   S12       1.0  0.16042  0.27840  0.29694  1.0000
  Fe  Fe8       1.0  0.15425  0.36966  0.22822  1.0000
  S   S13       1.0  0.14779  0.41935  0.24497  1.0000
  S   S14       1.0  0.16882  0.28231  0.21586  1.0000
  S   S15       1.0  0.16148  0.35056  0.18551  1.0000
  H   H2        1.0  0.98554  0.04325  0.08527  1.0000
  Fe  Fe9       1.0  0.14686  0.33675  0.44910  1.0000
  S   S16       1.0  0.13950  0.35559  0.40630  1.0000
  S   S17       1.0  0.30079  0.31320  0.40203  1.0000
  C   C1        1.0  0.12624  0.44271  0.39427  1.0000
  S   S18       1.0  0.28002  0.30073  0.23207  1.0000
  C   C2        1.0  0.29457  0.43984  0.38434  1.0000
  H   H3        1.0  0.24501  0.46045  0.44191  1.0000
  H   H4        1.0  0.01828  0.05361  0.29067  1.0000
  H   H5        1.0  0.22033  0.48858  0.45038  1.0000
  C   C3        1.0  0.15179  0.44463  0.48652  1.0000
  C   C4        1.0  0.22821  0.32715  0.20284  1.0000
  C   C5        1.0  0.24190  0.33890  0.18816  1.0000
  C   C6        1.0  0.25776  0.33120  0.19667  1.0000
  C   C7        1.0  0.26025  0.31151  0.22009  1.0000
  C   C8        1.0  0.24654  0.29983  0.23480  1.0000
  C   C9        1.0  0.23068  0.30776  0.22646  1.0000
  H   H6        1.0  0.24023  0.35376  0.16977  1.0000
  H   H7        1.0  0.26801  0.33988  0.18465  1.0000
  H   H8        1.0  0.24817  0.28422  0.25271  1.0000
  H   H9        1.0  0.22037  0.29836  0.23800  1.0000
  C   C10       1.0  0.15433  0.29991  0.32706  1.0000
  C   C11       1.0  0.15582  0.28580  0.35369  1.0000
  C   C12       1.0  0.15110  0.30251  0.37811  1.0000
  C   C13       1.0  0.14480  0.33339  0.37599  1.0000
  C   C14       1.0  0.14301  0.34726  0.34927  1.0000
  C   C15       1.0  0.14796  0.33073  0.32485  1.0000
  H   H10       1.0  0.16072  0.26192  0.35546  1.0000
  H   H11       1.0  0.15237  0.29149  0.39855  1.0000
  H   H12       1.0  0.13807  0.37108  0.34748  1.0000
  H   H13       1.0  0.14681  0.34179  0.30436  1.0000
  C   C16       1.0  0.16170  0.45236  0.31976  1.0000
  C   C17       1.0  0.14606  0.45816  0.19734  1.0000
  C   C18       1.0  0.14610  0.45620  0.22681  1.0000
  C   C19       1.0  0.05883  0.24757  0.44711  1.0000
  C   C20       1.0  0.01871  0.19124  0.40311  1.0000
  H   H14       1.0  0.14752  0.43664  0.18474  1.0000
  Fe  Fe10      1.0  0.30686  0.31243  0.22191  1.0000
  C   C21       1.0  0.07679  0.23786  0.15709  1.0000
  C   C22       1.0  0.08962  0.22291  0.14301  1.0000
  C   C23       1.0  0.10577  0.23403  0.14681  1.0000
  C   C24       1.0  0.10955  0.25979  0.16522  1.0000
  C   C25       1.0  0.09678  0.27396  0.18002  1.0000
  C   C26       1.0  0.08061  0.26339  0.17570  1.0000
  H   H15       1.0  0.08709  0.20327  0.12863  1.0000
  H   H16       1.0  0.11543  0.22264  0.13519  1.0000
  H   H17       1.0  0.09934  0.29342  0.19443  1.0000
  H   H18       1.0  0.07093  0.27522  0.18680  1.0000
  H   H19       1.0  0.03515  0.04402  0.09434  1.0000
  C   C27       1.0  0.06883  0.47758  0.21490  1.0000
  C   C28       1.0  0.03101  0.19388  0.42320  1.0000
  C   C29       1.0  0.28167  0.46061  0.21729  1.0000
  C   C30       1.0  0.99279  0.16627  0.23456  1.0000
  H   H20       1.0  0.00471  0.17083  0.22593  1.0000
  C   C31       1.0  0.24066  0.26589  0.39574  1.0000
  C   C32       1.0  0.07228  0.26544  0.43791  1.0000
  C   C33       1.0  0.22093  0.30767  0.48823  1.0000
  C   C34       1.0  0.20669  0.26264  0.32757  1.0000
  C   C35       1.0  0.99841  0.15193  0.01131  1.0000
  C   C36       1.0  0.12363  0.22124  0.22508  1.0000
  C   C37       1.0  0.12893  0.23801  0.24896  1.0000
  C   C38       1.0  0.11898  0.24004  0.27276  1.0000
  C   C39       1.0  0.10378  0.22492  0.27281  1.0000
  C   C40       1.0  0.09849  0.20747  0.24901  1.0000
  C   C41       1.0  0.10839  0.20637  0.22491  1.0000
  P   P1        1.0  0.07892  0.18769  0.24917  1.0000
  C   C42       1.0  0.06335  0.21579  0.23993  1.0000
  C   C43       1.0  0.07913  0.15468  0.22412  1.0000
  C   C44       1.0  0.08392  0.12381  0.23222  1.0000
  C   C45       1.0  0.08316  0.09823  0.21295  1.0000
  C   C46       1.0  0.07790  0.10337  0.18537  1.0000
  C   C47       1.0  0.07375  0.13423  0.17686  1.0000
  C   C48       1.0  0.07447  0.15974  0.19608  1.0000
  C   C49       1.0  0.06569  0.24886  0.24442  1.0000
  C   C50       1.0  0.05340  0.27039  0.23812  1.0000
  C   C51       1.0  0.03877  0.25910  0.22698  1.0000
  C   C52       1.0  0.03631  0.22622  0.22257  1.0000
  C   C53       1.0  0.04848  0.20460  0.22924  1.0000
  C   C54       1.0  0.07488  0.17250  0.28425  1.0000
  C   C55       1.0  0.05934  0.17446  0.29623  1.0000
  C   C56       1.0  0.05634  0.16275  0.32339  1.0000
  H   H21       1.0  0.03834  0.99968  0.17570  1.0000
  H   H22       1.0  0.00748  0.20647  0.48147  1.0000
  C   C57       1.0  0.08735  0.15881  0.30001  1.0000
  H   H23       1.0  0.13129  0.22016  0.20648  1.0000
  H   H24       1.0  0.14073  0.24960  0.24896  1.0000
  H   H25       1.0  0.07870  0.18976  0.48352  1.0000
  H   H26       1.0  0.09621  0.22682  0.29141  1.0000
  H   H27       1.0  0.10442  0.19421  0.20586  1.0000
  H   H28       1.0  0.08800  0.11922  0.25341  1.0000
  H   H29       1.0  0.08651  0.07430  0.21938  1.0000
  H   H30       1.0  0.07694  0.08349  0.17056  1.0000
  H   H31       1.0  0.06978  0.13836  0.15541  1.0000
  H   H32       1.0  0.07121  0.18340  0.18906  1.0000
  H   H33       1.0  0.07701  0.25815  0.25250  1.0000
  H   H34       1.0  0.05536  0.29586  0.24141  1.0000
  H   H35       1.0  0.02935  0.27576  0.22151  1.0000
  H   H36       1.0  0.02505  0.21748  0.21355  1.0000
  H   H37       1.0  0.04628  0.17921  0.22579  1.0000
  H   H38       1.0  0.04944  0.18486  0.28472  1.0000
  H   H39       1.0  0.04431  0.16433  0.33244  1.0000
  C   C58       1.0  0.14403  0.48432  0.24280  1.0000
  P   P2        1.0  0.04326  0.19915  0.47766  1.0000
  H   H40       1.0  0.09946  0.15720  0.29130  1.0000
  C   C59       1.0  0.04649  0.34609  0.20275  1.0000
  C   C60       1.0  0.04645  0.32975  0.17692  1.0000
  C   C61       1.0  0.05967  0.33268  0.15868  1.0000
  C   C62       1.0  0.07296  0.35193  0.16617  1.0000
  C   C63       1.0  0.07317  0.36835  0.19218  1.0000
  C   C64       1.0  0.05987  0.36495  0.21054  1.0000
  P   P3        1.0  0.09102  0.39045  0.20357  1.0000
  C   C65       1.0  0.09830  0.37169  0.23549  1.0000
  C   C66       1.0  0.10614  0.38812  0.17598  1.0000
  C   C67       1.0  0.11583  0.36088  0.17330  1.0000
  C   C68       1.0  0.12649  0.35801  0.15045  1.0000
  C   C69       1.0  0.12795  0.38259  0.13067  1.0000
  C   C70       1.0  0.11839  0.40983  0.13320  1.0000
  C   C71       1.0  0.10732  0.41236  0.15544  1.0000
  C   C72       1.0  0.10853  0.38862  0.25402  1.0000
  C   C73       1.0  0.11373  0.37453  0.27907  1.0000
  C   C74       1.0  0.10885  0.34327  0.28583  1.0000
  C   C75       1.0  0.09890  0.32595  0.26735  1.0000
  C   C76       1.0  0.09365  0.34001  0.24228  1.0000
  C   C77       1.0  0.08721  0.43271  0.20995  1.0000
  C   C78       1.0  0.07141  0.44465  0.21122  1.0000
  C   C79       1.0  0.06087  0.21985  0.46346  1.0000
  H   H41       1.0  0.17794  0.33153  0.40083  1.0000
  C   C80       1.0  0.04752  0.15793  0.48658  1.0000
  C   C81       1.0  0.10031  0.45445  0.21203  1.0000
  H   H42       1.0  0.03627  0.34356  0.21698  1.0000
  H   H43       1.0  0.03633  0.31428  0.17116  1.0000
  H   H44       1.0  0.05983  0.31920  0.13902  1.0000
  H   H45       1.0  0.08315  0.35306  0.15181  1.0000
  H   H46       1.0  0.06001  0.37643  0.23110  1.0000
  H   H47       1.0  0.11496  0.34153  0.18839  1.0000
  H   H48       1.0  0.13366  0.33660  0.14799  1.0000
  H   H49       1.0  0.13641  0.38033  0.11327  1.0000
  H   H50       1.0  0.11942  0.42883  0.11773  1.0000
  H   H51       1.0  0.09964  0.43317  0.15632  1.0000
  H   H52       1.0  0.11285  0.41243  0.24903  1.0000
  H   H53       1.0  0.12200  0.38753  0.29279  1.0000
  H   H54       1.0  0.11321  0.33216  0.30496  1.0000
  H   H55       1.0  0.09555  0.30138  0.27219  1.0000
  H   H56       1.0  0.08612  0.32591  0.22821  1.0000
  H   H57       1.0  0.06104  0.42896  0.20884  1.0000
  H   H58       1.0  0.26491  0.37515  0.47796  1.0000
  H   H59       1.0  0.01055  0.03552  0.35913  1.0000
  Fe  Fe11      1.0  0.17573  0.31285  0.48353  1.0000
  H   H60       1.0  0.11262  0.44613  0.21022  1.0000
  C   C82       1.0  0.99872  0.19995  0.43961  1.0000
  C   C83       1.0  0.98470  0.17125  0.01360  1.0000
  H   H61       1.0  0.00159  0.99781  0.01165  1.0000
  C   C84       1.0  0.11779  0.43406  0.41874  1.0000
  C   C85       1.0  0.25559  0.42044  0.46307  1.0000
  C   C86       1.0  0.29247  0.42436  0.18194  1.0000
  C   C87       1.0  0.04546  0.10370  0.25921  1.0000
  C   C88       1.0  0.19853  0.23962  0.31126  1.0000
  C   C89       1.0  0.26883  0.48156  0.28028  1.0000
  C   C90       1.0  0.99828  0.04278  0.17957  1.0000
  C   C91       1.0  0.15635  0.45343  0.34790  1.0000
  H   H62       1.0  0.01357  0.01912  0.47511  1.0000
  C   C92       1.0  0.20115  0.20698  0.31563  1.0000
  H   H63       1.0  0.20155  0.43941  0.14283  1.0000
  C   C93       1.0  0.26151  0.38919  0.45979  1.0000
  C   C94       1.0  0.21218  0.19729  0.33602  1.0000
  C   C95       1.0  0.98793  0.04158  0.26798  1.0000
  C   C96       1.0  0.21758  0.25313  0.34848  1.0000
  C   C97       1.0  0.22054  0.22025  0.35215  1.0000
  P   P4        1.0  0.22925  0.28320  0.36728  1.0000
  C   C98       1.0  0.24168  0.30218  0.34061  1.0000
  C   C99       1.0  0.25572  0.28723  0.33056  1.0000
  C   C100      1.0  0.26477  0.30119  0.30872  1.0000
  C   C101      1.0  0.25955  0.32942  0.29609  1.0000
  C   C102      1.0  0.24521  0.34360  0.30508  1.0000
  C   C103      1.0  0.23637  0.33026  0.32742  1.0000
  H   H64       1.0  0.29782  0.29676  0.34358  1.0000
  C   C104      1.0  0.23255  0.24685  0.41584  1.0000
  C   C105      1.0  0.24090  0.23436  0.43883  1.0000
  C   C106      1.0  0.00256  0.19409  0.41136  1.0000
  P   P5        1.0  0.14335  0.48553  0.35951  1.0000
  H   H65       1.0  0.19359  0.43178  0.39097  1.0000
  H   H66       1.0  0.22945  0.21216  0.36704  1.0000
  H   H67       1.0  0.25954  0.26455  0.33921  1.0000
  H   H68       1.0  0.27556  0.28960  0.30076  1.0000
  H   H69       1.0  0.26637  0.33960  0.27862  1.0000
  H   H70       1.0  0.24075  0.36444  0.29419  1.0000
  H   H71       1.0  0.22509  0.34121  0.33363  1.0000
  H   H72       1.0  0.21966  0.24235  0.41414  1.0000
  H   H73       1.0  0.23448  0.22028  0.45454  1.0000
  H   H74       1.0  0.18201  0.42989  0.22635  1.0000
  C   C107      1.0  0.21690  0.31293  0.38450  1.0000
  H   H75       1.0  0.26112  0.30625  0.47039  1.0000
  C   C108      1.0  0.03993  0.10178  0.23145  1.0000
  H   H76       1.0  0.10207  0.22157  0.46753  1.0000
  C   C109      1.0  0.02725  0.19975  0.45171  1.0000
  C   C110      1.0  0.17043  0.40363  0.35674  1.0000
  C   C111      1.0  0.17490  0.40178  0.32832  1.0000
  C   C112      1.0  0.17074  0.42642  0.30993  1.0000
  H   H77       1.0  0.03191  0.00575  0.24949  1.0000
  C   C113      1.0  0.19097  0.33370  0.39969  1.0000
  C   C114      1.0  0.16144  0.42961  0.36666  1.0000
  H   H78       1.0  0.25768  0.38100  0.38876  1.0000
  H   H79       1.0  0.15092  0.42230  0.47491  1.0000
  H   H80       1.0  0.17335  0.38426  0.37095  1.0000
  H   H81       1.0  0.18123  0.38090  0.32045  1.0000
  H   H82       1.0  0.17392  0.42484  0.28776  1.0000
  H   H83       1.0  0.15810  0.43037  0.38878  1.0000
  H   H84       1.0  0.12895  0.42419  0.37890  1.0000
  C   C115      1.0  0.03757  0.08647  0.28050  1.0000
  C   C116      1.0  0.30532  0.46157  0.37149  1.0000
  H   H85       1.0  0.20797  0.43690  0.43644  1.0000
  H   H86       1.0  0.10804  0.45878  0.27843  1.0000
  H   H87       1.0  0.22171  0.37936  0.42616  1.0000
  C   C117      1.0  0.98293  0.06863  0.04616  1.0000
  C   C118      1.0  0.28160  0.38546  0.33582  1.0000
  C   C119      1.0  0.27224  0.40279  0.31682  1.0000
  C   C120      1.0  0.27941  0.41599  0.29254  1.0000
  C   C121      1.0  0.29608  0.41236  0.28809  1.0000
  P   P6        1.0  0.26799  0.44021  0.26847  1.0000
  C   C122      1.0  0.24686  0.42832  0.26814  1.0000
  H   H88       1.0  0.23384  0.30415  0.44886  1.0000
  H   H89       1.0  0.04462  0.05364  0.02682  1.0000
  H   H90       1.0  0.20458  0.28783  0.32357  1.0000
  H   H91       1.0  0.03719  0.08081  0.46900  1.0000
  C   C123      1.0  0.24040  0.40951  0.24609  1.0000
  C   C124      1.0  0.22393  0.40154  0.24582  1.0000
  C   C125      1.0  0.21378  0.41202  0.26748  1.0000
  C   C126      1.0  0.22004  0.43080  0.28945  1.0000
  C   C127      1.0  0.23650  0.43902  0.28975  1.0000
  C   C128      1.0  0.27688  0.43438  0.23393  1.0000
  C   C129      1.0  0.28018  0.40307  0.22443  1.0000
  C   C130      1.0  0.28803  0.39818  0.19863  1.0000
  C   C131      1.0  0.02419  0.06706  0.27397  1.0000
  H   H92       1.0  0.98183  0.18229  0.03368  1.0000
  C   C132      1.0  0.97989  0.15984  0.21629  1.0000
  H   H93       1.0  0.24677  0.43590  0.39430  1.0000
  H   H94       1.0  0.27615  0.37405  0.35398  1.0000
  H   H95       1.0  0.25948  0.40546  0.32095  1.0000
  H   H96       1.0  0.30197  0.42255  0.26971  1.0000
  C   C133      1.0  0.01853  0.06506  0.24608  1.0000
  H   H97       1.0  0.18738  0.40679  0.17910  1.0000
  H   H98       1.0  0.24786  0.40091  0.22892  1.0000
  H   H99       1.0  0.21901  0.38717  0.22868  1.0000
  H   H100      1.0  0.20106  0.40551  0.26707  1.0000
  H   H101      1.0  0.21209  0.43902  0.30614  1.0000
  H   H102      1.0  0.24115  0.45381  0.30680  1.0000
  H   H103      1.0  0.27702  0.38233  0.23717  1.0000
  H   H104      1.0  0.29102  0.37407  0.19184  1.0000
  H   H105      1.0  0.98883  0.09039  0.05389  1.0000
  S   S19       1.0  0.29870  0.35274  0.47534  1.0000
  H   H106      1.0  0.04683  0.25587  0.44209  1.0000
  C   C134      1.0  0.07660  0.21043  0.47048  1.0000
  H   H107      1.0  0.26708  0.35104  0.43060  1.0000
  C   C135      1.0  0.26250  0.37524  0.43296  1.0000
  C   C136      1.0  0.09769  0.48732  0.21542  1.0000
  C   C137      1.0  0.02207  0.02861  0.01972  1.0000
  H   H108      1.0  0.10777  0.45052  0.45821  1.0000
  H   H109      1.0  0.29327  0.47580  0.17869  1.0000
  P   P7        1.0  0.00138  0.03962  0.23787  1.0000
  C   C138      1.0  0.25115  0.42308  0.41251  1.0000
  C   C139      1.0  0.00807  0.99899  0.23140  1.0000
  C   C140      1.0  0.25710  0.27345  0.39975  1.0000
  H   H110      1.0  0.12758  0.44582  0.31567  1.0000
  C   C141      1.0  0.21427  0.48671  0.43023  1.0000
  C   C142      1.0  0.08785  0.25597  0.44517  1.0000
  C   C143      1.0  0.01096  0.20270  0.45975  1.0000
  C   C144      1.0  0.30047  0.41333  0.39891  1.0000
  C   C145      1.0  0.08999  0.22846  0.46138  1.0000
  C   C146      1.0  0.19162  0.43089  0.18417  1.0000
  C   C147      1.0  0.01004  0.00439  0.39539  1.0000
  H   H111      1.0  0.29897  0.42052  0.16231  1.0000
  H   H112      1.0  0.28565  0.47349  0.31445  1.0000
  C   C148      1.0  0.25024  0.43703  0.43933  1.0000
  C   C149      1.0  0.99012  0.16821  0.26402  1.0000
  C   C150      1.0  0.04832  0.00582  0.01051  1.0000
  H   H113      1.0  0.28169  0.44345  0.38295  1.0000
  C   C151      1.0  0.11190  0.47723  0.29316  1.0000
  H   H114      1.0  0.19024  0.24711  0.29500  1.0000
  S   S20       1.0  0.30534  0.27484  0.47467  1.0000
  H   H115      1.0  0.15121  0.47367  0.44918  1.0000
  H   H116      1.0  0.00010  0.17436  0.27776  1.0000
  C   C152      1.0  0.99106  0.05204  0.15440  1.0000
  C   C153      1.0  0.00474  0.03006  0.37909  1.0000
  C   C154      1.0  0.25047  0.30791  0.48360  1.0000
  H   H117      1.0  0.04185  0.08809  0.30203  1.0000
  C   C155      1.0  0.03702  0.99765  0.15307  1.0000
  H   H118      1.0  0.15841  0.47099  0.30513  1.0000
  C   C156      1.0  0.11392  0.45738  0.43888  1.0000
  H   H119      1.0  0.05588  0.11843  0.26420  1.0000
  C   C157      1.0  0.08433  0.14725  0.32722  1.0000
  H   H120      1.0  0.30509  0.47135  0.43946  1.0000
  C   C158      1.0  0.18881  0.44378  0.21097  1.0000
  C   C159      1.0  0.19760  0.48129  0.37933  1.0000
  C   C160      1.0  0.19967  0.44926  0.16378  1.0000
  S   S21       1.0  0.16797  0.36150  0.46943  1.0000
  C   C161      1.0  0.04321  0.10049  0.47987  1.0000
  H   H121      1.0  0.99297  0.19111  0.39600  1.0000
  H   H122      1.0  0.27159  0.48123  0.46180  1.0000
  C   C162      1.0  0.29816  0.38228  0.33127  1.0000
  C   C163      1.0  0.02646  0.08269  0.22490  1.0000
  H   H123      1.0  0.12320  0.25328  0.29114  1.0000
  H   H124      1.0  0.01484  0.04853  0.02712  1.0000
  H   H125      1.0  0.00909  0.02842  0.17857  1.0000
  H   H126      1.0  0.04343  0.19065  0.41661  1.0000
  H   H127      1.0  0.19359  0.29088  0.37497  1.0000
  H   H128      1.0  0.06652  0.14036  0.36004  1.0000
  H   H129      1.0  0.27810  0.26661  0.42566  1.0000
  C   C164      1.0  0.25736  0.24113  0.44214  1.0000
  C   C165      1.0  0.19995  0.31066  0.38504  1.0000
  C   C166      1.0  0.06883  0.14920  0.33890  1.0000
  C   C167      1.0  0.03889  0.03155  0.01954  1.0000
  H   H130      1.0  0.29228  0.39635  0.40889  1.0000
  H   H131      1.0  0.00331  0.11085  0.47637  1.0000
  C   C168      1.0  0.28924  0.45552  0.19121  1.0000
  C   C169      1.0  0.25732  0.39220  0.40935  1.0000
  C   C170      1.0  0.23497  0.30672  0.47143  1.0000
  H   H132      1.0  0.98797  0.06913  0.37635  1.0000
  H   H133      1.0  0.26376  0.23206  0.46029  1.0000
  C   C171      1.0  0.98299  0.01359  0.28215  1.0000
  H   H134      1.0  0.19180  0.37607  0.42584  1.0000
  H   H135      1.0  0.07064  0.28704  0.42565  1.0000
  S   S22       1.0  0.15537  0.28762  0.46038  1.0000
  C   C172      1.0  0.99198  0.04888  0.38867  1.0000
  H   H136      1.0  0.26355  0.28962  0.38575  1.0000
  H   H137      1.0  0.99644  0.04496  0.13448  1.0000
  C   C173      1.0  0.19908  0.45455  0.39684  1.0000
  C   C174      1.0  0.99190  0.05269  0.20568  1.0000
  H   H138      1.0  0.98615  0.20128  0.44606  1.0000
  H   H139      1.0  0.02234  0.08175  0.20327  1.0000
  C   C175      1.0  0.21564  0.36087  0.41390  1.0000
  S   S23       1.0  0.13056  0.34116  0.48704  1.0000
  C   C176      1.0  0.13146  0.47463  0.39024  1.0000
  H   H140      1.0  0.30546  0.36975  0.34639  1.0000
  H   H141      1.0  0.06138  0.00798  0.01082  1.0000
  C   C177      1.0  0.98933  0.01566  0.43058  1.0000
  C   C178      1.0  0.03682  0.02564  0.13656  1.0000
  C   C179      1.0  0.00246  0.99735  0.42113  1.0000
  C   C180      1.0  0.04016  0.13219  0.47199  1.0000
  H   H142      1.0  0.30059  0.48201  0.36041  1.0000
  C   C181      1.0  0.01464  0.99990  0.01097  1.0000
  H   H143      1.0  0.21442  0.17197  0.33904  1.0000
  H   H144      1.0  0.02161  0.18635  0.38123  1.0000
  C   C182      1.0  0.30535  0.39522  0.30721  1.0000
  H   H145      1.0  0.23766  0.33894  0.40016  1.0000
  C   C183      1.0  0.99433  0.12441  0.48781  1.0000
  S   S24       1.0  0.20189  0.30065  0.47181  1.0000
  H   H146      1.0  0.14380  0.48307  0.26550  1.0000
  H   H147      1.0  0.09829  0.27019  0.43866  1.0000
  H   H148      1.0  0.19474  0.18929  0.30294  1.0000
  H   H149      1.0  0.04611  0.11488  0.21483  1.0000
  C   C184      1.0  0.03517  0.02270  0.10729  1.0000
  C   C185      1.0  0.26543  0.26070  0.42265  1.0000
  H   H150      1.0  0.03175  0.13632  0.45503  1.0000
  C   C186      1.0  0.19880  0.35884  0.41395  1.0000
  H   H151      1.0  0.09405  0.13694  0.33932  1.0000
  C   C187      1.0  0.20729  0.45733  0.42239  1.0000
  C   C188      1.0  0.22463  0.33800  0.39921  1.0000
  H   H152      1.0  0.19075  0.47930  0.35995  1.0000
  C   C189      1.0  0.15184  0.47389  0.47194  1.0000
  C   C190      1.0  0.20523  0.48027  0.17036  1.0000
  C   C191      1.0  0.98433  0.04180  0.41429  1.0000
  C   C192      1.0  0.12307  0.47005  0.31423  1.0000
  P   P8        1.0  0.97932  0.00609  0.46361  1.0000
  H   H153      1.0  0.98902  0.25065  0.01708  1.0000
  C   C193      1.0  0.98519  0.25563  0.99570  1.0000
  S   S25       1.0  0.98211  0.16086  0.17871  1.0000
  H   H154      1.0  0.28016  0.48500  0.22467  1.0000
  C   C194      1.0  0.98101  0.04213  0.06387  1.0000
  C   C195      1.0  0.30990  0.30624  0.34694  1.0000
  Fe  Fe12      1.0  0.31029  0.31691  0.44648  1.0000
  C   C196      1.0  0.98029  0.13427  0.47398  1.0000
  H   H155      1.0  0.98737  0.09366  0.26876  1.0000
  C   C197      1.0  0.19450  0.47464  0.21774  1.0000
  C   C198      1.0  0.27800  0.49054  0.30402  1.0000
  H   H156      1.0  0.05662  0.48665  0.21572  1.0000
  C   C199      1.0  0.31238  0.47149  0.45833  1.0000
  C   C200      1.0  0.98330  0.07159  0.27876  1.0000
  H   H157      1.0  0.19176  0.48422  0.23841  1.0000
  C   C201      1.0  0.14362  0.48804  0.18416  1.0000
  C   C202      1.0  0.11820  0.48949  0.43423  1.0000
  C   C203      1.0  0.20323  0.49280  0.19771  1.0000
  H   H158      1.0  0.14327  0.48936  0.16138  1.0000
  H   H159      1.0  0.23620  0.48984  0.18142  1.0000
  C   C204      1.0  0.00654  0.02867  0.49243  1.0000
  C   C205      1.0  0.98960  0.02644  0.49230  1.0000
  Fe  Fe13      1.0  0.29516  0.31131  0.50471  1.0000
  C   C206      1.0  0.00643  0.99526  0.79858  1.0000
  Fe  Fe14      1.0  0.02636  0.13155  0.64671  1.0000
  S   S26       1.0  0.05110  0.12291  0.62735  1.0000
  S   S27       1.0  0.02188  0.12089  0.69375  1.0000
  Fe  Fe15      1.0  0.01146  0.14529  0.58904  1.0000
  S   S28       1.0  0.03464  0.13750  0.56580  1.0000
  H   H160      1.0  0.05580  0.06975  0.50880  1.0000
  Fe  Fe16      1.0  0.03748  0.09478  0.59419  1.0000
  S   S29       1.0  0.04506  0.04846  0.57257  1.0000
  Fe  Fe17      1.0  0.04671  0.16639  0.60003  1.0000
  S   S30       1.0  0.06408  0.20933  0.59128  1.0000
  S   S31       1.0  0.01329  0.10051  0.61491  1.0000
  S   S32       1.0  0.02295  0.17713  0.62214  1.0000
  H   H161      1.0  0.04721  0.04919  0.69463  1.0000
  C   C207      1.0  0.99077  0.35823  0.88252  1.0000
  H   H162      1.0  0.10910  0.18791  0.52421  1.0000
  C   C208      1.0  0.01459  0.04273  0.51534  1.0000
  H   H163      1.0  0.16260  0.21428  0.50358  1.0000
  H   H164      1.0  0.16278  0.26928  0.70304  1.0000
  C   C209      1.0  0.03712  0.00793  0.61684  1.0000
  S   S33       1.0  0.16155  0.31455  0.52427  1.0000
  C   C210      1.0  0.04583  0.99877  0.70473  1.0000
  C   C211      1.0  0.99480  0.21154  0.83709  1.0000
  S   S34       1.0  0.27140  0.30644  0.52916  1.0000
  C   C212      1.0  0.99131  0.05643  0.73345  1.0000
  C   C213      1.0  0.22373  0.40055  0.49945  1.0000
  Fe  Fe18      1.0  0.14025  0.29312  0.50012  1.0000
  S   S35       1.0  0.12445  0.24863  0.51165  1.0000
  C   C214      1.0  0.23814  0.31213  0.52970  1.0000
  C   C215      1.0  0.22260  0.31164  0.51742  1.0000
  C   C216      1.0  0.04556  0.24724  0.51923  1.0000
  C   C217      1.0  0.26527  0.37887  0.56306  1.0000
  C   C218      1.0  0.15256  0.44438  0.51597  1.0000
  H   H165      1.0  0.30249  0.24671  0.61235  1.0000
  H   H166      1.0  0.98221  0.06277  0.55575  1.0000
  H   H167      1.0  0.00204  0.36597  0.87283  1.0000
  C   C219      1.0  0.28214  0.38001  0.56130  1.0000
  C   C220      1.0  0.26353  0.41510  0.52324  1.0000
  C   C221      1.0  0.02934  0.24788  0.56191  1.0000
  C   C222      1.0  0.08005  0.21973  0.56710  1.0000
  C   C223      1.0  0.08470  0.25226  0.56432  1.0000
  C   C224      1.0  0.09791  0.26169  0.54705  1.0000
  C   C225      1.0  0.10699  0.23861  0.53264  1.0000
  C   C226      1.0  0.10223  0.20609  0.53514  1.0000
  C   C227      1.0  0.08887  0.19671  0.55211  1.0000
  H   H168      1.0  0.07808  0.27036  0.57585  1.0000
  H   H169      1.0  0.10115  0.28681  0.54515  1.0000
  H   H170      1.0  0.02680  0.00494  0.82603  1.0000
  H   H171      1.0  0.08577  0.17155  0.55440  1.0000
  C   C228      1.0  0.10925  0.18346  0.61084  1.0000
  C   C229      1.0  0.98666  0.23925  0.82920  1.0000
  C   C230      1.0  0.99682  0.13183  0.51643  1.0000
  H   H172      1.0  0.24295  0.39494  0.54591  1.0000
  H   H173      1.0  0.00767  0.12401  0.52677  1.0000
  S   S36       1.0  0.15265  0.40770  0.53463  1.0000
  H   H174      1.0  0.03581  0.02938  0.62955  1.0000
  C   C231      1.0  0.98087  0.03820  0.51561  1.0000
  C   C232      1.0  0.28974  0.39902  0.54086  1.0000
  C   C233      1.0  0.00245  0.01640  0.66839  1.0000
  H   H175      1.0  0.98597  0.24553  0.80706  1.0000
  P   P9        1.0  0.25203  0.43703  0.49769  1.0000
  H   H176      1.0  0.12001  0.26151  0.62100  1.0000
  C   C234      1.0  0.00688  0.12743  0.74553  1.0000
  C   C235      1.0  0.00751  0.13817  0.71740  1.0000
  C   C236      1.0  0.99681  0.16207  0.70907  1.0000
  H   H177      1.0  0.05528  0.25793  0.50705  1.0000
  C   C237      1.0  0.99163  0.14294  0.96105  1.0000
  H   H178      1.0  0.23139  0.37992  0.49616  1.0000
  H   H179      1.0  0.99718  0.17077  0.68760  1.0000
  H   H180      1.0  0.14867  0.18256  0.59045  1.0000
  C   C238      1.0  0.02130  0.21999  0.55302  1.0000
  H   H181      1.0  0.12487  0.14646  0.59517  1.0000
  C   C239      1.0  0.06101  0.11966  0.51678  1.0000
  C   C240      1.0  0.98510  0.16417  0.75679  1.0000
  H   H182      1.0  0.20324  0.26000  0.54380  1.0000
  H   H183      1.0  0.99338  0.99405  0.90900  1.0000
  C   C241      1.0  0.98522  0.14901  0.53157  1.0000
  P   P10       1.0  0.01051  0.02909  0.77570  1.0000
  C   C242      1.0  0.01927  0.06093  0.79709  1.0000
  H   H184      1.0  0.01520  0.10941  0.75245  1.0000
  H   H185      1.0  0.00173  0.05628  0.71972  1.0000
  Fe  Fe19      1.0  0.15259  0.36218  0.50822  1.0000
  H   H186      1.0  0.30281  0.39983  0.53943  1.0000
  H   H187      1.0  0.20190  0.37174  0.49897  1.0000
  C   C243      1.0  0.99182  0.04360  0.76082  1.0000
  C   C244      1.0  0.03593  0.06786  0.79592  1.0000
  C   C245      1.0  0.04255  0.09272  0.81232  1.0000
  C   C246      1.0  0.03267  0.11051  0.83035  1.0000
  C   C247      1.0  0.01619  0.10322  0.83226  1.0000
  C   C248      1.0  0.00951  0.07845  0.81585  1.0000
  H   H188      1.0  0.28660  0.43086  0.50595  1.0000
  C   C249      1.0  0.03159  0.04026  0.73028  1.0000
  H   H189      1.0  0.28931  0.36568  0.57542  1.0000
  H   H190      1.0  0.01216  0.12266  0.98253  1.0000
  H   H191      1.0  0.02012  0.06668  0.94650  1.0000
  H   H192      1.0  0.06268  0.17082  0.52196  1.0000
  S   S37       1.0  0.98791  0.15836  0.56774  1.0000
  C   C250      1.0  0.99559  0.13992  0.76496  1.0000
  H   H193      1.0  0.01209  0.06621  0.55565  1.0000
  C   C251      1.0  0.99146  0.26048  0.94593  1.0000
  C   C252      1.0  0.31053  0.22163  0.53473  1.0000
  H   H194      1.0  0.04390  0.05426  0.78238  1.0000
  H   H195      1.0  0.00114  0.18063  0.87152  1.0000
  C   C253      1.0  0.15345  0.47372  0.53070  1.0000
  H   H196      1.0  0.28679  0.24013  0.52653  1.0000
  C   C254      1.0  0.20338  0.45299  0.50702  1.0000
  H   H197      1.0  0.00040  0.26027  0.92918  1.0000
  H   H198      1.0  0.05535  0.09836  0.81085  1.0000
  H   H199      1.0  0.03778  0.13002  0.84279  1.0000
  H   H200      1.0  0.00850  0.11703  0.84620  1.0000
  H   H201      1.0  0.99671  0.07339  0.81777  1.0000
  H   H202      1.0  0.02895  0.06550  0.73290  1.0000
  H   H203      1.0  0.99450  0.13197  0.94095  1.0000
  C   C255      1.0  0.98752  0.32547  0.88625  1.0000
  H   H204      1.0  0.28180  0.25592  0.57604  1.0000
  H   H205      1.0  0.99529  0.13143  0.78645  1.0000
  H   H206      1.0  0.22482  0.48219  0.50691  1.0000
  H   H207      1.0  0.09873  0.16778  0.61253  1.0000
  H   H208      1.0  0.16700  0.31329  0.62117  1.0000
  H   H209      1.0  0.21194  0.31315  0.53059  1.0000
  H   H210      1.0  0.02767  0.04394  0.51578  1.0000
  C   C256      1.0  0.04210  0.03110  0.70861  1.0000
  H   H211      1.0  0.04805  0.28253  0.55237  1.0000
  C   C257      1.0  0.05368  0.09423  0.50219  1.0000
  H   H212      1.0  0.18388  0.41821  0.50604  1.0000
  H   H213      1.0  0.99860  0.05014  0.97916  1.0000
  C   C258      1.0  0.23047  0.43156  0.50222  1.0000
  H   H214      1.0  0.99647  0.30820  0.87963  1.0000
  C   C259      1.0  0.04147  0.26148  0.54504  1.0000
  C   C260      1.0  0.25596  0.39642  0.54418  1.0000
  H   H215      1.0  0.23930  0.31381  0.55238  1.0000
  H   H216      1.0  0.12791  0.28017  0.56840  1.0000
  C   C261      1.0  0.98580  0.17523  0.72876  1.0000
  C   C262      1.0  0.02447  0.01710  0.74808  1.0000
  H   H217      1.0  0.25942  0.36356  0.57855  1.0000
  C   C263      1.0  0.28049  0.41652  0.52188  1.0000
  H   H218      1.0  0.01953  0.18317  0.52147  1.0000
  C   C264      1.0  0.29305  0.24439  0.57042  1.0000
  C   C265      1.0  0.00445  0.06864  0.91039  1.0000
  H   H219      1.0  0.01202  0.20924  0.56625  1.0000
  H   H220      1.0  0.15409  0.47371  0.55349  1.0000
  C   C266      1.0  0.25215  0.30954  0.51289  1.0000
  C   C267      1.0  0.99060  0.02873  0.65073  1.0000
  C   C268      1.0  0.00789  0.06343  0.93880  1.0000
  H   H221      1.0  0.14833  0.27686  0.65813  1.0000
  H   H222      1.0  0.09647  0.22504  0.62540  1.0000
  H   H223      1.0  0.06865  0.11481  0.53475  1.0000
  H   H224      1.0  0.00039  0.19661  0.82105  1.0000
  H   H225      1.0  0.14663  0.21974  0.54712  1.0000
  C   C269      1.0  0.04119  0.01060  0.58827  1.0000
  H   H226      1.0  0.18704  0.26743  0.58725  1.0000
  H   H227      1.0  0.24836  0.48322  0.54354  1.0000
  H   H228      1.0  0.99290  0.05077  0.63931  1.0000
  H   H229      1.0  0.01399  0.07584  0.89593  1.0000
  H   H230      1.0  0.18152  0.21271  0.61671  1.0000
  H   H231      1.0  0.18663  0.23382  0.70495  1.0000
  C   C270      1.0  0.00581  0.05501  0.53808  1.0000
  H   H232      1.0  0.19588  0.20553  0.66169  1.0000
  H   H233      1.0  0.02647  0.25843  0.58222  1.0000
  H   H234      1.0  0.01393  0.02898  0.67050  1.0000
  C   C271      1.0  0.15193  0.34971  0.60385  1.0000
  C   C272      1.0  0.13861  0.35630  0.58690  1.0000
  C   C273      1.0  0.12990  0.33116  0.57434  1.0000
  C   C274      1.0  0.13434  0.29938  0.57911  1.0000
  C   C275      1.0  0.14729  0.29247  0.59698  1.0000
  C   C276      1.0  0.15637  0.31790  0.60871  1.0000
  P   P11       1.0  0.15343  0.25140  0.60135  1.0000
  C   C277      1.0  0.16429  0.24642  0.63388  1.0000
  C   C278      1.0  0.13603  0.22498  0.60450  1.0000
  C   C279      1.0  0.13734  0.19218  0.59798  1.0000
  C   C280      1.0  0.12395  0.17158  0.60088  1.0000
  H   H235      1.0  0.19536  0.47321  0.50987  1.0000
  C   C281      1.0  0.10798  0.21586  0.61810  1.0000
  C   C282      1.0  0.12131  0.23654  0.61513  1.0000
  C   C283      1.0  0.15887  0.26169  0.65858  1.0000
  C   C284      1.0  0.16698  0.25731  0.68408  1.0000
  C   C285      1.0  0.18039  0.23728  0.68516  1.0000
  C   C286      1.0  0.18562  0.22141  0.66077  1.0000
  C   C287      1.0  0.17753  0.22574  0.63524  1.0000
  C   C288      1.0  0.16582  0.24289  0.57086  1.0000
  C   C289      1.0  0.18180  0.25460  0.56954  1.0000
  C   C290      1.0  0.19096  0.25080  0.54487  1.0000
  C   C291      1.0  0.18409  0.23621  0.52111  1.0000
  C   C292      1.0  0.16816  0.22471  0.52221  1.0000
  C   C293      1.0  0.15909  0.22790  0.54702  1.0000
  H   H236      1.0  0.15901  0.36939  0.61261  1.0000
  H   H237      1.0  0.13536  0.38097  0.58273  1.0000
  H   H238      1.0  0.11999  0.33634  0.56027  1.0000
  C   C294      1.0  0.30486  0.23919  0.59090  1.0000
  H   H239      1.0  0.00894  0.24944  0.97799  1.0000
  H   H240      1.0  0.19097  0.23460  0.50163  1.0000
  H   H241      1.0  0.98743  0.21303  0.90749  1.0000
  C   C295      1.0  0.99518  0.20252  0.86542  1.0000
  C   C296      1.0  0.98866  0.06467  0.90063  1.0000
  C   C297      1.0  0.98742  0.22116  0.88588  1.0000
  C   C298      1.0  0.99642  0.25481  0.97362  1.0000
  C   C299      1.0  0.29587  0.23554  0.54239  1.0000
  C   C300      1.0  0.19684  0.42199  0.50475  1.0000
  C   C301      1.0  0.00168  0.13772  0.98478  1.0000
  C   C302      1.0  0.03751  0.21911  0.51012  1.0000
  C   C303      1.0  0.22013  0.45787  0.50566  1.0000
  C   C304      1.0  0.99553  0.05430  0.95743  1.0000
  C   C305      1.0  0.05770  0.15137  0.50937  1.0000
  C   C306      1.0  0.02552  0.20540  0.52747  1.0000
  C   C307      1.0  0.25841  0.47851  0.50148  1.0000
  H   H242      1.0  0.98601  0.06854  0.87856  1.0000
  H   H243      1.0  0.30789  0.21000  0.71896  1.0000
  C   C308      1.0  0.98896  0.05290  0.53817  1.0000
  C   C309      1.0  0.20700  0.39580  0.50086  1.0000
  C   C310      1.0  0.97955  0.05058  0.94788  1.0000
  H   H244      1.0  0.98211  0.40636  0.88861  1.0000
  C   C311      1.0  0.97955  0.38098  0.89146  1.0000
  C   C312      1.0  0.97946  0.24936  0.87822  1.0000
  Fe  Fe20      1.0  0.00529  0.82537  0.09412  1.0000
  S   S38       1.0  0.03176  0.83389  0.08644  1.0000
  H   H245      1.0  0.02356  0.66182  0.02379  1.0000
  Fe  Fe21      1.0  0.00922  0.84153  0.15850  1.0000
  S   S39       1.0  0.03589  0.85253  0.15308  1.0000
  H   H246      1.0  0.98674  0.99036  0.27474  1.0000
  Fe  Fe22      1.0  0.02859  0.87817  0.11347  1.0000
  S   S40       1.0  0.03588  0.92612  0.09391  1.0000
  Fe  Fe23      1.0  0.03661  0.80711  0.12719  1.0000
  S   S41       1.0  0.05442  0.76461  0.13160  1.0000
  S   S42       1.0  0.00206  0.87025  0.12041  1.0000
  S   S43       1.0  0.00999  0.79541  0.13335  1.0000
  S   S44       1.0  0.17529  0.61609  0.46979  1.0000
  Fe  Fe24      1.0  0.15827  0.65486  0.45767  1.0000
  S   S45       1.0  0.16280  0.67717  0.41482  1.0000
  Fe  Fe25      1.0  0.14044  0.59986  0.20808  1.0000
  S   S46       1.0  0.15161  0.64546  0.19003  1.0000
  S   S47       1.0  0.13750  0.55304  0.18344  1.0000
  Fe  Fe26      1.0  0.13590  0.62936  0.26590  1.0000
  S   S48       1.0  0.14674  0.67631  0.25264  1.0000
  S   S49       1.0  0.12603  0.61819  0.30932  1.0000
  Fe  Fe27      1.0  0.13128  0.67119  0.21334  1.0000
  S   S50       1.0  0.11626  0.71657  0.20267  1.0000
  Fe  Fe28      1.0  0.16603  0.64720  0.23061  1.0000
  S   S51       1.0  0.19286  0.65358  0.24333  1.0000
  S   S52       1.0  0.11949  0.62526  0.22841  1.0000
  S   S53       1.0  0.15574  0.60046  0.24679  1.0000
  Fe  Fe29      1.0  0.29124  0.64804  0.21052  1.0000
  S   S54       1.0  0.29588  0.62108  0.25057  1.0000
  S   S55       1.0  0.26558  0.65862  0.19425  1.0000
  C   C313      1.0  0.03776  0.72394  0.44664  1.0000
  Fe  Fe30      1.0  0.15320  0.58971  0.48494  1.0000
  C   C314      1.0  0.01234  0.72711  0.03118  1.0000
  C   C315      1.0  0.25863  0.53597  0.27777  1.0000
  C   C316      1.0  0.21289  0.65281  0.22876  1.0000
  C   C317      1.0  0.22612  0.64834  0.24696  1.0000
  C   C318      1.0  0.24224  0.64933  0.23682  1.0000
  C   C319      1.0  0.24544  0.65519  0.20823  1.0000
  C   C320      1.0  0.23221  0.65929  0.19000  1.0000
  C   C321      1.0  0.21608  0.65801  0.20012  1.0000
  H   H247      1.0  0.22391  0.64432  0.26915  1.0000
  H   H248      1.0  0.25221  0.64622  0.25120  1.0000
  H   H249      1.0  0.23446  0.66392  0.16788  1.0000
  H   H250      1.0  0.20614  0.66189  0.18586  1.0000
  C   C322      1.0  0.18623  0.60282  0.14540  1.0000
  C   C323      1.0  0.11089  0.53218  0.30978  1.0000
  C   C324      1.0  0.15333  0.65853  0.38568  1.0000
  C   C325      1.0  0.13984  0.63839  0.38930  1.0000
  C   C326      1.0  0.13175  0.62564  0.36572  1.0000
  C   C327      1.0  0.13714  0.63282  0.33836  1.0000
  C   C328      1.0  0.15095  0.65208  0.33467  1.0000
  C   C329      1.0  0.15900  0.66496  0.35830  1.0000
  H   H251      1.0  0.13541  0.63309  0.41021  1.0000
  H   H252      1.0  0.12119  0.61044  0.36870  1.0000
  H   H253      1.0  0.15520  0.65763  0.31365  1.0000
  H   H254      1.0  0.16941  0.68055  0.35535  1.0000
  C   C330      1.0  0.07121  0.75158  0.15267  1.0000
  C   C331      1.0  0.07921  0.77163  0.17208  1.0000
  C   C332      1.0  0.09283  0.76047  0.18712  1.0000
  C   C333      1.0  0.09863  0.72894  0.18343  1.0000
  C   C334      1.0  0.09035  0.70865  0.16460  1.0000
  C   C335      1.0  0.07687  0.71994  0.14931  1.0000
  H   H255      1.0  0.07512  0.79598  0.17509  1.0000
  H   H256      1.0  0.09900  0.77653  0.20159  1.0000
  H   H257      1.0  0.09451  0.68439  0.16137  1.0000
  H   H258      1.0  0.07087  0.70402  0.13449  1.0000
  C   C336      1.0  0.03503  0.96402  0.11108  1.0000
  C   C337      1.0  0.27315  0.52557  0.48458  1.0000
  C   C338      1.0  0.21387  0.52398  0.26402  1.0000
  H   H259      1.0  0.14304  0.71551  0.45062  1.0000
  C   C339      1.0  0.03586  0.96698  0.14046  1.0000
  C   C340      1.0  0.12910  0.75698  0.46174  1.0000
  H   H260      1.0  0.03634  0.94565  0.15335  1.0000
  H   H261      1.0  0.10634  0.55639  0.30793  1.0000
  H   H262      1.0  0.26346  0.58944  0.21545  1.0000
  C   C341      1.0  0.04586  0.86677  0.01688  1.0000
  H   H263      1.0  0.17332  0.56243  0.41996  1.0000
  H   H264      1.0  0.02302  0.91345  0.21155  1.0000
  H   H265      1.0  0.99736  0.86460  0.26288  1.0000
  C   C342      1.0  0.00419  0.69784  0.20624  1.0000
  C   C343      1.0  0.08195  0.49890  0.21694  1.0000
  H   H266      1.0  0.16027  0.51022  0.40993  1.0000
  C   C344      1.0  0.02403  0.97377  0.00215  1.0000
  C   C345      1.0  0.19260  0.81333  0.28629  1.0000
  C   C346      1.0  0.20118  0.55741  0.29952  1.0000
  H   H267      1.0  0.15491  0.53779  0.32267  1.0000
  C   C347      1.0  0.07085  0.82087  0.23705  1.0000
  C   C348      1.0  0.06107  0.84506  0.22641  1.0000
  C   C349      1.0  0.04443  0.83983  0.22397  1.0000
  C   C350      1.0  0.03760  0.81017  0.23134  1.0000
  C   C351      1.0  0.04737  0.78554  0.24155  1.0000
  C   C352      1.0  0.06402  0.79135  0.24501  1.0000
  P   P12       1.0  0.03804  0.74799  0.25186  1.0000
  C   C353      1.0  0.02592  0.75745  0.28258  1.0000
  C   C354      1.0  0.02601  0.73236  0.22317  1.0000
  C   C355      1.0  0.01321  0.71076  0.22855  1.0000
  C   C356      1.0  0.26876  0.52475  0.40576  1.0000
  C   C357      1.0  0.00817  0.70571  0.17840  1.0000
  C   C358      1.0  0.02123  0.72636  0.17289  1.0000
  C   C359      1.0  0.03011  0.73974  0.19515  1.0000
  C   C360      1.0  0.03322  0.76052  0.30918  1.0000
  C   C361      1.0  0.02397  0.76867  0.33291  1.0000
  C   C362      1.0  0.00743  0.77432  0.33018  1.0000
  C   C363      1.0  0.25844  0.51607  0.18472  1.0000
  C   C364      1.0  0.00941  0.76445  0.27986  1.0000
  C   C365      1.0  0.05279  0.71712  0.25797  1.0000
  C   C366      1.0  0.06519  0.71210  0.23814  1.0000
  C   C367      1.0  0.07655  0.68803  0.24236  1.0000
  C   C368      1.0  0.07536  0.66814  0.26594  1.0000
  C   C369      1.0  0.06267  0.67208  0.28517  1.0000
  C   C370      1.0  0.05135  0.69633  0.28115  1.0000
  H   H268      1.0  0.08376  0.82490  0.23893  1.0000
  H   H269      1.0  0.06636  0.86783  0.22000  1.0000
  H   H270      1.0  0.03675  0.85858  0.21601  1.0000
  H   H271      1.0  0.02468  0.80647  0.22900  1.0000
  H   H272      1.0  0.07181  0.77327  0.25363  1.0000
  H   H273      1.0  0.01018  0.70392  0.24997  1.0000
  H   H274      1.0  0.01238  0.95236  0.05274  1.0000
  H   H275      1.0  0.04851  0.95727  0.99534  1.0000
  H   H276      1.0  0.02456  0.73205  0.15133  1.0000
  H   H277      1.0  0.04026  0.75552  0.19032  1.0000
  H   H278      1.0  0.04607  0.75688  0.31151  1.0000
  H   H279      1.0  0.02959  0.77090  0.35344  1.0000
  H   H280      1.0  0.00321  0.92534  0.27596  1.0000
  C   C371      1.0  0.98670  0.90504  0.01421  1.0000
  H   H281      1.0  0.00362  0.76435  0.25940  1.0000
  H   H282      1.0  0.06612  0.72679  0.21935  1.0000
  H   H283      1.0  0.08626  0.68468  0.22719  1.0000
  H   H284      1.0  0.08421  0.64948  0.26907  1.0000
  H   H285      1.0  0.06157  0.65619  0.30314  1.0000
  H   H286      1.0  0.04138  0.69838  0.29586  1.0000
  C   C372      1.0  0.24369  0.55199  0.41706  1.0000
  H   H287      1.0  0.18704  0.59654  0.28360  1.0000
  C   C373      1.0  0.17362  0.73083  0.21699  1.0000
  C   C374      1.0  0.15918  0.74373  0.20724  1.0000
  C   C375      1.0  0.14968  0.76230  0.22529  1.0000
  C   C376      1.0  0.15437  0.76732  0.25330  1.0000
  C   C377      1.0  0.16846  0.75320  0.26364  1.0000
  C   C378      1.0  0.17837  0.73587  0.24496  1.0000
  P   P13       1.0  0.17415  0.75952  0.30007  1.0000
  C   C379      1.0  0.17972  0.80142  0.30271  1.0000
  C   C380      1.0  0.15823  0.74848  0.32453  1.0000
  C   C381      1.0  0.14391  0.73354  0.31520  1.0000
  C   C382      1.0  0.13211  0.72368  0.33459  1.0000
  C   C383      1.0  0.13449  0.72847  0.36348  1.0000
  C   C384      1.0  0.14879  0.74298  0.37299  1.0000
  C   C385      1.0  0.16067  0.75272  0.35364  1.0000
  C   C386      1.0  0.17097  0.82264  0.31989  1.0000
  C   C387      1.0  0.08774  0.59265  0.46939  1.0000
  C   C388      1.0  0.98809  0.84740  0.25699  1.0000
  C   C389      1.0  0.19089  0.73437  0.30935  1.0000
  C   C390      1.0  0.18981  0.70122  0.30427  1.0000
  C   C391      1.0  0.20286  0.68147  0.31025  1.0000
  C   C392      1.0  0.21693  0.69450  0.32211  1.0000
  C   C393      1.0  0.21783  0.72729  0.32840  1.0000
  C   C394      1.0  0.20485  0.74722  0.32212  1.0000
  H   H288      1.0  0.18102  0.71636  0.20306  1.0000
  H   H289      1.0  0.15523  0.73909  0.18581  1.0000
  H   H290      1.0  0.13844  0.77208  0.21766  1.0000
  H   H291      1.0  0.14680  0.78161  0.26703  1.0000
  H   H292      1.0  0.18966  0.72574  0.25176  1.0000
  C   C395      1.0  0.24077  0.56361  0.21221  1.0000
  C   C396      1.0  0.12678  0.49818  0.40988  1.0000
  H   H293      1.0  0.12559  0.71978  0.37855  1.0000
  H   H294      1.0  0.15095  0.74533  0.39546  1.0000
  H   H295      1.0  0.17192  0.76290  0.36143  1.0000
  H   H296      1.0  0.16067  0.81434  0.33209  1.0000
  C   C397      1.0  0.27710  0.55414  0.40615  1.0000
  H   H297      1.0  0.17907  0.69074  0.29477  1.0000
  H   H298      1.0  0.20207  0.65617  0.30500  1.0000
  H   H299      1.0  0.22711  0.67922  0.32643  1.0000
  H   H300      1.0  0.22867  0.73730  0.33795  1.0000
  H   H301      1.0  0.20580  0.77250  0.32725  1.0000
  C   C398      1.0  0.98757  0.83597  0.22902  1.0000
  H   H302      1.0  0.22345  0.58585  0.16996  1.0000
  C   C399      1.0  0.26876  0.58249  0.41149  1.0000
  H   H303      1.0  0.20270  0.53133  0.37383  1.0000
  C   C400      1.0  0.15910  0.54254  0.34394  1.0000
  H   H304      1.0  0.03345  0.72786  0.09295  1.0000
  C   C401      1.0  0.21095  0.53141  0.29240  1.0000
  H   H305      1.0  0.13004  0.52321  0.40692  1.0000
  C   C402      1.0  0.03797  0.75953  0.05806  1.0000
  C   C403      1.0  0.00200  0.93753  0.04737  1.0000
  C   C404      1.0  0.17166  0.57925  0.37721  1.0000
  C   C405      1.0  0.16673  0.57195  0.34976  1.0000
  H   H306      1.0  0.19882  0.56318  0.32144  1.0000
  H   H307      1.0  0.21000  0.62278  0.13813  1.0000
  H   H308      1.0  0.02913  0.89823  0.03725  1.0000
  H   H309      1.0  0.29007  0.55498  0.40272  1.0000
  C   C406      1.0  0.14153  0.51615  0.20032  1.0000
  C   C407      1.0  0.98991  0.91725  0.31450  1.0000
  C   C408      1.0  0.99137  0.92392  0.28577  1.0000
  H   H310      1.0  0.09958  0.66881  0.48572  1.0000
  C   C409      1.0  0.98318  0.64514  0.02900  1.0000
  H   H311      1.0  0.25198  0.49811  0.24893  1.0000
  C   C410      1.0  0.25221  0.58141  0.41751  1.0000
  C   C411      1.0  0.07858  0.62984  0.43386  1.0000
  C   C412      1.0  0.23278  0.53580  0.20232  1.0000
  H   H312      1.0  0.17658  0.60278  0.38214  1.0000
  H   H313      1.0  0.16809  0.58973  0.33325  1.0000
  C   C413      1.0  0.19445  0.57607  0.27826  1.0000
  H   H314      1.0  0.24209  0.56731  0.47445  1.0000
  S   S56       1.0  0.30876  0.67719  0.49181  1.0000
  C   C414      1.0  0.26772  0.54465  0.30142  1.0000
  C   C415      1.0  0.27726  0.52186  0.31470  1.0000
  C   C416      1.0  0.99738  0.66314  0.02412  1.0000
  H   H315      1.0  0.26746  0.56912  0.30932  1.0000
  H   H316      1.0  0.28419  0.52863  0.33317  1.0000
  H   H317      1.0  0.99414  0.68163  0.21053  1.0000
  H   H318      1.0  0.12143  0.71113  0.32716  1.0000
  P   P14       1.0  0.08479  0.69590  0.43529  1.0000
  H   H319      1.0  0.08942  0.70327  0.31554  1.0000
  C   C417      1.0  0.08027  0.72551  0.35346  1.0000
  C   C418      1.0  0.08818  0.70149  0.33826  1.0000
  C   C419      1.0  0.09501  0.67570  0.35247  1.0000
  C   C420      1.0  0.09383  0.67374  0.38186  1.0000
  C   C421      1.0  0.08531  0.69707  0.39721  1.0000
  C   C422      1.0  0.07901  0.72353  0.38286  1.0000
  C   C423      1.0  0.06577  0.71953  0.47905  1.0000
  H   H320      1.0  0.00059  0.91346  0.32714  1.0000
  C   C424      1.0  0.04095  0.97703  0.00177  1.0000
  C   C425      1.0  0.02902  0.95856  0.23188  1.0000
  C   C426      1.0  0.24182  0.51178  0.18892  1.0000
  H   H321      1.0  0.07383  0.57878  0.43293  1.0000
  H   H322      1.0  0.18030  0.61932  0.13131  1.0000
  C   C427      1.0  0.21780  0.55383  0.46149  1.0000
  H   H323      1.0  0.19926  0.79739  0.27243  1.0000
  C   C428      1.0  0.05197  0.71212  0.43448  1.0000
  C   C429      1.0  0.10201  0.71972  0.44633  1.0000
  C   C430      1.0  0.10015  0.75160  0.45550  1.0000
  C   C431      1.0  0.99378  0.79008  0.47627  1.0000
  C   C432      1.0  0.11365  0.77005  0.46338  1.0000
  C   C433      1.0  0.13106  0.72557  0.45200  1.0000
  C   C434      1.0  0.11760  0.70702  0.44417  1.0000
  H   H324      1.0  0.07537  0.74594  0.34249  1.0000
  H   H325      1.0  0.10159  0.65755  0.34075  1.0000
  C   C435      1.0  0.16967  0.55658  0.39859  1.0000
  H   H326      1.0  0.07332  0.74286  0.39444  1.0000
  H   H327      1.0  0.03407  0.98997  0.07189  1.0000
  H   H328      1.0  0.01072  0.69947  0.06979  1.0000
  H   H329      1.0  0.01031  0.82729  0.01294  1.0000
  H   H330      1.0  0.04794  0.77183  0.06848  1.0000
  C   C436      1.0  0.01886  0.93721  0.21731  1.0000
  H   H331      1.0  0.24576  0.50097  0.40958  1.0000
  H   H332      1.0  0.05173  0.70389  0.41281  1.0000
  S   S57       1.0  0.29111  0.61170  0.46617  1.0000
  C   C437      1.0  0.14189  0.51413  0.22971  1.0000
  H   H333      1.0  0.04984  0.85651  0.03659  1.0000
  H   H334      1.0  0.12546  0.54390  0.34567  1.0000
  C   C438      1.0  0.09406  0.64938  0.47378  1.0000
  H   H335      1.0  0.11940  0.68276  0.43649  1.0000
  H   H336      1.0  0.14193  0.72848  0.29312  1.0000
  P   P15       1.0  0.22220  0.55127  0.42417  1.0000
  H   H337      1.0  0.10789  0.50391  0.21640  1.0000
  C   C439      1.0  0.19695  0.84586  0.28758  1.0000
  H   H338      1.0  0.07997  0.52446  0.21929  1.0000
  C   C440      1.0  0.29564  0.67590  0.35406  1.0000
  H   H339      1.0  0.00352  0.77954  0.46426  1.0000
  H   H340      1.0  0.23401  0.58268  0.22227  1.0000
  H   H341      1.0  0.27532  0.50285  0.40180  1.0000
  H   H342      1.0  0.28283  0.68080  0.35495  1.0000
  C   C441      1.0  0.18837  0.86677  0.30506  1.0000
  C   C442      1.0  0.21431  0.58591  0.40629  1.0000
  C   C443      1.0  0.21668  0.58966  0.37711  1.0000
  C   C444      1.0  0.21134  0.61731  0.36351  1.0000
  C   C445      1.0  0.20397  0.64175  0.37908  1.0000
  C   C446      1.0  0.20218  0.63873  0.40824  1.0000
  C   C447      1.0  0.20743  0.61109  0.42183  1.0000
  C   C448      1.0  0.00019  0.77230  0.30367  1.0000
  C   C449      1.0  0.00333  0.94655  0.20984  1.0000
  P   P16       1.0  0.21105  0.53254  0.20607  1.0000
  H   H343      1.0  0.27520  0.60539  0.41148  1.0000
  C   C450      1.0  0.20193  0.54775  0.47101  1.0000
  H   H344      1.0  0.22289  0.57147  0.36497  1.0000
  H   H345      1.0  0.21305  0.61991  0.34098  1.0000
  H   H346      1.0  0.19962  0.66312  0.36877  1.0000
  H   H347      1.0  0.19667  0.65788  0.42040  1.0000
  H   H348      1.0  0.20640  0.60993  0.44455  1.0000
  C   C451      1.0  0.05158  0.73137  0.49112  1.0000
  H   H349      1.0  0.11210  0.79438  0.47101  1.0000
  C   C452      1.0  0.08619  0.65538  0.44823  1.0000
  H   H350      1.0  0.09982  0.65428  0.39252  1.0000
  C   C453      1.0  0.03410  0.89059  0.01715  1.0000
  H   H351      1.0  0.25123  0.55373  0.26759  1.0000
  C   C454      1.0  0.20692  0.54234  0.24255  1.0000
  C   C455      1.0  0.12191  0.52505  0.33103  1.0000
  H   H352      1.0  0.07191  0.63409  0.41467  1.0000
  C   C456      1.0  0.19730  0.56859  0.24987  1.0000
  H   H353      1.0  0.19205  0.58356  0.23378  1.0000
  H   H354      1.0  0.16423  0.57814  0.15654  1.0000
  C   C457      1.0  0.17536  0.85518  0.32115  1.0000
  C   C458      1.0  0.99855  0.82364  0.00350  1.0000
  H   H355      1.0  0.04116  0.95140  0.23727  1.0000
  H   H356      1.0  0.20693  0.85487  0.27487  1.0000
  H   H357      1.0  0.98501  0.89432  0.99368  1.0000
  C   C459      1.0  0.07952  0.59852  0.44426  1.0000
  C   C460      1.0  0.01698  0.71856  0.05861  1.0000
  H   H358      1.0  0.13956  0.77109  0.46811  1.0000
  C   C461      1.0  0.18465  0.55854  0.17837  1.0000
  C   C462      1.0  0.03761  0.73382  0.47488  1.0000
  S   S58       1.0  0.13594  0.62721  0.46992  1.0000
  C   C463      1.0  0.25207  0.52371  0.41077  1.0000
  H   H359      1.0  0.00022  0.78071  0.34853  1.0000
  S   S59       1.0  0.29423  0.67556  0.41166  1.0000
  S   S60       1.0  0.00108  0.85330  0.20379  1.0000
  H   H360      1.0  0.29688  0.67762  0.30851  1.0000
  C   C464      1.0  0.20143  0.56042  0.18250  1.0000
  H   H361      1.0  0.13999  0.53538  0.24243  1.0000
  H   H362      1.0  0.24609  0.60363  0.42245  1.0000
  C   C465      1.0  0.21052  0.58363  0.16761  1.0000
  H   H363      1.0  0.16860  0.87147  0.33447  1.0000
  H   H364      1.0  0.29559  0.74147  0.27771  1.0000
  H   H365      1.0  0.27921  0.54705  0.19149  1.0000
  C   C466      1.0  0.06622  0.71075  0.45042  1.0000
  C   C467      1.0  0.03308  0.76897  0.03119  1.0000
  C   C468      1.0  0.25743  0.56759  0.20831  1.0000
  H   H366      1.0  0.19171  0.89200  0.30598  1.0000
  C   C469      1.0  0.16208  0.52710  0.39285  1.0000
  C   C470      1.0  0.99973  0.92606  0.01969  1.0000
  C   C471      1.0  0.17714  0.57964  0.15980  1.0000
  C   C472      1.0  0.98514  0.81746  0.02095  1.0000
  H   H367      1.0  0.17731  0.54085  0.18947  1.0000
  H   H368      1.0  0.08831  0.76231  0.45671  1.0000
  C   C473      1.0  0.26629  0.54380  0.19460  1.0000
  C   C474      1.0  0.20292  0.60472  0.14921  1.0000
  P   P17       1.0  0.99646  0.70472  0.01349  1.0000
  H   H369      1.0  0.02681  0.72539  0.43426  1.0000
  H   H370      1.0  0.11542  0.50758  0.45000  1.0000
  C   C475      1.0  0.09485  0.61813  0.48427  1.0000
  C   C476      1.0  0.99789  0.97722  0.21699  1.0000
  H   H371      1.0  0.19238  0.54164  0.45630  1.0000
  S   S61       1.0  0.15125  0.53915  0.46705  1.0000
  C   C477      1.0  0.30354  0.67407  0.32782  1.0000
  H   H372      1.0  0.99365  0.93664  0.09037  1.0000
  C   C478      1.0  0.99136  0.92855  0.06896  1.0000
  Fe  Fe31      1.0  0.31215  0.59027  0.22402  1.0000
  C   C479      1.0  0.20453  0.51083  0.38723  1.0000
  C   C480      1.0  0.15598  0.52057  0.36580  1.0000
  C   C481      1.0  0.21314  0.51365  0.41263  1.0000
  S   S62       1.0  0.98646  0.81468  0.05886  1.0000
  H   H373      1.0  0.98586  0.98417  0.21079  1.0000
  H   H374      1.0  0.02493  0.60525  0.03873  1.0000
  H   H375      1.0  0.99555  0.92986  0.19842  1.0000
  H   H376      1.0  0.28042  0.53735  0.46852  1.0000
  C   C482      1.0  0.22982  0.56200  0.48112  1.0000
  C   C483      1.0  0.30582  0.74927  0.26500  1.0000
  C   C484      1.0  0.25913  0.50454  0.26724  1.0000
  H   H377      1.0  0.98740  0.77718  0.30154  1.0000
  C   C485      1.0  0.30427  0.67173  0.37915  1.0000
  H   H378      1.0  0.08853  0.56843  0.47749  1.0000
  C   C486      1.0  0.30343  0.75966  0.23735  1.0000
  C   C487      1.0  0.02981  0.73460  0.07187  1.0000
  H   H379      1.0  0.00123  0.69570  0.16108  1.0000
  C   C488      1.0  0.98405  0.61304  0.03738  1.0000
  H   H380      1.0  0.21624  0.51701  0.30883  1.0000
  S   S63       1.0  0.31030  0.53829  0.23857  1.0000
  C   C489      1.0  0.15232  0.50324  0.48661  1.0000
  C   C490      1.0  0.02031  0.75285  0.01776  1.0000
  H   H381      1.0  0.29134  0.75991  0.22860  1.0000
  H   H382      1.0  0.00678  0.97746  0.43353  1.0000
  S   S64       1.0  0.31190  0.68392  0.21749  1.0000
  Fe  Fe32      1.0  0.30576  0.65293  0.44956  1.0000
  H   H383      1.0  0.25267  0.63970  0.49261  1.0000
  C   C491      1.0  0.31195  0.58183  0.33841  1.0000
  H   H384      1.0  0.03911  0.78896  0.02087  1.0000
  H   H385      1.0  0.22238  0.64365  0.49191  1.0000
  H   H386      1.0  0.02665  0.74314  0.48430  1.0000
  H   H387      1.0  0.30883  0.56375  0.29615  1.0000
  H   H388      1.0  0.26521  0.49795  0.17349  1.0000
  S   S65       1.0  0.30686  0.61577  0.18338  1.0000
  H   H389      1.0  0.30656  0.60482  0.33389  1.0000
  H   H390      1.0  0.21121  0.49441  0.15416  1.0000
  H   H391      1.0  0.09752  0.51403  0.27417  1.0000
  H   H392      1.0  0.22142  0.50374  0.25869  1.0000
  H   H393      1.0  0.98489  0.74081  0.06313  1.0000
  C   C492      1.0  0.98028  0.96316  0.46908  1.0000
  H   H394      1.0  0.99974  0.57382  0.04746  1.0000
  C   C493      1.0  0.10595  0.50834  0.29076  1.0000
  H   H395      1.0  0.98359  0.87082  0.47948  1.0000
  C   C494      1.0  0.98259  0.89650  0.47665  1.0000
  C   C495      1.0  0.02368  0.98938  0.23887  1.0000
  C   C496      1.0  0.12849  0.49417  0.33287  1.0000
  H   H396      1.0  0.02000  0.98987  0.38809  1.0000
  C   C497      1.0  0.01326  0.61637  0.03597  1.0000
  C   C498      1.0  0.03454  0.99202  0.09462  1.0000
  H   H397      1.0  0.01669  0.76070  0.99703  1.0000
  C   C499      1.0  0.01244  0.64845  0.02757  1.0000
  C   C500      1.0  0.99908  0.59867  0.04089  1.0000
  H   H398      1.0  0.07640  0.71730  0.49211  1.0000
  C   C501      1.0  0.26786  0.49381  0.48067  1.0000
  H   H399      1.0  0.03284  0.90557  0.94649  1.0000
  C   C502      1.0  0.30731  0.61414  0.68781  1.0000
  H   H400      1.0  0.00886  0.97856  0.69649  1.0000
  Fe  Fe33      1.0  0.00955  0.81716  0.57935  1.0000
  S   S66       1.0  0.03259  0.84274  0.56699  1.0000
  C   C503      1.0  0.99507  0.97092  0.91886  1.0000
  Fe  Fe34      1.0  0.02253  0.79719  0.63693  1.0000
  S   S67       1.0  0.04686  0.82029  0.62833  1.0000
  S   S68       1.0  0.01570  0.77219  0.67847  1.0000
  Fe  Fe35      1.0  0.03277  0.86193  0.61143  1.0000
  S   S69       1.0  0.03658  0.91180  0.63050  1.0000
  Fe  Fe36      1.0  0.04516  0.79879  0.58437  1.0000
  S   S70       1.0  0.06682  0.78156  0.55711  1.0000
  S   S71       1.0  0.00876  0.83969  0.62245  1.0000
  S   S72       1.0  0.02175  0.77232  0.59428  1.0000
  Fe  Fe37      1.0  0.13879  0.65079  0.51265  1.0000
  H   H401      1.0  0.07894  0.86108  0.56087  1.0000
  S   S73       1.0  0.11647  0.66503  0.53937  1.0000
  S   S74       1.0  0.98531  0.81904  0.55717  1.0000
  S   S75       1.0  0.16024  0.68131  0.49930  1.0000
  H   H402      1.0  0.00072  0.88773  0.95349  1.0000
  H   H403      1.0  0.00765  0.99066  0.95440  1.0000
  C   C504      1.0  0.99911  0.91117  0.94425  1.0000
  S   S76       1.0  0.15457  0.61059  0.52865  1.0000
  Fe  Fe38      1.0  0.29546  0.63344  0.50831  1.0000
  S   S77       1.0  0.27547  0.63303  0.54135  1.0000
  H   H404      1.0  0.98753  0.75385  0.97258  1.0000
  C   C505      1.0  0.13652  0.82494  0.71161  1.0000
  C   C506      1.0  0.99350  0.97404  0.79301  1.0000
  H   H405      1.0  0.08684  0.85773  0.66445  1.0000
  H   H406      1.0  0.04190  0.95048  0.71939  1.0000
  H   H407      1.0  0.98645  0.89166  0.90830  1.0000
  C   C507      1.0  0.25408  0.63623  0.53796  1.0000
  C   C508      1.0  0.24504  0.63554  0.56296  1.0000
  C   C509      1.0  0.22817  0.63792  0.56256  1.0000
  H   H408      1.0  0.25114  0.63339  0.58299  1.0000
  H   H409      1.0  0.22154  0.63756  0.58229  1.0000
  C   C510      1.0  0.03729  0.94930  0.61306  1.0000
  C   C511      1.0  0.03530  0.97739  0.62918  1.0000
  C   C512      1.0  0.08580  0.85887  0.64172  1.0000
  H   H410      1.0  0.27379  0.56647  0.51269  1.0000
  C   C513      1.0  0.04077  0.95192  0.58425  1.0000
  H   H411      1.0  0.03247  0.97547  0.65138  1.0000
  H   H412      1.0  0.04228  0.93047  0.57160  1.0000
  C   C514      1.0  0.08026  0.74848  0.55204  1.0000
  C   C515      1.0  0.07777  0.71858  0.56485  1.0000
  C   C516      1.0  0.08885  0.69344  0.56042  1.0000
  C   C517      1.0  0.10251  0.69744  0.54283  1.0000
  C   C518      1.0  0.10482  0.72710  0.52950  1.0000
  C   C519      1.0  0.09383  0.75241  0.53420  1.0000
  H   H413      1.0  0.06732  0.71479  0.57826  1.0000
  H   H414      1.0  0.08686  0.67066  0.57083  1.0000
  H   H415      1.0  0.11527  0.73073  0.51609  1.0000
  H   H416      1.0  0.09592  0.77529  0.52404  1.0000
  C   C520      1.0  0.02847  0.98465  0.74425  1.0000
  H   H417      1.0  0.98226  0.94493  0.88634  1.0000
  C   C521      1.0  0.11428  0.80986  0.66887  1.0000
  H   H418      1.0  0.00736  0.79228  0.51518  1.0000
  H   H419      1.0  0.08430  0.79620  0.69609  1.0000
  C   C522      1.0  0.99680  0.82470  0.97373  1.0000
  C   C523      1.0  0.98472  0.97144  0.68019  1.0000
  C   C524      1.0  0.09192  0.83417  0.62461  1.0000
  H   H420      1.0  0.00561  0.75004  0.73369  1.0000
  S   S78       1.0  0.19832  0.64373  0.53972  1.0000
  C   C525      1.0  0.04286  0.98249  0.57198  1.0000
  C   C526      1.0  0.99802  0.82154  0.70275  1.0000
  C   C527      1.0  0.00425  0.79074  0.70586  1.0000
  S   S79       1.0  0.98022  0.82173  0.92270  1.0000
  C   C528      1.0  0.12934  0.79439  0.71044  1.0000
  C   C529      1.0  0.99203  0.78834  0.75324  1.0000
  H   H421      1.0  0.00017  0.83465  0.68344  1.0000
  H   H422      1.0  0.15368  0.52562  0.52759  1.0000
  C   C530      1.0  0.98159  0.82038  0.96069  1.0000
  H   H423      1.0  0.11308  0.76283  0.68806  1.0000
  C   C531      1.0  0.30724  0.69576  0.56459  1.0000
  C   C532      1.0  0.07541  0.88568  0.60048  1.0000
  H   H424      1.0  0.23504  0.57200  0.52486  1.0000
  H   H425      1.0  0.02334  0.96622  0.75767  1.0000
  C   C533      1.0  0.21007  0.55892  0.51904  1.0000
  C   C534      1.0  0.99599  0.79736  0.50506  1.0000
  C   C535      1.0  0.11228  0.74201  0.61780  1.0000
  C   C536      1.0  0.03615  0.89463  0.96627  1.0000
  H   H426      1.0  0.04445  0.73221  0.67915  1.0000
  C   C537      1.0  0.01397  0.96216  0.83847  1.0000
  H   H427      1.0  0.05974  0.76713  0.71223  1.0000
  H   H428      1.0  0.07780  0.75631  0.61286  1.0000
  H   H429      1.0  0.05385  0.99168  0.68770  1.0000
  C   C538      1.0  0.08127  0.86100  0.58336  1.0000
  C   C539      1.0  0.98342  0.81094  0.52069  1.0000
  C   C540      1.0  0.05540  0.74436  0.67213  1.0000
  P   P18       1.0  0.10065  0.79929  0.64070  1.0000
  C   C541      1.0  0.07770  0.88465  0.62964  1.0000
  C   C542      1.0  0.22593  0.56439  0.50981  1.0000
  H   H430      1.0  0.25803  0.53921  0.55025  1.0000
  C   C543      1.0  0.11834  0.78678  0.68904  1.0000
  H   H431      1.0  0.06865  0.90515  0.59131  1.0000
  H   H432      1.0  0.09333  0.81586  0.58181  1.0000
  H   H433      1.0  0.13852  0.87135  0.69191  1.0000
  C   C544      1.0  0.06049  0.74136  0.64411  1.0000
  C   C545      1.0  0.98398  0.95059  0.49573  1.0000
  C   C546      1.0  0.07801  0.78036  0.68157  1.0000
  H   H434      1.0  0.98815  0.90766  0.51993  1.0000
  H   H435      1.0  0.11933  0.85804  0.65381  1.0000
  H   H436      1.0  0.05344  0.72705  0.62937  1.0000
  C   C547      1.0  0.12202  0.72394  0.59970  1.0000
  H   H437      1.0  0.18572  0.54660  0.50671  1.0000
  C   C548      1.0  0.13278  0.84783  0.69125  1.0000
  C   C549      1.0  0.98518  0.91736  0.49942  1.0000
  C   C550      1.0  0.06408  0.76402  0.69080  1.0000
  C   C551      1.0  0.00305  0.96888  0.94477  1.0000
  H   H438      1.0  0.05305  0.86268  0.94629  1.0000
  H   H439      1.0  0.14511  0.83075  0.72812  1.0000
  H   H440      1.0  0.29730  0.68850  0.55104  1.0000
  C   C552      1.0  0.99087  0.94710  0.81006  1.0000
  H   H441      1.0  0.30362  0.74626  0.55813  1.0000
  Fe  Fe39      1.0  0.17582  0.63968  0.51215  1.0000
  C   C553      1.0  0.24586  0.63911  0.51212  1.0000
  C   C554      1.0  0.99936  0.70789  0.97576  1.0000
  H   H442      1.0  0.98290  0.69591  0.74503  1.0000
  C   C555      1.0  0.99953  0.98785  0.68311  1.0000
  C   C556      1.0  0.07433  0.75779  0.63483  1.0000
  C   C557      1.0  0.12179  0.84027  0.66980  1.0000
  C   C558      1.0  0.03909  0.97558  0.72262  1.0000
  C   C559      1.0  0.11237  0.77570  0.61613  1.0000
  C   C560      1.0  0.00740  0.68380  0.96055  1.0000
  C   C561      1.0  0.00952  0.68649  0.93134  1.0000
  C   C562      1.0  0.00364  0.71320  0.91712  1.0000
  C   C563      1.0  0.99570  0.73729  0.93211  1.0000
  C   C564      1.0  0.99361  0.73476  0.96130  1.0000
  C   C565      1.0  0.15329  0.50313  0.51607  1.0000
  C   C566      1.0  0.25508  0.49496  0.52676  1.0000
  H   H443      1.0  0.01207  0.66292  0.97105  1.0000
  H   H444      1.0  0.05144  0.73869  0.51313  1.0000
  C   C567      1.0  0.22868  0.64138  0.51172  1.0000
  C   C568      1.0  0.26952  0.54195  0.50955  1.0000
  H   H445      1.0  0.98477  0.78867  0.65253  1.0000
  H   H446      1.0  0.99911  0.91996  0.84560  1.0000
  C   C569      1.0  0.08949  0.83534  0.59535  1.0000
  H   H447      1.0  0.02188  0.95750  0.85609  1.0000
  H   H448      1.0  0.20696  0.56234  0.54110  1.0000
  H   H449      1.0  0.98674  0.92147  0.63961  1.0000
  H   H450      1.0  0.10109  0.61374  0.50394  1.0000
  C   C570      1.0  0.08338  0.77683  0.65359  1.0000
  C   C571      1.0  0.31071  0.72833  0.56879  1.0000
  C   C572      1.0  0.00113  0.94105  0.83265  1.0000
  H   H451      1.0  0.01573  0.66785  0.91970  1.0000
  H   H452      1.0  0.00524  0.71534  0.89449  1.0000
  H   H453      1.0  0.99116  0.75801  0.92107  1.0000
  C   C573      1.0  0.30386  0.64327  0.67476  1.0000
  C   C574      1.0  0.99115  0.91328  0.91838  1.0000
  H   H454      1.0  0.29959  0.60526  0.70466  1.0000
  H   H455      1.0  0.31082  0.67736  0.64311  1.0000
  H   H456      1.0  0.98992  0.77551  0.77273  1.0000
  H   H457      1.0  0.98421  0.85923  0.72174  1.0000
  C   C575      1.0  0.02426  0.88969  0.70011  1.0000
  C   C576      1.0  0.02704  0.88472  0.72877  1.0000
  C   C577      1.0  0.01624  0.89674  0.74878  1.0000
  C   C578      1.0  0.00252  0.91322  0.74011  1.0000
  C   C579      1.0  0.99929  0.91736  0.71129  1.0000
  C   C580      1.0  0.01052  0.90607  0.69139  1.0000
  C   C581      1.0  0.26060  0.52655  0.53072  1.0000
  H   H458      1.0  0.97943  0.73568  0.55362  1.0000
  P   P19       1.0  0.98056  0.93491  0.69945  1.0000
  H   H459      1.0  0.10469  0.72953  0.63292  1.0000
  C   C582      1.0  0.98891  0.94320  0.90590  1.0000
  H   H460      1.0  0.07261  0.90330  0.64287  1.0000
  C   C583      1.0  0.21978  0.64077  0.53715  1.0000
  H   H461      1.0  0.00737  0.82891  0.96069  1.0000
  C   C584      1.0  0.13212  0.73928  0.58016  1.0000
  H   H462      1.0  0.98604  0.96628  0.51366  1.0000
  C   C585      1.0  0.04774  0.87045  0.96606  1.0000
  H   H463      1.0  0.14054  0.78461  0.56381  1.0000
  H   H464      1.0  0.99430  0.92159  0.75603  1.0000
  C   C586      1.0  0.98621  0.81956  0.75028  1.0000
  H   H465      1.0  0.13241  0.77647  0.72597  1.0000
  H   H466      1.0  0.12367  0.81693  0.59614  1.0000
  C   C587      1.0  0.00100  0.77403  0.73111  1.0000
  C   C588      1.0  0.98899  0.83560  0.72467  1.0000
  C   C589      1.0  0.13265  0.77280  0.57892  1.0000
  H   H467      1.0  0.03256  0.88018  0.68448  1.0000
  H   H468      1.0  0.03744  0.87119  0.73537  1.0000
  H   H469      1.0  0.01821  0.89246  0.77103  1.0000
  H   H470      1.0  0.13938  0.72504  0.56579  1.0000
  H   H471      1.0  0.00859  0.90918  0.66903  1.0000
  C   C590      1.0  0.12296  0.79098  0.59707  1.0000
  H   H472      1.0  0.04595  0.98438  0.54985  1.0000
  C   C591      1.0  0.00480  0.93902  0.95807  1.0000
  H   H473      1.0  0.12154  0.69790  0.60034  1.0000
  H   H474      1.0  0.29346  0.65695  0.68146  1.0000
  H   H475      1.0  0.98087  0.93074  0.80577  1.0000
  H   H476      1.0  0.98554  0.97809  0.77538  1.0000
  C   C592      1.0  0.19810  0.55033  0.49966  1.0000
  C   C593      1.0  0.01666  0.98911  0.82145  1.0000
  C   C594      1.0  0.05259  0.85652  0.99137  1.0000
  H   H477      1.0  0.06168  0.83803  0.99127  1.0000
  C   C595      1.0  0.02907  0.90458  0.99182  1.0000
  P   P20       1.0  0.01429  0.93618  0.99238  1.0000
  H   H478      1.0  0.35708  0.22394  0.23086  1.0000
  S   S80       1.0  0.61506  0.28506  0.45590  1.0000
  Fe  Fe40      1.0  0.55041  0.15917  0.38013  1.0000
  S   S81       1.0  0.52941  0.19249  0.37455  1.0000
  S   S82       1.0  0.57711  0.17620  0.38375  1.0000
  Fe  Fe41      1.0  0.52808  0.09922  0.37999  1.0000
  S   S83       1.0  0.50590  0.12938  0.37595  1.0000
  S   S84       1.0  0.51914  0.04733  0.38203  1.0000
  Fe  Fe42      1.0  0.51953  0.15660  0.34259  1.0000
  S   S85       1.0  0.50363  0.17095  0.30492  1.0000
  Fe  Fe43      1.0  0.51729  0.16196  0.40776  1.0000
  S   S86       1.0  0.50357  0.18515  0.44389  1.0000
  S   S87       1.0  0.54149  0.12523  0.34522  1.0000
  S   S88       1.0  0.53854  0.13010  0.41483  1.0000
  Fe  Fe44      1.0  0.44332  0.16219  0.12644  1.0000
  S   S89       1.0  0.46988  0.17629  0.12284  1.0000
  S   S90       1.0  0.42627  0.20010  0.14680  1.0000
  Fe  Fe45      1.0  0.45088  0.09384  0.10525  1.0000
  S   S91       1.0  0.47753  0.10364  0.10167  1.0000
  S   S92       1.0  0.44175  0.04613  0.08730  1.0000
  Fe  Fe46      1.0  0.47494  0.12900  0.14386  1.0000
  S   S93       1.0  0.49322  0.11705  0.17881  1.0000
  Fe  Fe47      1.0  0.47037  0.14963  0.08072  1.0000
  S   S94       1.0  0.48336  0.16948  0.04053  1.0000
  S   S95       1.0  0.44870  0.11552  0.14883  1.0000
  S   S96       1.0  0.44354  0.13922  0.08298  1.0000
  Fe  Fe48      1.0  0.34089  0.29017  0.19924  1.0000
  S   S97       1.0  0.35341  0.33317  0.21844  1.0000
  S   S98       1.0  0.35395  0.24912  0.17509  1.0000
  Fe  Fe49      1.0  0.33237  0.36202  0.20327  1.0000
  S   S99       1.0  0.33668  0.41045  0.18221  1.0000
  Fe  Fe50      1.0  0.33775  0.32391  0.25645  1.0000
  S   S100      1.0  0.34930  0.32843  0.29947  1.0000
  S   S101      1.0  0.32053  0.31982  0.18093  1.0000
  S   S102      1.0  0.32620  0.27932  0.23859  1.0000
  C   C596      1.0  0.48652  0.12390  0.99661  1.0000
  H   H479      1.0  0.55143  0.32592  0.39025  1.0000
  C   C597      1.0  0.33595  0.32293  0.32801  1.0000
  C   C598      1.0  0.34088  0.33180  0.35527  1.0000
  H   H480      1.0  0.51246  0.04890  0.32366  1.0000
  H   H481      1.0  0.60040  0.07626  0.00989  1.0000
  C   C599      1.0  0.36492  0.24244  0.36711  1.0000
  H   H482      1.0  0.35782  0.25750  0.43705  1.0000
  H   H483      1.0  0.35276  0.34219  0.35854  1.0000
  H   H484      1.0  0.32372  0.24511  0.36989  1.0000
  C   C600      1.0  0.47470  0.05565  0.24105  1.0000
  C   C601      1.0  0.32206  0.45697  0.37336  1.0000
  C   C602      1.0  0.33016  0.44636  0.19844  1.0000
  H   H485      1.0  0.49463  0.99829  0.34423  1.0000
  C   C603      1.0  0.62466  0.41103  0.40936  1.0000
  C   C604      1.0  0.48111  0.08523  0.31347  1.0000
  C   C605      1.0  0.32969  0.47478  0.18260  1.0000
  C   C606      1.0  0.40602  0.21377  0.15379  1.0000
  C   C607      1.0  0.40367  0.24010  0.17219  1.0000
  C   C608      1.0  0.38799  0.25139  0.17886  1.0000
  C   C609      1.0  0.37425  0.23669  0.16704  1.0000
  C   C610      1.0  0.37659  0.21045  0.14856  1.0000
  C   C611      1.0  0.39226  0.19913  0.14196  1.0000
  H   H486      1.0  0.41411  0.25197  0.18130  1.0000
  H   H487      1.0  0.38656  0.27159  0.19302  1.0000
  H   H488      1.0  0.36617  0.19881  0.13913  1.0000
  H   H489      1.0  0.39367  0.17916  0.12753  1.0000
  H   H490      1.0  0.51033  0.09462  0.04273  1.0000
  H   H491      1.0  0.44696  0.03404  0.14661  1.0000
  C   C612      1.0  0.51548  0.99974  0.46700  1.0000
  C   C613      1.0  0.50074  0.15478  0.27022  1.0000
  C   C614      1.0  0.48814  0.16672  0.25346  1.0000
  C   C615      1.0  0.48555  0.15538  0.22564  1.0000
  C   C616      1.0  0.49567  0.13207  0.21399  1.0000
  C   C617      1.0  0.50815  0.11986  0.23085  1.0000
  C   C618      1.0  0.51062  0.13091  0.25879  1.0000
  H   H492      1.0  0.48041  0.18518  0.26197  1.0000
  H   H493      1.0  0.47591  0.16506  0.21307  1.0000
  H   H494      1.0  0.51608  0.10189  0.22212  1.0000
  H   H495      1.0  0.52035  0.12142  0.27128  1.0000
  C   C619      1.0  0.49075  0.16122  0.46528  1.0000
  C   C620      1.0  0.48719  0.12924  0.45830  1.0000
  H   H496      1.0  0.49282  0.11835  0.44002  1.0000
  C   C621      1.0  0.40603  0.29783  0.42937  1.0000
  C   C622      1.0  0.31971  0.47572  0.23885  1.0000
  H   H497      1.0  0.54156  0.12389  0.02501  1.0000
  C   C623      1.0  0.60492  0.25382  0.43627  1.0000
  C   C624      1.0  0.61307  0.23259  0.41834  1.0000
  C   C625      1.0  0.60440  0.20895  0.40280  1.0000
  C   C626      1.0  0.58745  0.20569  0.40512  1.0000
  C   C627      1.0  0.57933  0.22656  0.42348  1.0000
  C   C628      1.0  0.58798  0.25051  0.43870  1.0000
  H   H498      1.0  0.62605  0.23439  0.41631  1.0000
  H   H499      1.0  0.61088  0.19307  0.38875  1.0000
  H   H500      1.0  0.56633  0.22462  0.42555  1.0000
  H   H501      1.0  0.58146  0.26665  0.45243  1.0000
  C   C629      1.0  0.57677  0.32811  0.37943  1.0000
  C   C630      1.0  0.36059  0.20136  0.27120  1.0000
  C   C631      1.0  0.58229  0.16146  0.00419  1.0000
  H   H502      1.0  0.54916  0.05896  0.44132  1.0000
  C   C632      1.0  0.48873  0.15576  0.00560  1.0000
  C   C633      1.0  0.37925  0.44706  0.20285  1.0000
  H   H503      1.0  0.35469  0.17911  0.26496  1.0000
  H   H504      1.0  0.48075  0.10690  0.01068  1.0000
  C   C634      1.0  0.56167  0.31287  0.38205  1.0000
  C   C635      1.0  0.52459  0.05406  0.45601  1.0000
  C   C636      1.0  0.39727  0.12123  0.48167  1.0000
  C   C637      1.0  0.43765  0.22579  0.48730  1.0000
  C   C638      1.0  0.46217  0.17923  0.40841  1.0000
  C   C639      1.0  0.45764  0.18793  0.38120  1.0000
  C   C640      1.0  0.44293  0.20324  0.37692  1.0000
  C   C641      1.0  0.43289  0.21042  0.39993  1.0000
  C   C642      1.0  0.43783  0.20349  0.42753  1.0000
  C   C643      1.0  0.45224  0.18661  0.43145  1.0000
  H   H505      1.0  0.43449  0.15572  0.48813  1.0000
  H   H506      1.0  0.46625  0.07996  0.20401  1.0000
  C   C644      1.0  0.47238  0.02976  0.25958  1.0000
  H   H507      1.0  0.63631  0.35231  0.32849  1.0000
  C   C645      1.0  0.31708  0.40850  0.40064  1.0000
  C   C646      1.0  0.51242  0.03278  0.46484  1.0000
  C   C647      1.0  0.60305  0.12614  0.02139  1.0000
  H   H508      1.0  0.48462  0.07253  0.24399  1.0000
  C   C648      1.0  0.35189  0.48799  0.30485  1.0000
  H   H509      1.0  0.40082  0.14643  0.39908  1.0000
  C   C649      1.0  0.41214  0.24726  0.45227  1.0000
  C   C650      1.0  0.39827  0.25077  0.46920  1.0000
  H   H510      1.0  0.47356  0.16722  0.41174  1.0000
  H   H511      1.0  0.46559  0.18279  0.36350  1.0000
  H   H512      1.0  0.43938  0.20955  0.35573  1.0000
  Fe  Fe51      1.0  0.63981  0.30750  0.46845  1.0000
  H   H513      1.0  0.45599  0.17954  0.45237  1.0000
  H   H514      1.0  0.58538  0.38044  0.28007  1.0000
  C   C651      1.0  0.33035  0.32790  0.37832  1.0000
  H   H515      1.0  0.38402  0.32073  0.44283  1.0000
  C   C652      1.0  0.41425  0.17746  0.46679  1.0000
  C   C653      1.0  0.41295  0.14961  0.35888  1.0000
  C   C654      1.0  0.36195  0.22655  0.25194  1.0000
  H   H516      1.0  0.63572  0.22597  0.47717  1.0000
  H   H517      1.0  0.54547  0.01952  0.04689  1.0000
  H   H518      1.0  0.48886  0.09453  0.29684  1.0000
  C   C655      1.0  0.39201  0.18593  0.37445  1.0000
  C   C656      1.0  0.39341  0.20306  0.34905  1.0000
  P   P21       1.0  0.38154  0.23842  0.34242  1.0000
  C   C657      1.0  0.39373  0.27443  0.34618  1.0000
  C   C658      1.0  0.38617  0.30437  0.34657  1.0000
  H   H519      1.0  0.54088  0.06181  0.31284  1.0000
  C   C659      1.0  0.41974  0.30146  0.35175  1.0000
  C   C660      1.0  0.41061  0.27313  0.34889  1.0000
  C   C661      1.0  0.37392  0.23426  0.30690  1.0000
  C   C662      1.0  0.36931  0.25547  0.25998  1.0000
  C   C663      1.0  0.37524  0.25945  0.28737  1.0000
  H   H520      1.0  0.38341  0.19279  0.39053  1.0000
  H   H521      1.0  0.40580  0.20563  0.30872  1.0000
  C   C664      1.0  0.53287  0.05410  0.29601  1.0000
  H   H522      1.0  0.41680  0.25047  0.34862  1.0000
  H   H523      1.0  0.37012  0.27506  0.24502  1.0000
  H   H524      1.0  0.38056  0.28239  0.29310  1.0000
  C   C665      1.0  0.47467  0.10665  0.33319  1.0000
  C   C666      1.0  0.46498  0.09527  0.35528  1.0000
  H   H525      1.0  0.47768  0.13203  0.33171  1.0000
  H   H526      1.0  0.46057  0.11183  0.37118  1.0000
  C   C667      1.0  0.34879  0.24136  0.35789  1.0000
  C   C668      1.0  0.45306  0.23955  0.48312  1.0000
  H   H527      1.0  0.42136  0.22147  0.39614  1.0000
  C   C669      1.0  0.48338  0.17505  0.48908  1.0000
  H   H528      1.0  0.42068  0.12932  0.36289  1.0000
  C   C670      1.0  0.51671  0.04678  0.30210  1.0000
  H   H529      1.0  0.48834  0.00832  0.42955  1.0000
  H   H530      1.0  0.33337  0.47434  0.16068  1.0000
  C   C671      1.0  0.59583  0.35922  0.31703  1.0000
  H   H531      1.0  0.35355  0.17959  0.19306  1.0000
  H   H532      1.0  0.63180  0.43258  0.40548  1.0000
  H   H533      1.0  0.41919  0.35318  0.35378  1.0000
  H   H534      1.0  0.31654  0.30332  0.30288  1.0000
  H   H535      1.0  0.47330  0.08681  0.46914  1.0000
  C   C672      1.0  0.52425  0.19647  0.03539  1.0000
  H   H536      1.0  0.61408  0.12257  0.03317  1.0000
  C   C673      1.0  0.53346  0.02750  0.04156  1.0000
  H   H537      1.0  0.31805  0.39141  0.30312  1.0000
  C   C674      1.0  0.35538  0.25285  0.41493  1.0000
  P   P22       1.0  0.42535  0.21355  0.45771  1.0000
  H   H538      1.0  0.53277  0.03923  0.22538  1.0000
  H   H539      1.0  0.62182  0.28503  0.32339  1.0000
  C   C675      1.0  0.46745  0.04104  0.33708  1.0000
  H   H540      1.0  0.39068  0.09976  0.48795  1.0000
  S   S103      1.0  0.33549  0.32538  0.46271  1.0000
  C   C676      1.0  0.62914  0.28348  0.34222  1.0000
  H   H541      1.0  0.55474  0.00072  0.44471  1.0000
  C   C677      1.0  0.47611  0.11146  0.47477  1.0000
  H   H542      1.0  0.32955  0.25489  0.42043  1.0000
  H   H543      1.0  0.37319  0.30581  0.34411  1.0000
  C   C678      1.0  0.40686  0.46598  0.20785  1.0000
  H   H544      1.0  0.38042  0.25083  0.40319  1.0000
  C   C679      1.0  0.32536  0.44708  0.22673  1.0000
  C   C680      1.0  0.46130  0.06249  0.35715  1.0000
  C   C681      1.0  0.47378  0.00765  0.00166  1.0000
  H   H545      1.0  0.51642  0.20877  0.05022  1.0000
  C   C682      1.0  0.53809  0.14831  0.02071  1.0000
  H   H546      1.0  0.32160  0.38800  0.41206  1.0000
  C   C683      1.0  0.32045  0.31008  0.32388  1.0000
  H   H547      1.0  0.36534  0.18548  0.31333  1.0000
  C   C684      1.0  0.33612  0.24549  0.37715  1.0000
  C   C685      1.0  0.32785  0.43021  0.38798  1.0000
  H   H548      1.0  0.55112  0.05775  0.26365  1.0000
  H   H549      1.0  0.36069  0.43251  0.25423  1.0000
  C   C686      1.0  0.50640  0.01555  0.02440  1.0000
  H   H550      1.0  0.34858  0.39651  0.29001  1.0000
  H   H551      1.0  0.43278  0.30038  0.35359  1.0000
  H   H552      1.0  0.60628  0.37086  0.46310  1.0000
  C   C687      1.0  0.62510  0.35828  0.31811  1.0000
  C   C688      1.0  0.61139  0.38141  0.27814  1.0000
  C   C689      1.0  0.40735  0.09105  0.30571  1.0000
  C   C690      1.0  0.42310  0.07920  0.30560  1.0000
  C   C691      1.0  0.43258  0.08152  0.28121  1.0000
  C   C692      1.0  0.42624  0.09516  0.25680  1.0000
  C   C693      1.0  0.41031  0.10647  0.25655  1.0000
  C   C694      1.0  0.40108  0.10524  0.28145  1.0000
  P   P23       1.0  0.40313  0.12693  0.22568  1.0000
  C   C695      1.0  0.41324  0.16549  0.22671  1.0000
  C   C696      1.0  0.40770  0.10459  0.19401  1.0000
  C   C697      1.0  0.40757  0.12025  0.16791  1.0000
  C   C698      1.0  0.40945  0.10287  0.14283  1.0000
  C   C699      1.0  0.41158  0.06966  0.14365  1.0000
  C   C700      1.0  0.41160  0.05376  0.16956  1.0000
  C   C701      1.0  0.40952  0.07109  0.19469  1.0000
  C   C702      1.0  0.40641  0.19113  0.24178  1.0000
  C   C703      1.0  0.41458  0.22066  0.24361  1.0000
  C   C704      1.0  0.42977  0.22454  0.23096  1.0000
  C   C705      1.0  0.43678  0.19890  0.21650  1.0000
  C   C706      1.0  0.42858  0.16944  0.21440  1.0000
  C   C707      1.0  0.38150  0.13143  0.22375  1.0000
  C   C708      1.0  0.37105  0.10697  0.23337  1.0000
  C   C709      1.0  0.35434  0.10935  0.22947  1.0000
  H   H553      1.0  0.62196  0.42072  0.45387  1.0000
  C   C710      1.0  0.35839  0.15957  0.20481  1.0000
  C   C711      1.0  0.37505  0.15748  0.20901  1.0000
  H   H554      1.0  0.40010  0.08981  0.32478  1.0000
  H   H555      1.0  0.42806  0.06869  0.32450  1.0000
  H   H556      1.0  0.44495  0.07319  0.28127  1.0000
  H   H557      1.0  0.43387  0.09748  0.23824  1.0000
  H   H558      1.0  0.38917  0.11564  0.28233  1.0000
  H   H559      1.0  0.40593  0.14592  0.16694  1.0000
  H   H560      1.0  0.40952  0.11529  0.12276  1.0000
  H   H561      1.0  0.41326  0.05630  0.12417  1.0000
  C   C712      1.0  0.54303  0.00976  0.45100  1.0000
  H   H562      1.0  0.40908  0.05824  0.21446  1.0000
  H   H563      1.0  0.39470  0.18848  0.25180  1.0000
  H   H564      1.0  0.40899  0.24074  0.25431  1.0000
  H   H565      1.0  0.43598  0.24759  0.23173  1.0000
  H   H566      1.0  0.44836  0.20213  0.20597  1.0000
  H   H567      1.0  0.43413  0.15007  0.20269  1.0000
  H   H568      1.0  0.37580  0.08567  0.24315  1.0000
  C   C713      1.0  0.35645  0.44237  0.27409  1.0000
  H   H569      1.0  0.61735  0.48372  0.45805  1.0000
  C   C714      1.0  0.34802  0.13567  0.21521  1.0000
  H   H570      1.0  0.38290  0.17585  0.20005  1.0000
  C   C715      1.0  0.40453  0.19281  0.32849  1.0000
  H   H571      1.0  0.34585  0.23815  0.33582  1.0000
  C   C716      1.0  0.40179  0.15936  0.37932  1.0000
  H   H572      1.0  0.52402  0.15261  0.05904  1.0000
  C   C717      1.0  0.44823  0.01422  0.23354  1.0000
  C   C718      1.0  0.51217  0.03332  0.25299  1.0000
  C   C719      1.0  0.39191  0.30038  0.44549  1.0000
  C   C720      1.0  0.47775  0.05220  0.31553  1.0000
  H   H573      1.0  0.43791  0.99830  0.23059  1.0000
  H   H574      1.0  0.59818  0.26465  0.35397  1.0000
  C   C721      1.0  0.44479  0.01123  0.13623  1.0000
  C   C722      1.0  0.54669  0.00948  0.37887  1.0000
  H   H575      1.0  0.39953  0.41605  0.20897  1.0000
  H   H576      1.0  0.32587  0.42547  0.23916  1.0000
  C   C723      1.0  0.31478  0.31543  0.37414  1.0000
  C   C724      1.0  0.39561  0.44066  0.20675  1.0000
  C   C725      1.0  0.61251  0.36105  0.39240  1.0000
  H   H577      1.0  0.44292  0.04300  0.19706  1.0000
  C   C726      1.0  0.52830  0.04112  0.24684  1.0000
  C   C727      1.0  0.38814  0.27703  0.46560  1.0000
  H   H578      1.0  0.61187  0.39307  0.25775  1.0000
  H   H579      1.0  0.57797  0.35319  0.38528  1.0000
  C   C728      1.0  0.59018  0.31108  0.36928  1.0000
  C   C729      1.0  0.55977  0.28070  0.37409  1.0000
  C   C730      1.0  0.57296  0.26379  0.36355  1.0000
  C   C731      1.0  0.58814  0.27871  0.36146  1.0000
  C   C732      1.0  0.42196  0.15309  0.48181  1.0000
  C   C733      1.0  0.59535  0.10006  0.00825  1.0000
  H   H580      1.0  0.54813  0.26866  0.37627  1.0000
  H   H581      1.0  0.57149  0.23872  0.35762  1.0000
  H   H582      1.0  0.36140  0.48323  0.19733  1.0000
  C   C734      1.0  0.37415  0.47871  0.19980  1.0000
  C   C735      1.0  0.41210  0.33122  0.35189  1.0000
  C   C736      1.0  0.52932  0.05965  0.04555  1.0000
  C   C737      1.0  0.51373  0.06982  0.03915  1.0000
  C   C738      1.0  0.50228  0.04783  0.02883  1.0000
  C   C739      1.0  0.34950  0.42208  0.29424  1.0000
  C   C740      1.0  0.34356  0.43469  0.31960  1.0000
  H   H583      1.0  0.37697  0.14222  0.46065  1.0000
  H   H584      1.0  0.33511  0.13734  0.21171  1.0000
  H   H585      1.0  0.34630  0.09041  0.23682  1.0000
  H   H586      1.0  0.57733  0.18537  0.00289  1.0000
  C   C741      1.0  0.50617  0.03681  0.28059  1.0000
  H   H587      1.0  0.45802  0.24255  0.46212  1.0000
  C   C742      1.0  0.41424  0.16619  0.33339  1.0000
  C   C743      1.0  0.53989  0.04256  0.44905  1.0000
  C   C744      1.0  0.61015  0.37644  0.44182  1.0000
  C   C745      1.0  0.61908  0.40448  0.43661  1.0000
  C   C746      1.0  0.62148  0.38936  0.38733  1.0000
  H   H588      1.0  0.60012  0.33300  0.42436  1.0000
  C   C747      1.0  0.39531  0.33265  0.34932  1.0000
  H   H589      1.0  0.39195  0.19108  0.44643  1.0000
  C   C748      1.0  0.60677  0.35494  0.41981  1.0000
  H   H590      1.0  0.55356  0.03118  0.37452  1.0000
  P   P24       1.0  0.33620  0.48480  0.35715  1.0000
  C   C749      1.0  0.52975  0.21209  0.01108  1.0000
  H   H591      1.0  0.42749  0.27091  0.42131  1.0000
  H   H592      1.0  0.42289  0.15863  0.31749  1.0000
  H   H593      1.0  0.53807  0.07651  0.05418  1.0000
  H   H594      1.0  0.50057  0.04222  0.46960  1.0000
  H   H595      1.0  0.49013  0.05606  0.02513  1.0000
  H   H596      1.0  0.62075  0.17592  0.46499  1.0000
  H   H597      1.0  0.50440  0.02485  0.23616  1.0000
  P   P25       1.0  0.60949  0.33134  0.36481  1.0000
  C   C750      1.0  0.45099  0.03940  0.21465  1.0000
  C   C751      1.0  0.36810  0.24883  0.39573  1.0000
  C   C752      1.0  0.59647  0.37432  0.29073  1.0000
  C   C753      1.0  0.36662  0.20511  0.29854  1.0000
  H   H598      1.0  0.33418  0.33504  0.39921  1.0000
  C   C754      1.0  0.53000  0.01107  0.38337  1.0000
  H   H599      1.0  0.45389  0.05368  0.37443  1.0000
  C   C755      1.0  0.45973  0.00986  0.01827  1.0000
  H   H600      1.0  0.46431  0.01582  0.33860  1.0000
  C   C756      1.0  0.38958  0.14513  0.46627  1.0000
  P   P26       1.0  0.48572  0.02504  0.28932  1.0000
  H   H601      1.0  0.48271  0.00656  0.07075  1.0000
  H   H602      1.0  0.37046  0.42747  0.20196  1.0000
  C   C757      1.0  0.39809  0.17300  0.45852  1.0000
  H   H603      1.0  0.52639  0.23675  0.00736  1.0000
  H   H604      1.0  0.38932  0.35565  0.34907  1.0000
  H   H605      1.0  0.34071  0.42616  0.38972  1.0000
  C   C758      1.0  0.34447  0.46788  0.32496  1.0000
  C   C759      1.0  0.53864  0.05156  0.26835  1.0000
  H   H606      1.0  0.39534  0.23346  0.48551  1.0000
  C   C760      1.0  0.62582  0.30290  0.36582  1.0000
  C   C761      1.0  0.61015  0.35104  0.33091  1.0000
  H   H607      1.0  0.41313  0.02795  0.16997  1.0000
  C   C762      1.0  0.52847  0.16462  0.04025  1.0000
  H   H608      1.0  0.33818  0.41833  0.33470  1.0000
  C   C763      1.0  0.46416  0.06020  0.21851  1.0000
  C   C764      1.0  0.33940  0.25119  0.40564  1.0000
  C   C765      1.0  0.41626  0.27166  0.43305  1.0000
  H   H609      1.0  0.41953  0.46098  0.21119  1.0000
  C   C766      1.0  0.44694  0.02906  0.00965  1.0000
  H   H610      1.0  0.43640  0.03155  0.02319  1.0000
  C   C767      1.0  0.62623  0.21711  0.49103  1.0000
  H   H611      1.0  0.40917  0.31646  0.41438  1.0000
  H   H612      1.0  0.58414  0.35390  0.32632  1.0000
  C   C768      1.0  0.35775  0.47530  0.27945  1.0000
  C   C769      1.0  0.44212  0.01041  0.10719  1.0000
  C   C770      1.0  0.45880  0.00955  0.25611  1.0000
  C   C771      1.0  0.52200  0.00544  0.03132  1.0000
  H   H613      1.0  0.59019  0.32941  0.48939  1.0000
  H   H614      1.0  0.37741  0.27941  0.47865  1.0000
  H   H615      1.0  0.31574  0.47590  0.26062  1.0000
  C   C772      1.0  0.62570  0.37341  0.29184  1.0000
  C   C773      1.0  0.63532  0.29990  0.39007  1.0000
  H   H616      1.0  0.63278  0.31387  0.40875  1.0000
  C   C774      1.0  0.31672  0.44222  0.47073  1.0000
  C   C775      1.0  0.59651  0.15681  0.01941  1.0000
  S   S104      1.0  0.31777  0.35619  0.24293  1.0000
  H   H617      1.0  0.62629  0.39459  0.36662  1.0000
  H   H618      1.0  0.52203  0.07939  0.45383  1.0000
  H   H619      1.0  0.45859  0.99754  0.03819  1.0000
  H   H620      1.0  0.33605  0.49087  0.41864  1.0000
  H   H621      1.0  0.60243  0.17702  0.02972  1.0000
  H   H622      1.0  0.36312  0.49098  0.26374  1.0000
  H   H623      1.0  0.63728  0.37890  0.28209  1.0000
  C   C776      1.0  0.61776  0.18895  0.48414  1.0000
  C   C777      1.0  0.41349  0.12508  0.48912  1.0000
  C   C778      1.0  0.64188  0.26172  0.34286  1.0000
  C   C779      1.0  0.35210  0.49251  0.38243  1.0000
  C   C780      1.0  0.54310  0.16332  0.99564  1.0000
  H   H624      1.0  0.64431  0.24662  0.32470  1.0000
  H   H625      1.0  0.31270  0.41974  0.46154  1.0000
  H   H626      1.0  0.56550  0.99717  0.15352  1.0000
  C   C781      1.0  0.58112  0.10461  0.99302  1.0000
  Fe  Fe52      1.0  0.54050  0.16571  0.82830  1.0000
  S   S105      1.0  0.51502  0.17529  0.84402  1.0000
  S   S106      1.0  0.55615  0.21027  0.81581  1.0000
  Fe  Fe53      1.0  0.53296  0.09366  0.82411  1.0000
  S   S107      1.0  0.50750  0.09894  0.83910  1.0000
  S   S108      1.0  0.54039  0.04550  0.80599  1.0000
  Fe  Fe54      1.0  0.50648  0.14110  0.80994  1.0000
  S   S109      1.0  0.48306  0.14816  0.78500  1.0000
  Fe  Fe55      1.0  0.51752  0.13236  0.87253  1.0000
  S   S110      1.0  0.50598  0.12153  0.91650  1.0000
  S   S111      1.0  0.53146  0.13410  0.79279  1.0000
  S   S112      1.0  0.54363  0.12432  0.85895  1.0000
  H   H627      1.0  0.45457  0.15361  0.75087  1.0000
  C   C782      1.0  0.61878  0.47696  0.67008  1.0000
  S   S113      1.0  0.63178  0.34994  0.75381  1.0000
  S   S114      1.0  0.62892  0.26419  0.79428  1.0000
  C   C783      1.0  0.32413  0.18678  0.65605  1.0000
  Fe  Fe56      1.0  0.45003  0.13785  0.62194  1.0000
  S   S115      1.0  0.42332  0.13859  0.63142  1.0000
  S   S116      1.0  0.47208  0.13951  0.65140  1.0000
  Fe  Fe57      1.0  0.44381  0.11978  0.55933  1.0000
  S   S117      1.0  0.41679  0.11776  0.56501  1.0000
  S   S118      1.0  0.45431  0.10254  0.51774  1.0000
  Fe  Fe58      1.0  0.42032  0.16378  0.58927  1.0000
  S   S119      1.0  0.40504  0.20905  0.58244  1.0000
  Fe  Fe59      1.0  0.42211  0.09276  0.60589  1.0000
  S   S120      1.0  0.40981  0.04783  0.62301  1.0000
  S   S121      1.0  0.44738  0.16682  0.58182  1.0000
  S   S122      1.0  0.44866  0.09117  0.59818  1.0000
  C   C784      1.0  0.56911  0.24534  0.56337  1.0000
  C   C785      1.0  0.46056  0.00801  0.52127  1.0000
  H   H628      1.0  0.46015  0.04319  0.55465  1.0000
  C   C786      1.0  0.50340  0.05087  0.75957  1.0000
  C   C787      1.0  0.50553  0.05030  0.70062  1.0000
  C   C788      1.0  0.56020  0.16617  0.94041  1.0000
  H   H629      1.0  0.59110  0.20115  0.90313  1.0000
  C   C789      1.0  0.53489  0.04640  0.93772  1.0000
  C   C790      1.0  0.47971  0.04748  0.62912  1.0000
  C   C791      1.0  0.51796  0.06412  0.71656  1.0000
  C   C792      1.0  0.36904  0.28960  0.63101  1.0000
  C   C793      1.0  0.60251  0.34731  0.55613  1.0000
  C   C794      1.0  0.35967  0.26141  0.63026  1.0000
  C   C795      1.0  0.63340  0.23819  0.58537  1.0000
  H   H630      1.0  0.50616  0.05072  0.67779  1.0000
  C   C796      1.0  0.47234  0.15723  0.50563  1.0000
  H   H631      1.0  0.48990  0.04850  0.55714  1.0000
  H   H632      1.0  0.60804  0.31292  0.58790  1.0000
  H   H633      1.0  0.46661  0.16823  0.52373  1.0000
  C   C797      1.0  0.51694  0.06412  0.74597  1.0000
  H   H634      1.0  0.46277  0.05723  0.94810  1.0000
  C   C798      1.0  0.38945  0.21785  0.55766  1.0000
  C   C799      1.0  0.38303  0.24902  0.55722  1.0000
  C   C800      1.0  0.37030  0.25700  0.53884  1.0000
  C   C801      1.0  0.36352  0.23376  0.52096  1.0000
  C   C802      1.0  0.37011  0.20270  0.52098  1.0000
  C   C803      1.0  0.38302  0.19480  0.53906  1.0000
  H   H635      1.0  0.38792  0.26717  0.57131  1.0000
  H   H636      1.0  0.36574  0.28118  0.53849  1.0000
  C   C804      1.0  0.60516  0.17814  0.50150  1.0000
  H   H637      1.0  0.38779  0.17073  0.53898  1.0000
  C   C805      1.0  0.52658  0.06332  0.95866  1.0000
  H   H638      1.0  0.37055  0.20484  0.61183  1.0000
  C   C806      1.0  0.49303  0.02943  0.62084  1.0000
  H   H639      1.0  0.64384  0.17946  0.80804  1.0000
  S   S123      1.0  0.63277  0.34330  0.67225  1.0000
  H   H640      1.0  0.37816  0.29283  0.64713  1.0000
  C   C807      1.0  0.58299  0.21035  0.59573  1.0000
  H   H641      1.0  0.32594  0.15729  0.58776  1.0000
  C   C808      1.0  0.62437  0.25929  0.63919  1.0000
  H   H642      1.0  0.48269  0.02570  0.70136  1.0000
  H   H643      1.0  0.48560  0.02400  0.96349  1.0000
  H   H644      1.0  0.56826  0.21715  0.87307  1.0000
  C   C809      1.0  0.49917  0.13584  0.95043  1.0000
  C   C810      1.0  0.50111  0.16781  0.95920  1.0000
  C   C811      1.0  0.32241  0.21668  0.55506  1.0000
  H   H645      1.0  0.50675  0.18500  0.94516  1.0000
  C   C812      1.0  0.45620  0.24624  0.53362  1.0000
  C   C813      1.0  0.57655  0.22422  0.80942  1.0000
  C   C814      1.0  0.57913  0.25306  0.79441  1.0000
  C   C815      1.0  0.59493  0.26537  0.78914  1.0000
  C   C816      1.0  0.60852  0.24943  0.79932  1.0000
  C   C817      1.0  0.60590  0.22071  0.81452  1.0000
  C   C818      1.0  0.59014  0.20803  0.81927  1.0000
  H   H646      1.0  0.56882  0.26602  0.78670  1.0000
  H   H647      1.0  0.59657  0.28749  0.77755  1.0000
  H   H648      1.0  0.61619  0.20821  0.82284  1.0000
  H   H649      1.0  0.58852  0.18596  0.83095  1.0000
  H   H650      1.0  0.32722  0.16499  0.64488  1.0000
  H   H651      1.0  0.54541  0.03423  0.86545  1.0000
  C   C819      1.0  0.49582  0.17763  0.98638  1.0000
  C   C820      1.0  0.47994  0.14282  0.74805  1.0000
  C   C821      1.0  0.49255  0.13518  0.72955  1.0000
  C   C822      1.0  0.48980  0.13365  0.70018  1.0000
  C   C823      1.0  0.47439  0.13923  0.68884  1.0000
  C   C824      1.0  0.46163  0.14578  0.70743  1.0000
  C   C825      1.0  0.46443  0.14769  0.73681  1.0000
  H   H652      1.0  0.50453  0.13140  0.73781  1.0000
  H   H653      1.0  0.49976  0.12854  0.68608  1.0000
  H   H654      1.0  0.44972  0.15027  0.69911  1.0000
  C   C826      1.0  0.44069  0.23350  0.53785  1.0000
  C   C827      1.0  0.43131  0.00354  0.85415  1.0000
  H   H655      1.0  0.59845  0.15657  0.49582  1.0000
  C   C828      1.0  0.62507  0.16676  0.63255  1.0000
  C   C829      1.0  0.61839  0.17956  0.65729  1.0000
  C   C830      1.0  0.62375  0.16929  0.68381  1.0000
  H   H656      1.0  0.31525  0.16085  0.69231  1.0000
  P   P27       1.0  0.61574  0.18608  0.71619  1.0000
  C   C831      1.0  0.60068  0.15958  0.73159  1.0000
  C   C832      1.0  0.63265  0.19140  0.73979  1.0000
  C   C833      1.0  0.63166  0.18153  0.76802  1.0000
  H   H657      1.0  0.50720  0.01684  0.52499  1.0000
  C   C834      1.0  0.44603  0.00042  0.72881  1.0000
  S   S124      1.0  0.63766  0.33336  0.51023  1.0000
  H   H658      1.0  0.36511  0.18450  0.50709  1.0000
  C   C835      1.0  0.58923  0.17198  0.75056  1.0000
  C   C836      1.0  0.57767  0.15170  0.76302  1.0000
  C   C837      1.0  0.57748  0.11888  0.75681  1.0000
  C   C838      1.0  0.58886  0.10632  0.73802  1.0000
  C   C839      1.0  0.60043  0.12655  0.72542  1.0000
  C   C840      1.0  0.60633  0.22431  0.70968  1.0000
  C   C841      1.0  0.61358  0.25324  0.71866  1.0000
  C   C842      1.0  0.60630  0.28257  0.71287  1.0000
  C   C843      1.0  0.59163  0.28330  0.69847  1.0000
  C   C844      1.0  0.58410  0.25460  0.69010  1.0000
  C   C845      1.0  0.59136  0.22520  0.69583  1.0000
  C   C846      1.0  0.44797  0.04589  0.98428  1.0000
  H   H659      1.0  0.43462  0.02159  0.83866  1.0000
  H   H660      1.0  0.62118  0.17526  0.61215  1.0000
  H   H661      1.0  0.60934  0.19784  0.65547  1.0000
  C   C847      1.0  0.32698  0.21708  0.64396  1.0000
  H   H662      1.0  0.62064  0.17102  0.77645  1.0000
  H   H663      1.0  0.46252  0.07590  0.72666  1.0000
  H   H664      1.0  0.43393  0.03075  0.58115  1.0000
  C   C848      1.0  0.47470  0.02459  0.97615  1.0000
  H   H665      1.0  0.32450  0.26840  0.65008  1.0000
  H   H666      1.0  0.58935  0.19729  0.75602  1.0000
  H   H667      1.0  0.56893  0.16143  0.77776  1.0000
  H   H668      1.0  0.56859  0.10318  0.76677  1.0000
  H   H669      1.0  0.58877  0.08080  0.73341  1.0000
  H   H670      1.0  0.60918  0.11625  0.71111  1.0000
  H   H671      1.0  0.62475  0.25347  0.73039  1.0000
  H   H672      1.0  0.61209  0.30480  0.71950  1.0000
  H   H673      1.0  0.58610  0.30617  0.69401  1.0000
  H   H674      1.0  0.57259  0.25517  0.67932  1.0000
  H   H675      1.0  0.58533  0.20312  0.68943  1.0000
  H   H676      1.0  0.63999  0.13725  0.70531  1.0000
  C   C849      1.0  0.32264  0.24477  0.65912  1.0000
  C   C850      1.0  0.34698  0.18499  0.60080  1.0000
  C   C851      1.0  0.43194  0.03401  0.69557  1.0000
  C   C852      1.0  0.62190  0.23486  0.51494  1.0000
  C   C853      1.0  0.46509  0.07835  0.84357  1.0000
  C   C854      1.0  0.46807  0.00078  0.65230  1.0000
  H   H677      1.0  0.36147  0.24331  0.64626  1.0000
  C   C855      1.0  0.46863  0.12539  0.49843  1.0000
  S   S125      1.0  0.64373  0.42409  0.50449  1.0000
  H   H678      1.0  0.48270  0.01042  0.81938  1.0000
  H   H679      1.0  0.59282  0.27466  0.50731  1.0000
  H   H680      1.0  0.44750  0.00626  0.52002  1.0000
  C   C856      1.0  0.31580  0.24220  0.68606  1.0000
  H   H681      1.0  0.52581  0.10560  0.98430  1.0000
  C   C857      1.0  0.57604  0.17562  0.93307  1.0000
  C   C858      1.0  0.47498  0.19093  0.85991  1.0000
  C   C859      1.0  0.47919  0.19604  0.88813  1.0000
  C   C860      1.0  0.48825  0.22326  0.89570  1.0000
  C   C861      1.0  0.49349  0.24493  0.87500  1.0000
  C   C862      1.0  0.48987  0.23924  0.84644  1.0000
  C   C863      1.0  0.48012  0.21262  0.83918  1.0000
  P   P28       1.0  0.49701  0.26667  0.81952  1.0000
  C   C864      1.0  0.48176  0.29643  0.81331  1.0000
  C   C865      1.0  0.51568  0.28598  0.83062  1.0000
  C   C866      1.0  0.51850  0.31884  0.82570  1.0000
  C   C867      1.0  0.53329  0.33314  0.83313  1.0000
  C   C868      1.0  0.54539  0.31477  0.84537  1.0000
  C   C869      1.0  0.54263  0.28218  0.85054  1.0000
  C   C870      1.0  0.52782  0.26789  0.84341  1.0000
  C   C871      1.0  0.48162  0.31330  0.78771  1.0000
  C   C872      1.0  0.46983  0.33636  0.78276  1.0000
  C   C873      1.0  0.45816  0.34282  0.80335  1.0000
  C   C874      1.0  0.45829  0.32629  0.82894  1.0000
  C   C875      1.0  0.47005  0.30320  0.83396  1.0000
  C   C876      1.0  0.50066  0.24451  0.78715  1.0000
  C   C877      1.0  0.51621  0.23365  0.78023  1.0000
  C   C878      1.0  0.51889  0.21675  0.75513  1.0000
  C   C879      1.0  0.50613  0.21070  0.73660  1.0000
  C   C880      1.0  0.49062  0.22119  0.74333  1.0000
  C   C881      1.0  0.48785  0.23784  0.76856  1.0000
  H   H682      1.0  0.46810  0.16968  0.85389  1.0000
  H   H683      1.0  0.47557  0.17878  0.90410  1.0000
  H   H684      1.0  0.49134  0.22733  0.91763  1.0000
  H   H685      1.0  0.50051  0.26584  0.88129  1.0000
  H   H686      1.0  0.47694  0.20781  0.81745  1.0000
  H   H687      1.0  0.50944  0.33348  0.81589  1.0000
  H   H688      1.0  0.53548  0.35840  0.82904  1.0000
  H   H689      1.0  0.55698  0.32566  0.85056  1.0000
  H   H690      1.0  0.55214  0.26771  0.85938  1.0000
  H   H691      1.0  0.52609  0.24244  0.84699  1.0000
  H   H692      1.0  0.49064  0.30863  0.77160  1.0000
  H   H693      1.0  0.46974  0.34917  0.76291  1.0000
  H   H694      1.0  0.44900  0.36064  0.79947  1.0000
  H   H695      1.0  0.44924  0.33131  0.84492  1.0000
  H   H696      1.0  0.46993  0.29069  0.85394  1.0000
  H   H697      1.0  0.52634  0.23782  0.79407  1.0000
  H   H698      1.0  0.53088  0.20801  0.75031  1.0000
  H   H699      1.0  0.50815  0.19722  0.71732  1.0000
  H   H700      1.0  0.48064  0.21550  0.72934  1.0000
  H   H701      1.0  0.47566  0.24504  0.77369  1.0000
  H   H702      1.0  0.54030  0.20024  0.88543  1.0000
  H   H703      1.0  0.46342  0.25361  0.55158  1.0000
  H   H704      1.0  0.33702  0.27795  0.57223  1.0000
  H   H705      1.0  0.59091  0.18702  0.53841  1.0000
  C   C882      1.0  0.63974  0.46271  0.75190  1.0000
  C   C883      1.0  0.45623  0.02634  0.73629  1.0000
  C   C884      1.0  0.58360  0.23423  0.57488  1.0000
  C   C885      1.0  0.46108  0.07270  0.79316  1.0000
  H   H706      1.0  0.56922  0.26318  0.54684  1.0000
  H   H707      1.0  0.51506  0.05441  0.96642  1.0000
  C   C886      1.0  0.64410  0.33308  0.64214  1.0000
  C   C887      1.0  0.53960  0.01030  0.82659  1.0000
  H   H708      1.0  0.51149  0.00084  0.87323  1.0000
  C   C888      1.0  0.37219  0.15555  0.59997  1.0000
  C   C889      1.0  0.36404  0.12811  0.59034  1.0000
  C   C890      1.0  0.34738  0.12896  0.58580  1.0000
  C   C891      1.0  0.33888  0.15721  0.59106  1.0000
  C   C892      1.0  0.59381  0.32590  0.51109  1.0000
  H   H709      1.0  0.37069  0.10625  0.58638  1.0000
  H   H710      1.0  0.34107  0.10766  0.57830  1.0000
  C   C893      1.0  0.35499  0.30923  0.59002  1.0000
  C   C894      1.0  0.45897  0.08999  0.81825  1.0000
  C   C895      1.0  0.59745  0.35223  0.52841  1.0000
  Fe  Fe60      1.0  0.64295  0.30474  0.77042  1.0000
  C   C896      1.0  0.60920  0.22427  0.53248  1.0000
  C   C897      1.0  0.47564  0.03212  0.81877  1.0000
  H   H711      1.0  0.47910  0.07270  0.62361  1.0000
  S   S126      1.0  0.31925  0.31849  0.52641  1.0000
  H   H712      1.0  0.45315  0.11316  0.81775  1.0000
  H   H713      1.0  0.43581  0.23140  0.55905  1.0000
  H   H714      1.0  0.55593  0.04561  0.91082  1.0000
  C   C898      1.0  0.31963  0.22517  0.58335  1.0000
  H   H715      1.0  0.33392  0.20692  0.54850  1.0000
  C   C899      1.0  0.60063  0.28951  0.54908  1.0000
  P   P29       1.0  0.55616  0.14217  0.97137  1.0000
  H   H716      1.0  0.47858  0.04093  0.86332  1.0000
  H   H717      1.0  0.60157  0.44504  0.69019  1.0000
  C   C900      1.0  0.57457  0.13545  0.99066  1.0000
  H   H718      1.0  0.37400  0.33529  0.61138  1.0000
  H   H719      1.0  0.48615  0.19970  0.49461  1.0000
  P   P30       1.0  0.60286  0.24899  0.56191  1.0000
  C   C901      1.0  0.46709  0.03299  0.64429  1.0000
  C   C902      1.0  0.47337  0.04936  0.84384  1.0000
  C   C903      1.0  0.54949  0.05859  0.92712  1.0000
  H   H720      1.0  0.54321  0.20832  0.97263  1.0000
  C   C904      1.0  0.34815  0.25656  0.60893  1.0000
  H   H721      1.0  0.59667  0.37640  0.52021  1.0000
  C   C905      1.0  0.46235  0.24941  0.50625  1.0000
  H   H722      1.0  0.50284  0.05155  0.78241  1.0000
  H   H723      1.0  0.52660  0.07479  0.75829  1.0000
  H   H724      1.0  0.63744  0.23092  0.56462  1.0000
  C   C906      1.0  0.54735  0.17482  0.92287  1.0000
  H   H725      1.0  0.62575  0.34920  0.61373  1.0000
  H   H726      1.0  0.53510  0.16696  0.92771  1.0000
  H   H727      1.0  0.46391  0.09235  0.86280  1.0000
  C   C907      1.0  0.45431  0.05593  0.72253  1.0000
  H   H728      1.0  0.56691  0.09713  0.92843  1.0000
  H   H729      1.0  0.42267  0.03690  0.67967  1.0000
  C   C908      1.0  0.63736  0.33777  0.61546  1.0000
  S   S127      1.0  0.34714  0.24242  0.49775  1.0000
  H   H730      1.0  0.31253  0.26367  0.69766  1.0000
  H   H731      1.0  0.60100  0.26748  0.62152  1.0000
  C   C909      1.0  0.32667  0.44212  0.49450  1.0000
  H   H732      1.0  0.56769  0.17971  0.62123  1.0000
  H   H733      1.0  0.45652  0.04684  0.64972  1.0000
  C   C910      1.0  0.55024  0.19357  0.89890  1.0000
  C   C911      1.0  0.46938  0.04348  0.79316  1.0000
  C   C912      1.0  0.62516  0.42417  0.68753  1.0000
  C   C913      1.0  0.46181  0.04352  0.96743  1.0000
  H   H734      1.0  0.62148  0.40207  0.69787  1.0000
  C   C914      1.0  0.34580  0.28085  0.58894  1.0000
  H   H735      1.0  0.60560  0.36768  0.56945  1.0000
  C   C915      1.0  0.43395  0.00430  0.70857  1.0000
  H   H736      1.0  0.49531  0.01387  0.91552  1.0000
  C   C916      1.0  0.53283  0.09246  0.96896  1.0000
  C   C917      1.0  0.43145  0.22320  0.51484  1.0000
  C   C918      1.0  0.63568  0.14561  0.68510  1.0000
  C   C919      1.0  0.60091  0.19562  0.52566  1.0000
  H   H737      1.0  0.40658  0.01878  0.85742  1.0000
  C   C920      1.0  0.36376  0.18393  0.60501  1.0000
  C   C921      1.0  0.55571  0.08778  0.93724  1.0000
  P   P31       1.0  0.47284  0.02127  0.76073  1.0000
  C   C922      1.0  0.41792  0.01049  0.61236  1.0000
  H   H738      1.0  0.48997  0.08940  0.96291  1.0000
  H   H739      1.0  0.33941  0.47166  0.52476  1.0000
  C   C923      1.0  0.49170  0.11409  0.96935  1.0000
  C   C924      1.0  0.42968  0.00899  0.59117  1.0000
  C   C925      1.0  0.54290  0.01136  0.85545  1.0000
  C   C926      1.0  0.55425  0.23305  0.57284  1.0000
  H   H740      1.0  0.54219  0.19992  0.60093  1.0000
  H   H741      1.0  0.50263  0.04057  0.60857  1.0000
  H   H742      1.0  0.59400  0.20083  0.60438  1.0000
  H   H743      1.0  0.38515  0.15499  0.60320  1.0000
  C   C927      1.0  0.59541  0.29469  0.52133  1.0000
  P   P32       1.0  0.33555  0.22075  0.60894  1.0000
  C   C928      1.0  0.56599  0.20309  0.89190  1.0000
  C   C929      1.0  0.49212  0.03645  0.71410  1.0000
  C   C930      1.0  0.64228  0.13280  0.66034  1.0000
  H   H744      1.0  0.43818  0.06134  0.97803  1.0000
  H   H745      1.0  0.63408  0.44061  0.74477  1.0000
  H   H746      1.0  0.58626  0.16862  0.94566  1.0000
  C   C931      1.0  0.63485  0.48138  0.66150  1.0000
  H   H747      1.0  0.41946  0.21329  0.51869  1.0000
  H   H748      1.0  0.62820  0.25732  0.51928  1.0000
  C   C932      1.0  0.44212  0.05981  0.70256  1.0000
  Fe  Fe61      1.0  0.32996  0.28548  0.49354  1.0000
  C   C933      1.0  0.48448  0.03170  0.54235  1.0000
  C   C934      1.0  0.57888  0.19403  0.90889  1.0000
  Fe  Fe62      1.0  0.32330  0.35778  0.49440  1.0000
  C   C935      1.0  0.61394  0.44835  0.68310  1.0000
  H   H749      1.0  0.41955  0.10649  0.50089  1.0000
  H   H750      1.0  0.52991  0.02418  0.92930  1.0000
  H   H751      1.0  0.62117  0.26895  0.65968  1.0000
  H   H752      1.0  0.45664  0.08296  0.77389  1.0000
  C   C936      1.0  0.54754  0.10478  0.95851  1.0000
  H   H753      1.0  0.52831  0.07509  0.70620  1.0000
  H   H754      1.0  0.47439  0.25925  0.50295  1.0000
  Fe  Fe63      1.0  0.64546  0.33849  0.71394  1.0000
  C   C937      1.0  0.36670  0.31350  0.61090  1.0000
  C   C938      1.0  0.49073  0.03742  0.74366  1.0000
  C   C939      1.0  0.61305  0.25875  0.61737  1.0000
  C   C940      1.0  0.61746  0.24811  0.59024  1.0000
  H   H755      1.0  0.44082  0.08266  0.69193  1.0000
  C   C941      1.0  0.56810  0.19821  0.60523  1.0000
  C   C942      1.0  0.55373  0.20956  0.59380  1.0000
  H   H756      1.0  0.35319  0.32771  0.57433  1.0000
  S   S128      1.0  0.33346  0.40577  0.50929  1.0000
  H   H757      1.0  0.54311  0.24152  0.56369  1.0000
  C   C943      1.0  0.46769  0.02879  0.54094  1.0000
  C   C944      1.0  0.60400  0.31609  0.56649  1.0000
  C   C945      1.0  0.63461  0.49248  0.74137  1.0000
  C   C946      1.0  0.33176  0.47156  0.50632  1.0000
  C   C947      1.0  0.49420  0.01386  0.52402  1.0000
  C   C948      1.0  0.41553  0.00197  0.86472  1.0000
  H   H758      1.0  0.62494  0.49313  0.72621  1.0000
  H   H759      1.0  0.63986  0.32985  0.57070  1.0000
  C   C949      1.0  0.64008  0.24875  0.63429  1.0000
  C   C950      1.0  0.63702  0.14346  0.63407  1.0000
  C   C951      1.0  0.64122  0.42841  0.67887  1.0000
  H   H760      1.0  0.57530  0.08397  0.98333  1.0000
  C   C952      1.0  0.64484  0.18609  0.78604  1.0000
  C   C953      1.0  0.53912  0.19563  0.99123  1.0000
  H   H761      1.0  0.64325  0.48978  0.52231  1.0000
  C   C954      1.0  0.49396  0.99712  0.62844  1.0000
  C   C955      1.0  0.31731  0.18430  0.68303  1.0000
  H   H762      1.0  0.31293  0.21545  0.51288  1.0000
  H   H763      1.0  0.64228  0.13379  0.61488  1.0000
  C   C956      1.0  0.64460  0.23831  0.60738  1.0000
  C   C957      1.0  0.64537  0.32702  0.59109  1.0000
  C   C958      1.0  0.31316  0.21198  0.69804  1.0000
  C   C959      1.0  0.49171  0.99383  0.90222  1.0000
  H   H764      1.0  0.49730  0.20247  0.99267  1.0000
  H   H765      1.0  0.34488  0.77582  0.39226  1.0000
  H   H766      1.0  0.35900  0.77810  0.45585  1.0000
  S   S129      1.0  0.62374  0.70989  0.46291  1.0000
  C   C960      1.0  0.48196  0.96674  0.20283  1.0000
  Fe  Fe64      1.0  0.54250  0.79364  0.39274  1.0000
  S   S130      1.0  0.51527  0.78802  0.38626  1.0000
  S   S131      1.0  0.55755  0.74768  0.39982  1.0000
  Fe  Fe65      1.0  0.54103  0.86658  0.38630  1.0000
  S   S132      1.0  0.51440  0.86561  0.37998  1.0000
  S   S133      1.0  0.55545  0.91356  0.38499  1.0000
  Fe  Fe66      1.0  0.51331  0.83040  0.41557  1.0000
  S   S134      1.0  0.49210  0.84215  0.44444  1.0000
  Fe  Fe67      1.0  0.51794  0.82368  0.35068  1.0000
  S   S135      1.0  0.50031  0.83102  0.31368  1.0000
  S   S136      1.0  0.54002  0.83417  0.42429  1.0000
  S   S137      1.0  0.54517  0.82661  0.35481  1.0000
  Fe  Fe68      1.0  0.46337  0.80778  0.15714  1.0000
  S   S138      1.0  0.43982  0.82745  0.17188  1.0000
  S   S139      1.0  0.48249  0.78794  0.18730  1.0000
  Fe  Fe69      1.0  0.45548  0.82136  0.09389  1.0000
  S   S140      1.0  0.43087  0.84162  0.10579  1.0000
  S   S141      1.0  0.46897  0.82709  0.05047  1.0000
  Fe  Fe70      1.0  0.44407  0.86726  0.14085  1.0000
  S   S142      1.0  0.44096  0.91751  0.15923  1.0000
  Fe  Fe71      1.0  0.42802  0.79967  0.13637  1.0000
  S   S143      1.0  0.40349  0.77775  0.15249  1.0000
  S   S144      1.0  0.46850  0.84928  0.12829  1.0000
  S   S145      1.0  0.45186  0.77774  0.12243  1.0000
  Fe  Fe72      1.0  0.32791  0.64992  0.19362  1.0000
  S   S146      1.0  0.33397  0.62109  0.23186  1.0000
  S   S147      1.0  0.35045  0.66274  0.16611  1.0000
  S   S148      1.0  0.33069  0.66897  0.29466  1.0000
  H   H767      1.0  0.38370  0.76965  0.35689  1.0000
  H   H768      1.0  0.46714  0.72736  0.48538  1.0000
  H   H769      1.0  0.44768  0.75772  0.45746  1.0000
  H   H770      1.0  0.35464  0.59391  0.18383  1.0000
  H   H771      1.0  0.57354  0.97925  0.20127  1.0000
  C   C961      1.0  0.32468  0.54581  0.37131  1.0000
  C   C962      1.0  0.31670  0.76849  0.22061  1.0000
  H   H772      1.0  0.46189  0.83666  0.41455  1.0000
  C   C963      1.0  0.36819  0.49717  0.37367  1.0000
  C   C964      1.0  0.39954  0.73478  0.46864  1.0000
  C   C965      1.0  0.60278  0.57192  0.45828  1.0000
  C   C966      1.0  0.48676  0.96376  0.04546  1.0000
  H   H773      1.0  0.56735  0.97826  0.37605  1.0000
  C   C967      1.0  0.37062  0.73259  0.46096  1.0000
  C   C968      1.0  0.44422  0.98264  0.15188  1.0000
  C   C969      1.0  0.36047  0.50006  0.43118  1.0000
  C   C970      1.0  0.44941  0.82836  0.41483  1.0000
  C   C971      1.0  0.40629  0.75028  0.34235  1.0000
  C   C972      1.0  0.40566  0.56205  0.16260  1.0000
  C   C973      1.0  0.41674  0.58407  0.15107  1.0000
  C   C974      1.0  0.38904  0.74516  0.15639  1.0000
  C   C975      1.0  0.39132  0.71472  0.14432  1.0000
  C   C976      1.0  0.37947  0.69004  0.14762  1.0000
  C   C977      1.0  0.36519  0.69495  0.16337  1.0000
  C   C978      1.0  0.36298  0.72527  0.17567  1.0000
  C   C979      1.0  0.37474  0.75007  0.17212  1.0000
  H   H774      1.0  0.40207  0.71035  0.13190  1.0000
  H   H775      1.0  0.38132  0.66699  0.13757  1.0000
  H   H776      1.0  0.35196  0.72993  0.18715  1.0000
  H   H777      1.0  0.37255  0.77349  0.18114  1.0000
  H   H778      1.0  0.48247  0.96206  0.26157  1.0000
  H   H779      1.0  0.47166  0.99308  0.38881  1.0000
  C   C980      1.0  0.44165  0.95279  0.13851  1.0000
  C   C981      1.0  0.43925  0.95191  0.10933  1.0000
  C   C982      1.0  0.32413  0.50356  0.19476  1.0000
  H   H780      1.0  0.46848  0.85771  0.48605  1.0000
  H   H781      1.0  0.43712  0.92914  0.09881  1.0000
  C   C983      1.0  0.49632  0.81929  0.27808  1.0000
  C   C984      1.0  0.48306  0.83298  0.26438  1.0000
  C   C985      1.0  0.47869  0.82378  0.23673  1.0000
  C   C986      1.0  0.48774  0.80096  0.22207  1.0000
  C   C987      1.0  0.50121  0.78757  0.23556  1.0000
  C   C988      1.0  0.50554  0.79675  0.26333  1.0000
  H   H782      1.0  0.47612  0.85083  0.27536  1.0000
  H   H783      1.0  0.46833  0.83437  0.22674  1.0000
  H   H784      1.0  0.50831  0.76986  0.22448  1.0000
  H   H785      1.0  0.51583  0.78602  0.27345  1.0000
  C   C989      1.0  0.54563  0.95111  0.38544  1.0000
  C   C990      1.0  0.52902  0.95298  0.39029  1.0000
  C   C991      1.0  0.33931  0.55426  0.12702  1.0000
  C   C992      1.0  0.42437  0.81695  0.39043  1.0000
  C   C993      1.0  0.55447  0.97951  0.37985  1.0000
  H   H786      1.0  0.52210  0.93151  0.39497  1.0000
  H   H787      1.0  0.35945  0.71868  0.45977  1.0000
  C   C994      1.0  0.36075  0.52370  0.14828  1.0000
  H   H788      1.0  0.31642  0.59328  0.38207  1.0000
  C   C995      1.0  0.40180  0.49768  0.20445  1.0000
  C   C996      1.0  0.57598  0.73779  0.41769  1.0000
  C   C997      1.0  0.58529  0.76057  0.43248  1.0000
  C   C998      1.0  0.59975  0.75151  0.44607  1.0000
  C   C999      1.0  0.60525  0.71957  0.44522  1.0000
  C   C1000     1.0  0.59591  0.69673  0.43057  1.0000
  C   C1001     1.0  0.58143  0.70578  0.41700  1.0000
  H   H789      1.0  0.58139  0.78525  0.43331  1.0000
  H   H790      1.0  0.42589  0.57596  0.13632  1.0000
  H   H791      1.0  0.59986  0.67210  0.42958  1.0000
  H   H792      1.0  0.57443  0.68787  0.40566  1.0000
  H   H793      1.0  0.40251  0.65280  0.18064  1.0000
  C   C1002     1.0  0.61300  0.50815  0.45791  1.0000
  C   C1003     1.0  0.47419  0.82207  0.01354  1.0000
  H   H794      1.0  0.32888  0.54149  0.39253  1.0000
  H   H795      1.0  0.49536  0.85267  0.01585  1.0000
  C   C1004     1.0  0.39368  0.77227  0.34214  1.0000
  C   C1005     1.0  0.39385  0.79738  0.32267  1.0000
  C   C1006     1.0  0.40668  0.80074  0.30358  1.0000
  C   C1007     1.0  0.41963  0.77930  0.30421  1.0000
  C   C1008     1.0  0.41917  0.75359  0.32329  1.0000
  P   P33       1.0  0.43625  0.78368  0.27964  1.0000
  C   C1009     1.0  0.43228  0.76021  0.24811  1.0000
  C   C1010     1.0  0.43799  0.82593  0.27097  1.0000
  C   C1011     1.0  0.43181  0.83754  0.24545  1.0000
  C   C1012     1.0  0.43290  0.87024  0.23900  1.0000
  C   C1013     1.0  0.43987  0.89178  0.25821  1.0000
  C   C1014     1.0  0.44571  0.88063  0.28394  1.0000
  C   C1015     1.0  0.44471  0.84789  0.29037  1.0000
  C   C1016     1.0  0.44215  0.76407  0.22416  1.0000
  C   C1017     1.0  0.43874  0.74717  0.19933  1.0000
  C   C1018     1.0  0.42523  0.72682  0.19792  1.0000
  C   C1019     1.0  0.41532  0.72274  0.22161  1.0000
  C   C1020     1.0  0.41894  0.73906  0.24674  1.0000
  C   C1021     1.0  0.45469  0.77122  0.29676  1.0000
  C   C1022     1.0  0.46663  0.75429  0.28190  1.0000
  C   C1023     1.0  0.48085  0.74520  0.29538  1.0000
  C   C1024     1.0  0.48338  0.75316  0.32368  1.0000
  C   C1025     1.0  0.47155  0.76972  0.33873  1.0000
  C   C1026     1.0  0.45724  0.77852  0.32542  1.0000
  H   H796      1.0  0.40645  0.82008  0.28838  1.0000
  H   H797      1.0  0.42880  0.73618  0.32353  1.0000
  H   H798      1.0  0.42620  0.82147  0.23032  1.0000
  H   H799      1.0  0.42853  0.87882  0.21884  1.0000
  H   H800      1.0  0.44089  0.91702  0.25295  1.0000
  H   H801      1.0  0.45132  0.89724  0.29871  1.0000
  H   H802      1.0  0.44956  0.83982  0.31019  1.0000
  H   H803      1.0  0.45240  0.78049  0.22446  1.0000
  H   H804      1.0  0.44642  0.75045  0.18096  1.0000
  H   H805      1.0  0.42227  0.71483  0.17822  1.0000
  H   H806      1.0  0.40466  0.70745  0.22018  1.0000
  H   H807      1.0  0.41107  0.73566  0.26474  1.0000
  H   H808      1.0  0.46532  0.74845  0.25981  1.0000
  H   H809      1.0  0.49020  0.73300  0.28355  1.0000
  H   H810      1.0  0.49470  0.74725  0.33375  1.0000
  H   H811      1.0  0.47372  0.77639  0.36054  1.0000
  H   H812      1.0  0.44826  0.79133  0.33745  1.0000
  C   C1027     1.0  0.34897  0.74159  0.35893  1.0000
  H   H813      1.0  0.34707  0.82301  0.36061  1.0000
  H   H814      1.0  0.36846  0.50294  0.14751  1.0000
  C   C1028     1.0  0.35140  0.79464  0.32319  1.0000
  C   C1029     1.0  0.35323  0.76363  0.31190  1.0000
  C   C1030     1.0  0.35178  0.73714  0.33007  1.0000
  P   P34       1.0  0.35494  0.75721  0.27413  1.0000
  C   C1031     1.0  0.33481  0.75735  0.25952  1.0000
  C   C1032     1.0  0.36685  0.78825  0.25666  1.0000
  C   C1033     1.0  0.38134  0.78063  0.24265  1.0000
  C   C1034     1.0  0.38982  0.80390  0.22720  1.0000
  C   C1035     1.0  0.38396  0.83509  0.22550  1.0000
  C   C1036     1.0  0.36947  0.84291  0.23901  1.0000
  C   C1037     1.0  0.36085  0.81953  0.25422  1.0000
  C   C1038     1.0  0.33234  0.76725  0.23158  1.0000
  H   H815      1.0  0.53392  0.92962  0.33527  1.0000
  H   H816      1.0  0.47608  0.97701  0.11420  1.0000
  C   C1039     1.0  0.49822  0.95874  0.20597  1.0000
  H   H817      1.0  0.62341  0.51897  0.41726  1.0000
  C   C1040     1.0  0.36471  0.71929  0.26760  1.0000
  C   C1041     1.0  0.37846  0.71114  0.28319  1.0000
  C   C1042     1.0  0.38699  0.68326  0.27674  1.0000
  C   C1043     1.0  0.38200  0.66360  0.25439  1.0000
  C   C1044     1.0  0.36838  0.67160  0.23877  1.0000
  C   C1045     1.0  0.35967  0.69917  0.24544  1.0000
  H   H818      1.0  0.34748  0.72092  0.37259  1.0000
  H   H819      1.0  0.43225  0.85662  0.48146  1.0000
  C   C1046     1.0  0.55747  0.98178  0.16570  1.0000
  H   H820      1.0  0.35181  0.81549  0.30981  1.0000
  H   H821      1.0  0.35230  0.71286  0.32189  1.0000
  H   H822      1.0  0.38579  0.75643  0.24219  1.0000
  H   H823      1.0  0.40051  0.79726  0.21525  1.0000
  H   H824      1.0  0.39034  0.85278  0.21277  1.0000
  H   H825      1.0  0.36463  0.86681  0.23678  1.0000
  H   H826      1.0  0.34915  0.82553  0.26295  1.0000
  H   H827      1.0  0.34246  0.77380  0.21815  1.0000
  H   H828      1.0  0.44975  0.81783  0.45899  1.0000
  C   C1047     1.0  0.35587  0.55246  0.23795  1.0000
  H   H829      1.0  0.40617  0.53710  0.15616  1.0000
  H   H830      1.0  0.38523  0.69107  0.46774  1.0000
  H   H831      1.0  0.38268  0.72661  0.30004  1.0000
  H   H832      1.0  0.39755  0.67709  0.28887  1.0000
  H   H833      1.0  0.38867  0.64221  0.24909  1.0000
  H   H834      1.0  0.36452  0.65648  0.22136  1.0000
  H   H835      1.0  0.34907  0.70470  0.23316  1.0000
  Fe  Fe73      1.0  0.31748  0.65368  0.25537  1.0000
  H   H836      1.0  0.59925  0.59679  0.45797  1.0000
  C   C1048     1.0  0.46802  0.94408  0.40223  1.0000
  C   C1049     1.0  0.44034  0.82832  0.39007  1.0000
  C   C1050     1.0  0.31754  0.57531  0.36552  1.0000
  C   C1051     1.0  0.38306  0.57045  0.24891  1.0000
  C   C1052     1.0  0.48710  0.98432  0.30207  1.0000
  H   H837      1.0  0.40608  0.73060  0.35726  1.0000
  C   C1053     1.0  0.38471  0.78395  0.46186  1.0000
  C   C1054     1.0  0.41743  0.80575  0.41561  1.0000
  C   C1055     1.0  0.37038  0.76605  0.45890  1.0000
  C   C1056     1.0  0.39373  0.57248  0.18158  1.0000
  C   C1057     1.0  0.43925  0.98070  0.09380  1.0000
  C   C1058     1.0  0.48061  0.93007  0.44645  1.0000
  H   H838      1.0  0.48269  0.91221  0.46254  1.0000
  C   C1059     1.0  0.55164  0.95186  0.20837  1.0000
  C   C1060     1.0  0.53656  0.94241  0.19747  1.0000
  C   C1061     1.0  0.53238  0.95156  0.17000  1.0000
  P   P35       1.0  0.52326  0.91625  0.21731  1.0000
  C   C1062     1.0  0.52707  0.87590  0.20500  1.0000
  C   C1063     1.0  0.52649  0.92045  0.25478  1.0000
  C   C1064     1.0  0.52535  0.89364  0.27258  1.0000
  C   C1065     1.0  0.52826  0.89703  0.30145  1.0000
  C   C1066     1.0  0.53170  0.92726  0.31292  1.0000
  C   C1067     1.0  0.53201  0.95432  0.29564  1.0000
  C   C1068     1.0  0.52937  0.95096  0.26664  1.0000
  C   C1069     1.0  0.51748  0.86187  0.18376  1.0000
  C   C1070     1.0  0.52012  0.83024  0.17510  1.0000
  C   C1071     1.0  0.53257  0.81261  0.18706  1.0000
  C   C1072     1.0  0.54259  0.82680  0.20738  1.0000
  C   C1073     1.0  0.53997  0.85845  0.21613  1.0000
  C   C1074     1.0  0.50246  0.92708  0.21254  1.0000
  C   C1075     1.0  0.49027  0.90395  0.21678  1.0000
  H   H839      1.0  0.53933  0.97881  0.13326  1.0000
  H   H840      1.0  0.52521  0.98038  0.02913  1.0000
  H   H841      1.0  0.46476  0.89355  0.21546  1.0000
  P   P36       1.0  0.49130  0.98628  0.01373  1.0000
  C   C1076     1.0  0.32082  0.66557  0.37798  1.0000
  H   H842      1.0  0.57800  0.67878  0.48183  1.0000
  P   P37       1.0  0.49964  0.97245  0.47862  1.0000
  H   H843      1.0  0.55550  0.94378  0.22894  1.0000
  H   H844      1.0  0.52112  0.94330  0.16069  1.0000
  H   H845      1.0  0.52219  0.87006  0.26441  1.0000
  H   H846      1.0  0.52772  0.87622  0.31507  1.0000
  C   C1077     1.0  0.48795  0.83784  0.00215  1.0000
  C   C1078     1.0  0.34866  0.79905  0.35212  1.0000
  H   H847      1.0  0.50740  0.97722  0.20328  1.0000
  H   H848      1.0  0.50777  0.87500  0.17406  1.0000
  H   H849      1.0  0.51226  0.81910  0.15950  1.0000
  H   H850      1.0  0.53435  0.78789  0.18067  1.0000
  H   H851      1.0  0.55227  0.81313  0.21660  1.0000
  H   H852      1.0  0.54784  0.86907  0.23191  1.0000
  H   H853      1.0  0.49333  0.87965  0.22238  1.0000
  C   C1079     1.0  0.46491  0.80285  0.99521  1.0000
  S   S149      1.0  0.31370  0.53669  0.45138  1.0000
  C   C1080     1.0  0.48739  0.96111  0.44861  1.0000
  H   H854      1.0  0.50700  0.79034  0.47667  1.0000
  H   H855      1.0  0.32299  0.73941  0.29736  1.0000
  H   H856      1.0  0.38429  0.80990  0.46083  1.0000
  C   C1081     1.0  0.36173  0.57574  0.28378  1.0000
  H   H857      1.0  0.44576  0.83707  0.37069  1.0000
  H   H858      1.0  0.47868  0.99103  0.19728  1.0000
  H   H859      1.0  0.38404  0.81431  0.32227  1.0000
  C   C1082     1.0  0.35081  0.56152  0.26500  1.0000
  C   C1083     1.0  0.51441  0.91246  0.47691  1.0000
  C   C1084     1.0  0.44525  0.75406  0.47963  1.0000
  C   C1085     1.0  0.48502  0.95819  0.28357  1.0000
  C   C1086     1.0  0.48673  0.92673  0.29322  1.0000
  C   C1087     1.0  0.49074  0.92113  0.32134  1.0000
  C   C1088     1.0  0.49338  0.94698  0.33966  1.0000
  H   H860      1.0  0.50846  0.98386  0.39241  1.0000
  C   C1089     1.0  0.36261  0.54727  0.16939  1.0000
  H   H861      1.0  0.48343  0.88741  0.07107  1.0000
  H   H862      1.0  0.45733  0.94923  0.20441  1.0000
  C   C1090     1.0  0.44248  0.81751  0.44003  1.0000
  C   C1091     1.0  0.32633  0.52251  0.34994  1.0000
  H   H863      1.0  0.48546  0.90664  0.27878  1.0000
  H   H864      1.0  0.49244  0.89676  0.32866  1.0000
  H   H865      1.0  0.49715  0.94244  0.36112  1.0000
  H   H866      1.0  0.57095  0.51736  0.48249  1.0000
  H   H867      1.0  0.34163  0.66007  0.35098  1.0000
  H   H868      1.0  0.39567  0.57345  0.24314  1.0000
  H   H869      1.0  0.38277  0.61435  0.20064  1.0000
  H   H870      1.0  0.53438  0.97781  0.30483  1.0000
  H   H871      1.0  0.41061  0.72215  0.47292  1.0000
  C   C1092     1.0  0.31776  0.50089  0.46979  1.0000
  C   C1093     1.0  0.34742  0.77252  0.36998  1.0000
  C   C1094     1.0  0.32143  0.74808  0.27606  1.0000
  C   C1095     1.0  0.47939  0.96391  0.09525  1.0000
  C   C1096     1.0  0.47122  0.92148  0.42310  1.0000
  C   C1097     1.0  0.37792  0.57983  0.27588  1.0000
  H   H872      1.0  0.39271  0.50683  0.38677  1.0000
  H   H873      1.0  0.40508  0.79700  0.41540  1.0000
  C   C1098     1.0  0.39935  0.76847  0.46735  1.0000
  C   C1099     1.0  0.54273  0.97150  0.15432  1.0000
  C   C1100     1.0  0.42644  0.80598  0.44069  1.0000
  H   H874      1.0  0.52967  0.97210  0.25350  1.0000
  C   C1101     1.0  0.37193  0.55764  0.22947  1.0000
  C   C1102     1.0  0.38520  0.71699  0.46550  1.0000
  C   C1103     1.0  0.61124  0.55977  0.43504  1.0000
  C   C1104     1.0  0.48361  0.98400  0.42810  1.0000
  C   C1105     1.0  0.35298  0.57474  0.16857  1.0000
  P   P38       1.0  0.37862  0.54481  0.19501  1.0000
  H   H875      1.0  0.42418  0.63382  0.14856  1.0000
  C   C1106     1.0  0.32019  0.52894  0.32293  1.0000
  P   P39       1.0  0.41759  0.79186  0.47351  1.0000
  C   C1107     1.0  0.41577  0.61669  0.15792  1.0000
  C   C1108     1.0  0.56198  0.97178  0.19263  1.0000
  C   C1109     1.0  0.32016  0.66870  0.32677  1.0000
  Fe  Fe74      1.0  0.31468  0.58663  0.47123  1.0000
  C   C1110     1.0  0.34896  0.52700  0.12746  1.0000
  C   C1111     1.0  0.47936  0.93040  0.09540  1.0000
  S   S150      1.0  0.32922  0.62674  0.45158  1.0000
  H   H876      1.0  0.32755  0.66260  0.39725  1.0000
  H   H877      1.0  0.46662  0.89710  0.42122  1.0000
  H   H878      1.0  0.44574  0.98381  0.17440  1.0000
  C   C1112     1.0  0.49181  0.97851  0.33003  1.0000
  H   H879      1.0  0.32075  0.51122  0.30616  1.0000
  C   C1113     1.0  0.47408  0.91191  0.21343  1.0000
  C   C1114     1.0  0.40364  0.62737  0.17613  1.0000
  H   H880      1.0  0.34718  0.54189  0.22357  1.0000
  C   C1115     1.0  0.34146  0.57826  0.14738  1.0000
  H   H881      1.0  0.33827  0.55827  0.27107  1.0000
  H   H882      1.0  0.34743  0.50854  0.11146  1.0000
  H   H883      1.0  0.33443  0.60000  0.14642  1.0000
  H   H884      1.0  0.47604  0.91761  0.11447  1.0000
  S   S151      1.0  0.63329  0.61652  0.48689  1.0000
  H   H885      1.0  0.46440  0.97408  0.48794  1.0000
  H   H886      1.0  0.45431  0.79046  0.00329  1.0000
  C   C1116     1.0  0.53089  0.98838  0.45984  1.0000
  H   H887      1.0  0.44226  0.90653  0.01339  1.0000
  H   H888      1.0  0.53356  0.96306  0.46043  1.0000
  H   H889      1.0  0.38643  0.59048  0.29059  1.0000
  H   H890      1.0  0.41736  0.81685  0.37119  1.0000
  H   H891      1.0  0.35758  0.58366  0.30439  1.0000
  C   C1117     1.0  0.48341  0.91348  0.07089  1.0000
  H   H892      1.0  0.37145  0.49620  0.35158  1.0000
  C   C1118     1.0  0.43155  0.76719  0.49278  1.0000
  C   C1119     1.0  0.39255  0.60543  0.18768  1.0000
  C   C1120     1.0  0.48815  0.82543  0.47804  1.0000
  C   C1121     1.0  0.49710  0.80004  0.48886  1.0000
  H   H893      1.0  0.61423  0.57531  0.41745  1.0000
  H   H894      1.0  0.60679  0.76952  0.45722  1.0000
  H   H895      1.0  0.49060  0.91615  0.02769  1.0000
  C   C1122     1.0  0.32877  0.66433  0.35182  1.0000
  C   C1123     1.0  0.48725  0.93002  0.04605  1.0000
  H   H896      1.0  0.33032  0.55708  0.11068  1.0000
  C   C1124     1.0  0.46992  0.94331  0.20675  1.0000
  H   H897      1.0  0.32348  0.52514  0.18223  1.0000
  H   H898      1.0  0.35299  0.51354  0.30871  1.0000
  C   C1125     1.0  0.52092  0.88492  0.48890  1.0000
  H   H899      1.0  0.52478  0.86534  0.47543  1.0000
  C   C1126     1.0  0.38544  0.50416  0.19952  1.0000
  H   H900      1.0  0.38581  0.50944  0.43777  1.0000
  C   C1127     1.0  0.52129  0.98272  0.38896  1.0000
  H   H901      1.0  0.46091  0.93725  0.38400  1.0000
  Fe  Fe75      1.0  0.64012  0.66675  0.47312  1.0000
  C   C1128     1.0  0.37645  0.50466  0.42233  1.0000
  H   H902      1.0  0.51365  0.91393  0.45411  1.0000
  C   C1129     1.0  0.31886  0.50392  0.22284  1.0000
  C   C1130     1.0  0.48310  0.98053  0.07048  1.0000
  C   C1131     1.0  0.59962  0.55238  0.48181  1.0000
  H   H903      1.0  0.43700  0.97988  0.07136  1.0000
  H   H904      1.0  0.41064  0.51701  0.20571  1.0000
  C   C1132     1.0  0.61637  0.52795  0.43487  1.0000
  C   C1133     1.0  0.60472  0.52029  0.48133  1.0000
  H   H905      1.0  0.35736  0.50132  0.45343  1.0000
  C   C1134     1.0  0.38031  0.50320  0.39359  1.0000
  C   C1135     1.0  0.47407  0.97543  0.40489  1.0000
  H   H906      1.0  0.57375  0.61995  0.48188  1.0000
  H   H907      1.0  0.54189  0.50432  0.48046  1.0000
  H   H908      1.0  0.45631  0.99035  0.27087  1.0000
  H   H909      1.0  0.31488  0.77567  0.19891  1.0000
  C   C1136     1.0  0.31329  0.55869  0.31715  1.0000
  C   C1137     1.0  0.34837  0.49402  0.41135  1.0000
  H   H910      1.0  0.43853  0.96120  0.99402  1.0000
  Fe  Fe76      1.0  0.53158  0.86977  0.86203  1.0000
  S   S152      1.0  0.50480  0.86501  0.85631  1.0000
  S   S153      1.0  0.54106  0.91768  0.87855  1.0000
  Fe  Fe77      1.0  0.53802  0.79843  0.84879  1.0000
  S   S154      1.0  0.51106  0.78912  0.84395  1.0000
  S   S155      1.0  0.55445  0.75453  0.83938  1.0000
  Fe  Fe78      1.0  0.51071  0.83445  0.81823  1.0000
  S   S156      1.0  0.50278  0.84091  0.77204  1.0000
  Fe  Fe79      1.0  0.50715  0.82040  0.88302  1.0000
  S   S157      1.0  0.48785  0.80932  0.91793  1.0000
  S   S158      1.0  0.53764  0.84298  0.82211  1.0000
  S   S159      1.0  0.53398  0.82601  0.88970  1.0000
  H   H911      1.0  0.61248  0.57189  0.94844  1.0000
  S   S160      1.0  0.63459  0.65078  0.72906  1.0000
  S   S161      1.0  0.62446  0.71389  0.79077  1.0000
  H   H912      1.0  0.57742  0.77879  0.76607  1.0000
  Fe  Fe80      1.0  0.43876  0.81601  0.64568  1.0000
  S   S162      1.0  0.41683  0.83918  0.62627  1.0000
  S   S163      1.0  0.44103  0.81295  0.69395  1.0000
  Fe  Fe81      1.0  0.45348  0.80227  0.58780  1.0000
  S   S164      1.0  0.43293  0.82437  0.56477  1.0000
  S   S165      1.0  0.47547  0.78270  0.56487  1.0000
  Fe  Fe82      1.0  0.43467  0.86355  0.59736  1.0000
  S   S166      1.0  0.43689  0.91400  0.57968  1.0000
  Fe  Fe83      1.0  0.41650  0.79787  0.59482  1.0000
  S   S167      1.0  0.39148  0.77844  0.58007  1.0000
  S   S168      1.0  0.45645  0.84305  0.61851  1.0000
  S   S169      1.0  0.43716  0.77287  0.61645  1.0000
  C   C1138     1.0  0.59555  0.52285  0.58875  1.0000
  H   H913      1.0  0.56086  0.59639  0.53896  1.0000
  H   H914      1.0  0.57544  0.53891  0.56445  1.0000
  C   C1139     1.0  0.51739  0.95131  0.94631  1.0000
  H   H915      1.0  0.63250  0.68812  0.61223  1.0000
  H   H916      1.0  0.52065  0.79070  0.73502  1.0000
  C   C1140     1.0  0.62115  0.59018  0.94200  1.0000
  H   H917      1.0  0.60589  0.73888  0.74045  1.0000
  H   H918      1.0  0.56121  0.73057  0.75499  1.0000
  H   H919      1.0  0.60480  0.57060  0.64211  1.0000
  C   C1141     1.0  0.42977  0.95049  0.59401  1.0000
  C   C1142     1.0  0.41821  0.95180  0.61561  1.0000
  H   H920      1.0  0.48147  0.89176  0.79572  1.0000
  C   C1143     1.0  0.55034  0.74555  0.63757  1.0000
  H   H921      1.0  0.52217  0.53704  0.50728  1.0000
  H   H922      1.0  0.41349  0.92981  0.62466  1.0000
  C   C1144     1.0  0.62402  0.56505  0.82627  1.0000
  C   C1145     1.0  0.38237  0.74692  0.55933  1.0000
  C   C1146     1.0  0.39108  0.72066  0.54909  1.0000
  C   C1147     1.0  0.38313  0.69565  0.53408  1.0000
  C   C1148     1.0  0.36638  0.69640  0.52880  1.0000
  C   C1149     1.0  0.35768  0.72278  0.53878  1.0000
  C   C1150     1.0  0.36562  0.74772  0.55397  1.0000
  H   H923      1.0  0.40388  0.71925  0.55323  1.0000
  H   H924      1.0  0.39004  0.67543  0.52657  1.0000
  H   H925      1.0  0.34482  0.72384  0.53502  1.0000
  H   H926      1.0  0.35867  0.76771  0.56185  1.0000
  H   H927      1.0  0.53694  0.83835  0.74708  1.0000
  C   C1151     1.0  0.48016  0.79924  0.53137  1.0000
  H   H928      1.0  0.39822  0.70494  0.66035  1.0000
  C   C1152     1.0  0.58238  0.63061  0.49638  1.0000
  H   H929      1.0  0.56539  0.83280  0.76251  1.0000
  C   C1153     1.0  0.34390  0.61812  0.59152  1.0000
  C   C1154     1.0  0.50374  0.72814  0.66045  1.0000
  H   H930      1.0  0.53432  0.92904  0.81904  1.0000
  C   C1155     1.0  0.51537  0.72138  0.68088  1.0000
  H   H931      1.0  0.54390  0.70005  0.61869  1.0000
  C   C1156     1.0  0.53652  0.98051  0.81351  1.0000
  H   H932      1.0  0.50944  0.98745  0.67639  1.0000
  H   H933      1.0  0.51211  0.91023  0.91998  1.0000
  H   H934      1.0  0.58820  0.76836  0.65731  1.0000
  C   C1157     1.0  0.48312  0.81490  0.95498  1.0000
  C   C1158     1.0  0.31375  0.65474  0.65291  1.0000
  C   C1159     1.0  0.39660  0.84840  0.53431  1.0000
  C   C1160     1.0  0.60273  0.62585  0.53264  1.0000
  H   H935      1.0  0.49999  0.97608  0.75449  1.0000
  C   C1161     1.0  0.57360  0.74514  0.82332  1.0000
  C   C1162     1.0  0.57579  0.71442  0.81124  1.0000
  C   C1163     1.0  0.59100  0.70474  0.80049  1.0000
  C   C1164     1.0  0.60452  0.72532  0.80228  1.0000
  C   C1165     1.0  0.60224  0.75624  0.81383  1.0000
  C   C1166     1.0  0.58695  0.76618  0.82405  1.0000
  H   H936      1.0  0.56566  0.69778  0.81054  1.0000
  H   H937      1.0  0.59230  0.68111  0.79130  1.0000
  H   H938      1.0  0.61247  0.77258  0.81529  1.0000
  H   H939      1.0  0.58564  0.78974  0.83341  1.0000
  C   C1167     1.0  0.48540  0.83225  0.75108  1.0000
  C   C1168     1.0  0.47027  0.82474  0.76275  1.0000
  C   C1169     1.0  0.45681  0.81928  0.74499  1.0000
  C   C1170     1.0  0.45825  0.82148  0.71540  1.0000
  C   C1171     1.0  0.47337  0.82921  0.70379  1.0000
  C   C1172     1.0  0.48686  0.83400  0.72152  1.0000
  H   H940      1.0  0.46894  0.82317  0.78540  1.0000
  H   H941      1.0  0.44520  0.81316  0.75422  1.0000
  H   H942      1.0  0.47474  0.83069  0.68112  1.0000
  H   H943      1.0  0.49859  0.83869  0.71222  1.0000
  C   C1173     1.0  0.60135  0.61244  0.61636  1.0000
  H   H944      1.0  0.59154  0.72119  0.69758  1.0000
  C   C1174     1.0  0.54029  0.95293  0.85806  1.0000
  C   C1175     1.0  0.53669  0.95191  0.82925  1.0000
  C   C1176     1.0  0.59620  0.67817  0.51408  1.0000
  C   C1177     1.0  0.41864  0.87937  0.51409  1.0000
  H   H945      1.0  0.32587  0.76293  0.59027  1.0000
  C   C1178     1.0  0.54241  0.81485  0.74764  1.0000
  H   H946      1.0  0.54756  0.60960  0.73746  1.0000
  C   C1179     1.0  0.48669  0.75170  0.69634  1.0000
  C   C1180     1.0  0.52419  0.71811  0.79436  1.0000
  C   C1181     1.0  0.45162  0.91095  0.71685  1.0000
  C   C1182     1.0  0.43850  0.90029  0.70076  1.0000
  C   C1183     1.0  0.43871  0.90423  0.67154  1.0000
  C   C1184     1.0  0.45225  0.91771  0.65820  1.0000
  C   C1185     1.0  0.46576  0.92737  0.67405  1.0000
  C   C1186     1.0  0.46506  0.92507  0.70364  1.0000
  P   P40       1.0  0.48387  0.94185  0.65642  1.0000
  C   C1187     1.0  0.48664  0.91744  0.62503  1.0000
  C   C1188     1.0  0.58471  0.66395  0.49631  1.0000
  H   H947      1.0  0.36563  0.69186  0.59117  1.0000
  H   H948      1.0  0.60707  0.76864  0.55031  1.0000
  H   H949      1.0  0.50573  0.72153  0.63858  1.0000
  H   H950      1.0  0.36572  0.63911  0.57349  1.0000
  C   C1189     1.0  0.62957  0.72885  0.67016  1.0000
  C   C1190     1.0  0.47862  0.92562  0.59999  1.0000
  C   C1191     1.0  0.47954  0.90575  0.57619  1.0000
  C   C1192     1.0  0.48846  0.87757  0.57709  1.0000
  C   C1193     1.0  0.49668  0.86943  0.60165  1.0000
  C   C1194     1.0  0.49581  0.88925  0.62553  1.0000
  C   C1195     1.0  0.50078  0.93827  0.68048  1.0000
  C   C1196     1.0  0.50304  0.90945  0.69511  1.0000
  C   C1197     1.0  0.51537  0.90678  0.71500  1.0000
  C   C1198     1.0  0.52549  0.93305  0.72077  1.0000
  C   C1199     1.0  0.52328  0.96199  0.70660  1.0000
  C   C1200     1.0  0.51100  0.96462  0.68656  1.0000
  H   H951      1.0  0.45153  0.90750  0.73947  1.0000
  H   H952      1.0  0.42828  0.88838  0.71081  1.0000
  H   H953      1.0  0.42853  0.89599  0.65906  1.0000
  H   H954      1.0  0.45224  0.91981  0.63548  1.0000
  H   H955      1.0  0.47502  0.93321  0.71659  1.0000
  C   C1201     1.0  0.54346  0.98273  0.87106  1.0000
  C   C1202     1.0  0.54037  0.56871  0.52479  1.0000
  C   C1203     1.0  0.43559  0.97918  0.58218  1.0000
  C   C1204     1.0  0.51732  0.71041  0.76817  1.0000
  C   C1205     1.0  0.61281  0.72302  0.67061  1.0000
  H   H956      1.0  0.47105  0.94664  0.59907  1.0000
  H   H957      1.0  0.47280  0.91163  0.55737  1.0000
  H   H958      1.0  0.48886  0.86181  0.55886  1.0000
  H   H959      1.0  0.50331  0.84718  0.60234  1.0000
  H   H960      1.0  0.50200  0.88189  0.64432  1.0000
  H   H961      1.0  0.49489  0.88932  0.69162  1.0000
  H   H962      1.0  0.34090  0.59381  0.65056  1.0000
  C   C1206     1.0  0.32908  0.68160  0.59611  1.0000
  H   H963      1.0  0.61291  0.55882  0.78560  1.0000
  C   C1207     1.0  0.53497  0.54282  0.50834  1.0000
  H   H964      1.0  0.58801  0.51329  0.60555  1.0000
  C   C1208     1.0  0.46926  0.79955  0.96634  1.0000
  C   C1209     1.0  0.62694  0.70612  0.59917  1.0000
  C   C1210     1.0  0.44531  0.94781  0.95158  1.0000
  C   C1211     1.0  0.50869  0.93743  0.49419  1.0000
  H   H965      1.0  0.63603  0.59946  0.62541  1.0000
  H   H966      1.0  0.45071  0.86228  0.98188  1.0000
  C   C1212     1.0  0.48174  0.98287  0.64502  1.0000
  H   H967      1.0  0.59909  0.65794  0.59580  1.0000
  C   C1213     1.0  0.54911  0.63332  0.72844  1.0000
  H   H968      1.0  0.52187  0.71543  0.83951  1.0000
  C   C1214     1.0  0.53987  0.75687  0.74273  1.0000
  C   C1215     1.0  0.53859  0.65793  0.73615  1.0000
  H   H969      1.0  0.46187  0.78456  0.95272  1.0000
  C   C1216     1.0  0.42848  0.76020  0.52126  1.0000
  C   C1217     1.0  0.43935  0.74193  0.53671  1.0000
  C   C1218     1.0  0.61235  0.52044  0.59041  1.0000
  H   H970      1.0  0.63834  0.50391  0.65187  1.0000
  C   C1219     1.0  0.45621  0.73615  0.49525  1.0000
  S   S170      1.0  0.31828  0.60533  0.51540  1.0000
  C   C1220     1.0  0.61979  0.60459  0.91553  1.0000
  H   H971      1.0  0.55522  0.71844  0.69695  1.0000
  C   C1221     1.0  0.59159  0.61121  0.51423  1.0000
  C   C1222     1.0  0.50812  0.92484  0.93767  1.0000
  C   C1223     1.0  0.47132  0.82474  0.52050  1.0000
  C   C1224     1.0  0.63110  0.62800  0.90690  1.0000
  H   H972      1.0  0.45198  0.97563  0.79057  1.0000
  H   H973      1.0  0.63666  0.72524  0.65124  1.0000
  H   H974      1.0  0.61431  0.66998  0.54562  1.0000
  H   H975      1.0  0.32728  0.54698  0.56905  1.0000
  H   H976      1.0  0.39069  0.71529  0.61085  1.0000
  C   C1225     1.0  0.55840  0.81172  0.75644  1.0000
  C   C1226     1.0  0.33058  0.60779  0.65717  1.0000
  C   C1227     1.0  0.56932  0.70282  0.62841  1.0000
  H   H977      1.0  0.50594  0.95362  0.53749  1.0000
  H   H978      1.0  0.43715  0.73754  0.55891  1.0000
  H   H979      1.0  0.46205  0.71732  0.53618  1.0000
  H   H980      1.0  0.35547  0.64727  0.67149  1.0000
  C   C1228     1.0  0.32722  0.50088  0.49413  1.0000
  C   C1229     1.0  0.55333  0.69469  0.70568  1.0000
  P   P41       1.0  0.60247  0.70735  0.63977  1.0000
  H   H981      1.0  0.60992  0.59750  0.90180  1.0000
  H   H982      1.0  0.40314  0.98271  0.64109  1.0000
  C   C1230     1.0  0.60078  0.64599  0.61580  1.0000
  H   H983      1.0  0.51975  0.99053  0.97536  1.0000
  C   C1231     1.0  0.60389  0.59652  0.64182  1.0000
  P   P42       1.0  0.62884  0.64745  0.87329  1.0000
  C   C1232     1.0  0.61391  0.67822  0.87862  1.0000
  H   H984      1.0  0.60736  0.66074  0.68575  1.0000
  C   C1233     1.0  0.33587  0.56675  0.57077  1.0000
  C   C1234     1.0  0.36029  0.59358  0.55475  1.0000
  C   C1235     1.0  0.61844  0.70824  0.88990  1.0000
  C   C1236     1.0  0.60690  0.73213  0.89392  1.0000
  C   C1237     1.0  0.59070  0.72590  0.88748  1.0000
  C   C1238     1.0  0.58599  0.69567  0.87738  1.0000
  C   C1239     1.0  0.59751  0.67183  0.87308  1.0000
  C   C1240     1.0  0.62291  0.61878  0.84647  1.0000
  C   C1241     1.0  0.61476  0.62920  0.82236  1.0000
  C   C1242     1.0  0.61093  0.60755  0.80068  1.0000
  C   C1243     1.0  0.61550  0.57545  0.80271  1.0000
  H   H985      1.0  0.53817  0.75488  0.63658  1.0000
  C   C1244     1.0  0.51705  0.90754  0.53547  1.0000
  H   H986      1.0  0.52903  0.65273  0.75116  1.0000
  H   H987      1.0  0.60037  0.59883  0.59689  1.0000
  H   H988      1.0  0.38714  0.84564  0.55006  1.0000
  C   C1245     1.0  0.51282  0.73017  0.70920  1.0000
  C   C1246     1.0  0.63758  0.73876  0.69468  1.0000
  H   H989      1.0  0.61051  0.75559  0.90178  1.0000
  H   H990      1.0  0.58177  0.74457  0.88999  1.0000
  H   H991      1.0  0.57340  0.69108  0.87232  1.0000
  H   H992      1.0  0.59358  0.64858  0.86528  1.0000
  H   H993      1.0  0.61189  0.65429  0.81992  1.0000
  H   H994      1.0  0.60495  0.61589  0.78186  1.0000
  C   C1247     1.0  0.51015  0.93481  0.52361  1.0000
  C   C1248     1.0  0.62209  0.53255  0.56869  1.0000
  H   H995      1.0  0.52626  0.70925  0.67449  1.0000
  C   C1249     1.0  0.46331  0.84264  0.86136  1.0000
  C   C1250     1.0  0.45064  0.83795  0.84237  1.0000
  C   C1251     1.0  0.43872  0.86120  0.83985  1.0000
  C   C1252     1.0  0.43945  0.88914  0.85636  1.0000
  C   C1253     1.0  0.45225  0.89418  0.87536  1.0000
  C   C1254     1.0  0.46417  0.87065  0.87770  1.0000
  P   P43       1.0  0.45362  0.93064  0.89627  1.0000
  C   C1255     1.0  0.47305  0.95007  0.89099  1.0000
  C   C1256     1.0  0.43874  0.95870  0.88396  1.0000
  C   C1257     1.0  0.56283  0.76462  0.64857  1.0000
  C   C1258     1.0  0.61235  0.72022  0.60750  1.0000
  C   C1259     1.0  0.61240  0.73653  0.72065  1.0000
  C   C1260     1.0  0.60527  0.74304  0.58975  1.0000
  C   C1261     1.0  0.42280  0.95700  0.89417  1.0000
  H   H996      1.0  0.34152  0.72235  0.61534  1.0000
  H   H997      1.0  0.49586  0.68507  0.83800  1.0000
  C   C1262     1.0  0.49841  0.74564  0.71672  1.0000
  C   C1263     1.0  0.49642  0.96072  0.86103  1.0000
  C   C1264     1.0  0.48252  0.94267  0.86719  1.0000
  C   C1265     1.0  0.45012  0.92278  0.93346  1.0000
  C   C1266     1.0  0.60599  0.61414  0.66673  1.0000
  C   C1267     1.0  0.56517  0.78128  0.75844  1.0000
  C   C1268     1.0  0.49311  0.78702  0.51547  1.0000
  C   C1269     1.0  0.62902  0.74258  0.71989  1.0000
  C   C1270     1.0  0.33288  0.59221  0.58936  1.0000
  H   H998      1.0  0.47245  0.82438  0.86361  1.0000
  H   H999      1.0  0.45003  0.81616  0.82979  1.0000
  H   H1000     1.0  0.42885  0.85739  0.82521  1.0000
  H   H1001     1.0  0.43000  0.90662  0.85408  1.0000
  H   H1002     1.0  0.47415  0.87380  0.89225  1.0000
  H   H1003     1.0  0.48034  0.74848  0.65240  1.0000
  H   H1004     1.0  0.48663  0.89656  0.94512  1.0000
  C   C1271     1.0  0.41230  0.98179  0.62477  1.0000
  H   H1005     1.0  0.41926  0.93889  0.90943  1.0000
  C   C1272     1.0  0.56174  0.63936  0.70946  1.0000
  C   C1273     1.0  0.49244  0.83417  0.97328  1.0000
  C   C1274     1.0  0.40593  0.87656  0.53344  1.0000
  H   H1006     1.0  0.50365  0.95488  0.84264  1.0000
  H   H1007     1.0  0.47909  0.92346  0.85291  1.0000
  C   C1275     1.0  0.57859  0.75292  0.64936  1.0000
  C   C1276     1.0  0.53316  0.78758  0.74082  1.0000
  C   C1277     1.0  0.48939  0.74327  0.66819  1.0000
  H   H1008     1.0  0.61008  0.61172  0.54650  1.0000
  H   H1009     1.0  0.45553  0.87175  0.93164  1.0000
  C   C1278     1.0  0.61505  0.54696  0.54525  1.0000
  C   C1279     1.0  0.61265  0.75135  0.56412  1.0000
  H   H1010     1.0  0.33145  0.52341  0.50302  1.0000
  H   H1011     1.0  0.62284  0.55644  0.52871  1.0000
  H   H1012     1.0  0.50318  0.84612  0.96527  1.0000
  H   H1013     1.0  0.49617  0.75306  0.73835  1.0000
  C   C1280     1.0  0.46317  0.96359  0.78559  1.0000
  H   H1014     1.0  0.50005  0.76737  0.52372  1.0000
  H   H1015     1.0  0.50356  0.92028  0.77081  1.0000
  C   C1281     1.0  0.64330  0.63792  0.92560  1.0000
  C   C1282     1.0  0.51650  0.70890  0.81940  1.0000
  C   C1283     1.0  0.49507  0.68345  0.79249  1.0000
  C   C1284     1.0  0.44438  0.91114  0.99114  1.0000
  H   H1016     1.0  0.53489  0.93112  0.73654  1.0000
  C   C1285     1.0  0.60433  0.72658  0.69622  1.0000
  H   H1017     1.0  0.50435  0.98334  0.62187  1.0000
  H   H1018     1.0  0.47545  0.76303  0.70238  1.0000
  C   C1286     1.0  0.34960  0.56740  0.55350  1.0000
  H   H1019     1.0  0.41780  0.76918  0.53176  1.0000
  H   H1020     1.0  0.51681  0.88454  0.72652  1.0000
  C   C1287     1.0  0.56808  0.55819  0.51057  1.0000
  C   C1288     1.0  0.48864  0.93606  0.97464  1.0000
  C   C1289     1.0  0.55358  0.71467  0.62752  1.0000
  C   C1290     1.0  0.52220  0.88239  0.51816  1.0000
  H   H1021     1.0  0.57368  0.67460  0.68354  1.0000
  H   H1022     1.0  0.57000  0.62036  0.70376  1.0000
  C   C1291     1.0  0.56381  0.66999  0.69805  1.0000
  H   H1023     1.0  0.37055  0.59488  0.54049  1.0000
  H   H1024     1.0  0.63836  0.70711  0.84402  1.0000
  C   C1292     1.0  0.54065  0.68888  0.72490  1.0000
  C   C1293     1.0  0.50282  0.69247  0.76738  1.0000
  H   H1025     1.0  0.63288  0.74354  0.53615  1.0000
  H   H1026     1.0  0.53545  0.73142  0.79555  1.0000
  C   C1294     1.0  0.49374  0.91726  0.95179  1.0000
  H   H1027     1.0  0.38055  0.67068  0.69049  1.0000
  H   H1028     1.0  0.53175  0.58301  0.53650  1.0000
  H   H1029     1.0  0.46154  0.83480  0.53263  1.0000
  C   C1295     1.0  0.47547  0.97969  0.77048  1.0000
  C   C1296     1.0  0.60511  0.65913  0.53236  1.0000
  H   H1030     1.0  0.49747  0.68555  0.74741  1.0000
  C   C1297     1.0  0.58846  0.53740  0.56536  1.0000
  C   C1298     1.0  0.45193  0.89180  0.94466  1.0000
  H   H1031     1.0  0.59399  0.75429  0.59532  1.0000
  P   P44       1.0  0.52767  0.72133  0.73591  1.0000
  C   C1299     1.0  0.59819  0.54958  0.54341  1.0000
  H   H1032     1.0  0.40373  0.89577  0.54847  1.0000
  H   H1033     1.0  0.56035  0.78866  0.65618  1.0000
  C   C1300     1.0  0.50188  0.69178  0.81850  1.0000
  C   C1301     1.0  0.35747  0.61883  0.57362  1.0000
  H   H1034     1.0  0.35169  0.54811  0.53856  1.0000
  H   H1035     1.0  0.60255  0.50469  0.49921  1.0000
  C   C1302     1.0  0.58194  0.72179  0.63955  1.0000
  H   H1036     1.0  0.63533  0.74957  0.73902  1.0000
  C   C1303     1.0  0.62722  0.73731  0.55614  1.0000
  H   H1037     1.0  0.57160  0.67902  0.62019  1.0000
  H   H1038     1.0  0.48376  0.67010  0.79181  1.0000
  H   H1039     1.0  0.47740  0.92996  0.98515  1.0000
  C   C1304     1.0  0.55593  0.75394  0.75189  1.0000
  C   C1305     1.0  0.47021  0.98996  0.50303  1.0000
  H   H1040     1.0  0.31346  0.64736  0.57440  1.0000
  H   H1041     1.0  0.45571  0.91943  0.80576  1.0000
  C   C1306     1.0  0.49012  0.96398  0.76529  1.0000
  C   C1307     1.0  0.49223  0.93241  0.77452  1.0000
  C   C1308     1.0  0.47978  0.91631  0.78882  1.0000
  C   C1309     1.0  0.46527  0.93192  0.79444  1.0000
  H   H1042     1.0  0.60858  0.60184  0.68633  1.0000
  H   H1043     1.0  0.32334  0.57383  0.68915  1.0000
  C   C1310     1.0  0.60276  0.66391  0.64078  1.0000
  H   H1044     1.0  0.52850  0.95706  0.93506  1.0000
  C   C1311     1.0  0.60540  0.64768  0.66626  1.0000
  C   C1312     1.0  0.38727  0.69422  0.65180  1.0000
  H   H1045     1.0  0.63514  0.53117  0.57001  1.0000
  C   C1313     1.0  0.35864  0.66735  0.62957  1.0000
  H   H1046     1.0  0.45818  0.99010  0.66414  1.0000
  C   C1314     1.0  0.31645  0.67245  0.57795  1.0000
  C   C1315     1.0  0.38303  0.70000  0.62384  1.0000
  C   C1316     1.0  0.63443  0.71498  0.57382  1.0000
  C   C1317     1.0  0.36303  0.66163  0.65773  1.0000
  S   S171      1.0  0.63453  0.55826  0.73700  1.0000
  H   H1047     1.0  0.63485  0.57837  0.86569  1.0000
  H   H1048     1.0  0.53095  0.98257  0.71146  1.0000
  H   H1049     1.0  0.44366  0.97187  0.94363  1.0000
  H   H1050     1.0  0.44749  0.97699  0.73795  1.0000
  H   H1051     1.0  0.62807  0.54041  0.82720  1.0000
  C   C1318     1.0  0.40000  0.82299  0.51591  1.0000
  C   C1319     1.0  0.36882  0.68662  0.61275  1.0000
  P   P45       1.0  0.33987  0.65129  0.61529  1.0000
  P   P46       1.0  0.58936  0.56794  0.51271  1.0000
  C   C1320     1.0  0.55686  0.57630  0.52604  1.0000
  H   H1052     1.0  0.51820  0.90572  0.55815  1.0000
  H   H1053     1.0  0.63092  0.71337  0.89526  1.0000
  C   C1321     1.0  0.63361  0.59950  0.96021  1.0000
  H   H1054     1.0  0.44457  0.97819  0.56565  1.0000
  C   C1322     1.0  0.37729  0.67497  0.66872  1.0000
  C   C1323     1.0  0.33222  0.71445  0.60083  1.0000
  C   C1324     1.0  0.62778  0.58664  0.84806  1.0000
  C   C1325     1.0  0.32715  0.63699  0.64385  1.0000
  C   C1326     1.0  0.64170  0.52146  0.75066  1.0000
  C   C1327     1.0  0.51242  0.97000  0.96935  1.0000
  H   H1055     1.0  0.52714  0.86087  0.52732  1.0000
  H   H1056     1.0  0.63463  0.58836  0.98074  1.0000
  H   H1057     1.0  0.53408  0.97954  0.79112  1.0000
  H   H1058     1.0  0.59851  0.70384  0.51304  1.0000
  H   H1059     1.0  0.42623  0.90078  0.51432  1.0000
  H   H1060     1.0  0.54638  0.98363  0.89327  1.0000
  Fe  Fe84      1.0  0.64092  0.67507  0.77021  1.0000
  C   C1328     1.0  0.45331  0.73028  0.52383  1.0000
  H   H1061     1.0  0.39300  0.80095  0.51790  1.0000
  H   H1062     1.0  0.61787  0.50916  0.60845  1.0000
  C   C1329     1.0  0.32320  0.73767  0.58691  1.0000
  C   C1330     1.0  0.47782  0.97574  0.90853  1.0000
  C   C1331     1.0  0.44286  0.98188  0.86358  1.0000
  C   C1332     1.0  0.49814  0.96209  0.98415  1.0000
  S   S172      1.0  0.64245  0.60649  0.56656  1.0000
  S   S173      1.0  0.35715  0.66373  0.50972  1.0000
  C   C1333     1.0  0.48711  0.99310  0.50400  1.0000
  C   C1334     1.0  0.44916  0.88616  0.97336  1.0000
  H   H1063     1.0  0.42627  0.98413  0.70255  1.0000
  H   H1064     1.0  0.45496  0.98339  0.85486  1.0000
  H   H1065     1.0  0.47068  0.98224  0.92676  1.0000
  C   C1335     1.0  0.41126  0.97865  0.88463  1.0000
  H   H1066     1.0  0.39899  0.97733  0.89269  1.0000
  Fe  Fe85      1.0  0.33144  0.64787  0.49567  1.0000
  C   C1336     1.0  0.42205  0.85405  0.49555  1.0000
  C   C1337     1.0  0.41272  0.82559  0.49622  1.0000
  C   C1338     1.0  0.50092  0.98644  0.87838  1.0000
  C   C1339     1.0  0.44239  0.94193  0.98022  1.0000
  H   H1067     1.0  0.32181  0.59181  0.60160  1.0000
  C   C1340     1.0  0.32068  0.59644  0.67905  1.0000
  H   H1068     1.0  0.61017  0.49603  0.66729  1.0000
  C   C1341     1.0  0.47535  0.83783  0.49409  1.0000
  H   H1069     1.0  0.64575  0.70421  0.56768  1.0000
  C   C1342     1.0  0.64442  0.61931  0.62289  1.0000
  C   C1343     1.0  0.64463  0.62347  0.95207  1.0000
  H   H1070     1.0  0.64522  0.63027  0.66742  1.0000
  C   C1344     1.0  0.54608  0.52441  0.49321  1.0000
  C   C1345     1.0  0.56258  0.53195  0.49439  1.0000
  C   C1346     1.0  0.95849  0.01851  0.46119  1.0000
  Fe  Fe86      1.0  0.81634  0.37327  0.46608  1.0000
  S   S174      1.0  0.80625  0.32663  0.44837  1.0000
  S   S175      1.0  0.81639  0.42032  0.44218  1.0000
  C   C1347     1.0  0.72247  0.42259  0.44436  1.0000
  C   C1348     1.0  0.75905  0.43758  0.48348  1.0000
  Fe  Fe87      1.0  0.82738  0.30323  0.47045  1.0000
  S   S176      1.0  0.84110  0.25879  0.45356  1.0000
  Fe  Fe88      1.0  0.67567  0.32874  0.46346  1.0000
  S   S177      1.0  0.69927  0.33081  0.43854  1.0000
  H   H1071     1.0  0.74136  0.43110  0.39299  1.0000
  H   H1072     1.0  0.88659  0.32753  0.47501  1.0000
  S   S178      1.0  0.65230  0.35041  0.44795  1.0000
  H   H1073     1.0  0.96382  0.06851  0.47069  1.0000
  Fe  Fe89      1.0  0.92703  0.17664  0.39295  1.0000
  S   S179      1.0  0.95412  0.18494  0.38841  1.0000
  S   S180      1.0  0.91209  0.22009  0.40883  1.0000
  Fe  Fe90      1.0  0.93033  0.10641  0.37495  1.0000
  S   S181      1.0  0.95711  0.10986  0.36981  1.0000
  S   S182      1.0  0.91674  0.05959  0.36622  1.0000
  Fe  Fe91      1.0  0.95670  0.13776  0.41041  1.0000
  S   S183      1.0  0.97187  0.16851  0.31297  1.0000
  Fe  Fe92      1.0  0.95306  0.15651  0.34768  1.0000
  C   C1349     1.0  0.95455  0.05092  0.46535  1.0000
  S   S184      1.0  0.92997  0.13077  0.41751  1.0000
  S   S185      1.0  0.92583  0.15176  0.35016  1.0000
  C   C1350     1.0  0.75832  0.39675  0.37740  1.0000
  C   C1351     1.0  0.96191  0.15476  0.25765  1.0000
  C   C1352     1.0  0.96448  0.15377  0.22812  1.0000
  C   C1353     1.0  0.93574  0.04265  0.27485  1.0000
  H   H1074     1.0  0.94998  0.15029  0.26626  1.0000
  H   H1075     1.0  0.95440  0.14877  0.21428  1.0000
  C   C1354     1.0  0.93041  0.00706  0.44939  1.0000
  C   C1355     1.0  0.92620  0.02224  0.37204  1.0000
  C   C1356     1.0  0.74811  0.31875  0.48383  1.0000
  H   H1076     1.0  0.68460  0.45060  0.43399  1.0000
  C   C1357     1.0  0.88397  0.11052  0.34869  1.0000
  C   C1358     1.0  0.94452  0.03225  0.25136  1.0000
  H   H1077     1.0  0.96037  0.26318  0.00732  1.0000
  C   C1359     1.0  0.86130  0.24862  0.44307  1.0000
  C   C1360     1.0  0.87333  0.27179  0.43775  1.0000
  C   C1361     1.0  0.88874  0.26255  0.42762  1.0000
  C   C1362     1.0  0.89250  0.23001  0.42276  1.0000
  C   C1363     1.0  0.88057  0.20680  0.42872  1.0000
  C   C1364     1.0  0.86512  0.21607  0.43856  1.0000
  H   H1078     1.0  0.87058  0.29690  0.44056  1.0000
  H   H1079     1.0  0.89777  0.28085  0.42312  1.0000
  H   H1080     1.0  0.88319  0.18167  0.42558  1.0000
  H   H1081     1.0  0.85598  0.19782  0.44252  1.0000
  C   C1365     1.0  0.81722  0.45605  0.46257  1.0000
  C   C1366     1.0  0.96853  0.04544  0.31663  1.0000
  H   H1082     1.0  0.94899  0.04260  0.38508  1.0000
  H   H1083     1.0  0.93382  0.06807  0.27840  1.0000
  H   H1084     1.0  0.88426  0.08590  0.35603  1.0000
  C   C1367     1.0  0.97836  0.07263  0.20610  1.0000
  H   H1085     1.0  0.65994  0.48846  0.42180  1.0000
  C   C1368     1.0  0.97747  0.07160  0.15499  1.0000
  C   C1369     1.0  0.74765  0.32902  0.45575  1.0000
  C   C1370     1.0  0.73264  0.33273  0.44210  1.0000
  C   C1371     1.0  0.71798  0.32683  0.45650  1.0000
  Fe  Fe93      1.0  0.65147  0.37426  0.49055  1.0000
  H   H1086     1.0  0.97222  0.07987  0.13547  1.0000
  H   H1087     1.0  0.75883  0.33339  0.44440  1.0000
  H   H1088     1.0  0.73241  0.33998  0.42022  1.0000
  C   C1372     1.0  0.76039  0.42279  0.42330  1.0000
  C   C1373     1.0  0.72269  0.48069  0.44276  1.0000
  H   H1089     1.0  0.75192  0.39289  0.35777  1.0000
  H   H1090     1.0  0.96107  0.09825  0.18120  1.0000
  C   C1374     1.0  0.97114  0.08186  0.18083  1.0000
  C   C1375     1.0  0.65651  0.48875  0.44386  1.0000
  C   C1376     1.0  0.86861  0.29533  0.35879  1.0000
  C   C1377     1.0  0.85597  0.28312  0.37537  1.0000
  C   C1378     1.0  0.85214  0.25039  0.37442  1.0000
  C   C1379     1.0  0.86108  0.22972  0.35725  1.0000
  C   C1380     1.0  0.87415  0.24160  0.34121  1.0000
  C   C1381     1.0  0.87754  0.27474  0.34147  1.0000
  P   P47       1.0  0.88523  0.21534  0.31786  1.0000
  C   C1382     1.0  0.90665  0.22414  0.31724  1.0000
  C   C1383     1.0  0.88398  0.17428  0.32973  1.0000
  C   C1384     1.0  0.88551  0.16754  0.35855  1.0000
  C   C1385     1.0  0.88536  0.13580  0.36802  1.0000
  C   C1386     1.0  0.88281  0.11697  0.31985  1.0000
  C   C1387     1.0  0.88291  0.14874  0.31034  1.0000
  C   C1388     1.0  0.91639  0.21108  0.29583  1.0000
  C   C1389     1.0  0.93319  0.21529  0.29658  1.0000
  C   C1390     1.0  0.94040  0.23190  0.31899  1.0000
  C   C1391     1.0  0.93080  0.24474  0.34046  1.0000
  C   C1392     1.0  0.91399  0.24097  0.33956  1.0000
  C   C1393     1.0  0.87618  0.21981  0.28362  1.0000
  C   C1394     1.0  0.86114  0.20523  0.27799  1.0000
  C   C1395     1.0  0.85379  0.20925  0.25175  1.0000
  C   C1396     1.0  0.86130  0.22821  0.23112  1.0000
  C   C1397     1.0  0.87612  0.24336  0.23681  1.0000
  C   C1398     1.0  0.88349  0.23939  0.26305  1.0000
  H   H1091     1.0  0.87155  0.32074  0.35958  1.0000
  H   H1092     1.0  0.84925  0.29886  0.38931  1.0000
  H   H1093     1.0  0.84243  0.24100  0.38758  1.0000
  H   H1094     1.0  0.85779  0.20450  0.35679  1.0000
  H   H1095     1.0  0.88719  0.28461  0.32853  1.0000
  H   H1096     1.0  0.88725  0.18687  0.37359  1.0000
  H   H1097     1.0  0.88683  0.13079  0.39028  1.0000
  H   H1098     1.0  0.88251  0.15323  0.28789  1.0000
  H   H1099     1.0  0.91107  0.19693  0.27897  1.0000
  H   H1100     1.0  0.94074  0.20487  0.28029  1.0000
  H   H1101     1.0  0.95347  0.23404  0.32005  1.0000
  H   H1102     1.0  0.93637  0.25671  0.35837  1.0000
  H   H1103     1.0  0.90687  0.25014  0.35693  1.0000
  H   H1104     1.0  0.85508  0.19089  0.29397  1.0000
  H   H1105     1.0  0.84221  0.19786  0.24749  1.0000
  H   H1106     1.0  0.85557  0.23142  0.21083  1.0000
  H   H1107     1.0  0.88184  0.25840  0.22097  1.0000
  H   H1108     1.0  0.89478  0.25188  0.26731  1.0000
  C   C1399     1.0  0.77269  0.38051  0.38246  1.0000
  C   C1400     1.0  0.78102  0.38574  0.40765  1.0000
  C   C1401     1.0  0.71849  0.31748  0.48479  1.0000
  H   H1109     1.0  0.77748  0.36412  0.36680  1.0000
  H   H1110     1.0  0.79242  0.37400  0.41125  1.0000
  C   C1402     1.0  0.77487  0.40661  0.42809  1.0000
  H   H1111     1.0  0.94938  0.04968  0.23664  1.0000
  H   H1112     1.0  0.92331  0.02847  0.31281  1.0000
  H   H1113     1.0  0.96941  0.99383  0.31720  1.0000
  C   C1403     1.0  0.97331  0.01551  0.30638  1.0000
  H   H1114     1.0  0.78161  0.41043  0.44740  1.0000
  C   C1404     1.0  0.97464  0.16290  0.27580  1.0000
  H   H1115     1.0  0.88219  0.09724  0.30491  1.0000
  C   C1405     1.0  0.97009  0.03885  0.00786  1.0000
  C   C1406     1.0  0.96868  0.15157  0.48900  1.0000
  C   C1407     1.0  0.64818  0.27847  0.39054  1.0000
  H   H1116     1.0  0.65548  0.27644  0.40939  1.0000
  C   C1408     1.0  0.93870  0.06121  0.46167  1.0000
  C   C1409     1.0  0.92984  0.02030  0.29432  1.0000
  C   C1410     1.0  0.69750  0.45105  0.43746  1.0000
  H   H1117     1.0  0.66132  0.24249  0.36753  1.0000
  C   C1411     1.0  0.92667  0.03939  0.45335  1.0000
  Fe  Fe94      1.0  0.79264  0.32352  0.48963  1.0000
  H   H1118     1.0  0.90512  0.99437  0.36027  1.0000
  H   H1119     1.0  0.69924  0.39956  0.43890  1.0000
  H   H1120     1.0  0.93588  0.08632  0.46465  1.0000
  H   H1121     1.0  0.97352  0.08185  0.22565  1.0000
  H   H1122     1.0  0.96990  0.09675  0.31082  1.0000
  H   H1123     1.0  0.96085  0.04691  0.33517  1.0000
  H   H1124     1.0  0.72860  0.39985  0.44509  1.0000
  C   C1412     1.0  0.73115  0.45180  0.44596  1.0000
  C   C1413     1.0  0.70593  0.48026  0.43878  1.0000
  H   H1125     1.0  0.74430  0.39412  0.48253  1.0000
  H   H1126     1.0  0.81306  0.48677  0.42698  1.0000
  P   P48       1.0  0.75304  0.45139  0.44888  1.0000
  S   S186      1.0  0.66334  0.28421  0.48075  1.0000
  C   C1414     1.0  0.65145  0.25932  0.36698  1.0000
  C   C1415     1.0  0.75230  0.41819  0.39755  1.0000
  C   C1416     1.0  0.65368  0.45958  0.45812  1.0000
  C   C1417     1.0  0.82017  0.45519  0.49160  1.0000
  C   C1418     1.0  0.94622  0.99657  0.45344  1.0000
  H   H1127     1.0  0.91451  0.04761  0.44943  1.0000
  H   H1128     1.0  0.77794  0.47468  0.40861  1.0000
  C   C1419     1.0  0.94224  0.02074  0.38091  1.0000
  H   H1129     1.0  0.95783  0.15930  0.47849  1.0000
  C   C1420     1.0  0.70576  0.42227  0.44030  1.0000
  C   C1421     1.0  0.81528  0.48593  0.44942  1.0000
  C   C1422     1.0  0.96725  0.01309  0.02637  1.0000
  C   C1423     1.0  0.97734  0.06714  0.01840  1.0000
  H   H1130     1.0  0.97449  0.05681  0.42108  1.0000
  C   C1424     1.0  0.76215  0.49049  0.44256  1.0000
  C   C1425     1.0  0.97353  0.07346  0.30283  1.0000
  H   H1131     1.0  0.65490  0.43692  0.44710  1.0000
  S   S187      1.0  0.83827  0.35037  0.48488  1.0000
  C   C1426     1.0  0.94726  0.99948  0.24717  1.0000
  H   H1132     1.0  0.97884  0.08806  0.00504  1.0000
  H   H1133     1.0  0.77728  0.47497  0.49008  1.0000
  S   S188      1.0  0.97792  0.12440  0.43795  1.0000
  C   C1427     1.0  0.97301  0.01451  0.05409  1.0000
  C   C1428     1.0  0.64884  0.45985  0.48643  1.0000
  H   H1134     1.0  0.97118  0.99426  0.06808  1.0000
  Fe  Fe95      1.0  0.95063  0.09887  0.85022  1.0000
  S   S189      1.0  0.95902  0.04718  0.84705  1.0000
  Fe  Fe96      1.0  0.92766  0.15736  0.84811  1.0000
  S   S190      1.0  0.94855  0.19162  0.85458  1.0000
  S   S191      1.0  0.90085  0.17119  0.84120  1.0000
  H   H1135     1.0  0.95557  0.17410  0.63718  1.0000
  Fe  Fe97      1.0  0.95787  0.15715  0.88789  1.0000
  Fe  Fe98      1.0  0.96162  0.16120  0.82214  1.0000
  S   S192      1.0  0.94052  0.12808  0.81487  1.0000
  S   S193      1.0  0.93602  0.12448  0.88335  1.0000
  Fe  Fe99      1.0  0.82249  0.34459  0.52335  1.0000
  S   S194      1.0  0.83087  0.36065  0.56647  1.0000
  H   H1136     1.0  0.74703  0.46677  0.73761  1.0000
  H   H1137     1.0  0.66817  0.49013  0.79779  1.0000
  Fe  Fe100     1.0  0.83561  0.30388  0.77019  1.0000
  S   S195      1.0  0.84063  0.32584  0.72758  1.0000
  S   S196      1.0  0.85941  0.28928  0.79266  1.0000
  Fe  Fe101     1.0  0.79870  0.31985  0.76427  1.0000
  S   S197      1.0  0.80201  0.34226  0.72169  1.0000
  S   S198      1.0  0.77390  0.32201  0.78618  1.0000
  Fe  Fe102     1.0  0.81813  0.30039  0.71337  1.0000
  S   S199      1.0  0.81654  0.27295  0.67244  1.0000
  Fe  Fe103     1.0  0.82412  0.36606  0.74014  1.0000
  S   S200      1.0  0.83153  0.41731  0.72885  1.0000
  S   S201      1.0  0.81367  0.27579  0.75495  1.0000
  S   S202      1.0  0.82016  0.34623  0.78339  1.0000
  H   H1138     1.0  0.91138  0.15185  0.68125  1.0000
  Fe  Fe104     1.0  0.66178  0.31333  0.52083  1.0000
  H   H1139     1.0  0.69196  0.36017  0.60290  1.0000
  Fe  Fe105     1.0  0.67709  0.32275  0.74440  1.0000
  S   S203      1.0  0.66729  0.36773  0.72526  1.0000
  S   S204      1.0  0.70326  0.31189  0.73019  1.0000
  C   C1429     1.0  0.72048  0.48626  0.64087  1.0000
  C   C1430     1.0  0.84752  0.23190  0.58035  1.0000
  C   C1431     1.0  0.96184  0.33827  0.90811  1.0000
  S   S205      1.0  0.66533  0.33140  0.78681  1.0000
  S   S206      1.0  0.65576  0.29248  0.72948  1.0000
  H   H1140     1.0  0.72777  0.47563  0.59847  1.0000
  C   C1432     1.0  0.87726  0.35838  0.50763  1.0000
  C   C1433     1.0  0.69238  0.42342  0.67203  1.0000
  C   C1434     1.0  0.64618  0.45703  0.66575  1.0000
  P   P49       1.0  0.66682  0.46175  0.65373  1.0000
  C   C1435     1.0  0.66021  0.31162  0.59330  1.0000
  C   C1436     1.0  0.66724  0.30793  0.61997  1.0000
  C   C1437     1.0  0.65926  0.31887  0.64438  1.0000
  H   H1141     1.0  0.74802  0.42516  0.69265  1.0000
  H   H1142     1.0  0.67872  0.29596  0.62180  1.0000
  H   H1143     1.0  0.66457  0.31529  0.66493  1.0000
  C   C1438     1.0  0.82678  0.45307  0.74752  1.0000
  H   H1144     1.0  0.65159  0.11479  0.66153  1.0000
  H   H1145     1.0  0.79756  0.34162  0.84398  1.0000
  C   C1439     1.0  0.91991  0.10535  0.96964  1.0000
  C   C1440     1.0  0.81690  0.45312  0.77156  1.0000
  C   C1441     1.0  0.93487  0.11586  0.95921  1.0000
  H   H1146     1.0  0.81203  0.43071  0.77938  1.0000
  C   C1442     1.0  0.75440  0.32082  0.76987  1.0000
  C   C1443     1.0  0.74049  0.32558  0.78658  1.0000
  C   C1444     1.0  0.72480  0.32379  0.77481  1.0000
  C   C1445     1.0  0.72276  0.31686  0.74608  1.0000
  C   C1446     1.0  0.73670  0.31270  0.72929  1.0000
  C   C1447     1.0  0.75238  0.31481  0.74099  1.0000
  H   H1147     1.0  0.74182  0.33028  0.80892  1.0000
  H   H1148     1.0  0.71428  0.32703  0.78810  1.0000
  H   H1149     1.0  0.73536  0.30739  0.70710  1.0000
  H   H1150     1.0  0.76289  0.31115  0.72775  1.0000
  H   H1151     1.0  0.70735  0.31265  0.49611  1.0000
  H   H1152     1.0  0.83794  0.33877  0.96080  1.0000
  C   C1448     1.0  0.82625  0.33608  0.59551  1.0000
  C   C1449     1.0  0.82871  0.34830  0.62277  1.0000
  C   C1450     1.0  0.82529  0.32930  0.64646  1.0000
  C   C1451     1.0  0.81988  0.29761  0.64298  1.0000
  C   C1452     1.0  0.81749  0.28527  0.61574  1.0000
  C   C1453     1.0  0.82051  0.30457  0.59200  1.0000
  H   H1153     1.0  0.83321  0.37260  0.62558  1.0000
  H   H1154     1.0  0.82714  0.33904  0.66741  1.0000
  H   H1155     1.0  0.81328  0.26077  0.61300  1.0000
  H   H1156     1.0  0.81876  0.29484  0.57107  1.0000
  H   H1157     1.0  0.69502  0.44183  0.56365  1.0000
  C   C1454     1.0  0.85001  0.39932  0.90210  1.0000
  C   C1455     1.0  0.88979  0.20374  0.82590  1.0000
  C   C1456     1.0  0.87304  0.19999  0.82115  1.0000
  C   C1457     1.0  0.86365  0.22532  0.81024  1.0000
  C   C1458     1.0  0.87075  0.25538  0.80468  1.0000
  C   C1459     1.0  0.88751  0.25910  0.80936  1.0000
  C   C1460     1.0  0.89698  0.23341  0.81930  1.0000
  H   H1158     1.0  0.86724  0.17725  0.82604  1.0000
  H   H1159     1.0  0.85084  0.22178  0.80678  1.0000
  H   H1160     1.0  0.89326  0.28202  0.80501  1.0000
  H   H1161     1.0  0.90981  0.23672  0.82242  1.0000
  C   C1461     1.0  0.81357  0.48222  0.78570  1.0000
  C   C1462     1.0  0.68301  0.44901  0.60351  1.0000
  C   C1463     1.0  0.70567  0.46571  0.51055  1.0000
  C   C1464     1.0  0.97114  0.15886  0.51774  1.0000
  C   C1465     1.0  0.67799  0.45247  0.70852  1.0000
  H   H1162     1.0  0.90882  0.27766  0.54785  1.0000
  H   H1163     1.0  0.94139  0.28984  0.80069  1.0000
  C   C1466     1.0  0.93986  0.23905  0.91250  1.0000
  H   H1164     1.0  0.87521  0.19744  0.54985  1.0000
  C   C1467     1.0  0.75649  0.45035  0.74342  1.0000
  C   C1468     1.0  0.89044  0.24026  0.55046  1.0000
  C   C1469     1.0  0.84132  0.35569  0.94442  1.0000
  H   H1165     1.0  0.94523  0.00482  0.75777  1.0000
  C   C1470     1.0  0.89915  0.18736  0.53519  1.0000
  H   H1166     1.0  0.74217  0.42875  0.77664  1.0000
  C   C1471     1.0  0.96512  0.37101  0.90435  1.0000
  H   H1167     1.0  0.86728  0.37046  0.78486  1.0000
  H   H1168     1.0  0.80610  0.48200  0.80449  1.0000
  C   C1472     1.0  0.85350  0.37856  0.94935  1.0000
  H   H1169     1.0  0.85352  0.41645  0.88602  1.0000
  H   H1170     1.0  0.69395  0.41600  0.65032  1.0000
  H   H1171     1.0  0.96067  0.21976  0.66977  1.0000
  H   H1172     1.0  0.78605  0.45489  0.53584  1.0000
  C   C1473     1.0  0.93910  0.28096  0.87733  1.0000
  S   S207      1.0  0.76648  0.31164  0.50191  1.0000
  H   H1173     1.0  0.67117  0.22179  0.74027  1.0000
  H   H1174     1.0  0.90830  0.27085  0.73310  1.0000
  H   H1175     1.0  0.94494  0.29986  0.86529  1.0000
  H   H1176     1.0  0.77079  0.45064  0.86781  1.0000
  H   H1177     1.0  0.93087  0.14033  0.64290  1.0000
  C   C1474     1.0  0.87041  0.33246  0.55181  1.0000
  C   C1475     1.0  0.68016  0.44495  0.67984  1.0000
  H   H1178     1.0  0.68616  0.44497  0.75107  1.0000
  H   H1179     1.0  0.90271  0.26192  0.60131  1.0000
  H   H1180     1.0  0.91663  0.28488  0.85468  1.0000
  C   C1476     1.0  0.80363  0.29231  0.83879  1.0000
  C   C1477     1.0  0.81564  0.26914  0.84059  1.0000
  C   C1478     1.0  0.83100  0.27773  0.85037  1.0000
  C   C1479     1.0  0.83443  0.30955  0.85803  1.0000
  C   C1480     1.0  0.82257  0.33322  0.85558  1.0000
  C   C1481     1.0  0.80703  0.32419  0.84633  1.0000
  P   P50       1.0  0.82761  0.37478  0.86341  1.0000
  C   C1482     1.0  0.83783  0.37629  0.89695  1.0000
  C   C1483     1.0  0.84057  0.39208  0.83636  1.0000
  C   C1484     1.0  0.85097  0.37279  0.82030  1.0000
  C   C1485     1.0  0.85995  0.38595  0.79802  1.0000
  C   C1486     1.0  0.85896  0.41867  0.79205  1.0000
  C   C1487     1.0  0.84925  0.43838  0.80874  1.0000
  C   C1488     1.0  0.84007  0.42521  0.83078  1.0000
  C   C1489     1.0  0.83347  0.35457  0.91835  1.0000
  H   H1181     1.0  0.79176  0.28578  0.83082  1.0000
  H   H1182     1.0  0.81310  0.24464  0.83404  1.0000
  H   H1183     1.0  0.84042  0.25991  0.85125  1.0000
  H   H1184     1.0  0.84650  0.31579  0.86509  1.0000
  H   H1185     1.0  0.86669  0.38256  0.54340  1.0000
  Fe  Fe106     1.0  0.65476  0.37563  0.76664  1.0000
  H   H1186     1.0  0.86541  0.42863  0.77410  1.0000
  C   C1490     1.0  0.78151  0.43595  0.86714  1.0000
  C   C1491     1.0  0.65887  0.49068  0.78183  1.0000
  H   H1187     1.0  0.82399  0.33680  0.91491  1.0000
  C   C1492     1.0  0.74216  0.24418  0.68191  1.0000
  C   C1493     1.0  0.75681  0.24085  0.69610  1.0000
  C   C1494     1.0  0.77077  0.25609  0.68583  1.0000
  C   C1495     1.0  0.76999  0.27539  0.66185  1.0000
  C   C1496     1.0  0.75513  0.28027  0.64834  1.0000
  C   C1497     1.0  0.74136  0.26338  0.65781  1.0000
  P   P51       1.0  0.75423  0.30570  0.61761  1.0000
  C   C1498     1.0  0.73481  0.32455  0.61334  1.0000
  C   C1499     1.0  0.76871  0.33820  0.62122  1.0000
  C   C1500     1.0  0.77721  0.34996  0.59762  1.0000
  C   C1501     1.0  0.78946  0.37305  0.60109  1.0000
  C   C1502     1.0  0.79302  0.38508  0.62794  1.0000
  C   C1503     1.0  0.78418  0.37435  0.65135  1.0000
  C   C1504     1.0  0.77193  0.35131  0.64798  1.0000
  C   C1505     1.0  0.72971  0.33403  0.58643  1.0000
  C   C1506     1.0  0.71433  0.34694  0.58273  1.0000
  C   C1507     1.0  0.70410  0.35129  0.60596  1.0000
  C   C1508     1.0  0.70939  0.34338  0.63300  1.0000
  C   C1509     1.0  0.72476  0.33046  0.63676  1.0000
  C   C1510     1.0  0.75940  0.28014  0.58814  1.0000
  C   C1511     1.0  0.74732  0.26554  0.57159  1.0000
  C   C1512     1.0  0.75153  0.24666  0.54826  1.0000
  C   C1513     1.0  0.76780  0.24168  0.54169  1.0000
  C   C1514     1.0  0.77987  0.25502  0.55879  1.0000
  C   C1515     1.0  0.77569  0.27386  0.58211  1.0000
  H   H1188     1.0  0.73137  0.23219  0.68979  1.0000
  H   H1189     1.0  0.75738  0.22638  0.71501  1.0000
  H   H1190     1.0  0.78224  0.25310  0.69646  1.0000
  H   H1191     1.0  0.78103  0.28658  0.65406  1.0000
  H   H1192     1.0  0.72996  0.26526  0.64686  1.0000
  H   H1193     1.0  0.77483  0.34053  0.57665  1.0000
  H   H1194     1.0  0.79670  0.38061  0.58309  1.0000
  H   H1195     1.0  0.80295  0.40200  0.63059  1.0000
  H   H1196     1.0  0.78711  0.38295  0.67231  1.0000
  H   H1197     1.0  0.76539  0.34297  0.66646  1.0000
  H   H1198     1.0  0.73744  0.33064  0.56815  1.0000
  H   H1199     1.0  0.71011  0.35259  0.56171  1.0000
  H   H1200     1.0  0.70136  0.34632  0.65100  1.0000
  H   H1201     1.0  0.72859  0.32452  0.65790  1.0000
  H   H1202     1.0  0.73465  0.26896  0.57637  1.0000
  H   H1203     1.0  0.74220  0.23654  0.53482  1.0000
  H   H1204     1.0  0.87762  0.37972  0.49462  1.0000
  H   H1205     1.0  0.79248  0.25145  0.55357  1.0000
  H   H1206     1.0  0.78520  0.28403  0.59510  1.0000
  C   C1516     1.0  0.68462  0.43582  0.57652  1.0000
  C   C1517     1.0  0.67256  0.41550  0.56583  1.0000
  H   H1207     1.0  0.66820  0.46776  0.71532  1.0000
  S   S208      1.0  0.67549  0.35584  0.50421  1.0000
  C   C1518     1.0  0.66932  0.44185  0.62007  1.0000
  C   C1519     1.0  0.66023  0.21005  0.74786  1.0000
  H   H1208     1.0  0.74628  0.40893  0.60343  1.0000
  S   S209      1.0  0.97185  0.18294  0.78139  1.0000
  H   H1209     1.0  0.81451  0.20219  0.54588  1.0000
  H   H1210     1.0  0.73681  0.39619  0.65181  1.0000
  H   H1211     1.0  0.67348  0.40620  0.54455  1.0000
  C   C1520     1.0  0.97583  0.01250  0.64765  1.0000
  S   S210      1.0  0.80159  0.37114  0.50556  1.0000
  S   S211      1.0  0.66969  0.29510  0.56333  1.0000
  C   C1521     1.0  0.91637  0.11070  0.75913  1.0000
  C   C1522     1.0  0.90253  0.10681  0.77581  1.0000
  C   C1523     1.0  0.89111  0.13115  0.77710  1.0000
  C   C1524     1.0  0.89343  0.15931  0.76158  1.0000
  C   C1525     1.0  0.90723  0.16339  0.74454  1.0000
  C   C1526     1.0  0.91887  0.13906  0.74394  1.0000
  P   P52       1.0  0.91077  0.20070  0.72594  1.0000
  C   C1527     1.0  0.92466  0.19325  0.69706  1.0000
  C   C1528     1.0  0.89162  0.21559  0.71315  1.0000
  C   C1529     1.0  0.88102  0.23110  0.73186  1.0000
  C   C1530     1.0  0.86607  0.24214  0.72259  1.0000
  C   C1531     1.0  0.86149  0.23770  0.69452  1.0000
  C   C1532     1.0  0.87193  0.22239  0.67567  1.0000
  C   C1533     1.0  0.88697  0.21153  0.68484  1.0000
  C   C1534     1.0  0.92195  0.16718  0.67866  1.0000
  C   C1535     1.0  0.97897  0.25806  0.84963  1.0000
  C   C1536     1.0  0.75365  0.42881  0.76550  1.0000
  H   H1212     1.0  0.71142  0.39272  0.68672  1.0000
  C   C1537     1.0  0.93868  0.21227  0.69360  1.0000
  C   C1538     1.0  0.91995  0.22895  0.75030  1.0000
  C   C1539     1.0  0.93130  0.21837  0.77004  1.0000
  C   C1540     1.0  0.93904  0.24034  0.78800  1.0000
  C   C1541     1.0  0.93542  0.27296  0.78662  1.0000
  C   C1542     1.0  0.80936  0.39815  0.86527  1.0000
  C   C1543     1.0  0.91666  0.26190  0.74860  1.0000
  H   H1213     1.0  0.92544  0.09220  0.75886  1.0000
  H   H1214     1.0  0.90087  0.08536  0.78841  1.0000
  C   C1544     1.0  0.65183  0.46165  0.77237  1.0000
  H   H1215     1.0  0.88459  0.17804  0.76365  1.0000
  H   H1216     1.0  0.93008  0.14221  0.73234  1.0000
  H   H1217     1.0  0.88428  0.23460  0.75373  1.0000
  H   H1218     1.0  0.85800  0.25406  0.73728  1.0000
  H   H1219     1.0  0.84986  0.24628  0.68739  1.0000
  H   H1220     1.0  0.86839  0.21930  0.65383  1.0000
  H   H1221     1.0  0.89481  0.20010  0.66968  1.0000
  C   C1545     1.0  0.87121  0.36004  0.53514  1.0000
  H   H1222     1.0  0.76321  0.38974  0.78971  1.0000
  H   H1223     1.0  0.92477  0.02844  0.85287  1.0000
  H   H1224     1.0  0.79462  0.42722  0.72547  1.0000
  H   H1225     1.0  0.94130  0.23217  0.70770  1.0000
  H   H1226     1.0  0.93439  0.19322  0.77142  1.0000
  H   H1227     1.0  0.94794  0.23194  0.80284  1.0000
  H   H1228     1.0  0.75346  0.37430  0.52816  1.0000
  C   C1546     1.0  0.83390  0.22922  0.52654  1.0000
  C   C1547     1.0  0.79471  0.48225  0.68819  1.0000
  H   H1229     1.0  0.73978  0.47296  0.54972  1.0000
  C   C1548     1.0  0.86524  0.29156  0.61500  1.0000
  H   H1230     1.0  0.78398  0.43424  0.91231  1.0000
  C   C1549     1.0  0.80383  0.45716  0.67670  1.0000
  C   C1550     1.0  0.91826  0.07446  0.98077  1.0000
  H   H1231     1.0  0.95965  0.10415  0.95147  1.0000
  H   H1232     1.0  0.89645  0.16224  0.53113  1.0000
  C   C1551     1.0  0.76402  0.45582  0.66785  1.0000
  C   C1552     1.0  0.77119  0.44992  0.72840  1.0000
  C   C1553     1.0  0.94816  0.09545  0.95955  1.0000
  S   S212      1.0  0.96524  0.17176  0.93373  1.0000
  C   C1554     1.0  0.76548  0.40685  0.77291  1.0000
  C   C1555     1.0  0.78024  0.40671  0.75853  1.0000
  C   C1556     1.0  0.78312  0.42809  0.73632  1.0000
  C   C1557     1.0  0.75211  0.43183  0.67176  1.0000
  C   C1558     1.0  0.74567  0.41522  0.64856  1.0000
  C   C1559     1.0  0.75099  0.42243  0.62128  1.0000
  C   C1560     1.0  0.76915  0.46310  0.64030  1.0000
  C   C1561     1.0  0.76267  0.44649  0.61713  1.0000
  H   H1233     1.0  0.78938  0.38963  0.76444  1.0000
  C   C1562     1.0  0.70037  0.41843  0.72095  1.0000
  H   H1234     1.0  0.69219  0.46550  0.61120  1.0000
  C   C1563     1.0  0.83276  0.21590  0.57612  1.0000
  C   C1564     1.0  0.77118  0.45405  0.49870  1.0000
  H   H1235     1.0  0.79886  0.43315  0.67560  1.0000
  H   H1236     1.0  0.86539  0.33449  0.57280  1.0000
  C   C1565     1.0  0.93206  0.00705  0.85244  1.0000
  H   H1237     1.0  0.85176  0.34732  0.82393  1.0000
  C   C1566     1.0  0.97624  0.05567  0.91923  1.0000
  H   H1238     1.0  0.82183  0.43239  0.50195  1.0000
  H   H1239     1.0  0.84113  0.48252  0.71961  1.0000
  C   C1567     1.0  0.94886  0.00979  0.84999  1.0000
  C   C1568     1.0  0.93154  0.05405  0.98131  1.0000
  H   H1240     1.0  0.88410  0.30235  0.67802  1.0000
  H   H1241     1.0  0.94628  0.22516  0.92792  1.0000
  C   C1569     1.0  0.65754  0.42038  0.60961  1.0000
  C   C1570     1.0  0.83321  0.48237  0.73780  1.0000
  H   H1242     1.0  0.91821  0.21007  0.91651  1.0000
  C   C1571     1.0  0.89502  0.28160  0.64084  1.0000
  C   C1572     1.0  0.65907  0.20053  0.77602  1.0000
  C   C1573     1.0  0.80165  0.40717  0.84024  1.0000
  C   C1574     1.0  0.78897  0.42673  0.89219  1.0000
  C   C1575     1.0  0.70242  0.41023  0.69255  1.0000
  C   C1576     1.0  0.86752  0.30041  0.64321  1.0000
  H   H1243     1.0  0.80847  0.40121  0.91095  1.0000
  P   P53       1.0  0.96877  0.27315  0.90409  1.0000
  S   S213      1.0  0.81272  0.29638  0.51054  1.0000
  C   C1577     1.0  0.94975  0.20533  0.67208  1.0000
  C   C1578     1.0  0.91802  0.23219  0.53411  1.0000
  C   C1579     1.0  0.72846  0.47985  0.54022  1.0000
  H   H1244     1.0  0.90655  0.27769  0.65091  1.0000
  H   H1245     1.0  0.70774  0.40730  0.73695  1.0000
  C   C1580     1.0  0.80287  0.40793  0.89131  1.0000
  P   P54       1.0  0.77373  0.47527  0.69774  1.0000
  H   H1246     1.0  0.95148  0.27341  0.95864  1.0000
  P   P55       1.0  0.87479  0.26706  0.56259  1.0000
  C   C1581     1.0  0.78786  0.42618  0.84118  1.0000
  C   C1582     1.0  0.90602  0.25242  0.54463  1.0000
  H   H1247     1.0  0.73365  0.30510  0.51986  1.0000
  C   C1583     1.0  0.68818  0.43960  0.72890  1.0000
  H   H1248     1.0  0.85770  0.31103  0.65508  1.0000
  C   C1584     1.0  0.92390  0.23041  0.90609  1.0000
  C   C1585     1.0  0.96401  0.26787  0.96243  1.0000
  H   H1249     1.0  0.77850  0.48104  0.63683  1.0000
  C   C1586     1.0  0.85782  0.40038  0.92821  1.0000
  C   C1587     1.0  0.81950  0.46282  0.66664  1.0000
  H   H1250     1.0  0.85270  0.23206  0.60126  1.0000
  C   C1588     1.0  0.85540  0.24737  0.55774  1.0000
  H   H1251     1.0  0.64807  0.21361  0.70815  1.0000
  C   C1589     1.0  0.96383  0.07386  0.74124  1.0000
  H   H1252     1.0  0.88465  0.27852  0.50360  1.0000
  H   H1253     1.0  0.64969  0.40918  0.68220  1.0000
  H   H1254     1.0  0.69921  0.44827  0.49765  1.0000
  C   C1590     1.0  0.77631  0.44260  0.52480  1.0000
  C   C1591     1.0  0.91551  0.24710  0.88543  1.0000
  H   H1255     1.0  0.90328  0.23977  0.88001  1.0000
  C   C1592     1.0  0.88242  0.29557  0.65610  1.0000
  H   H1256     1.0  0.82869  0.22810  0.50558  1.0000
  C   C1593     1.0  0.89275  0.27263  0.61261  1.0000
  C   C1594     1.0  0.94691  0.17950  0.65377  1.0000
  C   C1595     1.0  0.92309  0.27244  0.87111  1.0000
  H   H1257     1.0  0.88070  0.12873  0.79092  1.0000
  C   C1596     1.0  0.87558  0.30283  0.54103  1.0000
  C   C1597     1.0  0.87781  0.27752  0.59941  1.0000
  H   H1258     1.0  0.80633  0.39949  0.81997  1.0000
  H   H1259     1.0  0.66908  0.20500  0.79024  1.0000
  H   H1260     1.0  0.93905  0.01800  0.93004  1.0000
  H   H1261     1.0  0.78215  0.43342  0.82173  1.0000
  H   H1262     1.0  0.95071  0.33088  0.91847  1.0000
  C   C1598     1.0  0.88120  0.30121  0.51300  1.0000
  C   C1599     1.0  0.88712  0.20749  0.54579  1.0000
  H   H1263     1.0  0.64700  0.41384  0.62200  1.0000
  H   H1264     1.0  0.96406  0.05267  0.91117  1.0000
  H   H1265     1.0  0.96343  0.99375  0.71792  1.0000
  C   C1600     1.0  0.84851  0.24573  0.53077  1.0000
  H   H1266     1.0  0.65702  0.23170  0.60322  1.0000
  H   H1267     1.0  0.85440  0.25698  0.51284  1.0000
  H   H1268     1.0  0.97245  0.27907  0.84304  1.0000
  C   C1601     1.0  0.82594  0.21458  0.54922  1.0000
  C   C1602     1.0  0.92423  0.28373  0.76693  1.0000
  C   C1603     1.0  0.93300  0.16047  0.65703  1.0000
  H   H1269     1.0  0.86725  0.41815  0.93204  1.0000
  H   H1270     1.0  0.77402  0.40487  0.55545  1.0000
  H   H1271     1.0  0.92145  0.30904  0.76574  1.0000
  C   C1604     1.0  0.94754  0.26464  0.89844  1.0000
  C   C1605     1.0  0.96409  0.06066  0.76827  1.0000
  H   H1272     1.0  0.85363  0.29571  0.60533  1.0000
  H   H1273     1.0  0.95330  0.08655  0.73404  1.0000
  S   S214      1.0  0.65799  0.42485  0.78747  1.0000
  C   C1606     1.0  0.76961  0.41436  0.53579  1.0000
  S   S215      1.0  0.97273  0.13050  0.85568  1.0000
  H   H1274     1.0  0.82659  0.20458  0.59374  1.0000
  H   H1275     1.0  0.95371  0.06287  0.78218  1.0000
  C   C1607     1.0  0.75795  0.39725  0.52049  1.0000
  H   H1276     1.0  0.82659  0.44307  0.65852  1.0000
  C   C1608     1.0  0.96904  0.26250  0.99015  1.0000
  C   C1609     1.0  0.72030  0.45763  0.52303  1.0000
  H   H1277     1.0  0.76702  0.45173  0.59602  1.0000
  C   C1610     1.0  0.91458  0.19970  0.52930  1.0000
  H   H1278     1.0  0.64981  0.39178  0.57392  1.0000
  H   H1279     1.0  0.90964  0.12120  0.96911  1.0000
  H   H1280     1.0  0.83232  0.44087  0.84293  1.0000
  H   H1281     1.0  0.92996  0.24177  0.52928  1.0000
  H   H1282     1.0  0.93617  0.13989  0.95077  1.0000
  H   H1283     1.0  0.96672  0.02202  0.63375  1.0000
  H   H1284     1.0  0.96213  0.17222  0.52931  1.0000
  H   H1285     1.0  0.77104  0.22805  0.52303  1.0000
  C   C1611     1.0  0.97738  0.07139  0.72373  1.0000
  H   H1286     1.0  0.84834  0.46371  0.80383  1.0000
  C   C1612     1.0  0.94653  0.06427  0.97033  1.0000
  H   H1287     1.0  0.82437  0.48299  0.52941  1.0000
  H   H1288     1.0  0.71964  0.46125  0.64692  1.0000
  P   P56       1.0  0.96352  0.03765  0.97148  1.0000
  C   C1613     1.0  0.65912  0.40756  0.58242  1.0000
  H   H1289     1.0  0.64894  0.25000  0.65104  1.0000
  H   H1290     1.0  0.95651  0.38867  0.91157  1.0000
  H   H1291     1.0  0.97740  0.08230  0.70300  1.0000
  C   C1614     1.0  0.97474  0.17664  0.98983  1.0000
  C   C1615     1.0  0.97813  0.16281  0.96325  1.0000
  H   H1292     1.0  0.92384  0.18417  0.52074  1.0000
  C   C1616     1.0  0.73345  0.31324  0.49825  1.0000
  H   H1293     1.0  0.85958  0.37938  0.96955  1.0000
  C   C1617     1.0  0.75277  0.40866  0.49439  1.0000
  C   C1618     1.0  0.82163  0.48395  0.50714  1.0000
  H   H1294     1.0  0.90667  0.06636  0.98897  1.0000
  C   C1619     1.0  0.64713  0.48939  0.50048  1.0000
  H   H1295     1.0  0.72520  0.43395  0.51955  1.0000
  C   C1620     1.0  0.64709  0.20547  0.72977  1.0000
  C   C1621     1.0  0.95697  0.99865  0.95849  1.0000
  C   C1622     1.0  0.94468  0.99659  0.93813  1.0000
  C   C1623     1.0  0.97510  0.26590  0.93997  1.0000
  C   C1624     1.0  0.97793  0.04531  0.77786  1.0000
  C   C1625     1.0  0.97290  0.31527  0.89865  1.0000
  H   H1296     1.0  0.97793  0.03559  0.79897  1.0000
  H   H1297     1.0  0.93012  0.03024  0.99015  1.0000
  H   H1298     1.0  0.96785  0.03596  0.51654  1.0000
  H   H1299     1.0  0.97783  0.19416  0.72224  1.0000
  C   C1626     1.0  0.88222  0.32896  0.49655  1.0000
  H   H1300     1.0  0.96429  0.19177  0.99208  1.0000
  C   C1627     1.0  0.82620  0.49374  0.66779  1.0000
  C   C1628     1.0  0.72890  0.71948  0.42284  1.0000
  S   S216      1.0  0.81567  0.61756  0.45329  1.0000
  C   C1629     1.0  0.89862  0.90235  0.27996  1.0000
  C   C1630     1.0  0.70392  0.68294  0.29631  1.0000
  Fe  Fe107     1.0  0.79360  0.64312  0.47002  1.0000
  S   S217      1.0  0.76928  0.63589  0.44831  1.0000
  Fe  Fe108     1.0  0.83014  0.66145  0.46764  1.0000
  S   S218      1.0  0.85349  0.67720  0.44407  1.0000
  C   C1631     1.0  0.75808  0.71528  0.42246  1.0000
  Fe  Fe109     1.0  0.65594  0.60039  0.46494  1.0000
  S   S219      1.0  0.66179  0.64988  0.44796  1.0000
  H   H1301     1.0  0.87352  0.64550  0.48647  1.0000
  H   H1302     1.0  0.95512  0.81518  0.46852  1.0000
  H   H1303     1.0  0.89097  0.85464  0.29215  1.0000
  Fe  Fe110     1.0  0.94280  0.87314  0.38239  1.0000
  S   S220      1.0  0.96344  0.84283  0.36701  1.0000
  S   S221      1.0  0.95033  0.92547  0.38907  1.0000
  Fe  Fe111     1.0  0.92016  0.81401  0.38958  1.0000
  S   S222      1.0  0.93934  0.78009  0.37425  1.0000
  S   S223      1.0  0.89436  0.80252  0.40581  1.0000
  Fe  Fe112     1.0  0.95634  0.80902  0.40174  1.0000
  C   C1632     1.0  0.93935  0.94033  0.20302  1.0000
  Fe  Fe113     1.0  0.94516  0.81686  0.34053  1.0000
  S   S224      1.0  0.94994  0.80056  0.29482  1.0000
  S   S225      1.0  0.93704  0.84085  0.41913  1.0000
  S   S226      1.0  0.92464  0.84918  0.35378  1.0000
  C   C1633     1.0  0.96470  0.81453  0.27006  1.0000
  C   C1634     1.0  0.96211  0.92606  0.28183  1.0000
  C   C1635     1.0  0.71949  0.72404  0.33463  1.0000
  C   C1636     1.0  0.70259  0.67723  0.32531  1.0000
  H   H1304     1.0  0.96696  0.86884  0.18352  1.0000
  H   H1305     1.0  0.74931  0.51373  0.47665  1.0000
  C   C1637     1.0  0.71303  0.70911  0.28648  1.0000
  C   C1638     1.0  0.92478  0.96342  0.37168  1.0000
  C   C1639     1.0  0.94078  0.96205  0.38096  1.0000
  H   H1306     1.0  0.66970  0.60107  0.39486  1.0000
  H   H1307     1.0  0.74189  0.67536  0.36652  1.0000
  H   H1308     1.0  0.91793  0.94141  0.36848  1.0000
  H   H1309     1.0  0.66665  0.77496  0.37874  1.0000
  C   C1640     1.0  0.86478  0.71258  0.43441  1.0000
  C   C1641     1.0  0.85979  0.74365  0.44134  1.0000
  C   C1642     1.0  0.86909  0.77069  0.43275  1.0000
  C   C1643     1.0  0.88367  0.76724  0.41753  1.0000
  C   C1644     1.0  0.88887  0.73615  0.41123  1.0000
  C   C1645     1.0  0.87941  0.70914  0.41935  1.0000
  H   H1310     1.0  0.84861  0.74690  0.45284  1.0000
  H   H1311     1.0  0.86489  0.79455  0.43771  1.0000
  H   H1312     1.0  0.89993  0.73298  0.39936  1.0000
  H   H1313     1.0  0.88338  0.68533  0.41365  1.0000
  C   C1646     1.0  0.75050  0.64631  0.46391  1.0000
  C   C1647     1.0  0.73636  0.63011  0.45522  1.0000
  C   C1648     1.0  0.72101  0.63982  0.46485  1.0000
  H   H1314     1.0  0.72769  0.63259  0.39370  1.0000
  H   H1315     1.0  0.78334  0.57368  0.43222  1.0000
  C   C1649     1.0  0.90581  0.80439  0.47307  1.0000
  H   H1316     1.0  0.73731  0.61013  0.44070  1.0000
  C   C1650     1.0  0.97462  0.91525  0.32698  1.0000
  C   C1651     1.0  0.92980  0.87734  0.27806  1.0000
  C   C1652     1.0  0.96448  0.80231  0.24228  1.0000
  H   H1317     1.0  0.81533  0.53762  0.45461  1.0000
  C   C1653     1.0  0.96997  0.81300  0.00788  1.0000
  S   S227      1.0  0.65768  0.55452  0.43916  1.0000
  H   H1318     1.0  0.97713  0.84652  0.29861  1.0000
  H   H1319     1.0  0.95377  0.89986  0.14571  1.0000
  C   C1654     1.0  0.70317  0.64940  0.38868  1.0000
  H   H1320     1.0  0.76824  0.68713  0.38881  1.0000
  C   C1655     1.0  0.75726  0.69679  0.39785  1.0000
  C   C1656     1.0  0.67468  0.72826  0.43545  1.0000
  C   C1657     1.0  0.96073  0.91980  0.31081  1.0000
  C   C1658     1.0  0.91663  0.85747  0.28488  1.0000
  C   C1659     1.0  0.91173  0.92215  0.27249  1.0000
  C   C1660     1.0  0.68737  0.71036  0.42418  1.0000
  H   H1321     1.0  0.96147  0.72826  0.40904  1.0000
  C   C1661     1.0  0.95188  0.90645  0.16762  1.0000
  C   C1662     1.0  0.75814  0.51667  0.45994  1.0000
  H   H1322     1.0  0.97357  0.91014  0.34927  1.0000
  H   H1323     1.0  0.67741  0.65724  0.38482  1.0000
  H   H1324     1.0  0.71969  0.57671  0.40332  1.0000
  C   C1663     1.0  0.65476  0.51829  0.45791  1.0000
  H   H1325     1.0  0.72784  0.74999  0.29803  1.0000
  C   C1664     1.0  0.96370  0.71645  0.00508  1.0000
  C   C1665     1.0  0.71967  0.66630  0.48293  1.0000
  H   H1326     1.0  0.65707  0.76468  0.42762  1.0000
  C   C1666     1.0  0.96653  0.81027  0.47852  1.0000
  H   H1327     1.0  0.67051  0.72377  0.45682  1.0000
  H   H1328     1.0  0.97884  0.93338  0.24736  1.0000
  C   C1667     1.0  0.94953  0.99082  0.38504  1.0000
  H   H1329     1.0  0.69061  0.56081  0.40445  1.0000
  C   C1668     1.0  0.71050  0.59431  0.39901  1.0000
  H   H1330     1.0  0.91856  0.83232  0.28952  1.0000
  H   H1331     1.0  0.97521  0.80388  0.20045  1.0000
  C   C1669     1.0  0.69284  0.71575  0.39654  1.0000
  H   H1332     1.0  0.93567  0.94499  0.15822  1.0000
  C   C1670     1.0  0.72795  0.70093  0.39804  1.0000
  C   C1671     1.0  0.91075  0.74999  0.48873  1.0000
  H   H1333     1.0  0.97471  0.95107  0.42571  1.0000
  H   H1334     1.0  0.71405  0.71350  0.26401  1.0000
  C   C1672     1.0  0.97752  0.92819  0.26951  1.0000
  C   C1673     1.0  0.66717  0.75140  0.41902  1.0000
  H   H1335     1.0  0.69287  0.69201  0.43695  1.0000
  C   C1674     1.0  0.94073  0.97676  0.26602  1.0000
  H   H1336     1.0  0.88653  0.91200  0.28080  1.0000
  C   C1675     1.0  0.76561  0.54666  0.45596  1.0000
  H   H1337     1.0  0.95945  0.80839  0.02090  1.0000
  H   H1338     1.0  0.92827  0.97068  0.30607  1.0000
  P   P57       1.0  0.70868  0.69091  0.38214  1.0000
  C   C1676     1.0  0.91469  0.77610  0.47129  1.0000
  C   C1677     1.0  0.97602  0.89621  0.03586  1.0000
  H   H1339     1.0  0.72886  0.50363  0.44258  1.0000
  H   H1340     1.0  0.71021  0.62738  0.45775  1.0000
  S   S228      1.0  0.97675  0.78701  0.42675  1.0000
  H   H1341     1.0  0.76967  0.71981  0.43241  1.0000
  C   C1678     1.0  0.74920  0.67183  0.48305  1.0000
  H   H1342     1.0  0.89013  0.69244  0.47292  1.0000
  C   C1679     1.0  0.72080  0.72966  0.30563  1.0000
  H   H1343     1.0  0.90950  0.94685  0.26690  1.0000
  H   H1344     1.0  0.95831  0.76174  0.07612  1.0000
  C   C1680     1.0  0.68237  0.60807  0.39417  1.0000
  C   C1681     1.0  0.67255  0.75706  0.39146  1.0000
  C   C1682     1.0  0.74393  0.72686  0.43478  1.0000
  C   C1683     1.0  0.94655  0.74442  0.03838  1.0000
  C   C1684     1.0  0.91754  0.99345  0.36719  1.0000
  H   H1345     1.0  0.74456  0.74062  0.45420  1.0000
  C   C1685     1.0  0.68537  0.73938  0.38022  1.0000
  C   C1686     1.0  0.74229  0.68987  0.38553  1.0000
  C   C1687     1.0  0.94176  0.93192  0.17469  1.0000
  C   C1688     1.0  0.93254  0.98753  0.29024  1.0000
  H   H1346     1.0  0.90868  0.82425  0.45914  1.0000
  C   C1689     1.0  0.71500  0.62620  0.39352  1.0000
  C   C1690     1.0  0.89278  0.80663  0.49176  1.0000
  C   C1691     1.0  0.90108  0.87003  0.28623  1.0000
  C   C1692     1.0  0.68681  0.63994  0.38867  1.0000
  H   H1347     1.0  0.94881  0.97157  0.44945  1.0000
  C   C1693     1.0  0.94735  0.92372  0.22445  1.0000
  C   C1694     1.0  0.73384  0.68209  0.49207  1.0000
  H   H1348     1.0  0.94585  0.69420  0.37571  1.0000
  H   H1349     1.0  0.93117  0.95960  0.20817  1.0000
  H   H1350     1.0  0.69786  0.66706  0.28147  1.0000
  C   C1695     1.0  0.92747  0.90990  0.27211  1.0000
  H   H1351     1.0  0.76243  0.56701  0.46915  1.0000
  P   P58       1.0  0.92274  0.71410  0.48797  1.0000
  H   H1352     1.0  0.72549  0.74031  0.34923  1.0000
  S   S229      1.0  0.80767  0.68850  0.48057  1.0000
  C   C1696     1.0  0.95933  0.88898  0.18889  1.0000
  H   H1353     1.0  0.68920  0.74400  0.35877  1.0000
  C   C1697     1.0  0.81657  0.51475  0.46504  1.0000
  H   H1354     1.0  0.79104  0.52747  0.40213  1.0000
  H   H1355     1.0  0.91013  0.67630  0.43933  1.0000
  C   C1698     1.0  0.71043  0.69768  0.34466  1.0000
  H   H1356     1.0  0.71817  0.72807  0.43334  1.0000
  H   H1357     1.0  0.92450  0.77474  0.45615  1.0000
  H   H1358     1.0  0.95142  0.73773  0.45718  1.0000
  C   C1699     1.0  0.95687  0.89724  0.21719  1.0000
  H   H1359     1.0  0.69543  0.65690  0.33247  1.0000
  C   C1700     1.0  0.69418  0.58531  0.39956  1.0000
  H   H1360     1.0  0.96236  0.88283  0.23339  1.0000
  Fe  Fe114     1.0  0.67641  0.65554  0.48774  1.0000
  H   H1361     1.0  0.92009  0.66851  0.39116  1.0000
  C   C1701     1.0  0.95036  0.71662  0.41596  1.0000
  H   H1362     1.0  0.94899  0.91857  0.32105  1.0000
  P   P59       1.0  0.94444  0.93444  0.26111  1.0000
  H   H1363     1.0  0.94178  0.86718  0.27726  1.0000
  H   H1364     1.0  0.95533  0.78474  0.23643  1.0000
  C   C1702     1.0  0.92709  0.68296  0.40588  1.0000
  C   C1703     1.0  0.94157  0.69739  0.39717  1.0000
  C   C1704     1.0  0.77739  0.55054  0.43502  1.0000
  C   C1705     1.0  0.94461  0.72181  0.44336  1.0000
  C   C1706     1.0  0.93016  0.70698  0.45251  1.0000
  C   C1707     1.0  0.92141  0.68763  0.43341  1.0000
  C   C1708     1.0  0.78164  0.52454  0.41794  1.0000
  H   H1365     1.0  0.69946  0.50258  0.43644  1.0000
  H   H1366     1.0  0.96633  0.87911  0.03169  1.0000
  C   C1709     1.0  0.89485  0.67569  0.48813  1.0000
  H   H1367     1.0  0.96190  0.99002  0.39215  1.0000
  C   C1710     1.0  0.97666  0.83710  0.27732  1.0000
  C   C1711     1.0  0.95969  0.74851  0.05651  1.0000
  C   C1712     1.0  0.97703  0.72096  0.02300  1.0000
  H   H1368     1.0  0.93490  0.75413  0.04410  1.0000
  H   H1369     1.0  0.97051  0.89977  0.08018  1.0000
  H   H1370     1.0  0.75998  0.68461  0.48982  1.0000
  C   C1713     1.0  0.97580  0.81298  0.22184  1.0000
  C   C1714     1.0  0.65021  0.51850  0.48637  1.0000
  H   H1371     1.0  0.88562  0.82822  0.49222  1.0000
  H   H1372     1.0  0.92119  0.99023  0.44226  1.0000
  C   C1715     1.0  0.94855  0.72835  0.01268  1.0000
  H   H1373     1.0  0.97638  0.89259  0.43263  1.0000
  C   C1716     1.0  0.97765  0.94196  0.44639  1.0000
  C   C1717     1.0  0.97485  0.73670  0.04895  1.0000
  H   H1374     1.0  0.97142  0.65576  0.02648  1.0000
  H   H1375     1.0  0.97305  0.59931  0.04122  1.0000
  H   H1376     1.0  0.95457  0.99204  0.22938  1.0000
  C   C1718     1.0  0.97838  0.90783  0.06323  1.0000
  C   C1719     1.0  0.97869  0.90878  0.45021  1.0000
  H   H1377     1.0  0.96051  0.99201  0.01976  1.0000
  C   C1720     1.0  0.97909  0.79667  0.46286  1.0000
  C   C1721     1.0  0.77410  0.49460  0.42167  1.0000
  H   H1378     1.0  0.93840  0.72540  0.99850  1.0000
  Fe  Fe115     1.0  0.96297  0.82732  0.81897  1.0000
  S   S230      1.0  0.93595  0.83165  0.81636  1.0000
  Fe  Fe116     1.0  0.96206  0.82019  0.88500  1.0000
  S   S231      1.0  0.93476  0.82315  0.88555  1.0000
  Fe  Fe117     1.0  0.93461  0.79061  0.84680  1.0000
  S   S232      1.0  0.91821  0.74568  0.83903  1.0000
  Fe  Fe118     1.0  0.93822  0.86370  0.85448  1.0000
  S   S233      1.0  0.92433  0.91044  0.85711  1.0000
  S   S234      1.0  0.96196  0.78466  0.84817  1.0000
  Fe  Fe119     1.0  0.81090  0.66469  0.52274  1.0000
  S   S235      1.0  0.80719  0.69015  0.56419  1.0000
  H   H1379     1.0  0.95011  0.73347  0.80721  1.0000
  Fe  Fe120     1.0  0.83387  0.66311  0.76474  1.0000
  S   S236      1.0  0.84035  0.61408  0.74793  1.0000
  S   S237      1.0  0.85254  0.70449  0.77355  1.0000
  Fe  Fe121     1.0  0.79674  0.65048  0.75278  1.0000
  S   S238      1.0  0.80134  0.60154  0.73486  1.0000
  S   S239      1.0  0.77170  0.67332  0.74848  1.0000
  Fe  Fe122     1.0  0.81832  0.59540  0.77103  1.0000
  S   S240      1.0  0.81597  0.54777  0.79426  1.0000
  Fe  Fe123     1.0  0.82273  0.62393  0.71317  1.0000
  S   S241      1.0  0.82892  0.60781  0.66898  1.0000
  S   S242      1.0  0.81268  0.64378  0.79078  1.0000
  S   S243      1.0  0.81721  0.67361  0.72818  1.0000
  H   H1380     1.0  0.78701  0.73244  0.77091  1.0000
  C   C1722     1.0  0.86254  0.70205  0.57468  1.0000
  C   C1723     1.0  0.66356  0.70306  0.83472  1.0000
  Fe  Fe124     1.0  0.67563  0.64473  0.76952  1.0000
  S   S244      1.0  0.67086  0.61848  0.72897  1.0000
  S   S245      1.0  0.70015  0.63481  0.79021  1.0000
  H   H1381     1.0  0.81578  0.75025  0.77082  1.0000
  C   C1724     1.0  0.84001  0.73561  0.56172  1.0000
  S   S246      1.0  0.66726  0.68438  0.67278  1.0000
  H   H1382     1.0  0.86109  0.69038  0.87830  1.0000
  C   C1725     1.0  0.95933  0.94050  0.95663  1.0000
  C   C1726     1.0  0.95816  0.98184  0.84941  1.0000
  H   H1383     1.0  0.75279  0.54180  0.52007  1.0000
  H   H1384     1.0  0.73289  0.70261  0.50598  1.0000
  C   C1727     1.0  0.83162  0.66295  0.85741  1.0000
  C   C1728     1.0  0.97083  0.88292  0.62767  1.0000
  H   H1385     1.0  0.85287  0.65314  0.64560  1.0000
  H   H1386     1.0  0.95743  0.77520  0.55471  1.0000
  S   S247      1.0  0.97614  0.84068  0.77790  1.0000
  C   C1729     1.0  0.75194  0.66142  0.75998  1.0000
  C   C1730     1.0  0.73857  0.67911  0.75083  1.0000
  C   C1731     1.0  0.72267  0.67081  0.75924  1.0000
  C   C1732     1.0  0.71990  0.64492  0.77742  1.0000
  C   C1733     1.0  0.73329  0.62740  0.78684  1.0000
  C   C1734     1.0  0.74919  0.63541  0.77804  1.0000
  H   H1387     1.0  0.74050  0.69948  0.73714  1.0000
  H   H1388     1.0  0.71258  0.68484  0.75208  1.0000
  H   H1389     1.0  0.73135  0.60755  0.80115  1.0000
  H   H1390     1.0  0.75932  0.62181  0.78563  1.0000
  H   H1391     1.0  0.83458  0.53386  0.74353  1.0000
  H   H1392     1.0  0.95638  0.81108  0.96879  1.0000
  C   C1735     1.0  0.81308  0.66715  0.59330  1.0000
  C   C1736     1.0  0.81915  0.63626  0.58951  1.0000
  C   C1737     1.0  0.82390  0.61826  0.61294  1.0000
  C   C1738     1.0  0.82236  0.63081  0.64027  1.0000
  C   C1739     1.0  0.81626  0.66168  0.64411  1.0000
  C   C1740     1.0  0.81170  0.67989  0.62062  1.0000
  H   H1393     1.0  0.82020  0.62616  0.56854  1.0000
  H   H1394     1.0  0.82865  0.59443  0.60986  1.0000
  H   H1395     1.0  0.81526  0.67167  0.66510  1.0000
  H   H1396     1.0  0.80712  0.70389  0.62358  1.0000
  C   C1741     1.0  0.86014  0.71574  0.87387  1.0000
  S   S248      1.0  0.82299  0.54926  0.51415  1.0000
  S   S249      1.0  0.96518  0.86221  0.85533  1.0000
  C   C1742     1.0  0.82169  0.63827  0.86822  1.0000
  C   C1743     1.0  0.66778  0.51827  0.62222  1.0000
  H   H1397     1.0  0.83789  0.74659  0.51748  1.0000
  C   C1744     1.0  0.90035  0.73481  0.81931  1.0000
  C   C1745     1.0  0.89517  0.70239  0.81880  1.0000
  C   C1746     1.0  0.88081  0.69261  0.80480  1.0000
  C   C1747     1.0  0.87114  0.71517  0.79123  1.0000
  C   C1748     1.0  0.87649  0.74751  0.79125  1.0000
  C   C1749     1.0  0.89094  0.75727  0.80503  1.0000
  H   H1398     1.0  0.90230  0.68464  0.82952  1.0000
  H   H1399     1.0  0.87724  0.66755  0.80461  1.0000
  H   H1400     1.0  0.86928  0.76532  0.78077  1.0000
  H   H1401     1.0  0.89462  0.78228  0.80511  1.0000
  C   C1750     1.0  0.93401  0.94842  0.85385  1.0000
  C   C1751     1.0  0.70742  0.51858  0.53191  1.0000
  C   C1752     1.0  0.76710  0.52784  0.73210  1.0000
  C   C1753     1.0  0.85873  0.71771  0.52577  1.0000
  C   C1754     1.0  0.95080  0.95131  0.85134  1.0000
  H   H1402     1.0  0.95813  0.93007  0.85098  1.0000
  H   H1403     1.0  0.69351  0.62779  0.56561  1.0000
  H   H1404     1.0  0.70138  0.57212  0.57603  1.0000
  C   C1755     1.0  0.91035  0.68037  0.49958  1.0000
  C   C1756     1.0  0.80500  0.73200  0.90184  1.0000
  H   H1405     1.0  0.64870  0.54111  0.49733  1.0000
  P   P60       1.0  0.87359  0.67931  0.60044  1.0000
  C   C1757     1.0  0.86898  0.63681  0.59646  1.0000
  C   C1758     1.0  0.89490  0.68733  0.59477  1.0000
  C   C1759     1.0  0.90648  0.66369  0.59986  1.0000
  C   C1760     1.0  0.92293  0.67046  0.59570  1.0000
  C   C1761     1.0  0.92794  0.70076  0.58632  1.0000
  C   C1762     1.0  0.91649  0.72435  0.58113  1.0000
  C   C1763     1.0  0.90007  0.71773  0.58538  1.0000
  C   C1764     1.0  0.87332  0.61494  0.61753  1.0000
  H   H1406     1.0  0.66743  0.56216  0.59820  1.0000
  H   H1407     1.0  0.79531  0.53309  0.69912  1.0000
  C   C1765     1.0  0.97214  0.78152  0.65177  1.0000
  S   S250      1.0  0.83401  0.64070  0.51087  1.0000
  C   C1766     1.0  0.86849  0.69354  0.63548  1.0000
  C   C1767     1.0  0.85999  0.71606  0.68952  1.0000
  C   C1768     1.0  0.87023  0.73444  0.67227  1.0000
  C   C1769     1.0  0.87449  0.72325  0.64536  1.0000
  H   H1408     1.0  0.84399  0.71844  0.60366  1.0000
  H   H1409     1.0  0.90293  0.64001  0.60693  1.0000
  H   H1410     1.0  0.93181  0.65210  0.59961  1.0000
  H   H1411     1.0  0.94068  0.70588  0.58295  1.0000
  H   H1412     1.0  0.92028  0.74783  0.57373  1.0000
  H   H1413     1.0  0.89141  0.73643  0.58129  1.0000
  H   H1414     1.0  0.87938  0.62320  0.63647  1.0000
  Fe  Fe125     1.0  0.64642  0.60667  0.74688  1.0000
  H   H1415     1.0  0.81147  0.64373  0.88166  1.0000
  C   C1770     1.0  0.94645  0.95723  0.77477  1.0000
  H   H1416     1.0  0.67743  0.51418  0.69204  1.0000
  H   H1417     1.0  0.85677  0.72444  0.71051  1.0000
  H   H1418     1.0  0.87489  0.75728  0.67988  1.0000
  H   H1419     1.0  0.88231  0.73794  0.63230  1.0000
  H   H1420     1.0  0.85689  0.64138  0.55622  1.0000
  H   H1421     1.0  0.95187  0.67640  0.49652  1.0000
  H   H1422     1.0  0.88423  0.78245  0.87005  1.0000
  C   C1771     1.0  0.72504  0.49457  0.61335  1.0000
  H   H1423     1.0  0.71537  0.56101  0.66833  1.0000
  H   H1424     1.0  0.77575  0.70310  0.81185  1.0000
  H   H1425     1.0  0.68128  0.57189  0.68506  1.0000
  S   S251      1.0  0.66565  0.69165  0.75450  1.0000
  H   H1426     1.0  0.79297  0.69182  0.85308  1.0000
  H   H1427     1.0  0.97464  0.97127  0.98152  1.0000
  C   C1772     1.0  0.76366  0.52579  0.58777  1.0000
  H   H1428     1.0  0.97092  0.78502  0.60658  1.0000
  C   C1773     1.0  0.81064  0.73860  0.78924  1.0000
  H   H1429     1.0  0.96797  0.89603  0.74677  1.0000
  H   H1430     1.0  0.94306  0.91564  0.92824  1.0000
  C   C1774     1.0  0.96817  0.81462  0.97817  1.0000
  H   H1431     1.0  0.93005  0.96529  0.91207  1.0000
  C   C1775     1.0  0.81410  0.71638  0.83614  1.0000
  H   H1432     1.0  0.66331  0.50402  0.60468  1.0000
  H   H1433     1.0  0.83234  0.67495  0.91945  1.0000
  C   C1776     1.0  0.64801  0.66305  0.86079  1.0000
  C   C1777     1.0  0.78812  0.71203  0.81248  1.0000
  C   C1778     1.0  0.85843  0.78163  0.86342  1.0000
  C   C1779     1.0  0.95384  0.73078  0.78536  1.0000
  H   H1434     1.0  0.97658  0.68605  0.52466  1.0000
  Fe  Fe126     1.0  0.81812  0.59920  0.49746  1.0000
  C   C1780     1.0  0.96281  0.72247  0.72885  1.0000
  C   C1781     1.0  0.94921  0.74089  0.73559  1.0000
  C   C1782     1.0  0.94460  0.74436  0.76401  1.0000
  P   P61       1.0  0.93651  0.75672  0.70822  1.0000
  C   C1783     1.0  0.92031  0.72759  0.70437  1.0000
  C   C1784     1.0  0.92919  0.79532  0.71931  1.0000
  C   C1785     1.0  0.91367  0.80540  0.71181  1.0000
  C   C1786     1.0  0.90820  0.83559  0.72044  1.0000
  C   C1787     1.0  0.91825  0.85593  0.73631  1.0000
  C   C1788     1.0  0.93382  0.84622  0.74326  1.0000
  C   C1789     1.0  0.93933  0.81618  0.73462  1.0000
  C   C1790     1.0  0.92095  0.70381  0.68327  1.0000
  C   C1791     1.0  0.90877  0.68025  0.68147  1.0000
  C   C1792     1.0  0.89615  0.67973  0.70117  1.0000
  C   C1793     1.0  0.89567  0.70279  0.72264  1.0000
  C   C1794     1.0  0.90771  0.72658  0.72434  1.0000
  C   C1795     1.0  0.94743  0.76491  0.67585  1.0000
  C   C1796     1.0  0.96371  0.77476  0.67673  1.0000
  Fe  Fe127     1.0  0.65968  0.66425  0.71493  1.0000
  C   C1797     1.0  0.96430  0.77943  0.62581  1.0000
  C   C1798     1.0  0.94789  0.77120  0.62483  1.0000
  C   C1799     1.0  0.93943  0.76416  0.64975  1.0000
  H   H1435     1.0  0.88353  0.60713  0.52202  1.0000
  C   C1800     1.0  0.72193  0.51040  0.54535  1.0000
  C   C1801     1.0  0.67564  0.52386  0.67121  1.0000
  H   H1436     1.0  0.83843  0.49809  0.66035  1.0000
  H   H1437     1.0  0.93381  0.75737  0.76984  1.0000
  H   H1438     1.0  0.90577  0.78997  0.69947  1.0000
  H   H1439     1.0  0.89612  0.84315  0.71506  1.0000
  H   H1440     1.0  0.91396  0.87911  0.74340  1.0000
  H   H1441     1.0  0.94162  0.86167  0.75578  1.0000
  H   H1442     1.0  0.95146  0.80915  0.74022  1.0000
  H   H1443     1.0  0.93099  0.70295  0.66859  1.0000
  H   H1444     1.0  0.90926  0.66201  0.66515  1.0000
  H   H1445     1.0  0.88678  0.66134  0.70001  1.0000
  H   H1446     1.0  0.88599  0.70205  0.73816  1.0000
  H   H1447     1.0  0.90730  0.74375  0.74160  1.0000
  H   H1448     1.0  0.97496  0.70345  0.79521  1.0000
  H   H1449     1.0  0.79976  0.52181  0.55303  1.0000
  C   C1802     1.0  0.85804  0.67561  0.65282  1.0000
  H   H1450     1.0  0.94175  0.77071  0.60474  1.0000
  H   H1451     1.0  0.92664  0.75846  0.64866  1.0000
  C   C1803     1.0  0.75168  0.56248  0.68988  1.0000
  C   C1804     1.0  0.75379  0.57609  0.71666  1.0000
  C   C1805     1.0  0.76150  0.55875  0.73772  1.0000
  H   H1452     1.0  0.85116  0.67399  0.82865  1.0000
  C   C1806     1.0  0.75356  0.53277  0.56492  1.0000
  C   C1807     1.0  0.85397  0.68661  0.67977  1.0000
  H   H1453     1.0  0.74612  0.57641  0.67341  1.0000
  H   H1454     1.0  0.74972  0.60028  0.72105  1.0000
  H   H1455     1.0  0.76346  0.56958  0.75830  1.0000
  C   C1808     1.0  0.84404  0.65518  0.83846  1.0000
  C   C1809     1.0  0.75590  0.74352  0.69830  1.0000
  C   C1810     1.0  0.77241  0.74561  0.70425  1.0000
  C   C1811     1.0  0.78321  0.72526  0.69046  1.0000
  C   C1812     1.0  0.77748  0.70254  0.67101  1.0000
  C   C1813     1.0  0.76087  0.69952  0.66566  1.0000
  C   C1814     1.0  0.75014  0.72071  0.67892  1.0000
  P   P62       1.0  0.75348  0.67106  0.63982  1.0000
  C   C1815     1.0  0.75198  0.69351  0.60737  1.0000
  C   C1816     1.0  0.76684  0.63725  0.63665  1.0000
  C   C1817     1.0  0.77392  0.62423  0.66085  1.0000
  C   C1818     1.0  0.78470  0.59877  0.65838  1.0000
  C   C1819     1.0  0.78847  0.58614  0.63186  1.0000
  C   C1820     1.0  0.78119  0.59850  0.60776  1.0000
  C   C1821     1.0  0.77014  0.62344  0.61018  1.0000
  C   C1822     1.0  0.73758  0.70898  0.60017  1.0000
  C   C1823     1.0  0.73648  0.72577  0.57475  1.0000
  C   C1824     1.0  0.74989  0.72816  0.55682  1.0000
  C   C1825     1.0  0.76446  0.71417  0.56450  1.0000
  C   C1826     1.0  0.76557  0.69734  0.58985  1.0000
  C   C1827     1.0  0.73437  0.65439  0.65142  1.0000
  C   C1828     1.0  0.72231  0.64656  0.63180  1.0000
  C   C1829     1.0  0.70695  0.63692  0.64095  1.0000
  C   C1830     1.0  0.70375  0.63359  0.66976  1.0000
  C   C1831     1.0  0.71607  0.63890  0.68935  1.0000
  C   C1832     1.0  0.73136  0.64932  0.68025  1.0000
  H   H1456     1.0  0.74753  0.75929  0.70899  1.0000
  H   H1457     1.0  0.77683  0.76283  0.71966  1.0000
  H   H1458     1.0  0.79600  0.72675  0.69509  1.0000
  H   H1459     1.0  0.78600  0.68717  0.66040  1.0000
  H   H1460     1.0  0.73732  0.71944  0.67451  1.0000
  H   H1461     1.0  0.77145  0.63421  0.68160  1.0000
  H   H1462     1.0  0.79064  0.58960  0.67691  1.0000
  H   H1463     1.0  0.79749  0.56760  0.62997  1.0000
  H   H1464     1.0  0.78453  0.58954  0.58705  1.0000
  H   H1465     1.0  0.76459  0.63244  0.59122  1.0000
  H   H1466     1.0  0.72720  0.70829  0.61415  1.0000
  H   H1467     1.0  0.72525  0.73712  0.56900  1.0000
  H   H1468     1.0  0.74908  0.74121  0.53716  1.0000
  H   H1469     1.0  0.77500  0.71647  0.55089  1.0000
  H   H1470     1.0  0.77709  0.68735  0.59573  1.0000
  H   H1471     1.0  0.72462  0.64893  0.60949  1.0000
  H   H1472     1.0  0.69739  0.63304  0.62574  1.0000
  H   H1473     1.0  0.69166  0.62755  0.67696  1.0000
  H   H1474     1.0  0.71357  0.63595  0.71168  1.0000
  H   H1475     1.0  0.74069  0.65419  0.69571  1.0000
  C   C1833     1.0  0.66185  0.64396  0.86238  1.0000
  H   H1476     1.0  0.89504  0.73341  0.52235  1.0000
  C   C1834     1.0  0.72605  0.52698  0.60533  1.0000
  C   C1835     1.0  0.72295  0.55088  0.62564  1.0000
  P   P63       1.0  0.73203  0.53773  0.56974  1.0000
  H   H1477     1.0  0.66596  0.65844  0.57206  1.0000
  H   H1478     1.0  0.93862  0.96251  0.79258  1.0000
  H   H1479     1.0  0.82277  0.54254  0.68137  1.0000
  C   C1836     1.0  0.82454  0.60625  0.86080  1.0000
  H   H1480     1.0  0.67533  0.68920  0.61410  1.0000
  C   C1837     1.0  0.67730  0.68407  0.83659  1.0000
  C   C1838     1.0  0.76033  0.53573  0.53780  1.0000
  C   C1839     1.0  0.65395  0.52043  0.77087  1.0000
  H   H1481     1.0  0.65176  0.65687  0.91983  1.0000
  C   C1840     1.0  0.88889  0.78088  0.50942  1.0000
  H   H1482     1.0  0.94368  0.84545  0.67076  1.0000
  C   C1841     1.0  0.78687  0.52457  0.55634  1.0000
  C   C1842     1.0  0.72641  0.57902  0.56329  1.0000
  C   C1843     1.0  0.73798  0.60189  0.55442  1.0000
  C   C1844     1.0  0.73353  0.63366  0.54971  1.0000
  C   C1845     1.0  0.71749  0.64287  0.55345  1.0000
  C   C1846     1.0  0.70595  0.62053  0.56278  1.0000
  C   C1847     1.0  0.71044  0.58891  0.56823  1.0000
  C   C1848     1.0  0.95022  0.98109  0.75514  1.0000
  C   C1849     1.0  0.97218  0.70936  0.75032  1.0000
  H   H1483     1.0  0.72422  0.57608  0.62056  1.0000
  C   C1850     1.0  0.97724  0.90528  0.64679  1.0000
  H   H1484     1.0  0.85783  0.80714  0.85925  1.0000
  C   C1851     1.0  0.89799  0.75284  0.50820  1.0000
  H   H1485     1.0  0.78816  0.51653  0.60092  1.0000
  C   C1852     1.0  0.96869  0.81732  0.50732  1.0000
  C   C1853     1.0  0.82957  0.51152  0.75143  1.0000
  H   H1486     1.0  0.75564  0.52151  0.66323  1.0000
  H   H1487     1.0  0.65946  0.54256  0.77838  1.0000
  H   H1488     1.0  0.75048  0.59563  0.55109  1.0000
  H   H1489     1.0  0.74250  0.65112  0.54271  1.0000
  H   H1490     1.0  0.71401  0.66737  0.54912  1.0000
  C   C1854     1.0  0.87410  0.73498  0.87518  1.0000
  H   H1491     1.0  0.81664  0.58727  0.86852  1.0000
  H   H1492     1.0  0.66404  0.72543  0.82313  1.0000
  H   H1493     1.0  0.83912  0.57399  0.83609  1.0000
  P   P64       1.0  0.82715  0.70451  0.86457  1.0000
  H   H1494     1.0  0.68700  0.63939  0.85089  1.0000
  H   H1495     1.0  0.83300  0.77356  0.85737  1.0000
  H   H1496     1.0  0.80114  0.74664  0.88434  1.0000
  C   C1855     1.0  0.71684  0.51015  0.66058  1.0000
  H   H1497     1.0  0.78810  0.75344  0.93084  1.0000
  C   C1856     1.0  0.96299  0.91981  0.74864  1.0000
  H   H1498     1.0  0.96502  0.70395  0.98512  1.0000
  H   H1499     1.0  0.68804  0.50262  0.50466  1.0000
  C   C1857     1.0  0.87328  0.76783  0.86971  1.0000
  C   C1858     1.0  0.79449  0.72849  0.78925  1.0000
  C   C1859     1.0  0.84526  0.72920  0.86657  1.0000
  S   S252      1.0  0.67197  0.60522  0.50276  1.0000
  H   H1500     1.0  0.70218  0.54199  0.53437  1.0000
  C   C1860     1.0  0.83721  0.59872  0.84242  1.0000
  C   C1861     1.0  0.96696  0.94361  0.72874  1.0000
  C   C1862     1.0  0.90614  0.63259  0.52822  1.0000
  C   C1863     1.0  0.67005  0.55128  0.61842  1.0000
  H   H1501     1.0  0.85025  0.58404  0.55140  1.0000
  C   C1864     1.0  0.84857  0.71885  0.58222  1.0000
  H   H1502     1.0  0.65057  0.74263  0.69429  1.0000
  C   C1865     1.0  0.96050  0.97449  0.73235  1.0000
  C   C1866     1.0  0.86074  0.62528  0.57253  1.0000
  C   C1867     1.0  0.92467  0.97642  0.85426  1.0000
  C   C1868     1.0  0.84443  0.76247  0.86215  1.0000
  C   C1869     1.0  0.67511  0.57052  0.64097  1.0000
  H   H1503     1.0  0.79700  0.72125  0.97173  1.0000
  H   H1504     1.0  0.92754  0.66192  0.52967  1.0000
  H   H1505     1.0  0.87240  0.56569  0.63141  1.0000
  C   C1870     1.0  0.67782  0.55686  0.66735  1.0000
  Fe  Fe128     1.0  0.64988  0.62482  0.52367  1.0000
  C   C1871     1.0  0.94692  0.93870  0.93681  1.0000
  H   H1506     1.0  0.85638  0.61748  0.81616  1.0000
  C   C1872     1.0  0.81736  0.51880  0.67964  1.0000
  H   H1507     1.0  0.84608  0.67216  0.69302  1.0000
  H   H1508     1.0  0.83306  0.73939  0.81155  1.0000
  C   C1873     1.0  0.82043  0.73246  0.81252  1.0000
  C   C1874     1.0  0.84695  0.62319  0.83122  1.0000
  C   C1875     1.0  0.86940  0.58229  0.61474  1.0000
  C   C1876     1.0  0.79791  0.70577  0.83578  1.0000
  H   H1509     1.0  0.88569  0.72437  0.87981  1.0000
  H   H1510     1.0  0.65416  0.63101  0.96634  1.0000
  C   C1877     1.0  0.86125  0.57112  0.59080  1.0000
  C   C1878     1.0  0.81730  0.70939  0.89827  1.0000
  H   H1511     1.0  0.75885  0.52402  0.60896  1.0000
  H   H1512     1.0  0.67643  0.59616  0.63820  1.0000
  H   H1513     1.0  0.93289  0.76645  0.52663  1.0000
  C   C1879     1.0  0.66076  0.66196  0.64349  1.0000
  H   H1514     1.0  0.97115  0.98391  0.84760  1.0000
  C   C1880     1.0  0.94199  0.74803  0.52668  1.0000
  H   H1515     1.0  0.95010  0.90820  0.78706  1.0000
  C   C1881     1.0  0.66141  0.65231  0.59279  1.0000
  C   C1882     1.0  0.86754  0.70165  0.54635  1.0000
  H   H1516     1.0  0.85797  0.54593  0.58877  1.0000
  S   S253      1.0  0.65155  0.62986  0.78901  1.0000
  H   H1517     1.0  0.82899  0.74788  0.56749  1.0000
  C   C1883     1.0  0.85694  0.59261  0.56969  1.0000
  C   C1884     1.0  0.82253  0.69178  0.92163  1.0000
  S   S254      1.0  0.79535  0.62186  0.51310  1.0000
  H   H1518     1.0  0.87804  0.68819  0.54019  1.0000
  H   H1519     1.0  0.95379  0.84427  0.62131  1.0000
  C   C1885     1.0  0.81982  0.51160  0.77558  1.0000
  C   C1886     1.0  0.95285  0.92661  0.77154  1.0000
  C   C1887     1.0  0.84497  0.73477  0.53349  1.0000
  H   H1520     1.0  0.66126  0.62045  0.87200  1.0000
  C   C1888     1.0  0.77694  0.53185  0.53359  1.0000
  C   C1889     1.0  0.64897  0.69258  0.84670  1.0000
  H   H1521     1.0  0.87874  0.78258  0.52383  1.0000
  C   C1890     1.0  0.95593  0.75316  0.54271  1.0000
  H   H1522     1.0  0.97548  0.88183  0.60622  1.0000
  H   H1523     1.0  0.91166  0.97440  0.85622  1.0000
  C   C1891     1.0  0.96773  0.71362  0.77857  1.0000
  H   H1524     1.0  0.96508  0.91866  0.96338  1.0000
  C   C1892     1.0  0.67645  0.65457  0.85046  1.0000
  C   C1893     1.0  0.71808  0.54244  0.65295  1.0000
  S   S255      1.0  0.65533  0.67573  0.51193  1.0000
  C   C1894     1.0  0.80268  0.71799  0.95128  1.0000
  H   H1525     1.0  0.68850  0.69164  0.82649  1.0000
  C   C1895     1.0  0.95867  0.86156  0.63623  1.0000
  C   C1896     1.0  0.64970  0.63659  0.64667  1.0000
  H   H1526     1.0  0.81919  0.68219  0.96594  1.0000
  C   C1897     1.0  0.96456  0.97036  0.96709  1.0000
  C   C1898     1.0  0.97288  0.98395  0.66231  1.0000
  C   C1899     1.0  0.81516  0.69594  0.94800  1.0000
  H   H1527     1.0  0.95890  0.82781  0.51927  1.0000
  C   C1900     1.0  0.95295  0.86237  0.66401  1.0000
  C   C1901     1.0  0.93961  0.96674  0.92760  1.0000
  C   C1902     1.0  0.66670  0.66965  0.61657  1.0000
  H   H1528     1.0  0.95467  0.88463  0.70446  1.0000
  C   C1903     1.0  0.79765  0.73609  0.92823  1.0000
  C   C1904     1.0  0.95932  0.88474  0.68321  1.0000
  C   C1905     1.0  0.89096  0.62764  0.51600  1.0000
  H   H1529     1.0  0.91045  0.61587  0.54383  1.0000
  C   C1906     1.0  0.80173  0.51315  0.68991  1.0000
  C   C1907     1.0  0.75715  0.53140  0.68420  1.0000
  C   C1908     1.0  0.76486  0.51382  0.70534  1.0000
  C   C1909     1.0  0.94021  0.72001  0.51030  1.0000
  C   C1910     1.0  0.78025  0.52147  0.58337  1.0000
  C   C1911     1.0  0.91583  0.65878  0.52002  1.0000
  C   C1912     1.0  0.96837  0.73084  0.54205  1.0000
  H   H1530     1.0  0.77361  0.51529  0.74842  1.0000
  C   C1913     1.0  0.67075  0.50417  0.64861  1.0000
  H   H1531     1.0  0.71313  0.50367  0.68181  1.0000
  C   C1914     1.0  0.97157  0.90643  0.67482  1.0000
  C   C1915     1.0  0.95276  0.69762  0.50977  1.0000
  C   C1916     1.0  0.65002  0.62751  0.59591  1.0000
  H   H1532     1.0  0.96137  0.97162  0.65975  1.0000
  H   H1533     1.0  0.86231  0.71636  0.50373  1.0000
  C   C1917     1.0  0.88534  0.64918  0.49594  1.0000
  H   H1534     1.0  0.78226  0.53485  0.51275  1.0000
  C   C1918     1.0  0.96677  0.70301  0.52565  1.0000
  H   H1535     1.0  0.96627  0.71826  0.70711  1.0000
  H   H1536     1.0  0.96993  0.77739  0.69667  1.0000
  C   C1919     1.0  0.82003  0.51384  0.49390  1.0000
  S   S256      1.0  0.70065  0.68121  0.49401  1.0000
  C   C1920     1.0  0.69932  0.49626  0.51473  1.0000
