data_image0
_chemical_formula_structural       CFeS2FeS2FeSFeS4FeHSHSH3CHCHSFeSHFeSFeSHC2FeHCFeHC2SCH4C2SC6H4C7H2C7H4C6H4C5H3C5PH4C2H2CH2FeCHC2H3CH2PHCH4C2HC2HC5HCHSCHPC3H4C6FeH2C6PC18H20CHCH3C3H2CHC3HC7HC3SHCHC5HCH4C2H2C3H4CH2CPC2SCHFeHCH2C6H3C5H4SC3H2C3H3C4H2CHC2HC4HC2FeCHC2HCHC2PHC2HCSH2CHCH3CH2C3SHC2HSCPC2H2C3HCH2CHCSCHSHCHC3H3CH2C3H3SC2HC2HCHC2H2SHCHC2H2C4HCSHC2H4SHCHC2H2SFeSFeS2HSFeS3H2CFeCSC2HCFeHCHC3H3C4HFeC2H4C6H4C3H2FeH2CHC6H5C4HCH2CHCH2C2H2C4H2CFeC2H2SC2H6CHCHSCSHC4HPFeC2H2SC2HFeC3H2C6SHPH3CH6CHCSH4FeH2CHC8PC18H19CFeCSHCSCHC4HC2SC3HC7PC18HCH15C2HC3PC4PCHSCHCH9C4H2C2H2C2SHCS2CFeS2FeH2FeHFeS3C6H4CHSHC2H2CH2CHCH2C6SHFeHCPH2C3HC4HSC5H3CH3C2HCSH2C3FeC2H3C4HCHCH3C3HCHCH2SCHC4HCH2FeH2CHC3PC7H5SHCH3C2SCHC2H2CH2CHCH3FeS2FeS2FeSFeS4CHSC5FeC2HSHSCFeSFeSHPHCH4CH6CHSC7H4C6H4C6H4C6H4C6H5C3HC3HSHCHC9HCH3CH6C3PC9SC2HCH9C2H3C4HPC2HPC6H2C2H3CHCH5CH3CFeC2HCSHC6PC18HSH10CH3FeH5CS2C2HC6HPS2HCH3FeHCFeC2SCH2CH2CPCFeH2C5SHC3SCFeH2CSH3C3H3CHC2SH2CHC4HC3H5C2HC2H3CHCHFeCFeCHCHCHC3H3CHC4HC3H2C2HC8H3CH2C2HCH2C3HC3H5CHC3H2CH2CH3FeS2H2Fe2CH4CHCSFeHFeS2CSFeS3H3FeHSC4S2C2HC3HCH2CHCHC4H2C6H4CHC6H2C2FeC3HC9HCPHC2H4CHC3FeC3HC3SC4PC17SH13CHC2H2C2HCHSCHCHCH2CHC2HSHC2HC2H2C3H2C6FeH2CHCH2CH2C2HC3H2CPC2S2CH2C3HCH2C3H2CH2C2HCH6CHCH4CHCH2C2HCHPC2HCH3C5HCHCHCH4SH2CHCSCH3CS2CFeS2FeHCFeSFeS3C6HCH2CHSCPC3HCH2C2HC6HCFe2H2CHC2HCHCHC7H4C2HCHC2SHCHCH5C7HCHCHSHC6H3CHCSCH2C10HSH2CHC3HCHCHC4PH5CSC5H2CH5CHFeCH4CHSC2HC3HCH3C4H3CHCH2CH2C3HC3HCH7PSC5H2CH3CHC4HC2SFeS2FeS2FeSFeS4H2SH2C2HCH3SHSCFeSHSC3PHPCH2CH2CHC3SC7H4C6H4C6H4C6H6FeC2H3SH2CHC9H2C4HCH2C5H3CHCH2C3SH3SC3HC2HPC2SC8HCHCFeCH2C2HCH2C2HCHCHC3HC6SC6H3CHCH2C2H4C2H4CHC2FeH3CH2C2HC2HCH3C2H3C9HC2HC3HCHSH2CH3CH2C2SCH2CHFeHCHFeCH2C7PC17H18C2HFe2C3FeCSHPCHFeC4H2CPHCHCHC3PCHCH3C3H2C2H2CHSHC2HCHC3HSHCPSC2H2CH3CH3C3H2C2HCHCPCHCHC3H4CHC2H2SCH3CHCH4CFeC3FeHFeS2CSFeS3CH2FeHSCHC2S2C2HCHC2SHC7HCH2C6H4C2HCHSHCH2CPH3CH4CH2C2H5C2HCH2C8H4Fe2SH3SC3H2C3H4SCHCH2CHSC9PCH3PHCHC2H2C6HCH2CH5CHC5H2C2PC3HC2FeC2H3CHC3HCH3SH2C3HC3HCHC3H3CH4C10H2C2HCH3CH2C3HCHC8H2FeHC2H2C6PC8HC10HCH8CH2C3HC2FeHSCHC3H8PHCHCH2CHC3H3C2HC5HC2HC2HSC2SCHFeS2FeHSFeHFeS3C7H2C2HSCH5CHCHCHFeC5HC9HCSHC2HCH2SC3SH5CH2CH2SH2C4H3CHCHCH3C2H2PC3HCHCH3CHCH2C7PHCH4FeHCHCH4C2SHCSHC5H2CH2CFeC2HS2H2SHCHPH3C7HC3H2CHC3H2FeS2FeS2FeSFeS4FeHSH2CFeH2CHS2CSHFeSFeSCSC2HCH3CHCFeHC2H3C6H4C6H3FeC6H4C6H4C6H4C3PFePHC3HCSHC2PC2H2CHCH2C3HCHC2SHCHCH2C2H2SCPCPCHCHCH2C6PHC3HSH2SCH7CH2C5HSC8PC18H13CH3CH2C9HCH5PHC2SH2C2HCSHC5HCH2CH4C3H2C2H2C3HSCH3C4H2C3H2C2H2C2HFeCHCH3C3HCHCH2C2H2CH2C3HCSC2HC2SC2HCHC3HC2HPCHC3H2C3HCHCHC2HC3HCH2CH2C6HCH2CFeH3CH4C2H2SC3HCHC3SFeSC2HFeHC2HCH2CSHFeSFeS2HSFeS3C3FeHSHCHCS2C2HC3H3SC4HCH4C6H4C6HCH3CHCHCSCH2C3HSPCHCHCHC2HCH2CFeC2SHCH2SC2HCHCH2C2H2C5FeHC7HCFeC2HCPH2CH4CH2C4HSHC2HCHC6PC18HC2HCH8CH4C4FeC2HC6H5C3HPC2HC2HC6H2CHSH2CH3CH9SCHCHCHCH2FeH4C2HCH2PCHCSCSHC2HCH2C2HC2H2CH2CHC5HCH5FeCHC2HCSC2FeS2FeH2FeCFeS3C6HSH2CH4C2H2CPHFeC2HC5HCSC3HCHCPH2CHCH2CHC2H2CH2CHCHPH2C2H4CSCHC5HSFeCH2C4HC2H3CSC2H3CHSCHC2FeH2C8H4CH2C2H2C4H5CH2C4HCHC2SHCHCHCSHC3HCH4C2
_chemical_formula_sum              "C1920 Fe128 S256 H1536 P64"
_cell_length_a       48.3744
_cell_length_b       47.2793
_cell_length_c       42.4503
_cell_angle_alpha    82.4709
_cell_angle_beta     87.988
_cell_angle_gamma    124.718

_space_group_name_H-M_alt    "P 1"
_space_group_IT_number       1

loop_
  _space_group_symop_operation_xyz
  'x, y, z'

loop_
  _atom_site_type_symbol
  _atom_site_label
  _atom_site_symmetry_multiplicity
  _atom_site_fract_x
  _atom_site_fract_y
  _atom_site_fract_z
  _atom_site_occupancy
  C   C1        1.0  0.23642  0.46503  0.03175  1.0000
  Fe  Fe1       1.0  0.11653  0.20566  0.10501  1.0000
  S   S1        1.0  0.09282  0.16351  0.07449  1.0000
  S   S2        1.0  0.15737  0.26417  0.08795  1.0000
  Fe  Fe2       1.0  0.08040  0.15276  0.16479  1.0000
  S   S3        1.0  0.05360  0.10658  0.13989  1.0000
  S   S4        1.0  0.07188  0.14196  0.21780  1.0000
  Fe  Fe3       1.0  0.10470  0.13317  0.11077  1.0000
  S   S5        1.0  0.12742  0.10383  0.09706  1.0000
  Fe  Fe4       1.0  0.04324  0.13938  0.10700  1.0000
  S   S6        1.0  0.99081  0.11751  0.09018  1.0000
  S   S7        1.0  0.13159  0.17699  0.13833  1.0000
  S   S8        1.0  0.06681  0.18408  0.13429  1.0000
  S   S9        1.0  0.34454  0.14501  0.17478  1.0000
  Fe  Fe5       1.0  0.38605  0.24150  0.99653  1.0000
  H   H1        1.0  0.98108  0.23794  0.01615  1.0000
  S   S10       1.0  0.39915  0.25674  0.04560  1.0000
  H   H2        1.0  0.29311  0.08940  0.12924  1.0000
  S   S11       1.0  0.31101  0.10210  0.26622  1.0000
  H   H3        1.0  0.12400  0.38228  0.20760  1.0000
  H   H4        1.0  0.13623  0.99029  0.19838  1.0000
  H   H5        1.0  0.46530  0.28765  0.12975  1.0000
  C   C2        1.0  0.00840  0.13153  0.00491  1.0000
  H   H6        1.0  0.04355  0.45407  0.22498  1.0000
  C   C3        1.0  0.46198  0.24775  0.26899  1.0000
  H   H7        1.0  0.45278  0.05804  0.24989  1.0000
  S   S12       1.0  0.16800  0.38066  0.15868  1.0000
  Fe  Fe6       1.0  0.26894  0.00370  0.22861  1.0000
  S   S13       1.0  0.29064  0.05056  0.18915  1.0000
  H   H8        1.0  0.45915  0.17489  0.26428  1.0000
  Fe  Fe7       1.0  0.23748  0.02226  0.17458  1.0000
  S   S14       1.0  0.20663  0.04612  0.16815  1.0000
  Fe  Fe8       1.0  0.29943  0.01993  0.15873  1.0000
  S   S15       1.0  0.34666  0.03353  0.12705  1.0000
  H   H9        1.0  0.23876  0.09235  0.05284  1.0000
  C   C4        1.0  0.99003  0.41160  0.19426  1.0000
  C   C5        1.0  0.12200  0.06749  0.99677  1.0000
  Fe  Fe9       1.0  0.35780  0.13271  0.29074  1.0000
  H   H10       1.0  0.07141  0.39775  0.06651  1.0000
  C   C6        1.0  0.99821  0.39819  0.03428  1.0000
  Fe  Fe10      1.0  0.21085  0.43696  0.16216  1.0000
  H   H11       1.0  0.04019  0.01828  0.98274  1.0000
  C   C7        1.0  0.33133  0.45432  0.29633  1.0000
  C   C8        1.0  0.14037  0.13603  0.24394  1.0000
  S   S16       1.0  0.45108  0.44989  0.30147  1.0000
  C   C9        1.0  0.01908  0.47842  0.10004  1.0000
  H   H12       1.0  0.22622  0.42355  0.06923  1.0000
  H   H13       1.0  0.29247  0.01453  0.08499  1.0000
  H   H14       1.0  0.25116  0.09840  0.10877  1.0000
  H   H15       1.0  0.38353  0.40725  0.06027  1.0000
  C   C10       1.0  0.12953  0.38719  0.28650  1.0000
  C   C11       1.0  0.12546  0.39465  0.25481  1.0000
  S   S17       1.0  0.38535  0.17904  0.25001  1.0000
  C   C12       1.0  0.36044  0.17717  0.13957  1.0000
  C   C13       1.0  0.37286  0.21198  0.14027  1.0000
  C   C14       1.0  0.38483  0.23635  0.11131  1.0000
  C   C15       1.0  0.38367  0.22580  0.08158  1.0000
  C   C16       1.0  0.37124  0.19112  0.08101  1.0000
  C   C17       1.0  0.36048  0.16719  0.10987  1.0000
  H   H16       1.0  0.37343  0.21999  0.16307  1.0000
  H   H17       1.0  0.39465  0.26329  0.11191  1.0000
  H   H18       1.0  0.37052  0.18303  0.05828  1.0000
  H   H19       1.0  0.35241  0.14081  0.10922  1.0000
  C   C18       1.0  0.34629  0.44923  0.21191  1.0000
  C   C19       1.0  0.43987  0.12763  0.12065  1.0000
  C   C20       1.0  0.40439  0.10150  0.12697  1.0000
  C   C21       1.0  0.39123  0.06658  0.12554  1.0000
  C   C22       1.0  0.41431  0.05829  0.11886  1.0000
  C   C23       1.0  0.44974  0.08415  0.11371  1.0000
  C   C24       1.0  0.12648  0.37606  0.23234  1.0000
  H   H20       1.0  0.38721  0.10869  0.13154  1.0000
  H   H21       1.0  0.40480  0.03176  0.11692  1.0000
  C   C25       1.0  0.47807  0.22986  0.98643  1.0000
  C   C26       1.0  0.14762  0.08628  0.11817  1.0000
  C   C27       1.0  0.15951  0.07037  0.10167  1.0000
  C   C28       1.0  0.17720  0.05776  0.11657  1.0000
  C   C29       1.0  0.18322  0.06058  0.14846  1.0000
  C   C30       1.0  0.17038  0.07549  0.16526  1.0000
  C   C31       1.0  0.15298  0.08846  0.15027  1.0000
  H   H22       1.0  0.15542  0.06820  0.07696  1.0000
  H   H23       1.0  0.18643  0.04611  0.10324  1.0000
  H   H24       1.0  0.17408  0.07716  0.19006  1.0000
  H   H25       1.0  0.14387  0.10031  0.16349  1.0000
  C   C32       1.0  0.16054  0.29608  0.10859  1.0000
  C   C33       1.0  0.13276  0.28901  0.12836  1.0000
  C   C34       1.0  0.13569  0.31526  0.14347  1.0000
  C   C35       1.0  0.16649  0.34872  0.13944  1.0000
  C   C36       1.0  0.19453  0.35566  0.12020  1.0000
  C   C37       1.0  0.19142  0.32955  0.10459  1.0000
  H   H26       1.0  0.10882  0.26349  0.13160  1.0000
  H   H27       1.0  0.11387  0.30953  0.15838  1.0000
  H   H28       1.0  0.21843  0.38119  0.11712  1.0000
  H   H29       1.0  0.21301  0.33527  0.08930  1.0000
  C   C38       1.0  0.01318  0.02784  0.21115  1.0000
  C   C39       1.0  0.04831  0.04960  0.20249  1.0000
  C   C40       1.0  0.06670  0.08425  0.20710  1.0000
  C   C41       1.0  0.05022  0.09695  0.22113  1.0000
  C   C42       1.0  0.01510  0.07519  0.22998  1.0000
  H   H30       1.0  0.01087  0.27187  0.10423  1.0000
  H   H31       1.0  0.06147  0.03979  0.19254  1.0000
  H   H32       1.0  0.09344  0.10172  0.19815  1.0000
  C   C43       1.0  0.43959  0.01060  0.23418  1.0000
  C   C44       1.0  0.32478  0.30898  0.00346  1.0000
  C   C45       1.0  0.31669  0.43626  0.16507  1.0000
  C   C46       1.0  0.30714  0.40190  0.17177  1.0000
  C   C47       1.0  0.08217  0.45906  0.19210  1.0000
  P   P1        1.0  0.28728  0.30157  0.98821  1.0000
  H   H33       1.0  0.38460  0.42182  0.00171  1.0000
  H   H34       1.0  0.47179  0.11991  0.28705  1.0000
  H   H35       1.0  0.30884  0.44478  0.14450  1.0000
  H   H36       1.0  0.29168  0.38365  0.15643  1.0000
  C   C48       1.0  0.02770  0.32183  0.29565  1.0000
  C   C49       1.0  0.43735  0.44548  0.05921  1.0000
  H   H37       1.0  0.04636  0.98136  0.19287  1.0000
  H   H38       1.0  0.16401  0.28253  0.18179  1.0000
  C   C50       1.0  0.43482  0.13297  0.04551  1.0000
  H   H39       1.0  0.29398  0.42050  0.01391  1.0000
  H   H40       1.0  0.26979  0.07989  0.01697  1.0000
  Fe  Fe11      1.0  0.33843  0.15004  0.22671  1.0000
  C   C51       1.0  0.99316  0.26878  0.12305  1.0000
  H   H41       1.0  0.41189  0.33178  0.25738  1.0000
  C   C52       1.0  0.47462  0.26499  0.23710  1.0000
  C   C53       1.0  0.10249  0.08542  0.29919  1.0000
  H   H42       1.0  0.32135  0.46874  0.28705  1.0000
  H   H43       1.0  0.44626  0.07710  0.18854  1.0000
  H   H44       1.0  0.40673  0.32665  0.03518  1.0000
  C   C54       1.0  0.28725  0.33823  0.99591  1.0000
  H   H45       1.0  0.17061  0.22255  0.04766  1.0000
  H   H46       1.0  0.29148  0.38593  0.27745  1.0000
  P   P2        1.0  0.05366  0.43631  0.16378  1.0000
  H   H47       1.0  0.09710  0.23615  0.28995  1.0000
  C   C55       1.0  0.38591  0.34710  0.00323  1.0000
  H   H48       1.0  0.41391  0.99506  0.24649  1.0000
  H   H49       1.0  0.05765  0.11817  0.28532  1.0000
  H   H50       1.0  0.42702  0.28768  0.16982  1.0000
  H   H51       1.0  0.46089  0.14814  0.05039  1.0000
  C   C56       1.0  0.46432  0.12937  0.19408  1.0000
  C   C57       1.0  0.02501  0.39092  0.98988  1.0000
  H   H52       1.0  0.17608  0.32333  0.21858  1.0000
  C   C58       1.0  0.07462  0.39853  0.09160  1.0000
  C   C59       1.0  0.04121  0.34461  0.26599  1.0000
  H   H53       1.0  0.42596  0.17078  0.05584  1.0000
  C   C60       1.0  0.45720  0.21567  0.27887  1.0000
  C   C61       1.0  0.33625  0.45985  0.18500  1.0000
  C   C62       1.0  0.45778  0.22464  0.11543  1.0000
  C   C63       1.0  0.15298  0.98770  0.24392  1.0000
  C   C64       1.0  0.02461  0.03780  0.08959  1.0000
  H   H54       1.0  0.19018  0.45669  0.28841  1.0000
  C   C65       1.0  0.99784  0.37695  0.01402  1.0000
  H   H55       1.0  0.01369  0.32363  0.11406  1.0000
  S   S18       1.0  0.24752  0.99420  0.14158  1.0000
  C   C66       1.0  0.09298  0.04262  0.98458  1.0000
  H   H56       1.0  0.12772  0.47233  0.16385  1.0000
  P   P3        1.0  0.37265  0.47982  0.23713  1.0000
  C   C67       1.0  0.46834  0.47149  0.03995  1.0000
  C   C68       1.0  0.30949  0.00634  0.00962  1.0000
  C   C69       1.0  0.43824  0.46262  0.99341  1.0000
  H   H57       1.0  0.42750  0.37368  0.29437  1.0000
  H   H58       1.0  0.03887  0.41073  0.28589  1.0000
  H   H59       1.0  0.98211  0.08181  0.03590  1.0000
  H   H60       1.0  0.31094  0.36483  0.20295  1.0000
  C   C70       1.0  0.42114  0.13691  0.21150  1.0000
  C   C71       1.0  0.06180  0.03678  0.99361  1.0000
  C   C72       1.0  0.01234  0.40293  0.18605  1.0000
  C   C73       1.0  0.00397  0.10035  0.01833  1.0000
  C   C74       1.0  0.28775  0.08652  0.10483  1.0000
  C   C75       1.0  0.25732  0.08852  0.06172  1.0000
  Fe  Fe12      1.0  0.29130  0.12926  0.28889  1.0000
  H   H61       1.0  0.10352  0.04989  0.27298  1.0000
  H   H62       1.0  0.15396  0.15526  0.22211  1.0000
  C   C76       1.0  0.22007  0.12652  0.22481  1.0000
  C   C77       1.0  0.23633  0.10987  0.22389  1.0000
  C   C78       1.0  0.26010  0.11962  0.19769  1.0000
  C   C79       1.0  0.26834  0.14660  0.17268  1.0000
  C   C80       1.0  0.25246  0.16382  0.17346  1.0000
  C   C81       1.0  0.22761  0.15301  0.19941  1.0000
  P   P4        1.0  0.26655  0.20093  0.14219  1.0000
  C   C82       1.0  0.30848  0.23740  0.14674  1.0000
  C   C83       1.0  0.26616  0.18688  0.10453  1.0000
  C   C84       1.0  0.29654  0.19858  0.08594  1.0000
  C   C85       1.0  0.29600  0.18833  0.05639  1.0000
  C   C86       1.0  0.26505  0.16580  0.04549  1.0000
  C   C87       1.0  0.23462  0.15273  0.06461  1.0000
  C   C88       1.0  0.23515  0.16308  0.09409  1.0000
  C   C89       1.0  0.32534  0.26823  0.12362  1.0000
  C   C90       1.0  0.35703  0.29750  0.12759  1.0000
  C   C91       1.0  0.37168  0.29643  0.15514  1.0000
  C   C92       1.0  0.35474  0.26602  0.17858  1.0000
  C   C93       1.0  0.32328  0.23659  0.17437  1.0000
  C   C94       1.0  0.24197  0.21870  0.14360  1.0000
  C   C95       1.0  0.23822  0.22985  0.17157  1.0000
  C   C96       1.0  0.22179  0.24642  0.17219  1.0000
  C   C97       1.0  0.21018  0.25323  0.14454  1.0000
  C   C98       1.0  0.21505  0.24354  0.11632  1.0000
  C   C99       1.0  0.23076  0.22630  0.11575  1.0000
  H   H63       1.0  0.20145  0.11854  0.24519  1.0000
  H   H64       1.0  0.23051  0.08926  0.24333  1.0000
  H   H65       1.0  0.27214  0.10613  0.19673  1.0000
  H   H66       1.0  0.28740  0.15413  0.15291  1.0000
  H   H67       1.0  0.21385  0.16457  0.20021  1.0000
  H   H68       1.0  0.32066  0.21531  0.09430  1.0000
  H   H69       1.0  0.31961  0.19761  0.04209  1.0000
  H   H70       1.0  0.26469  0.15798  0.02249  1.0000
  H   H71       1.0  0.21053  0.13459  0.05662  1.0000
  H   H72       1.0  0.21138  0.15284  0.10860  1.0000
  H   H73       1.0  0.31377  0.26958  0.10262  1.0000
  H   H74       1.0  0.37012  0.32099  0.10935  1.0000
  H   H75       1.0  0.39609  0.31915  0.15836  1.0000
  H   H76       1.0  0.36590  0.26502  0.20009  1.0000
  H   H77       1.0  0.31052  0.21341  0.19282  1.0000
  H   H78       1.0  0.24843  0.22613  0.19277  1.0000
  H   H79       1.0  0.21825  0.25419  0.19401  1.0000
  H   H80       1.0  0.19727  0.26590  0.14482  1.0000
  H   H81       1.0  0.20617  0.24901  0.09490  1.0000
  H   H82       1.0  0.23450  0.21963  0.09334  1.0000
  C   C100      1.0  0.04516  0.37658  0.26244  1.0000
  H   H83       1.0  0.27789  0.32184  0.04750  1.0000
  C   C101      1.0  0.26422  0.37217  0.27926  1.0000
  H   H84       1.0  0.04929  0.33778  0.24594  1.0000
  H   H85       1.0  0.14627  0.07242  0.98941  1.0000
  H   H86       1.0  0.05639  0.39463  0.23975  1.0000
  C   C102      1.0  0.00971  0.21694  0.02841  1.0000
  C   C103      1.0  0.35233  0.29113  0.03923  1.0000
  C   C104      1.0  0.09479  0.38553  0.13883  1.0000
  H   H87       1.0  0.32401  0.07549  0.09423  1.0000
  H   H88       1.0  0.38607  0.05172  0.20716  1.0000
  C   C105      1.0  0.30523  0.07873  0.08482  1.0000
  H   H89       1.0  0.26523  0.23021  0.98756  1.0000
  C   C106      1.0  0.22177  0.25718  0.02305  1.0000
  C   C107      1.0  0.29221  0.39763  0.00890  1.0000
  C   C108      1.0  0.24903  0.25971  0.00655  1.0000
  H   H90       1.0  0.29876  0.25997  0.03750  1.0000
  C   C109      1.0  0.35714  0.45595  0.27801  1.0000
  C   C110      1.0  0.01302  0.21312  0.17500  1.0000
  C   C111      1.0  0.02848  0.20458  0.19788  1.0000
  C   C112      1.0  0.01778  0.16991  0.20662  1.0000
  C   C113      1.0  0.32040  0.08060  0.98543  1.0000
  C   C114      1.0  0.36700  0.09316  0.03392  1.0000
  C   C115      1.0  0.38154  0.12612  0.04234  1.0000
  H   H91       1.0  0.41038  0.37112  0.99341  1.0000
  C   C116      1.0  0.40543  0.07935  0.20621  1.0000
  C   C117      1.0  0.13117  0.10199  0.24515  1.0000
  C   C118      1.0  0.29314  0.00248  0.06538  1.0000
  S   S19       1.0  0.02197  0.02147  0.28991  1.0000
  H   H92       1.0  0.05134  0.42511  0.09661  1.0000
  C   C119      1.0  0.99659  0.04054  0.22510  1.0000
  H   H93       1.0  0.38847  0.06266  0.28363  1.0000
  C   C120      1.0  0.01800  0.20169  0.05324  1.0000
  C   C121      1.0  0.00443  0.19579  0.08500  1.0000
  C   C122      1.0  0.46605  0.19609  0.98219  1.0000
  C   C123      1.0  0.06985  0.46356  0.22010  1.0000
  C   C124      1.0  0.29908  0.07606  0.05285  1.0000
  H   H94       1.0  0.47773  0.28952  0.22939  1.0000
  C   C125      1.0  0.31783  0.39130  0.19805  1.0000
  H   H95       1.0  0.02144  0.24003  0.16867  1.0000
  H   H96       1.0  0.04876  0.22476  0.20884  1.0000
  H   H97       1.0  0.02932  0.16314  0.22462  1.0000
  H   H98       1.0  0.16443  0.16849  0.03892  1.0000
  C   C126      1.0  0.24505  0.22894  0.00124  1.0000
  C   C127      1.0  0.02293  0.45485  0.11935  1.0000
  H   H99       1.0  0.38907  0.43756  0.27746  1.0000
  H   H100      1.0  0.35102  0.27173  0.05710  1.0000
  C   C128      1.0  0.98748  0.01868  0.00413  1.0000
  C   C129      1.0  0.45380  0.30905  0.16554  1.0000
  C   C130      1.0  0.05008  0.46713  0.13753  1.0000
  H   H101      1.0  0.03454  0.19381  0.04802  1.0000
  H   H102      1.0  0.01106  0.18375  0.10376  1.0000
  H   H103      1.0  0.43902  0.20741  0.16569  1.0000
  H   H104      1.0  0.19392  0.99405  0.09460  1.0000
  C   C131      1.0  0.25023  0.39103  0.27377  1.0000
  H   H105      1.0  0.11833  0.21915  0.19829  1.0000
  H   H106      1.0  0.13782  0.17120  0.26903  1.0000
  C   C132      1.0  0.40779  0.43584  0.01246  1.0000
  P   P5        1.0  0.14808  0.31309  0.28453  1.0000
  C   C133      1.0  0.13749  0.34364  0.27291  1.0000
  C   C134      1.0  0.19352  0.33675  0.28360  1.0000
  S   S20       1.0  0.25694  0.47425  0.26552  1.0000
  C   C135      1.0  0.18802  0.19388  0.02992  1.0000
  H   H107      1.0  0.26665  0.41938  0.26746  1.0000
  Fe  Fe13      1.0  0.36111  0.20121  0.27327  1.0000
  H   H108      1.0  0.09959  0.37246  0.09323  1.0000
  C   C136      1.0  0.13227  0.35050  0.24133  1.0000
  H   H109      1.0  0.99703  0.43788  0.18666  1.0000
  H   H110      1.0  0.08534  0.19639  0.25244  1.0000
  C   C137      1.0  0.13711  0.28314  0.25697  1.0000
  C   C138      1.0  0.11168  0.24706  0.26637  1.0000
  C   C139      1.0  0.10499  0.22419  0.24521  1.0000
  C   C140      1.0  0.12372  0.23697  0.21471  1.0000
  C   C141      1.0  0.14940  0.27265  0.20541  1.0000
  C   C142      1.0  0.15607  0.29568  0.22636  1.0000
  H   H111      1.0  0.08793  0.09733  0.04206  1.0000
  H   H112      1.0  0.44626  0.20157  0.30328  1.0000
  H   H113      1.0  0.00444  0.42702  0.12055  1.0000
  C   C143      1.0  0.39628  0.10107  0.21379  1.0000
  C   C144      1.0  0.21503  0.37351  0.27608  1.0000
  C   C145      1.0  0.39975  0.06401  0.30545  1.0000
  C   C146      1.0  0.46421  0.20040  0.25667  1.0000
  C   C147      1.0  0.01201  0.02769  0.12228  1.0000
  H   H114      1.0  0.13358  0.33705  0.22324  1.0000
  H   H115      1.0  0.32126  0.02139  0.98565  1.0000
  H   H116      1.0  0.13800  0.09488  0.22449  1.0000
  H   H117      1.0  0.43588  0.09026  0.03524  1.0000
  S   S21       1.0  0.31540  0.17466  0.24734  1.0000
  C   C148      1.0  0.11172  0.07660  0.27250  1.0000
  C   C149      1.0  0.40729  0.42752  0.04541  1.0000
  C   C150      1.0  0.41853  0.34700  0.30377  1.0000
  H   H118      1.0  0.45004  0.33551  0.20126  1.0000
  H   H119      1.0  0.08759  0.40226  0.18101  1.0000
  C   C151      1.0  0.08882  0.08126  0.02660  1.0000
  C   C152      1.0  0.11699  0.47379  0.18589  1.0000
  C   C153      1.0  0.21459  0.19624  0.01263  1.0000
  H   H120      1.0  0.44934  0.15458  0.12028  1.0000
  H   H121      1.0  0.41334  0.15348  0.21579  1.0000
  H   H122      1.0  0.43623  0.22446  0.10914  1.0000
  C   C154      1.0  0.39852  0.28856  0.29441  1.0000
  C   C155      1.0  0.26407  0.09170  0.09325  1.0000
  C   C156      1.0  0.45549  0.15123  0.20260  1.0000
  C   C157      1.0  0.11988  0.08674  0.01781  1.0000
  H   H123      1.0  0.36977  0.09027  0.22061  1.0000
  H   H124      1.0  0.21081  0.45034  0.02570  1.0000
  C   C158      1.0  0.24518  0.44974  0.05607  1.0000
  H   H125      1.0  0.28102  0.37354  0.05867  1.0000
  C   C159      1.0  0.98784  0.22636  0.03537  1.0000
  C   C160      1.0  0.27490  0.08105  0.04149  1.0000
  H   H126      1.0  0.15232  0.98273  0.13854  1.0000
  C   C161      1.0  0.05249  0.42616  0.98583  1.0000
  C   C162      1.0  0.46288  0.11924  0.11383  1.0000
  C   C163      1.0  0.42071  0.10034  0.03683  1.0000
  C   C164      1.0  0.13090  0.14485  0.27047  1.0000
  H   H127      1.0  0.12984  0.00415  0.29737  1.0000
  C   C165      1.0  0.27836  0.46836  0.06356  1.0000
  C   C166      1.0  0.36947  0.43702  0.29120  1.0000
  Fe  Fe14      1.0  0.98079  0.47049  0.26078  1.0000
  C   C167      1.0  0.05934  0.05590  0.01494  1.0000
  H   H128      1.0  0.98465  0.11714  0.19804  1.0000
  C   C168      1.0  0.24306  0.33564  0.28651  1.0000
  C   C169      1.0  0.00293  0.36885  0.19709  1.0000
  H   H129      1.0  0.37631  0.05497  0.02489  1.0000
  C   C170      1.0  0.47548  0.30890  0.14308  1.0000
  H   H130      1.0  0.36671  0.13643  0.04436  1.0000
  C   C171      1.0  0.32279  0.28445  0.02774  1.0000
  C   C172      1.0  0.30653  0.02204  0.03421  1.0000
  P   P6        1.0  0.32326  0.06793  0.02657  1.0000
  H   H131      1.0  0.02575  0.44960  0.04616  1.0000
  C   C173      1.0  0.46684  0.33609  0.18313  1.0000
  C   C174      1.0  0.05269  0.44786  0.00560  1.0000
  H   H132      1.0  0.47064  0.40502  0.15385  1.0000
  C   C175      1.0  0.13593  0.36210  0.29550  1.0000
  S   S22       1.0  0.28554  0.00604  0.27814  1.0000
  H   H133      1.0  0.28525  0.45682  0.08265  1.0000
  H   H134      1.0  0.14242  0.10632  0.02701  1.0000
  C   C176      1.0  0.05298  0.13045  0.30253  1.0000
  H   H135      1.0  0.00208  0.08517  0.23992  1.0000
  C   C177      1.0  0.09048  0.38432  0.10657  1.0000
  H   H136      1.0  0.12208  0.41525  0.24757  1.0000
  H   H137      1.0  0.16492  0.01527  0.24397  1.0000
  H   H138      1.0  0.20507  0.38898  0.27143  1.0000
  C   C178      1.0  0.43937  0.09359  0.19601  1.0000
  H   H139      1.0  0.01976  0.36151  0.19159  1.0000
  H   H140      1.0  0.45477  0.25867  0.28573  1.0000
  C   C179      1.0  0.99247  0.14393  0.19175  1.0000
  C   C180      1.0  0.28497  0.37121  0.03411  1.0000
  C   C181      1.0  0.06840  0.41638  0.14110  1.0000
  S   S23       1.0  0.25762  0.45273  0.18463  1.0000
  H   H141      1.0  0.34635  0.40656  0.23761  1.0000
  C   C182      1.0  0.46173  0.04591  0.23692  1.0000
  C   C183      1.0  0.38385  0.32225  0.02689  1.0000
  H   H142      1.0  0.19310  0.04688  0.28811  1.0000
  S   S24       1.0  0.99205  0.98287  0.21461  1.0000
  C   C184      1.0  0.00429  0.03750  0.06655  1.0000
  P   P7        1.0  0.02009  0.05168  0.02404  1.0000
  C   C185      1.0  0.28289  0.34182  0.02769  1.0000
  C   C186      1.0  0.19157  0.22435  0.03497  1.0000
  H   H143      1.0  0.99023  0.13654  0.01263  1.0000
  H   H144      1.0  0.04599  0.99351  0.13434  1.0000
  C   C187      1.0  0.02743  0.09350  0.00896  1.0000
  C   C188      1.0  0.45961  0.21517  0.14750  1.0000
  C   C189      1.0  0.38687  0.08039  0.03111  1.0000
  H   H145      1.0  0.02819  0.02941  0.14004  1.0000
  C   C190      1.0  0.20786  0.31796  0.28834  1.0000
  H   H146      1.0  0.05033  0.04634  0.08281  1.0000
  H   H147      1.0  0.22312  0.28022  0.02626  1.0000
  C   C191      1.0  0.06329  0.41415  0.10886  1.0000
  H   H148      1.0  0.47734  0.04899  0.02606  1.0000
  C   C192      1.0  0.08379  0.40142  0.15607  1.0000
  S   S25       1.0  0.19563  0.46128  0.19481  1.0000
  C   C193      1.0  0.02563  0.43348  0.03022  1.0000
  H   H149      1.0  0.99797  0.46896  0.08631  1.0000
  S   S26       1.0  0.39065  0.26093  0.26628  1.0000
  H   H150      1.0  0.02598  0.29778  0.29820  1.0000
  C   C194      1.0  0.33767  0.41498  0.21783  1.0000
  H   H151      1.0  0.46677  0.07709  0.10811  1.0000
  C   C195      1.0  0.11249  0.11974  0.29856  1.0000
  C   C196      1.0  0.40970  0.32318  0.28282  1.0000
  C   C197      1.0  0.41518  0.14577  0.04851  1.0000
  H   H152      1.0  0.01107  0.12454  0.28042  1.0000
  H   H153      1.0  0.43601  0.43927  0.08484  1.0000
  H   H154      1.0  0.10706  0.37444  0.15034  1.0000
  C   C198      1.0  0.99502  0.29828  0.12872  1.0000
  H   H155      1.0  0.01998  0.22116  0.00380  1.0000
  H   H156      1.0  0.25401  0.32105  0.28997  1.0000
  C   C199      1.0  0.47624  0.21722  0.22451  1.0000
  C   C200      1.0  0.35651  0.34054  0.99156  1.0000
  C   C201      1.0  0.03527  0.38565  0.28840  1.0000
  H   H157      1.0  0.21142  0.17276  0.00748  1.0000
  H   H158      1.0  0.19175  0.28961  0.29293  1.0000
  H   H159      1.0  0.26965  0.03428  0.98585  1.0000
  S   S27       1.0  0.98778  0.43107  0.28638  1.0000
  C   C202      1.0  0.45172  0.99460  0.21854  1.0000
  C   C203      1.0  0.17801  0.05090  0.30375  1.0000
  H   H160      1.0  0.46091  0.23765  0.98683  1.0000
  C   C204      1.0  0.02630  0.13390  0.29974  1.0000
  C   C205      1.0  0.05550  0.11865  0.98586  1.0000
  H   H161      1.0  0.41179  0.02743  0.29688  1.0000
  C   C206      1.0  0.98676  0.18694  0.16072  1.0000
  H   H162      1.0  0.47689  0.42540  0.09559  1.0000
  C   C207      1.0  0.98214  0.20471  0.09223  1.0000
  C   C208      1.0  0.23497  0.46353  0.30420  1.0000
  H   H163      1.0  0.12883  0.40176  0.30381  1.0000
  H   H164      1.0  0.43963  0.17790  0.97935  1.0000
  S   S28       1.0  0.36445  0.19043  0.97949  1.0000
  H   H165      1.0  0.07398  0.11429  0.97760  1.0000
  C   C209      1.0  0.03609  0.15606  0.98169  1.0000
  H   H166      1.0  0.17847  0.47993  0.03454  1.0000
  C   C210      1.0  0.20223  0.45520  0.30893  1.0000
  C   C211      1.0  0.14208  0.02662  0.30902  1.0000
  H   H167      1.0  0.37009  0.13003  0.97692  1.0000
  H   H168      1.0  0.47803  0.15967  0.97714  1.0000
  C   C212      1.0  0.29736  0.39465  0.97724  1.0000
  C   C213      1.0  0.03677  0.31702  0.38361  1.0000
  C   C214      1.0  0.35565  0.99702  0.48902  1.0000
  C   C215      1.0  0.12585  0.27126  0.38067  1.0000
  H   H169      1.0  0.38111  0.04314  0.42102  1.0000
  C   C216      1.0  0.12600  0.28970  0.32443  1.0000
  S   S29       1.0  0.44505  0.02067  0.35384  1.0000
  H   H170      1.0  0.07912  0.46383  0.50326  1.0000
  C   C217      1.0  0.99974  0.46296  0.44240  1.0000
  C   C218      1.0  0.34738  0.20449  0.42776  1.0000
  H   H171      1.0  0.21588  0.04720  0.51984  1.0000
  H   H172      1.0  0.07550  0.15925  0.37299  1.0000
  H   H173      1.0  0.31388  0.46330  0.55810  1.0000
  H   H174      1.0  0.07685  0.27327  0.31104  1.0000
  S   S30       1.0  0.23557  0.47880  0.47018  1.0000
  H   H175      1.0  0.30954  0.98228  0.40589  1.0000
  C   C219      1.0  0.21048  0.22928  0.34239  1.0000
  H   H176      1.0  0.32726  0.41917  0.43652  1.0000
  C   C220      1.0  0.07318  0.25474  0.36106  1.0000
  C   C221      1.0  0.07038  0.33882  0.36814  1.0000
  H   H177      1.0  0.38749  0.25131  0.33653  1.0000
  H   H178      1.0  0.99173  0.45759  0.50975  1.0000
  S   S31       1.0  0.22222  0.43010  0.53922  1.0000
  Fe  Fe15      1.0  0.02341  0.06247  0.60094  1.0000
  S   S32       1.0  0.00335  0.02014  0.57070  1.0000
  Fe  Fe16      1.0  0.05262  0.12134  0.54286  1.0000
  S   S33       1.0  0.03501  0.08268  0.50969  1.0000
  S   S34       1.0  0.07433  0.17588  0.51352  1.0000
  H   H179      1.0  0.24662  0.45251  0.38282  1.0000
  S   S35       1.0  0.45678  0.05201  0.49766  1.0000
  Fe  Fe17      1.0  0.05429  0.05658  0.54026  1.0000
  S   S36       1.0  0.08053  0.03904  0.51002  1.0000
  S   S37       1.0  0.00182  0.08876  0.57409  1.0000
  S   S38       1.0  0.07567  0.09772  0.57175  1.0000
  H   H180      1.0  0.05348  0.31454  0.46107  1.0000
  H   H181      1.0  0.40364  0.29355  0.37370  1.0000
  C   C222      1.0  0.09075  0.27270  0.33032  1.0000
  Fe  Fe18      1.0  0.18742  0.38300  0.51657  1.0000
  C   C223      1.0  0.47143  0.44968  0.53206  1.0000
  S   S39       1.0  0.16557  0.32921  0.54720  1.0000
  C   C224      1.0  0.06285  0.15347  0.35178  1.0000
  C   C225      1.0  0.01811  0.14754  0.32268  1.0000
  H   H182      1.0  0.00516  0.29134  0.42971  1.0000
  C   C226      1.0  0.44206  0.44230  0.58314  1.0000
  Fe  Fe19      1.0  0.02864  0.98600  0.32408  1.0000
  H   H183      1.0  0.32321  0.40295  0.36532  1.0000
  C   C227      1.0  0.09754  0.35196  0.38609  1.0000
  H   H184      1.0  0.23883  0.07767  0.59621  1.0000
  C   C228      1.0  0.39611  0.02073  0.53843  1.0000
  C   C229      1.0  0.41174  0.02694  0.50751  1.0000
  C   C230      1.0  0.39117  0.01440  0.48305  1.0000
  H   H185      1.0  0.11253  0.35437  0.43340  1.0000
  H   H186      1.0  0.28167  0.01803  0.54924  1.0000
  H   H187      1.0  0.41145  0.03008  0.55759  1.0000
  C   C231      1.0  0.36056  0.00310  0.54447  1.0000
  C   C232      1.0  0.02454  0.43806  0.41620  1.0000
  C   C233      1.0  0.10175  0.01906  0.52099  1.0000
  C   C234      1.0  0.02120  0.36270  0.31790  1.0000
  H   H188      1.0  0.00715  0.35072  0.40134  1.0000
  Fe  Fe20      1.0  0.01501  0.47015  0.31877  1.0000
  C   C235      1.0  0.45317  0.46045  0.51586  1.0000
  C   C236      1.0  0.11117  0.01719  0.55157  1.0000
  H   H189      1.0  0.07667  0.45939  0.42178  1.0000
  H   H190      1.0  0.02271  0.42090  0.40051  1.0000
  H   H191      1.0  0.33261  0.26007  0.49341  1.0000
  H   H192      1.0  0.10482  0.02737  0.56973  1.0000
  C   C237      1.0  0.10078  0.21837  0.52297  1.0000
  C   C238      1.0  0.10784  0.24732  0.50080  1.0000
  C   C239      1.0  0.12809  0.28151  0.50752  1.0000
  C   C240      1.0  0.14138  0.28707  0.53662  1.0000
  C   C241      1.0  0.13467  0.25815  0.55858  1.0000
  C   C242      1.0  0.11471  0.22401  0.55172  1.0000
  H   H193      1.0  0.09716  0.24322  0.47850  1.0000
  H   H194      1.0  0.13279  0.30346  0.49059  1.0000
  H   H195      1.0  0.14492  0.26222  0.58111  1.0000
  H   H196      1.0  0.10997  0.20208  0.56870  1.0000
  C   C243      1.0  0.02065  0.16516  0.59813  1.0000
  C   C244      1.0  0.33187  0.41679  0.34072  1.0000
  C   C245      1.0  0.39576  0.27778  0.32739  1.0000
  H   H197      1.0  0.13949  0.27128  0.40032  1.0000
  H   H198      1.0  0.43818  0.43599  0.60909  1.0000
  Fe  Fe21      1.0  0.98544  0.04901  0.54223  1.0000
  H   H199      1.0  0.32359  0.14023  0.38488  1.0000
  H   H200      1.0  0.36825  0.40498  0.33291  1.0000
  C   C246      1.0  0.04158  0.16681  0.62077  1.0000
  H   H201      1.0  0.38152  0.13621  0.46335  1.0000
  C   C247      1.0  0.42813  0.04543  0.34123  1.0000
  C   C248      1.0  0.17296  0.16868  0.33677  1.0000
  C   C249      1.0  0.11035  0.00562  0.49776  1.0000
  C   C250      1.0  0.40119  0.08578  0.32614  1.0000
  C   C251      1.0  0.41589  0.08667  0.35424  1.0000
  C   C252      1.0  0.42894  0.06682  0.36172  1.0000
  H   H202      1.0  0.33232  0.39106  0.48756  1.0000
  H   H203      1.0  0.03192  0.18159  0.57454  1.0000
  H   H204      1.0  0.41777  0.10351  0.37025  1.0000
  H   H205      1.0  0.44015  0.06838  0.38360  1.0000
  H   H206      1.0  0.18664  0.25572  0.34786  1.0000
  C   C253      1.0  0.13850  0.05864  0.34672  1.0000
  C   C254      1.0  0.17408  0.08308  0.34112  1.0000
  C   C255      1.0  0.99683  0.43923  0.42364  1.0000
  C   C256      1.0  0.34010  0.99148  0.51977  1.0000
  H   H207      1.0  0.34471  0.00031  0.35343  1.0000
  C   C257      1.0  0.35489  0.41133  0.47121  1.0000
  H   H208      1.0  0.06890  0.18476  0.61494  1.0000
  H   H209      1.0  0.23016  0.01649  0.56043  1.0000
  C   C258      1.0  0.32962  0.15287  0.40548  1.0000
  H   H210      1.0  0.35541  0.23138  0.42453  1.0000
  C   C259      1.0  0.20551  0.19787  0.33853  1.0000
  H   H211      1.0  0.40608  0.45538  0.58099  1.0000
  H   H212      1.0  0.33070  0.04358  0.42055  1.0000
  C   C260      1.0  0.25092  0.46274  0.33104  1.0000
  C   C261      1.0  0.42402  0.45329  0.56732  1.0000
  H   H213      1.0  0.17066  0.30246  0.34635  1.0000
  H   H214      1.0  0.31339  0.32077  0.34507  1.0000
  C   C262      1.0  0.03634  0.15726  0.34877  1.0000
  C   C263      1.0  0.29540  0.06491  0.35199  1.0000
  C   C264      1.0  0.41326  0.46590  0.43043  1.0000
  C   C265      1.0  0.14347  0.28896  0.34990  1.0000
  H   H215      1.0  0.40290  0.01869  0.45913  1.0000
  H   H216      1.0  0.36412  0.35227  0.37282  1.0000
  C   C266      1.0  0.42970  0.46259  0.53390  1.0000
  Fe  Fe22      1.0  0.19730  0.45404  0.51476  1.0000
  C   C267      1.0  0.18283  0.23144  0.34465  1.0000
  C   C268      1.0  0.01690  0.33037  0.32170  1.0000
  H   H217      1.0  0.21394  0.01347  0.38850  1.0000
  H   H218      1.0  0.18368  0.06745  0.58724  1.0000
  S   S40       1.0  0.31508  0.47539  0.48772  1.0000
  C   C269      1.0  0.12196  0.03046  0.33038  1.0000
  C   C270      1.0  0.35200  0.42713  0.44254  1.0000
  H   H219      1.0  0.34042  0.98836  0.46977  1.0000
  H   H220      1.0  0.10325  0.00694  0.47402  1.0000
  H   H221      1.0  0.46596  0.15800  0.31740  1.0000
  H   H222      1.0  0.14159  0.47884  0.39838  1.0000
  H   H223      1.0  0.33933  0.09679  0.37452  1.0000
  H   H224      1.0  0.07441  0.24732  0.64090  1.0000
  C   C271      1.0  0.38115  0.45377  0.42183  1.0000
  H   H225      1.0  0.46023  0.38113  0.42282  1.0000
  C   C272      1.0  0.33955  0.18741  0.40155  1.0000
  H   H226      1.0  0.24737  0.03215  0.33507  1.0000
  S   S41       1.0  0.23955  0.11070  0.31580  1.0000
  C   C273      1.0  0.35267  0.06407  0.42968  1.0000
  S   S42       1.0  0.15963  0.40512  0.49634  1.0000
  H   H227      1.0  0.12372  0.06103  0.36443  1.0000
  C   C274      1.0  0.38117  0.06350  0.43022  1.0000
  C   C275      1.0  0.12596  0.47445  0.51784  1.0000
  C   C276      1.0  0.27596  0.03227  0.53175  1.0000
  C   C277      1.0  0.03084  0.30794  0.41724  1.0000
  H   H228      1.0  0.07577  0.34645  0.34233  1.0000
  P   P8        1.0  0.45790  0.46903  0.47242  1.0000
  Fe  Fe23      1.0  0.46262  0.42590  0.34334  1.0000
  C   C278      1.0  0.09073  0.25406  0.38627  1.0000
  C   C279      1.0  0.98137  0.25687  0.35717  1.0000
  H   H229      1.0  0.31824  0.04890  0.49757  1.0000
  H   H230      1.0  0.29949  0.43446  0.34173  1.0000
  S   S43       1.0  0.17721  0.42739  0.40573  1.0000
  C   C280      1.0  0.41709  0.33672  0.33653  1.0000
  C   C281      1.0  0.31862  0.43460  0.32748  1.0000
  H   H231      1.0  0.43118  0.08755  0.44408  1.0000
  Fe  Fe24      1.0  0.19905  0.42900  0.45266  1.0000
  C   C282      1.0  0.08641  0.09823  0.36848  1.0000
  C   C283      1.0  0.12895  0.00212  0.55869  1.0000
  C   C284      1.0  0.19432  0.07944  0.31979  1.0000
  H   H232      1.0  0.14059  0.35786  0.31985  1.0000
  H   H233      1.0  0.07719  0.24045  0.41021  1.0000
  C   C285      1.0  0.10598  0.09992  0.39287  1.0000
  C   C286      1.0  0.09145  0.07327  0.41998  1.0000
  C   C287      1.0  0.05736  0.04507  0.42315  1.0000
  C   C288      1.0  0.03778  0.04315  0.39901  1.0000
  C   C289      1.0  0.05217  0.06955  0.37178  1.0000
  C   C290      1.0  0.20104  0.44400  0.36711  1.0000
  S   S44       1.0  0.22402  0.40327  0.47158  1.0000
  H   H234      1.0  0.43156  0.40448  0.44650  1.0000
  P   P9        1.0  0.10391  0.13281  0.33367  1.0000
  H   H235      1.0  0.04599  0.24145  0.36532  1.0000
  H   H236      1.0  0.15992  0.43886  0.34383  1.0000
  H   H237      1.0  0.33348  0.13900  0.48552  1.0000
  C   C291      1.0  0.46597  0.44078  0.56552  1.0000
  H   H238      1.0  0.13240  0.12136  0.39105  1.0000
  H   H239      1.0  0.10647  0.07411  0.43863  1.0000
  H   H240      1.0  0.04623  0.02467  0.44432  1.0000
  H   H241      1.0  0.01142  0.02111  0.40129  1.0000
  H   H242      1.0  0.03648  0.06744  0.35327  1.0000
  H   H243      1.0  0.35122  0.20018  0.47831  1.0000
  C   C292      1.0  0.26006  0.04257  0.35547  1.0000
  H   H244      1.0  0.38861  0.40984  0.50164  1.0000
  C   C293      1.0  0.45874  0.41836  0.44584  1.0000
  S   S45       1.0  0.46949  0.46466  0.37360  1.0000
  H   H245      1.0  0.31008  0.07086  0.32919  1.0000
  H   H246      1.0  0.25363  0.08075  0.46856  1.0000
  H   H247      1.0  0.16963  0.14467  0.33309  1.0000
  H   H248      1.0  0.43113  0.13395  0.46531  1.0000
  Fe  Fe25      1.0  0.45969  0.98696  0.33332  1.0000
  H   H249      1.0  0.34124  0.20087  0.37804  1.0000
  H   H250      1.0  0.12474  0.45470  0.50639  1.0000
  C   C294      1.0  0.38696  0.42250  0.47935  1.0000
  H   H251      1.0  0.24234  0.03803  0.43455  1.0000
  C   C295      1.0  0.18528  0.44531  0.34030  1.0000
  C   C296      1.0  0.34506  0.18691  0.45800  1.0000
  C   C297      1.0  0.14292  0.21194  0.44070  1.0000
  C   C298      1.0  0.15173  0.19117  0.42971  1.0000
  C   C299      1.0  0.18589  0.20454  0.42228  1.0000
  C   C300      1.0  0.21126  0.23928  0.42433  1.0000
  C   C301      1.0  0.20252  0.26110  0.43332  1.0000
  C   C302      1.0  0.16818  0.24664  0.44273  1.0000
  P   P10       1.0  0.23463  0.30695  0.43378  1.0000
  C   C303      1.0  0.22069  0.33169  0.41274  1.0000
  C   C304      1.0  0.23687  0.31464  0.47448  1.0000
  C   C305      1.0  0.25331  0.34905  0.48005  1.0000
  C   C306      1.0  0.25356  0.35538  0.51132  1.0000
  C   C307      1.0  0.23713  0.32741  0.53723  1.0000
  C   C308      1.0  0.22096  0.29312  0.53194  1.0000
  C   C309      1.0  0.22091  0.28667  0.50069  1.0000
  C   C310      1.0  0.23442  0.34975  0.38094  1.0000
  C   C311      1.0  0.22188  0.36713  0.36490  1.0000
  C   C312      1.0  0.19543  0.36637  0.38023  1.0000
  C   C313      1.0  0.18257  0.34978  0.41214  1.0000
  C   C314      1.0  0.19528  0.33276  0.42842  1.0000
  C   C315      1.0  0.27572  0.32085  0.41474  1.0000
  C   C316      1.0  0.27907  0.31437  0.38393  1.0000
  C   C317      1.0  0.31078  0.32551  0.36895  1.0000
  C   C318      1.0  0.33944  0.34326  0.38456  1.0000
  C   C319      1.0  0.33640  0.34973  0.41521  1.0000
  C   C320      1.0  0.30466  0.33828  0.43040  1.0000
  H   H252      1.0  0.11648  0.20091  0.44831  1.0000
  H   H253      1.0  0.13204  0.16429  0.42809  1.0000
  H   H254      1.0  0.19259  0.18783  0.41499  1.0000
  H   H255      1.0  0.23748  0.24882  0.41897  1.0000
  H   H256      1.0  0.16072  0.26188  0.45204  1.0000
  H   H257      1.0  0.26520  0.37099  0.46021  1.0000
  H   H258      1.0  0.26545  0.38194  0.51545  1.0000
  H   H259      1.0  0.23603  0.33230  0.56135  1.0000
  H   H260      1.0  0.20754  0.27149  0.55209  1.0000
  H   H261      1.0  0.20767  0.25987  0.49717  1.0000
  H   H262      1.0  0.25497  0.35110  0.36834  1.0000
  H   H263      1.0  0.23284  0.38162  0.34066  1.0000
  H   H264      1.0  0.18545  0.37941  0.36761  1.0000
  H   H265      1.0  0.16329  0.35089  0.42447  1.0000
  H   H266      1.0  0.18545  0.32082  0.45344  1.0000
  H   H267      1.0  0.25715  0.30101  0.37142  1.0000
  H   H268      1.0  0.02910  0.16650  0.36722  1.0000
  H   H269      1.0  0.35881  0.36388  0.42708  1.0000
  H   H270      1.0  0.30298  0.34326  0.45426  1.0000
  C   C321      1.0  0.24126  0.03244  0.38552  1.0000
  Fe  Fe26      1.0  0.25777  0.45133  0.49342  1.0000
  C   C322      1.0  0.05809  0.32099  0.43509  1.0000
  S   S46       1.0  0.38677  0.11370  0.31877  1.0000
  H   H271      1.0  0.12345  0.36980  0.37422  1.0000
  C   C323      1.0  0.40501  0.30180  0.34836  1.0000
  S   S47       1.0  0.33659  0.15742  0.31603  1.0000
  C   C324      1.0  0.12806  0.99047  0.50492  1.0000
  H   H272      1.0  0.22687  0.19609  0.33634  1.0000
  C   C325      1.0  0.29314  0.07033  0.40801  1.0000
  C   C326      1.0  0.15021  0.20230  0.34252  1.0000
  C   C327      1.0  0.40950  0.08877  0.44291  1.0000
  C   C328      1.0  0.41646  0.45095  0.45970  1.0000
  H   H273      1.0  0.11642  0.46884  0.34598  1.0000
  C   C329      1.0  0.33506  0.15230  0.46198  1.0000
  C   C330      1.0  0.23896  0.04880  0.51516  1.0000
  S   S48       1.0  0.43076  0.36699  0.36309  1.0000
  C   C331      1.0  0.31189  0.07900  0.37798  1.0000
  C   C332      1.0  0.40943  0.11489  0.45483  1.0000
  C   C333      1.0  0.14498  0.17053  0.33887  1.0000
  H   H274      1.0  0.46152  0.26040  0.61251  1.0000
  C   C334      1.0  0.35718  0.41788  0.32250  1.0000
  C   C335      1.0  0.26547  0.11396  0.55157  1.0000
  C   C336      1.0  0.23705  0.09145  0.57475  1.0000
  C   C337      1.0  0.20599  0.08572  0.56973  1.0000
  C   C338      1.0  0.20336  0.10282  0.54177  1.0000
  C   C339      1.0  0.23200  0.12612  0.51867  1.0000
  C   C340      1.0  0.26280  0.13076  0.52338  1.0000
  P   P11       1.0  0.22806  0.14630  0.48159  1.0000
  C   C341      1.0  0.19333  0.14985  0.48996  1.0000
  C   C342      1.0  0.26442  0.19109  0.46753  1.0000
  C   C343      1.0  0.26812  0.20796  0.43624  1.0000
  C   C344      1.0  0.29563  0.24278  0.42524  1.0000
  C   C345      1.0  0.31905  0.26143  0.44573  1.0000
  C   C346      1.0  0.31482  0.24535  0.47732  1.0000
  C   C347      1.0  0.28750  0.21041  0.48828  1.0000
  C   C348      1.0  0.19751  0.17385  0.50906  1.0000
  C   C349      1.0  0.17072  0.17620  0.51718  1.0000
  C   C350      1.0  0.13944  0.15430  0.50668  1.0000
  C   C351      1.0  0.13494  0.13023  0.48788  1.0000
  C   C352      1.0  0.16185  0.12828  0.47913  1.0000
  C   C353      1.0  0.22057  0.11788  0.45327  1.0000
  C   C354      1.0  0.19186  0.08293  0.45951  1.0000
  C   C355      1.0  0.18483  0.06136  0.43695  1.0000
  C   C356      1.0  0.20695  0.07409  0.40856  1.0000
  C   C357      1.0  0.23688  0.10785  0.40329  1.0000
  C   C358      1.0  0.24390  0.12959  0.42566  1.0000
  H   H275      1.0  0.28921  0.11736  0.55503  1.0000
  C   C359      1.0  0.09141  0.34324  0.41953  1.0000
  H   H276      1.0  0.17874  0.09719  0.53811  1.0000
  H   H277      1.0  0.28457  0.14695  0.50510  1.0000
  H   H278      1.0  0.24979  0.19409  0.42024  1.0000
  H   H279      1.0  0.29885  0.25535  0.40081  1.0000
  H   H280      1.0  0.28420  0.19887  0.51309  1.0000
  H   H281      1.0  0.22129  0.19034  0.51822  1.0000
  H   H282      1.0  0.17382  0.19442  0.53220  1.0000
  H   H283      1.0  0.11853  0.15570  0.51336  1.0000
  H   H284      1.0  0.11034  0.11277  0.48037  1.0000
  H   H285      1.0  0.15746  0.10949  0.46446  1.0000
  H   H286      1.0  0.17456  0.07241  0.48159  1.0000
  H   H287      1.0  0.16212  0.03476  0.44129  1.0000
  H   H288      1.0  0.20106  0.05771  0.39066  1.0000
  H   H289      1.0  0.25450  0.11708  0.38163  1.0000
  H   H290      1.0  0.26764  0.15521  0.42121  1.0000
  C   C360      1.0  0.24698  0.03145  0.53810  1.0000
  C   C361      1.0  0.25766  0.04630  0.41172  1.0000
  H   H291      1.0  0.34039  0.28842  0.43717  1.0000
  C   C362      1.0  0.29671  0.04994  0.50225  1.0000
  C   C363      1.0  0.28889  0.06763  0.47913  1.0000
  C   C364      1.0  0.26019  0.06744  0.48607  1.0000
  P   P12       1.0  0.31515  0.09055  0.44082  1.0000
  C   C365      1.0  0.32750  0.13507  0.43566  1.0000
  C   C366      1.0  0.35258  0.09064  0.44098  1.0000
  C   C367      1.0  0.38114  0.11597  0.45375  1.0000
  C   C368      1.0  0.23414  0.45320  0.36238  1.0000
  P   P13       1.0  0.00153  0.30226  0.36072  1.0000
  C   C369      1.0  0.05513  0.46005  0.42787  1.0000
  H   H292      1.0  0.18615  0.10440  0.35426  1.0000
  S   S49       1.0  0.07767  0.99636  0.34230  1.0000
  C   C370      1.0  0.07198  0.14091  0.32818  1.0000
  H   H293      1.0  0.23581  0.25190  0.34343  1.0000
  C   C371      1.0  0.10016  0.47989  0.51593  1.0000
  H   H294      1.0  0.34888  0.99883  0.56843  1.0000
  H   H295      1.0  0.08763  0.06533  0.32019  1.0000
  H   H296      1.0  0.13594  0.00067  0.58247  1.0000
  H   H297      1.0  0.29539  0.99626  0.34356  1.0000
  H   H298      1.0  0.37897  0.46585  0.39942  1.0000
  H   H299      1.0  0.12950  0.20500  0.34314  1.0000
  H   H300      1.0  0.44383  0.99405  0.46395  1.0000
  H   H301      1.0  0.99679  0.14922  0.32073  1.0000
  H   H302      1.0  0.01416  0.37067  0.33766  1.0000
  C   C372      1.0  0.98071  0.33290  0.39834  1.0000
  C   C373      1.0  0.13753  0.98864  0.53548  1.0000
  C   C374      1.0  0.47492  0.40500  0.43247  1.0000
  C   C375      1.0  0.26839  0.98202  0.34299  1.0000
  H   H303      1.0  0.27658  0.46999  0.32754  1.0000
  H   H304      1.0  0.99790  0.24329  0.39979  1.0000
  C   C376      1.0  0.98377  0.23412  0.37990  1.0000
  C   C377      1.0  0.25630  0.98236  0.31346  1.0000
  H   H305      1.0  0.07247  0.46831  0.62968  1.0000
  H   H306      1.0  0.17027  0.47696  0.44493  1.0000
  C   C378      1.0  0.41328  0.04410  0.31289  1.0000
  C   C379      1.0  0.98531  0.14180  0.60560  1.0000
  S   S50       1.0  0.06206  0.47532  0.33579  1.0000
  H   H307      1.0  0.41545  0.47113  0.52219  1.0000
  C   C380      1.0  0.47791  0.45020  0.45687  1.0000
  S   S51       1.0  0.37114  0.23231  0.90812  1.0000
  S   S52       1.0  0.40467  0.33156  0.90154  1.0000
  C   C381      1.0  0.44560  0.12748  0.91801  1.0000
  Fe  Fe27      1.0  0.09526  0.11084  0.89135  1.0000
  S   S53       1.0  0.08547  0.06976  0.86294  1.0000
  S   S54       1.0  0.14729  0.15407  0.90457  1.0000
  Fe  Fe28      1.0  0.02016  0.08803  0.89269  1.0000
  H   H308      1.0  0.05011  0.41410  0.66941  1.0000
  H   H309      1.0  0.03067  0.40953  0.72555  1.0000
  Fe  Fe29      1.0  0.03582  0.03305  0.89605  1.0000
  H   H310      1.0  0.33676  0.30584  0.94064  1.0000
  Fe  Fe30      1.0  0.05638  0.08502  0.83346  1.0000
  S   S55       1.0  0.07093  0.10404  0.77904  1.0000
  S   S56       1.0  0.04733  0.07359  0.92598  1.0000
  S   S57       1.0  0.06861  0.12823  0.86021  1.0000
  C   C382      1.0  0.02598  0.05927  0.68900  1.0000
  C   C383      1.0  0.05538  0.09324  0.68638  1.0000
  C   C384      1.0  0.06854  0.10651  0.71425  1.0000
  C   C385      1.0  0.05265  0.08598  0.74499  1.0000
  C   C386      1.0  0.02311  0.05212  0.74760  1.0000
  C   C387      1.0  0.00984  0.03891  0.71974  1.0000
  H   H311      1.0  0.06815  0.10910  0.66292  1.0000
  H   H312      1.0  0.09146  0.13272  0.71199  1.0000
  H   H313      1.0  0.01055  0.03622  0.77105  1.0000
  H   H314      1.0  0.46285  0.45938  0.88020  1.0000
  C   C388      1.0  0.43307  0.37431  0.91001  1.0000
  H   H315      1.0  0.00388  0.14010  0.83402  1.0000
  S   S58       1.0  0.02240  0.98120  0.92481  1.0000
  H   H316      1.0  0.98144  0.10489  0.68181  1.0000
  C   C389      1.0  0.20993  0.12647  0.93612  1.0000
  C   C390      1.0  0.04061  0.46100  0.71796  1.0000
  H   H317      1.0  0.31177  0.11050  0.89870  1.0000
  H   H318      1.0  0.35863  0.35977  0.97272  1.0000
  C   C391      1.0  0.45446  0.38924  0.79935  1.0000
  H   H319      1.0  0.04103  0.01220  0.80717  1.0000
  H   H320      1.0  0.09469  0.02844  0.96742  1.0000
  C   C392      1.0  0.98939  0.18590  0.89138  1.0000
  H   H321      1.0  0.14061  0.18576  0.78402  1.0000
  C   C393      1.0  0.28767  0.06966  0.94069  1.0000
  H   H322      1.0  0.46921  0.24172  0.66692  1.0000
  H   H323      1.0  0.10701  0.24167  0.73268  1.0000
  C   C394      1.0  0.18276  0.15490  0.91728  1.0000
  C   C395      1.0  0.18147  0.12448  0.92567  1.0000
  C   C396      1.0  0.24043  0.15887  0.93784  1.0000
  C   C397      1.0  0.24180  0.18935  0.92929  1.0000
  C   C398      1.0  0.21312  0.18728  0.91940  1.0000
  C   C399      1.0  0.03378  0.26428  0.80484  1.0000
  S   S59       1.0  0.00595  0.04514  0.86436  1.0000
  H   H324      1.0  0.01433  0.20433  0.66525  1.0000
  Fe  Fe31      1.0  0.39206  0.28036  0.93068  1.0000
  H   H325      1.0  0.26486  0.21451  0.93046  1.0000
  C   C400      1.0  0.99742  0.12565  0.81453  1.0000
  P   P14       1.0  0.02757  0.45893  0.75914  1.0000
  H   H326      1.0  0.98349  0.05466  0.97062  1.0000
  H   H327      1.0  0.33554  0.29957  0.88427  1.0000
  C   C401      1.0  0.43210  0.35413  0.81424  1.0000
  C   C402      1.0  0.44413  0.33744  0.83242  1.0000
  C   C403      1.0  0.26076  0.29019  0.89808  1.0000
  H   H328      1.0  0.08108  0.16843  0.95403  1.0000
  C   C404      1.0  0.05104  0.43571  0.67672  1.0000
  C   C405      1.0  0.26135  0.29401  0.93022  1.0000
  C   C406      1.0  0.31494  0.29838  0.89697  1.0000
  C   C407      1.0  0.34406  0.12323  0.93576  1.0000
  H   H329      1.0  0.98889  0.36602  0.85417  1.0000
  S   S60       1.0  0.44229  0.21366  0.91083  1.0000
  C   C408      1.0  0.99047  0.19254  0.80417  1.0000
  C   C409      1.0  0.99979  0.24509  0.81833  1.0000
  C   C410      1.0  0.31561  0.30216  0.92911  1.0000
  C   C411      1.0  0.02730  0.14513  0.65088  1.0000
  C   C412      1.0  0.28886  0.30019  0.94593  1.0000
  H   H330      1.0  0.42419  0.39897  0.86911  1.0000
  H   H331      1.0  0.99025  0.25765  0.82988  1.0000
  H   H332      1.0  0.11965  0.22791  0.85746  1.0000
  C   C413      1.0  0.08746  0.47380  0.78045  1.0000
  H   H333      1.0  0.09208  0.17713  0.75844  1.0000
  H   H334      1.0  0.26446  0.05334  0.93062  1.0000
  H   H335      1.0  0.23916  0.28474  0.88626  1.0000
  C   C414      1.0  0.43485  0.14927  0.92186  1.0000
  C   C415      1.0  0.47850  0.35588  0.83596  1.0000
  H   H336      1.0  0.44761  0.35825  0.95221  1.0000
  C   C416      1.0  0.31429  0.10186  0.92267  1.0000
  S   S61       1.0  0.27534  0.15935  0.95172  1.0000
  H   H337      1.0  0.07041  0.21859  0.83281  1.0000
  H   H338      1.0  0.40520  0.33999  0.81252  1.0000
  C   C417      1.0  0.04623  0.24758  0.79122  1.0000
  C   C418      1.0  0.47612  0.14020  0.89871  1.0000
  C   C419      1.0  0.00173  0.41450  0.78105  1.0000
  Fe  Fe32      1.0  0.33196  0.20319  0.95224  1.0000
  C   C420      1.0  0.45445  0.18447  0.90657  1.0000
  C   C421      1.0  0.06379  0.46628  0.65434  1.0000
  H   H339      1.0  0.00027  0.17966  0.72335  1.0000
  H   H340      1.0  0.98707  0.01260  0.72202  1.0000
  H   H341      1.0  0.01755  0.13586  0.73414  1.0000
  C   C422      1.0  0.00686  0.40633  0.81235  1.0000
  C   C423      1.0  0.02486  0.21142  0.79144  1.0000
  C   C424      1.0  0.09425  0.24673  0.68544  1.0000
  C   C425      1.0  0.06827  0.23636  0.66633  1.0000
  H   H342      1.0  0.12047  0.26587  0.67482  1.0000
  C   C426      1.0  0.03443  0.21219  0.68008  1.0000
  H   H343      1.0  0.36470  0.14830  0.92181  1.0000
  C   C427      1.0  0.43770  0.40318  0.88973  1.0000
  H   H344      1.0  0.28682  0.28876  0.85674  1.0000
  H   H345      1.0  0.43887  0.46939  0.96783  1.0000
  H   H346      1.0  0.42655  0.31054  0.84478  1.0000
  C   C428      1.0  0.29073  0.05896  0.97191  1.0000
  C   C429      1.0  0.28753  0.29233  0.88147  1.0000
  C   C430      1.0  0.99207  0.12171  0.65841  1.0000
  H   H347      1.0  0.41144  0.13871  0.93679  1.0000
  C   C431      1.0  0.34708  0.11271  0.96706  1.0000
  H   H348      1.0  0.99313  0.47747  0.71273  1.0000
  C   C432      1.0  0.45084  0.38016  0.93647  1.0000
  H   H349      1.0  0.03914  0.17989  0.97087  1.0000
  H   H350      1.0  0.08063  0.44958  0.77346  1.0000
  S   S62       1.0  0.00830  0.04088  0.65487  1.0000
  C   C433      1.0  0.98357  0.44334  0.91762  1.0000
  H   H351      1.0  0.23999  0.29134  0.94305  1.0000
  C   C434      1.0  0.45961  0.43748  0.89596  1.0000
  C   C435      1.0  0.00480  0.12346  0.75837  1.0000
  C   C436      1.0  0.99606  0.16026  0.89381  1.0000
  C   C437      1.0  0.03975  0.43313  0.70850  1.0000
  H   H352      1.0  0.15481  0.21142  0.83342  1.0000
  C   C438      1.0  0.98163  0.08701  0.76531  1.0000
  H   H353      1.0  0.15845  0.09938  0.92426  1.0000
  H   H354      1.0  0.01993  0.16678  0.88267  1.0000
  Fe  Fe33      1.0  0.40473  0.22229  0.93607  1.0000
  H   H355      1.0  0.20838  0.10267  0.94268  1.0000
  H   H356      1.0  0.44443  0.40169  0.78582  1.0000
  C   C439      1.0  0.00094  0.47407  0.76281  1.0000
  H   H357      1.0  0.43005  0.10043  0.93012  1.0000
  C   C440      1.0  0.08649  0.23270  0.71826  1.0000
  C   C441      1.0  0.05259  0.20766  0.73210  1.0000
  C   C442      1.0  0.02659  0.19812  0.71289  1.0000
  P   P15       1.0  0.04185  0.19027  0.77465  1.0000
  C   C443      1.0  0.01216  0.14315  0.78285  1.0000
  C   C444      1.0  0.07867  0.19903  0.79260  1.0000
  C   C445      1.0  0.08638  0.21286  0.82096  1.0000
  C   C446      1.0  0.11427  0.21810  0.83516  1.0000
  C   C447      1.0  0.13420  0.20892  0.82156  1.0000
  C   C448      1.0  0.12627  0.19453  0.79371  1.0000
  C   C449      1.0  0.09859  0.18952  0.77934  1.0000
  H   H358      1.0  0.00832  0.21196  0.87816  1.0000
  H   H359      1.0  0.04356  0.14632  0.66837  1.0000
  H   H360      1.0  0.02663  0.42633  0.82385  1.0000
  H   H361      1.0  0.05054  0.29197  0.80541  1.0000
  H   H362      1.0  0.21452  0.21102  0.91318  1.0000
  S   S63       1.0  0.42832  0.27286  0.95517  1.0000
  H   H363      1.0  0.30341  0.41535  0.95771  1.0000
  C   C450      1.0  0.29497  0.36511  0.97071  1.0000
  H   H364      1.0  0.07270  0.26270  0.78105  1.0000
  H   H365      1.0  0.29972  0.36368  0.94605  1.0000
  H   H366      1.0  0.42354  0.99715  0.69586  1.0000
  C   C451      1.0  0.98547  0.37217  0.82972  1.0000
  C   C452      1.0  0.42997  0.98770  0.71703  1.0000
  S   S64       1.0  0.35082  0.25171  0.97283  1.0000
  C   C453      1.0  0.47271  0.41440  0.94269  1.0000
  H   H367      1.0  0.98595  0.41854  0.96277  1.0000
  C   C454      1.0  0.47723  0.44325  0.92255  1.0000
  C   C455      1.0  0.02488  0.98403  0.81537  1.0000
  H   H368      1.0  0.00148  0.47187  0.81404  1.0000
  H   H369      1.0  0.47769  0.07318  0.97016  1.0000
  C   C456      1.0  0.05969  0.14965  0.97225  1.0000
  H   H370      1.0  0.40194  0.99640  0.75016  1.0000
  H   H371      1.0  0.07345  0.43640  0.96719  1.0000
  C   C457      1.0  0.41804  0.98751  0.74757  1.0000
  H   H372      1.0  0.47918  0.05921  0.71524  1.0000
  C   C458      1.0  0.99216  0.47774  0.79315  1.0000
  H   H373      1.0  0.06656  0.98090  0.82366  1.0000
  H   H374      1.0  0.02459  0.37444  0.97409  1.0000
  H   H375      1.0  0.09392  0.51382  0.15046  1.0000
  Fe  Fe34      1.0  0.13475  0.72036  0.13077  1.0000
  S   S65       1.0  0.10390  0.68433  0.09699  1.0000
  S   S66       1.0  0.16986  0.77922  0.11263  1.0000
  Fe  Fe35      1.0  0.10915  0.65942  0.18421  1.0000
  S   S67       1.0  0.07515  0.61895  0.15506  1.0000
  S   S68       1.0  0.11119  0.63786  0.23320  1.0000
  Fe  Fe36      1.0  0.12097  0.65073  0.11785  1.0000
  S   S69       1.0  0.14032  0.62536  0.09026  1.0000
  Fe  Fe37      1.0  0.06085  0.65548  0.13817  1.0000
  S   S70       1.0  0.00931  0.64647  0.13292  1.0000
  S   S71       1.0  0.15532  0.68947  0.14767  1.0000
  S   S72       1.0  0.09150  0.69345  0.17074  1.0000
  S   S73       1.0  0.33029  0.63968  0.16307  1.0000
  C   C459      1.0  0.44053  0.60502  0.05418  1.0000
  H   H376      1.0  0.31085  0.86247  0.16235  1.0000
  S   S74       1.0  0.39671  0.74974  0.03239  1.0000
  C   C460      1.0  0.42748  0.49892  0.19342  1.0000
  C   C461      1.0  0.04764  0.86095  0.22646  1.0000
  C   C462      1.0  0.26450  0.66516  0.04027  1.0000
  C   C463      1.0  0.05526  0.97143  0.17672  1.0000
  C   C464      1.0  0.04402  0.67361  0.99232  1.0000
  Fe  Fe38      1.0  0.22888  0.95137  0.18452  1.0000
  C   C465      1.0  0.22803  0.75539  0.02554  1.0000
  C   C466      1.0  0.38426  0.64501  0.06453  1.0000
  H   H377      1.0  0.01411  0.72542  0.98117  1.0000
  S   S75       1.0  0.18888  0.89220  0.19287  1.0000
  H   H378      1.0  0.15484  0.82593  0.27461  1.0000
  S   S76       1.0  0.27468  0.53163  0.17870  1.0000
  C   C467      1.0  0.99234  0.69722  0.28532  1.0000
  Fe  Fe39      1.0  0.22577  0.51026  0.15672  1.0000
  S   S77       1.0  0.20227  0.53978  0.13886  1.0000
  Fe  Fe40      1.0  0.28533  0.50258  0.14794  1.0000
  S   S78       1.0  0.33584  0.51781  0.12125  1.0000
  H   H379      1.0  0.25941  0.84092  0.02530  1.0000
  P   P16       1.0  0.22144  0.72563  0.99913  1.0000
  H   H380      1.0  0.14321  0.50942  0.25274  1.0000
  C   C468      1.0  0.29437  0.85797  0.27160  1.0000
  H   H381      1.0  0.44702  0.87548  0.23728  1.0000
  H   H382      1.0  0.41640  0.58030  0.06315  1.0000
  H   H383      1.0  0.27513  0.65124  0.04924  1.0000
  H   H384      1.0  0.10578  0.54486  0.29237  1.0000
  C   C469      1.0  0.17837  0.54966  0.30285  1.0000
  H   H385      1.0  0.02232  0.57838  0.09895  1.0000
  H   H386      1.0  0.24330  0.81842  0.08397  1.0000
  H   H387      1.0  0.01159  0.53011  0.00156  1.0000
  H   H388      1.0  0.32838  0.51632  0.05289  1.0000
  H   H389      1.0  0.32036  0.55890  0.07223  1.0000
  H   H390      1.0  0.31415  0.87307  0.10332  1.0000
  C   C470      1.0  0.01560  0.65055  0.04696  1.0000
  H   H391      1.0  0.16569  0.50340  0.20292  1.0000
  S   S79       1.0  0.99571  0.49016  0.20832  1.0000
  C   C471      1.0  0.22537  0.76592  0.07970  1.0000
  C   C472      1.0  0.34713  0.67154  0.12756  1.0000
  C   C473      1.0  0.37398  0.70640  0.12687  1.0000
  C   C474      1.0  0.38864  0.73016  0.09753  1.0000
  C   C475      1.0  0.37612  0.71949  0.06881  1.0000
  C   C476      1.0  0.34843  0.68497  0.06965  1.0000
  C   C477      1.0  0.33422  0.66103  0.09889  1.0000
  H   H392      1.0  0.38401  0.71472  0.14876  1.0000
  H   H393      1.0  0.41015  0.75681  0.09694  1.0000
  H   H394      1.0  0.33874  0.67639  0.04765  1.0000
  H   H395      1.0  0.31342  0.63404  0.09925  1.0000
  C   C478      1.0  0.44796  0.58931  0.14001  1.0000
  C   C479      1.0  0.42371  0.59451  0.15121  1.0000
  C   C480      1.0  0.38926  0.57228  0.14675  1.0000
  C   C481      1.0  0.37833  0.54430  0.13079  1.0000
  C   C482      1.0  0.40231  0.53831  0.12033  1.0000
  C   C483      1.0  0.43684  0.56056  0.12497  1.0000
  H   H396      1.0  0.39699  0.66509  0.07902  1.0000
  H   H397      1.0  0.37132  0.57731  0.15513  1.0000
  H   H398      1.0  0.39428  0.51676  0.10796  1.0000
  H   H399      1.0  0.45495  0.55595  0.11626  1.0000
  C   C484      1.0  0.15600  0.60063  0.10594  1.0000
  C   C485      1.0  0.15694  0.59230  0.13876  1.0000
  C   C486      1.0  0.17053  0.57326  0.14918  1.0000
  C   C487      1.0  0.18372  0.56272  0.12691  1.0000
  C   C488      1.0  0.18240  0.57097  0.09430  1.0000
  C   C489      1.0  0.16809  0.58897  0.08409  1.0000
  H   H400      1.0  0.14750  0.60071  0.15614  1.0000
  H   H401      1.0  0.17144  0.56738  0.17447  1.0000
  H   H402      1.0  0.19277  0.56363  0.07673  1.0000
  H   H403      1.0  0.16705  0.59465  0.05886  1.0000
  C   C490      1.0  0.17660  0.81025  0.13627  1.0000
  C   C491      1.0  0.15749  0.80009  0.16622  1.0000
  C   C492      1.0  0.16241  0.82560  0.18366  1.0000
  C   C493      1.0  0.18652  0.86141  0.17146  1.0000
  C   C494      1.0  0.20652  0.87157  0.14205  1.0000
  C   C495      1.0  0.20141  0.84606  0.12443  1.0000
  H   H404      1.0  0.13850  0.77263  0.17568  1.0000
  H   H405      1.0  0.14718  0.81758  0.20659  1.0000
  H   H406      1.0  0.22513  0.89907  0.13253  1.0000
  H   H407      1.0  0.21641  0.85411  0.10134  1.0000
  C   C496      1.0  0.02884  0.53276  0.21132  1.0000
  C   C497      1.0  0.02084  0.55489  0.22062  1.0000
  C   C498      1.0  0.04573  0.58585  0.23057  1.0000
  C   C499      1.0  0.07860  0.59462  0.23157  1.0000
  C   C500      1.0  0.08660  0.57246  0.22235  1.0000
  C   C501      1.0  0.06164  0.54139  0.21247  1.0000
  H   H408      1.0  0.14271  0.48248  0.99560  1.0000
  H   H409      1.0  0.03979  0.60360  0.23636  1.0000
  H   H410      1.0  0.11232  0.57983  0.22181  1.0000
  H   H411      1.0  0.06766  0.52390  0.20618  1.0000
  H   H412      1.0  0.06593  0.86135  0.14803  1.0000
  C   C502      1.0  0.09170  0.48138  0.24197  1.0000
  C   C503      1.0  0.38613  0.56804  0.98563  1.0000
  C   C504      1.0  0.02662  0.81631  0.18181  1.0000
  H   H413      1.0  0.47872  0.65490  0.23021  1.0000
  C   C505      1.0  0.43934  0.50789  0.24760  1.0000
  C   C506      1.0  0.47908  0.75232  0.25111  1.0000
  C   C507      1.0  0.28148  0.70066  0.04142  1.0000
  H   H414      1.0  0.00670  0.81595  0.25953  1.0000
  S   S80       1.0  0.23854  0.48471  0.12303  1.0000
  H   H415      1.0  0.42614  0.82028  0.11375  1.0000
  C   C508      1.0  0.05819  0.56648  0.01929  1.0000
  H   H416      1.0  0.05128  0.58405  0.02299  1.0000
  C   C509      1.0  0.37127  0.51760  0.23280  1.0000
  C   C510      1.0  0.34036  0.51364  0.23131  1.0000
  C   C511      1.0  0.33932  0.54280  0.22868  1.0000
  C   C512      1.0  0.36913  0.57619  0.22674  1.0000
  C   C513      1.0  0.39998  0.58044  0.22802  1.0000
  C   C514      1.0  0.40116  0.55139  0.23119  1.0000
  C   C515      1.0  0.39238  0.65388  0.03121  1.0000
  C   C516      1.0  0.17694  0.69734  0.99447  1.0000
  C   C517      1.0  0.04803  0.71274  0.02643  1.0000
  H   H417      1.0  0.21820  0.75623  0.10530  1.0000
  C   C518      1.0  0.06873  0.52669  0.11740  1.0000
  H   H418      1.0  0.35979  0.97484  0.14091  1.0000
  H   H419      1.0  0.34350  0.48637  0.17935  1.0000
  H   H420      1.0  0.01817  0.79907  0.16441  1.0000
  C   C519      1.0  0.28168  0.58013  0.98803  1.0000
  H   H421      1.0  0.31533  0.53953  0.22846  1.0000
  H   H422      1.0  0.36838  0.59881  0.22449  1.0000
  H   H423      1.0  0.42296  0.60633  0.22688  1.0000
  H   H424      1.0  0.42555  0.55578  0.23234  1.0000
  H   H425      1.0  0.05402  0.75631  0.24731  1.0000
  H   H426      1.0  0.00010  0.62883  0.06667  1.0000
  C   C520      1.0  0.28576  0.90614  0.18495  1.0000
  C   C521      1.0  0.29863  0.89419  0.20814  1.0000
  C   C522      1.0  0.33402  0.91151  0.20642  1.0000
  P   P17       1.0  0.26984  0.85824  0.24053  1.0000
  C   C523      1.0  0.23984  0.86627  0.25515  1.0000
  C   C524      1.0  0.24722  0.81668  0.22698  1.0000
  C   C525      1.0  0.23681  0.78590  0.24828  1.0000
  C   C526      1.0  0.21822  0.75351  0.23839  1.0000
  C   C527      1.0  0.20980  0.75149  0.20727  1.0000
  C   C528      1.0  0.21958  0.78184  0.18608  1.0000
  C   C529      1.0  0.23788  0.81427  0.19595  1.0000
  C   C530      1.0  0.08984  0.57461  0.02577  1.0000
  C   C531      1.0  0.13968  0.48617  0.01980  1.0000
  S   S81       1.0  0.01105  0.51103  0.29106  1.0000
  C   C532      1.0  0.22791  0.90756  0.26666  1.0000
  C   C533      1.0  0.25114  0.90041  0.25803  1.0000
  H   H427      1.0  0.41145  0.68084  0.01994  1.0000
  C   C534      1.0  0.05102  0.74906  0.22388  1.0000
  H   H428      1.0  0.05729  0.73877  0.03033  1.0000
  H   H429      1.0  0.25875  0.89422  0.18642  1.0000
  H   H430      1.0  0.24259  0.78676  0.27268  1.0000
  H   H431      1.0  0.21001  0.72980  0.25492  1.0000
  H   H432      1.0  0.19524  0.72628  0.19978  1.0000
  H   H433      1.0  0.21251  0.78015  0.16209  1.0000
  H   H434      1.0  0.24431  0.83718  0.17932  1.0000
  H   H435      1.0  0.08849  0.80206  0.19928  1.0000
  H   H436      1.0  0.98909  0.61606  0.23509  1.0000
  C   C535      1.0  0.19326  0.88076  0.27273  1.0000
  C   C536      1.0  0.17194  0.82343  0.01636  1.0000
  H   H437      1.0  0.27787  0.92183  0.25272  1.0000
  H   H438      1.0  0.31090  0.83111  0.24791  1.0000
  H   H439      1.0  0.11017  0.68951  0.26859  1.0000
  C   C537      1.0  0.17982  0.94115  0.10292  1.0000
  C   C538      1.0  0.15938  0.90808  0.12248  1.0000
  C   C539      1.0  0.13590  0.90159  0.14765  1.0000
  C   C540      1.0  0.13179  0.92783  0.15259  1.0000
  H   H440      1.0  0.21203  0.96533  0.29018  1.0000
  P   P18       1.0  0.10015  0.91963  0.18348  1.0000
  C   C541      1.0  0.06532  0.87392  0.19523  1.0000
  C   C542      1.0  0.12194  0.93803  0.21687  1.0000
  H   H441      1.0  0.16885  0.86302  0.98898  1.0000
  P   P19       1.0  0.00397  0.68015  0.25579  1.0000
  C   C543      1.0  0.04464  0.51329  0.00270  1.0000
  C   C544      1.0  0.14147  0.93202  0.26766  1.0000
  C   C545      1.0  0.12542  0.91769  0.24143  1.0000
  C   C546      1.0  0.09888  0.55206  0.02084  1.0000
  C   C547      1.0  0.10845  0.65609  0.98467  1.0000
  C   C548      1.0  0.35865  0.61057  0.07910  1.0000
  H   H442      1.0  0.35180  0.60389  0.10497  1.0000
  H   H443      1.0  0.12825  0.49658  0.10745  1.0000
  C   C549      1.0  0.08092  0.94101  0.16804  1.0000
  C   C550      1.0  0.06775  0.95251  0.18892  1.0000
  H   H444      1.0  0.19176  0.84136  0.02935  1.0000
  H   H445      1.0  0.31700  0.48804  0.23237  1.0000
  H   H446      1.0  0.16795  0.97833  0.28905  1.0000
  C   C551      1.0  0.07929  0.94668  0.13502  1.0000
  H   H447      1.0  0.41172  0.86145  0.29862  1.0000
  C   C552      1.0  0.17706  0.96792  0.10875  1.0000
  H   H448      1.0  0.16236  0.88768  0.11878  1.0000
  H   H449      1.0  0.12159  0.87636  0.16347  1.0000
  H   H450      1.0  0.14461  0.91655  0.28635  1.0000
  H   H451      1.0  0.24830  0.59583  0.97807  1.0000
  H   H452      1.0  0.44904  0.76656  0.27379  1.0000
  C   C553      1.0  0.11935  0.77638  0.98405  1.0000
  H   H453      1.0  0.25349  0.51020  0.99610  1.0000
  H   H454      1.0  0.11629  0.89106  0.24005  1.0000
  H   H455      1.0  0.05466  0.87815  0.24373  1.0000
  C   C554      1.0  0.34090  0.58496  0.06032  1.0000
  Fe  Fe41      1.0  0.34609  0.68912  0.26904  1.0000
  C   C555      1.0  0.02758  0.68430  0.05133  1.0000
  C   C556      1.0  0.15968  0.48425  0.04185  1.0000
  H   H456      1.0  0.06791  0.94777  0.21456  1.0000
  C   C557      1.0  0.02822  0.71392  0.22069  1.0000
  S   S82       1.0  0.22346  0.57768  0.29155  1.0000
  H   H457      1.0  0.08214  0.64051  0.98055  1.0000
  C   C558      1.0  0.29718  0.75220  0.26433  1.0000
  C   C559      1.0  0.26600  0.72009  0.27524  1.0000
  C   C560      1.0  0.24699  0.69910  0.25340  1.0000
  C   C561      1.0  0.25903  0.71026  0.22061  1.0000
  C   C562      1.0  0.29058  0.74234  0.20943  1.0000
  C   C563      1.0  0.30948  0.76329  0.23158  1.0000
  P   P20       1.0  0.30795  0.75545  0.16744  1.0000
  C   C564      1.0  0.35129  0.76850  0.16403  1.0000
  C   C565      1.0  0.28335  0.71809  0.14819  1.0000
  C   C566      1.0  0.29059  0.69314  0.14958  1.0000
  C   C567      1.0  0.27070  0.66351  0.13581  1.0000
  C   C568      1.0  0.24390  0.65882  0.12022  1.0000
  C   C569      1.0  0.23576  0.68283  0.11957  1.0000
  C   C570      1.0  0.25518  0.71224  0.13381  1.0000
  C   C571      1.0  0.37484  0.79225  0.13717  1.0000
  C   C572      1.0  0.40830  0.80231  0.13477  1.0000
  C   C573      1.0  0.41850  0.78855  0.15899  1.0000
  C   C574      1.0  0.39523  0.76475  0.18569  1.0000
  C   C575      1.0  0.36175  0.75459  0.18808  1.0000
  C   C576      1.0  0.30759  0.79150  0.14756  1.0000
  C   C577      1.0  0.30770  0.81486  0.16496  1.0000
  C   C578      1.0  0.31006  0.84413  0.14895  1.0000
  C   C579      1.0  0.31198  0.85016  0.11560  1.0000
  C   C580      1.0  0.31167  0.82695  0.09812  1.0000
  C   C581      1.0  0.30944  0.79773  0.11398  1.0000
  H   H458      1.0  0.31255  0.76786  0.28134  1.0000
  S   S83       1.0  0.21609  0.97769  0.21654  1.0000
  H   H459      1.0  0.22316  0.67377  0.26185  1.0000
  H   H460      1.0  0.24397  0.69317  0.20432  1.0000
  H   H461      1.0  0.33435  0.78755  0.22368  1.0000
  H   H462      1.0  0.31117  0.69606  0.16169  1.0000
  H   H463      1.0  0.27576  0.64380  0.13752  1.0000
  H   H464      1.0  0.22922  0.63628  0.10899  1.0000
  H   H465      1.0  0.21400  0.67809  0.10846  1.0000
  H   H466      1.0  0.24792  0.73005  0.13393  1.0000
  H   H467      1.0  0.36757  0.80289  0.11780  1.0000
  H   H468      1.0  0.08850  0.93733  0.11846  1.0000
  C   C582      1.0  0.07068  0.77502  0.19676  1.0000
  H   H469      1.0  0.40282  0.75366  0.20446  1.0000
  H   H470      1.0  0.34402  0.73566  0.20866  1.0000
  H   H471      1.0  0.30645  0.81094  0.19075  1.0000
  Fe  Fe42      1.0  0.33187  0.64638  0.21523  1.0000
  H   H472      1.0  0.31363  0.83180  0.07219  1.0000
  H   H473      1.0  0.30997  0.78044  0.09993  1.0000
  H   H474      1.0  0.30538  0.71424  0.05117  1.0000
  H   H475      1.0  0.34522  0.90385  0.22411  1.0000
  H   H476      1.0  0.98567  0.97615  0.03270  1.0000
  C   C583      1.0  0.35593  0.94026  0.18206  1.0000
  S   S84       1.0  0.28056  0.97486  0.19926  1.0000
  S   S85       1.0  0.30927  0.59620  0.25039  1.0000
  C   C584      1.0  0.23397  0.64767  0.02734  1.0000
  C   C585      1.0  0.11724  0.66907  0.01316  1.0000
  H   H477      1.0  0.07762  0.71170  0.24840  1.0000
  C   C586      1.0  0.31240  0.84321  0.26835  1.0000
  C   C587      1.0  0.23954  0.80108  0.06762  1.0000
  C   C588      1.0  0.05497  0.97819  0.14376  1.0000
  C   C589      1.0  0.13873  0.49152  0.20795  1.0000
  C   C590      1.0  0.05393  0.85155  0.17271  1.0000
  C   C591      1.0  0.18178  0.84651  0.27066  1.0000
  H   H478      1.0  0.20823  0.71582  0.06853  1.0000
  P   P21       1.0  0.32613  0.56183  0.00137  1.0000
  S   S86       1.0  0.43133  0.94967  0.22992  1.0000
  S   S87       1.0  0.37709  0.67690  0.24078  1.0000
  H   H479      1.0  0.08389  0.78597  0.14545  1.0000
  C   C592      1.0  0.46299  0.60712  0.03086  1.0000
  H   H480      1.0  0.02739  0.49040  0.99251  1.0000
  H   H481      1.0  0.42951  0.81616  0.23064  1.0000
  H   H482      1.0  0.19867  0.94642  0.08404  1.0000
  Fe  Fe43      1.0  0.24479  0.48061  0.21456  1.0000
  H   H483      1.0  0.99523  0.54775  0.22084  1.0000
  C   C593      1.0  0.34283  0.95190  0.15917  1.0000
  Fe  Fe44      1.0  0.37904  0.73670  0.98421  1.0000
  C   C594      1.0  0.15554  0.48803  0.07342  1.0000
  C   C595      1.0  0.05647  0.70758  0.99679  1.0000
  S   S88       1.0  0.32409  0.64166  0.30789  1.0000
  C   C596      1.0  0.11608  0.49291  0.02901  1.0000
  H   H484      1.0  0.12384  0.55927  0.02521  1.0000
  H   H485      1.0  0.30060  0.95938  0.99699  1.0000
  C   C597      1.0  0.07302  0.50334  0.13639  1.0000
  H   H486      1.0  0.10760  0.59859  0.03436  1.0000
  H   H487      1.0  0.12279  0.73705  0.01237  1.0000
  C   C598      1.0  0.01266  0.63305  0.29238  1.0000
  P   P22       1.0  0.08865  0.49301  0.00134  1.0000
  C   C599      1.0  0.07606  0.52086  0.00987  1.0000
  Fe  Fe45      1.0  0.28173  0.61327  0.27735  1.0000
  H   H488      1.0  0.08197  0.48508  0.26325  1.0000
  H   H489      1.0  0.27162  0.95282  0.09605  1.0000
  C   C600      1.0  0.46822  0.48072  0.00717  1.0000
  C   C601      1.0  0.41599  0.49551  0.22547  1.0000
  C   C602      1.0  0.13286  0.76455  0.00667  1.0000
  C   C603      1.0  0.30266  0.50237  0.04699  1.0000
  C   C604      1.0  0.04207  0.51432  0.09903  1.0000
  S   S89       1.0  0.30218  0.66175  0.24052  1.0000
  H   H490      1.0  0.45664  0.58389  0.02205  1.0000
  C   C605      1.0  0.02892  0.66581  0.27212  1.0000
  C   C606      1.0  0.46565  0.87170  0.22796  1.0000
  C   C607      1.0  0.23724  0.70128  0.01639  1.0000
  S   S90       1.0  0.39394  0.61921  0.29324  1.0000
  C   C608      1.0  0.21957  0.74313  0.05880  1.0000
  Fe  Fe46      1.0  0.35301  0.62744  0.27801  1.0000
  H   H491      1.0  0.38382  0.81527  0.26547  1.0000
  H   H492      1.0  0.03895  0.53264  0.08450  1.0000
  C   C609      1.0  0.24269  0.79093  0.01360  1.0000
  S   S91       1.0  0.36605  0.74582  0.27216  1.0000
  H   H493      1.0  0.08579  0.55447  0.11740  1.0000
  H   H494      1.0  0.43160  0.61597  0.16358  1.0000
  H   H495      1.0  0.38114  0.63559  0.98655  1.0000
  C   C610      1.0  0.45724  0.74937  0.27592  1.0000
  C   C611      1.0  0.26796  0.71870  0.02950  1.0000
  C   C612      1.0  0.43958  0.56817  0.30861  1.0000
  H   H496      1.0  0.09282  0.49997  0.06897  1.0000
  H   H497      1.0  0.43139  0.50723  0.27194  1.0000
  H   H498      1.0  0.22137  0.62040  0.02575  1.0000
  C   C613      1.0  0.24829  0.81361  0.03461  1.0000
  H   H499      1.0  0.99894  0.89017  0.17446  1.0000
  C   C614      1.0  0.22017  0.66554  0.01563  1.0000
  C   C615      1.0  0.15489  0.96692  0.26910  1.0000
  S   S92       1.0  0.99914  0.94027  0.29848  1.0000
  H   H500      1.0  0.47069  0.51672  0.15920  1.0000
  H   H501      1.0  0.19677  0.65163  0.00528  1.0000
  C   C616      1.0  0.28159  0.96740  0.07175  1.0000
  H   H502      1.0  0.28188  0.74642  0.02988  1.0000
  C   C617      1.0  0.29376  0.51850  0.02344  1.0000
  C   C618      1.0  0.03568  0.53592  0.00760  1.0000
  C   C619      1.0  0.47348  0.52259  0.23804  1.0000
  C   C620      1.0  0.37506  0.62824  0.01241  1.0000
  H   H503      1.0  0.40807  0.68374  0.16723  1.0000
  C   C621      1.0  0.34929  0.59354  0.02679  1.0000
  C   C622      1.0  0.29799  0.97121  0.01602  1.0000
  C   C623      1.0  0.15134  0.68945  0.01819  1.0000
  H   H504      1.0  0.44425  0.79588  0.15672  1.0000
  H   H505      1.0  0.27062  0.56901  0.01294  1.0000
  H   H506      1.0  0.28526  0.88731  0.30041  1.0000
  H   H507      1.0  0.38322  0.95410  0.18149  1.0000
  H   H508      1.0  0.25691  0.71113  0.30066  1.0000
  C   C624      1.0  0.43346  0.69002  0.16555  1.0000
  C   C625      1.0  0.30780  0.93475  0.16050  1.0000
  H   H509      1.0  0.09761  0.66322  0.03145  1.0000
  C   C626      1.0  0.06797  0.76605  0.16637  1.0000
  C   C627      1.0  0.45417  0.70580  0.18891  1.0000
  H   H510      1.0  0.19543  0.81282  0.25922  1.0000
  H   H511      1.0  0.15746  0.69892  0.04052  1.0000
  H   H512      1.0  0.43210  0.63273  0.08488  1.0000
  C   C628      1.0  0.44493  0.68110  0.14063  1.0000
  H   H513      1.0  0.02108  0.68847  0.07412  1.0000
  C   C629      1.0  0.04523  0.73119  0.16303  1.0000
  H   H514      1.0  0.42843  0.66805  0.12314  1.0000
  Fe  Fe47      1.0  0.98854  0.97412  0.26761  1.0000
  C   C630      1.0  0.15896  0.78796  0.02276  1.0000
  Fe  Fe48      1.0  0.45478  0.95453  0.27503  1.0000
  C   C631      1.0  0.11151  0.49581  0.06097  1.0000
  H   H515      1.0  0.44452  0.71204  0.20807  1.0000
  C   C632      1.0  0.35378  0.55624  0.97769  1.0000
  H   H516      1.0  0.04334  0.72395  0.13957  1.0000
  C   C633      1.0  0.39176  0.81017  0.28774  1.0000
  H   H517      1.0  0.47207  0.80796  0.20895  1.0000
  C   C634      1.0  0.99665  0.55471  0.10252  1.0000
  C   C635      1.0  0.02352  0.64513  0.01733  1.0000
  C   C636      1.0  0.02542  0.70522  0.19005  1.0000
  H   H518      1.0  0.45405  0.62013  0.28938  1.0000
  H   H519      1.0  0.27537  0.92464  0.05219  1.0000
  H   H520      1.0  0.23683  0.93422  0.26763  1.0000
  C   C637      1.0  0.06646  0.64109  0.29520  1.0000
  H   H521      1.0  0.17539  0.88687  0.27812  1.0000
  C   C638      1.0  0.45583  0.83837  0.22428  1.0000
  C   C639      1.0  0.15351  0.96144  0.13378  1.0000
  C   C640      1.0  0.40765  0.83648  0.30650  1.0000
  C   C641      1.0  0.15732  0.55968  0.29233  1.0000
  H   H522      1.0  0.16858  0.58487  0.27701  1.0000
  C   C642      1.0  0.00988  0.80338  0.21321  1.0000
  C   C643      1.0  0.20495  0.83924  0.26181  1.0000
  C   C644      1.0  0.44922  0.63482  0.06609  1.0000
  H   H523      1.0  0.16864  0.77846  0.04077  1.0000
  H   H524      1.0  0.98233  0.57150  0.06075  1.0000
  C   C645      1.0  0.33383  0.84549  0.29066  1.0000
  C   C646      1.0  0.38633  0.77757  0.29731  1.0000
  H   H525      1.0  0.39542  0.58145  0.00564  1.0000
  C   C647      1.0  0.13669  0.97339  0.21791  1.0000
  C   C648      1.0  0.13124  0.49345  0.08300  1.0000
  C   C649      1.0  0.28388  0.95168  0.04708  1.0000
  C   C650      1.0  0.02026  0.82574  0.23547  1.0000
  C   C651      1.0  0.08303  0.67425  0.27597  1.0000
  C   C652      1.0  0.12610  0.49517  0.23602  1.0000
  C   C653      1.0  0.06437  0.68661  0.26435  1.0000
  C   C654      1.0  0.47694  0.68745  0.13931  1.0000
  H   H526      1.0  0.34845  0.83504  0.28752  1.0000
  H   H527      1.0  0.29793  0.94480  0.14341  1.0000
  H   H528      1.0  0.01354  0.61895  0.01340  1.0000
  C   C655      1.0  0.15891  0.83553  0.99373  1.0000
  H   H529      1.0  0.98041  0.72506  0.25046  1.0000
  H   H530      1.0  0.25015  0.80143  0.98822  1.0000
  C   C656      1.0  0.29807  0.87491  0.29761  1.0000
  C   C657      1.0  0.06665  0.96553  0.12293  1.0000
  H   H531      1.0  0.98824  0.77629  0.21997  1.0000
  C   C658      1.0  0.43313  0.59362  0.29957  1.0000
  H   H532      1.0  0.00842  0.67831  0.18689  1.0000
  H   H533      1.0  0.00373  0.53140  0.14575  1.0000
  C   C659      1.0  0.39996  0.58513  0.30352  1.0000
  C   C660      1.0  0.46170  0.51350  0.18401  1.0000
  C   C661      1.0  0.26065  0.49919  0.01528  1.0000
  H   H534      1.0  0.98532  0.61641  0.29840  1.0000
  C   C662      1.0  0.03127  0.62050  0.30341  1.0000
  C   C663      1.0  0.12158  0.53698  0.30111  1.0000
  C   C664      1.0  0.98617  0.52824  0.12893  1.0000
  H   H535      1.0  0.13361  0.62588  0.30342  1.0000
  H   H536      1.0  0.17134  0.48711  0.09050  1.0000
  H   H537      1.0  0.06661  0.97106  0.09734  1.0000
  H   H538      1.0  0.41033  0.49134  0.17551  1.0000
  H   H539      1.0  0.08080  0.63083  0.30254  1.0000
  C   C665      1.0  0.44494  0.72336  0.30318  1.0000
  H   H540      1.0  0.30049  0.55370  0.30880  1.0000
  C   C666      1.0  0.45451  0.70039  0.30565  1.0000
  C   C667      1.0  0.98212  0.71909  0.27551  1.0000
  C   C668      1.0  0.47571  0.70277  0.28057  1.0000
  H   H541      1.0  0.98258  0.91966  0.20670  1.0000
  H   H542      1.0  0.46522  0.57534  0.30528  1.0000
  C   C669      1.0  0.13262  0.81211  0.97768  1.0000
  H   H543      1.0  0.28063  0.80577  0.37739  1.0000
  H   H544      1.0  0.15955  0.65009  0.59103  1.0000
  C   C670      1.0  0.15183  0.66198  0.60597  1.0000
  H   H545      1.0  0.03724  0.68176  0.49131  1.0000
  H   H546      1.0  0.98450  0.69551  0.36589  1.0000
  H   H547      1.0  0.01594  0.71332  0.46176  1.0000
  Fe  Fe49      1.0  0.45590  0.91836  0.33701  1.0000
  S   S93       1.0  0.43639  0.86266  0.36030  1.0000
  S   S94       1.0  0.18189  0.92612  0.40662  1.0000
  H   H548      1.0  0.10736  0.90594  0.34412  1.0000
  H   H549      1.0  0.00310  0.58770  0.45829  1.0000
  Fe  Fe50      1.0  0.24556  0.94662  0.50681  1.0000
  Fe  Fe51      1.0  0.18087  0.94593  0.51789  1.0000
  C   C671      1.0  0.31964  0.87720  0.31982  1.0000
  H   H550      1.0  0.24978  0.56752  0.50415  1.0000
  H   H551      1.0  0.35499  0.86520  0.33297  1.0000
  H   H552      1.0  0.12676  0.73539  0.32435  1.0000
  H   H553      1.0  0.13430  0.98010  0.48685  1.0000
  C   C672      1.0  0.19892  0.94781  0.34157  1.0000
  H   H554      1.0  0.37620  0.87202  0.43937  1.0000
  C   C673      1.0  0.38033  0.65030  0.42320  1.0000
  S   S95       1.0  0.42140  0.93375  0.32176  1.0000
  Fe  Fe52      1.0  0.04517  0.57176  0.60647  1.0000
  H   H555      1.0  0.00722  0.63315  0.62547  1.0000
  Fe  Fe53      1.0  0.07195  0.62175  0.54228  1.0000
  S   S96       1.0  0.04148  0.57698  0.51616  1.0000
  S   S97       1.0  0.10687  0.67694  0.51199  1.0000
  C   C674      1.0  0.29423  0.87447  0.47856  1.0000
  S   S98       1.0  0.43365  0.52979  0.57801  1.0000
  Fe  Fe54      1.0  0.05718  0.54749  0.54739  1.0000
  S   S99       1.0  0.06830  0.51190  0.52627  1.0000
  S   S100      1.0  0.02804  0.60269  0.57966  1.0000
  S   S101      1.0  0.09121  0.59393  0.57029  1.0000
  H   H556      1.0  0.08186  0.50071  0.45578  1.0000
  H   H557      1.0  0.15986  0.81641  0.43491  1.0000
  H   H558      1.0  0.21657  0.79839  0.50725  1.0000
  Fe  Fe55      1.0  0.17450  0.87605  0.51891  1.0000
  H   H559      1.0  0.04546  0.93724  0.39974  1.0000
  S   S102      1.0  0.14221  0.82021  0.54784  1.0000
  C   C675      1.0  0.36951  0.89707  0.49550  1.0000
  C   C676      1.0  0.07415  0.78818  0.49624  1.0000
  C   C677      1.0  0.33232  0.92580  0.41753  1.0000
  C   C678      1.0  0.33978  0.64622  0.38874  1.0000
  S   S103      1.0  0.15042  0.89983  0.49352  1.0000
  S   S104      1.0  0.21926  0.90073  0.48067  1.0000
  C   C679      1.0  0.17086  0.50003  0.43664  1.0000
  C   C680      1.0  0.36666  0.49325  0.56625  1.0000
  H   H560      1.0  0.32672  0.79712  0.37770  1.0000
  C   C681      1.0  0.40100  0.51628  0.55251  1.0000
  C   C682      1.0  0.40812  0.52788  0.51927  1.0000
  C   C683      1.0  0.38161  0.51519  0.50000  1.0000
  H   H561      1.0  0.35619  0.49703  0.41946  1.0000
  C   C684      1.0  0.05792  0.82421  0.32631  1.0000
  H   H562      1.0  0.43401  0.54718  0.50844  1.0000
  H   H563      1.0  0.38778  0.52401  0.47431  1.0000
  C   C685      1.0  0.10111  0.50546  0.53060  1.0000
  H   H564      1.0  0.37141  0.97052  0.34171  1.0000
  C   C686      1.0  0.30213  0.84364  0.40865  1.0000
  H   H565      1.0  0.25617  0.89904  0.38104  1.0000
  C   C687      1.0  0.15386  0.51965  0.54973  1.0000
  C   C688      1.0  0.12816  0.52526  0.54764  1.0000
  C   C689      1.0  0.17746  0.85931  0.35788  1.0000
  C   C690      1.0  0.20959  0.85684  0.41060  1.0000
  H   H566      1.0  0.17453  0.53505  0.56309  1.0000
  H   H567      1.0  0.12928  0.54485  0.55930  1.0000
  C   C691      1.0  0.11678  0.71656  0.52264  1.0000
  C   C692      1.0  0.10144  0.71695  0.55095  1.0000
  C   C693      1.0  0.10984  0.74896  0.55841  1.0000
  C   C694      1.0  0.13341  0.78089  0.53756  1.0000
  C   C695      1.0  0.14867  0.78052  0.50917  1.0000
  C   C696      1.0  0.14041  0.74851  0.50179  1.0000
  H   H568      1.0  0.08311  0.69260  0.56709  1.0000
  H   H569      1.0  0.09781  0.74895  0.58039  1.0000
  H   H570      1.0  0.16665  0.80489  0.49289  1.0000
  H   H571      1.0  0.15228  0.74848  0.47973  1.0000
  C   C697      1.0  0.41786  0.83037  0.33550  1.0000
  H   H572      1.0  0.03050  0.61280  0.40164  1.0000
  C   C698      1.0  0.21107  0.94781  0.37115  1.0000
  C   C699      1.0  0.23896  0.84554  0.52674  1.0000
  C   C700      1.0  0.39716  0.77161  0.32600  1.0000
  C   C701      1.0  0.41256  0.79779  0.34515  1.0000
  C   C702      1.0  0.31823  0.55287  0.48008  1.0000
  C   C703      1.0  0.26590  0.83956  0.48133  1.0000
  H   H573      1.0  0.39387  0.74702  0.33324  1.0000
  H   H574      1.0  0.42074  0.79299  0.36736  1.0000
  C   C704      1.0  0.41304  0.53399  0.32319  1.0000
  C   C705      1.0  0.16304  0.51649  0.32189  1.0000
  Fe  Fe56      1.0  0.99791  0.55598  0.55498  1.0000
  C   C706      1.0  0.29054  0.55264  0.33249  1.0000
  C   C707      1.0  0.30205  0.54136  0.51165  1.0000
  C   C708      1.0  0.38006  0.52576  0.32769  1.0000
  H   H575      1.0  0.03797  0.80930  0.31203  1.0000
  C   C709      1.0  0.41159  0.58353  0.38739  1.0000
  C   C710      1.0  0.09623  0.82739  0.36378  1.0000
  C   C711      1.0  0.03086  0.48546  0.45344  1.0000
  C   C712      1.0  0.42476  0.94859  0.50030  1.0000
  C   C713      1.0  0.39948  0.54857  0.39748  1.0000
  C   C714      1.0  0.00049  0.68500  0.46658  1.0000
  C   C715      1.0  0.14270  0.70640  0.61183  1.0000
  C   C716      1.0  0.17078  0.82655  0.62277  1.0000
  C   C717      1.0  0.09147  0.82259  0.44269  1.0000
  H   H576      1.0  0.26485  0.82303  0.46544  1.0000
  C   C718      1.0  0.99213  0.63085  0.49017  1.0000
  P   P23       1.0  0.33026  0.89380  0.44786  1.0000
  H   H577      1.0  0.39485  0.96528  0.43458  1.0000
  C   C719      1.0  0.39059  0.59441  0.39284  1.0000
  C   C720      1.0  0.35469  0.85717  0.42670  1.0000
  H   H578      1.0  0.31874  0.51562  0.42787  1.0000
  H   H579      1.0  0.31678  0.92102  0.49986  1.0000
  H   H580      1.0  0.26797  0.89572  0.54143  1.0000
  H   H581      1.0  0.12980  0.87817  0.37663  1.0000
  C   C721      1.0  0.39792  0.91365  0.51173  1.0000
  H   H582      1.0  0.22195  0.85652  0.43131  1.0000
  C   C722      1.0  0.22888  0.88068  0.38231  1.0000
  C   C723      1.0  0.27718  0.54637  0.52018  1.0000
  C   C724      1.0  0.26438  0.54668  0.39468  1.0000
  Fe  Fe57      1.0  0.46029  0.49063  0.33073  1.0000
  C   C725      1.0  0.35387  0.83377  0.40903  1.0000
  C   C726      1.0  0.32695  0.81486  0.39168  1.0000
  C   C727      1.0  0.47890  0.86095  0.43307  1.0000
  H   H583      1.0  0.16545  0.86121  0.33753  1.0000
  C   C728      1.0  0.39775  0.68671  0.41802  1.0000
  C   C729      1.0  0.17423  0.83424  0.41258  1.0000
  C   C730      1.0  0.09932  0.76657  0.37621  1.0000
  S   S105      1.0  0.98196  0.96890  0.35748  1.0000
  C   C731      1.0  0.08469  0.55491  0.36292  1.0000
  C   C732      1.0  0.10910  0.56150  0.38317  1.0000
  C   C733      1.0  0.14281  0.59080  0.37457  1.0000
  C   C734      1.0  0.15125  0.61479  0.34623  1.0000
  P   P24       1.0  0.17384  0.59852  0.40134  1.0000
  C   C735      1.0  0.17227  0.55971  0.41517  1.0000
  C   C736      1.0  0.21642  0.63039  0.38085  1.0000
  C   C737      1.0  0.22522  0.62714  0.35038  1.0000
  C   C738      1.0  0.25777  0.65177  0.33375  1.0000
  C   C739      1.0  0.28215  0.67946  0.34771  1.0000
  C   C740      1.0  0.27404  0.68218  0.37862  1.0000
  C   C741      1.0  0.24132  0.65762  0.39527  1.0000
  C   C742      1.0  0.18936  0.55881  0.44097  1.0000
  C   C743      1.0  0.15529  0.53079  0.39972  1.0000
  C   C744      1.0  0.16416  0.61323  0.43444  1.0000
  C   C745      1.0  0.17131  0.64685  0.43000  1.0000
  C   C746      1.0  0.16311  0.65816  0.45531  1.0000
  C   C747      1.0  0.14749  0.63588  0.48504  1.0000
  C   C748      1.0  0.13953  0.60213  0.48936  1.0000
  C   C749      1.0  0.14743  0.59061  0.46412  1.0000
  C   C750      1.0  0.06656  0.73588  0.38675  1.0000
  C   C751      1.0  0.36599  0.52425  0.41202  1.0000
  S   S106      1.0  0.22638  0.97536  0.47966  1.0000
  H   H584      1.0  0.10191  0.54331  0.40522  1.0000
  H   H585      1.0  0.47898  0.68273  0.58063  1.0000
  H   H586      1.0  0.37453  0.83082  0.40825  1.0000
  H   H587      1.0  0.05209  0.96711  0.44560  1.0000
  H   H588      1.0  0.29317  0.70324  0.38973  1.0000
  H   H589      1.0  0.23565  0.65979  0.41936  1.0000
  H   H590      1.0  0.20311  0.58100  0.45298  1.0000
  H   H591      1.0  0.14299  0.53131  0.37913  1.0000
  H   H592      1.0  0.18296  0.66416  0.40693  1.0000
  H   H593      1.0  0.16838  0.68399  0.45195  1.0000
  H   H594      1.0  0.14103  0.64453  0.50464  1.0000
  H   H595      1.0  0.12673  0.58464  0.51222  1.0000
  H   H596      1.0  0.13992  0.56389  0.46795  1.0000
  C   C752      1.0  0.98442  0.70257  0.34059  1.0000
  H   H597      1.0  0.28251  0.84809  0.40744  1.0000
  C   C753      1.0  0.26741  0.87991  0.52476  1.0000
  C   C754      1.0  0.35201  0.93613  0.38767  1.0000
  H   H598      1.0  0.21729  0.83468  0.54482  1.0000
  H   H599      1.0  0.17211  0.93516  0.34092  1.0000
  C   C755      1.0  0.31633  0.94205  0.42371  1.0000
  C   C756      1.0  0.29956  0.56430  0.38664  1.0000
  H   H600      1.0  0.20676  0.60557  0.33936  1.0000
  C   C757      1.0  0.32083  0.96888  0.40066  1.0000
  H   H601      1.0  0.09387  0.75169  0.44419  1.0000
  S   S107      1.0  0.20163  0.92001  0.54645  1.0000
  C   C758      1.0  0.10966  0.86280  0.36280  1.0000
  H   H602      1.0  0.27878  0.58880  0.44830  1.0000
  C   C759      1.0  0.23841  0.82526  0.50527  1.0000
  H   H603      1.0  0.09780  0.84617  0.42739  1.0000
  C   C760      1.0  0.98556  0.53532  0.45431  1.0000
  H   H604      1.0  0.30108  0.93489  0.44642  1.0000
  H   H605      1.0  0.06729  0.78492  0.52173  1.0000
  C   C761      1.0  0.00199  0.57101  0.44247  1.0000
  H   H606      1.0  0.16181  0.70233  0.56729  1.0000
  C   C762      1.0  0.25588  0.53660  0.34021  1.0000
  C   C763      1.0  0.24276  0.53335  0.37133  1.0000
  H   H607      1.0  0.00107  0.61706  0.50363  1.0000
  S   S108      1.0  0.01174  0.52356  0.58474  1.0000
  H   H608      1.0  0.36556  0.92492  0.38255  1.0000
  C   C764      1.0  0.36782  0.91535  0.46763  1.0000
  C   C765      1.0  0.42341  0.96675  0.47238  1.0000
  H   H609      1.0  0.34864  0.87015  0.50490  1.0000
  C   C766      1.0  0.32853  0.86192  0.42701  1.0000
  C   C767      1.0  0.09542  0.79857  0.43071  1.0000
  H   H610      1.0  0.42741  0.72047  0.32209  1.0000
  H   H611      1.0  0.21570  0.51988  0.37734  1.0000
  C   C768      1.0  0.39522  0.95026  0.45592  1.0000
  C   C769      1.0  0.01655  0.56338  0.39069  1.0000
  C   C770      1.0  0.99878  0.94492  0.45539  1.0000
  H   H612      1.0  0.41566  0.54009  0.39302  1.0000
  H   H613      1.0  0.40006  0.62125  0.38365  1.0000
  C   C771      1.0  0.02332  0.93262  0.41314  1.0000
  C   C772      1.0  0.08914  0.76957  0.45214  1.0000
  C   C773      1.0  0.30895  0.56864  0.45649  1.0000
  C   C774      1.0  0.31237  0.56714  0.35533  1.0000
  C   C775      1.0  0.18911  0.81243  0.62925  1.0000
  C   C776      1.0  0.01750  0.58509  0.41067  1.0000
  Fe  Fe58      1.0  0.19692  0.92759  0.45670  1.0000
  H   H614      1.0  0.22782  0.90097  0.33436  1.0000
  H   H615      1.0  0.17864  0.50804  0.32981  1.0000
  C   C777      1.0  0.15445  0.50101  0.41054  1.0000
  H   H616      1.0  0.44417  0.67952  0.32635  1.0000
  C   C778      1.0  0.29499  0.89427  0.50094  1.0000
  H   H617      1.0  0.38920  0.63795  0.43897  1.0000
  H   H618      1.0  0.18368  0.85347  0.61057  1.0000
  C   C779      1.0  0.18840  0.52896  0.45176  1.0000
  H   H619      1.0  0.07395  0.74230  0.50120  1.0000
  H   H620      1.0  0.32318  0.89118  0.33927  1.0000
  C   C780      1.0  0.34731  0.49175  0.51366  1.0000
  C   C781      1.0  0.30106  0.81978  0.39150  1.0000
  H   H621      1.0  0.35953  0.50013  0.34021  1.0000
  C   C782      1.0  0.07024  0.80819  0.34523  1.0000
  C   C783      1.0  0.02707  0.94960  0.43891  1.0000
  C   C784      1.0  0.35564  0.96223  0.36446  1.0000
  H   H622      1.0  0.26400  0.64915  0.31000  1.0000
  H   H623      1.0  0.05933  0.78091  0.34519  1.0000
  C   C785      1.0  0.99125  0.91089  0.40382  1.0000
  P   P25       1.0  0.11196  0.80690  0.38905  1.0000
  C   C786      1.0  0.12673  0.60825  0.32602  1.0000
  C   C787      1.0  0.00013  0.52769  0.40247  1.0000
  S   S109      1.0  0.41969  0.50133  0.33859  1.0000
  S   S110      1.0  0.18625  0.48840  0.53834  1.0000
  C   C788      1.0  0.09701  0.87862  0.34426  1.0000
  H   H624      1.0  0.25331  0.54272  0.41871  1.0000
  H   H625      1.0  0.30845  0.52797  0.52935  1.0000
  C   C789      1.0  0.07806  0.76422  0.48463  1.0000
  C   C790      1.0  0.21284  0.88169  0.35590  1.0000
  C   C791      1.0  0.15780  0.83551  0.38629  1.0000
  H   H626      1.0  0.05923  0.53108  0.36895  1.0000
  C   C792      1.0  0.12758  0.49415  0.33097  1.0000
  H   H627      1.0  0.14587  0.78978  0.34420  1.0000
  H   H628      1.0  0.23915  0.52619  0.32213  1.0000
  C   C793      1.0  0.98445  0.51339  0.43436  1.0000
  C   C794      1.0  0.99325  0.68888  0.31811  1.0000
  C   C795      1.0  0.26910  0.56372  0.49732  1.0000
  H   H629      1.0  0.03414  0.50469  0.46723  1.0000
  H   H630      1.0  0.07881  0.83650  0.48450  1.0000
  C   C796      1.0  0.22143  0.96490  0.31281  1.0000
  H   H631      1.0  0.39891  0.89966  0.53350  1.0000
  H   H632      1.0  0.43540  0.48749  0.41442  1.0000
  C   C797      1.0  0.15326  0.69147  0.59265  1.0000
  C   C798      1.0  0.01242  0.66736  0.48333  1.0000
  H   H633      1.0  0.04911  0.73582  0.40348  1.0000
  C   C799      1.0  0.10652  0.50430  0.32117  1.0000
  H   H634      1.0  0.07486  0.57249  0.31804  1.0000
  H   H635      1.0  0.26391  0.53653  0.54443  1.0000
  H   H636      1.0  0.33933  0.58044  0.34849  1.0000
  H   H637      1.0  0.14349  0.72889  0.60088  1.0000
  H   H638      1.0  0.20102  0.52800  0.47205  1.0000
  H   H639      1.0  0.00244  0.95925  0.47461  1.0000
  C   C800      1.0  0.12083  0.76629  0.35335  1.0000
  H   H640      1.0  0.00034  0.67154  0.32645  1.0000
  C   C801      1.0  0.28521  0.57523  0.46568  1.0000
  H   H641      1.0  0.06167  0.87190  0.31144  1.0000
  H   H642      1.0  0.17672  0.63827  0.33938  1.0000
  H   H643      1.0  0.45256  0.84929  0.42991  1.0000
  H   H644      1.0  0.30735  0.69853  0.33456  1.0000
  C   C802      1.0  0.35717  0.68259  0.38366  1.0000
  H   H645      1.0  0.42007  0.70234  0.42954  1.0000
  C   C803      1.0  0.07772  0.70493  0.35312  1.0000
  H   H646      1.0  0.31697  0.63087  0.37780  1.0000
  H   H647      1.0  0.02866  0.57406  0.36610  1.0000
  C   C804      1.0  0.37334  0.55066  0.31713  1.0000
  C   C805      1.0  0.08077  0.81730  0.47527  1.0000
  H   H648      1.0  0.33768  0.54903  0.47441  1.0000
  C   C806      1.0  0.35166  0.62992  0.40803  1.0000
  H   H649      1.0  0.39971  0.73107  0.39414  1.0000
  P   P26       1.0  0.32905  0.58303  0.41535  1.0000
  C   C807      1.0  0.34487  0.53495  0.41714  1.0000
  C   C808      1.0  0.38625  0.70288  0.39813  1.0000
  H   H650      1.0  0.03093  0.68137  0.38419  1.0000
  C   C809      1.0  0.35737  0.57031  0.40884  1.0000
  H   H651      1.0  0.43695  0.60196  0.37453  1.0000
  H   H652      1.0  0.34799  0.69497  0.36849  1.0000
  H   H653      1.0  0.06947  0.68111  0.34434  1.0000
  C   C810      1.0  0.11005  0.73553  0.34193  1.0000
  C   C811      1.0  0.33758  0.86261  0.31627  1.0000
  C   C812      1.0  0.34052  0.97900  0.37109  1.0000
  C   C813      1.0  0.07123  0.85940  0.32592  1.0000
  C   C814      1.0  0.05600  0.70510  0.37555  1.0000
  H   H654      1.0  0.12141  0.81648  0.62502  1.0000
  C   C815      1.0  0.13557  0.80564  0.63103  1.0000
  H   H655      1.0  0.99963  0.51119  0.38671  1.0000
  C   C816      1.0  0.09349  0.57824  0.33431  1.0000
  H   H656      1.0  0.44643  0.96186  0.51326  1.0000
  C   C817      1.0  0.15303  0.49428  0.53482  1.0000
  H   H657      1.0  0.98852  0.89882  0.38304  1.0000
  H   H658      1.0  0.21637  0.82862  0.62245  1.0000
  H   H659      1.0  0.98001  0.80920  0.39089  1.0000
  H   H660      1.0  0.46524  0.52793  0.49645  1.0000
  S   S111      1.0  0.29548  0.97036  0.52889  1.0000
  H   H661      1.0  0.01805  0.59415  0.31706  1.0000
  H   H662      1.0  0.47505  0.87632  0.47769  1.0000
  C   C818      1.0  0.24586  0.96477  0.37179  1.0000
  H   H663      1.0  0.25529  0.96518  0.39452  1.0000
  C   C819      1.0  0.13933  0.64707  0.63833  1.0000
  S   S112      1.0  0.16024  0.97020  0.54603  1.0000
  C   C820      1.0  0.34001  0.48123  0.54706  1.0000
  H   H664      1.0  0.36059  0.48444  0.59196  1.0000
  H   H665      1.0  0.06889  0.66509  0.62543  1.0000
  H   H666      1.0  0.34769  0.54333  0.32057  1.0000
  C   C821      1.0  0.05813  0.48347  0.44675  1.0000
  S   S113      1.0  0.35834  0.72748  0.89787  1.0000
  S   S114      1.0  0.41250  0.82995  0.88366  1.0000
  C   C822      1.0  0.39459  0.74854  0.82043  1.0000
  Fe  Fe59      1.0  0.08812  0.61243  0.87517  1.0000
  S   S115      1.0  0.06090  0.56485  0.85148  1.0000
  S   S116      1.0  0.14600  0.65302  0.86784  1.0000
  Fe  Fe60      1.0  0.02085  0.60076  0.90165  1.0000
  H   H667      1.0  0.21843  0.70312  0.85810  1.0000
  C   C823      1.0  0.10252  0.66611  0.76259  1.0000
  Fe  Fe61      1.0  0.02428  0.53781  0.89746  1.0000
  S   S117      1.0  0.41998  0.76063  0.94194  1.0000
  Fe  Fe62      1.0  0.02771  0.58225  0.83658  1.0000
  S   S118      1.0  0.00775  0.58464  0.78924  1.0000
  S   S119      1.0  0.05354  0.58463  0.92188  1.0000
  S   S120      1.0  0.05753  0.63187  0.85646  1.0000
  C   C824      1.0  0.04504  0.57490  0.69294  1.0000
  C   C825      1.0  0.01910  0.57966  0.69516  1.0000
  C   C826      1.0  0.00813  0.58298  0.72477  1.0000
  C   C827      1.0  0.02292  0.58145  0.75231  1.0000
  C   C828      1.0  0.04936  0.57751  0.74987  1.0000
  C   C829      1.0  0.06038  0.57429  0.72031  1.0000
  H   H668      1.0  0.00719  0.58025  0.67424  1.0000
  C   C830      1.0  0.15444  0.72454  0.75417  1.0000
  H   H669      1.0  0.06132  0.57709  0.77077  1.0000
  H   H670      1.0  0.20968  0.76332  0.94732  1.0000
  C   C831      1.0  0.43943  0.87327  0.89192  1.0000
  H   H671      1.0  0.04989  0.66898  0.96955  1.0000
  S   S121      1.0  0.26301  0.66875  0.94732  1.0000
  C   C832      1.0  0.47270  0.93692  0.87277  1.0000
  P   P27       1.0  0.03769  0.90719  0.84815  1.0000
  C   C833      1.0  0.06574  0.49447  0.66385  1.0000
  C   C834      1.0  0.17217  0.77728  0.64376  1.0000
  C   C835      1.0  0.32479  0.59747  0.94410  1.0000
  H   H672      1.0  0.44261  0.89778  0.84404  1.0000
  C   C836      1.0  0.42925  0.66621  0.90933  1.0000
  H   H673      1.0  0.06122  0.70340  0.70996  1.0000
  H   H674      1.0  0.04398  0.86483  0.90058  1.0000
  C   C837      1.0  0.24452  0.75009  0.95971  1.0000
  C   C838      1.0  0.43666  0.65060  0.88751  1.0000
  H   H675      1.0  0.46637  0.80855  0.88575  1.0000
  C   C839      1.0  0.07602  0.51688  0.78490  1.0000
  C   C840      1.0  0.17812  0.65622  0.88993  1.0000
  C   C841      1.0  0.17065  0.63222  0.91770  1.0000
  C   C842      1.0  0.23112  0.66482  0.92445  1.0000
  C   C843      1.0  0.23861  0.68852  0.89647  1.0000
  C   C844      1.0  0.21227  0.68437  0.87951  1.0000
  H   H676      1.0  0.26469  0.71013  0.88795  1.0000
  C   C845      1.0  0.19696  0.63678  0.93498  1.0000
  Fe  Fe63      1.0  0.38963  0.77746  0.91779  1.0000
  Fe  Fe64      1.0  0.38636  0.70927  0.92538  1.0000
  H   H677      1.0  0.09757  0.94916  0.73767  1.0000
  H   H678      1.0  0.39716  0.79466  0.82583  1.0000
  C   C846      1.0  0.06407  0.89574  0.93724  1.0000
  H   H679      1.0  0.47105  0.74810  0.96835  1.0000
  C   C847      1.0  0.34232  0.53851  0.95180  1.0000
  C   C848      1.0  0.14986  0.73012  0.72213  1.0000
  H   H680      1.0  0.09119  0.75474  0.65099  1.0000
  C   C849      1.0  0.13078  0.69253  0.77440  1.0000
  H   H681      1.0  0.19078  0.61843  0.95673  1.0000
  C   C850      1.0  0.46107  0.85324  0.73429  1.0000
  H   H682      1.0  0.47443  0.93280  0.67358  1.0000
  C   C851      1.0  0.10974  0.51154  0.96062  1.0000
  C   C852      1.0  0.98315  0.91153  0.83703  1.0000
  C   C853      1.0  0.46422  0.90530  0.74081  1.0000
  C   C854      1.0  0.27393  0.75310  0.94869  1.0000
  C   C855      1.0  0.29159  0.77214  0.91821  1.0000
  C   C856      1.0  0.27968  0.78777  0.89826  1.0000
  C   C857      1.0  0.25007  0.78442  0.90880  1.0000
  H   H683      1.0  0.15294  0.55857  0.87298  1.0000
  H   H684      1.0  0.15044  0.54103  0.81235  1.0000
  H   H685      1.0  0.07281  0.69871  0.86567  1.0000
  H   H686      1.0  0.36751  0.73269  0.81938  1.0000
  C   C858      1.0  0.44884  0.96581  0.77132  1.0000
  C   C859      1.0  0.46166  0.65623  0.94610  1.0000
  H   H687      1.0  0.06863  0.81802  0.88366  1.0000
  C   C860      1.0  0.42747  0.97656  0.77470  1.0000
  H   H688      1.0  0.46197  0.62612  0.87781  1.0000
  C   C861      1.0  0.44597  0.80357  0.82646  1.0000
  C   C862      1.0  0.98971  0.96567  0.81661  1.0000
  S   S122      1.0  0.05877  0.56858  0.65703  1.0000
  H   H689      1.0  0.46996  0.51887  0.80422  1.0000
  C   C863      1.0  0.41300  0.84747  0.76190  1.0000
  H   H690      1.0  0.99929  0.67044  0.70994  1.0000
  C   C864      1.0  0.45080  0.90220  0.86737  1.0000
  H   H691      1.0  0.06064  0.52658  0.78121  1.0000
  H   H692      1.0  0.13430  0.68809  0.79923  1.0000
  H   H693      1.0  0.31434  0.77436  0.90991  1.0000
  H   H694      1.0  0.29334  0.80227  0.87457  1.0000
  H   H695      1.0  0.18692  0.68864  0.94793  1.0000
  C   C865      1.0  0.12696  0.52536  0.80239  1.0000
  C   C866      1.0  0.00774  0.86043  0.85080  1.0000
  C   C867      1.0  0.39592  0.54618  0.94110  1.0000
  C   C868      1.0  0.44193  0.66893  0.93870  1.0000
  C   C869      1.0  0.04977  0.68834  0.69126  1.0000
  C   C870      1.0  0.01848  0.92979  0.83618  1.0000
  C   C871      1.0  0.98613  0.90980  0.94504  1.0000
  H   H696      1.0  0.10141  0.79857  0.90991  1.0000
  C   C872      1.0  0.36352  0.53390  0.93332  1.0000
  H   H697      1.0  0.44107  0.85775  0.94137  1.0000
  C   C873      1.0  0.41127  0.78341  0.82400  1.0000
  H   H698      1.0  0.39956  0.70647  0.81739  1.0000
  S   S123      1.0  0.34738  0.68414  0.96946  1.0000
  H   H699      1.0  0.04805  0.92507  0.77828  1.0000
  C   C874      1.0  0.12851  0.66178  0.65753  1.0000
  C   C875      1.0  0.13670  0.75597  0.65194  1.0000
  C   C876      1.0  0.16039  0.55412  0.92263  1.0000
  C   C877      1.0  0.14478  0.53792  0.95425  1.0000
  C   C878      1.0  0.41264  0.73379  0.81931  1.0000
  C   C879      1.0  0.16770  0.68332  0.96636  1.0000
  H   H700      1.0  0.17633  0.74503  0.76340  1.0000
  H   H701      1.0  0.09073  0.51252  0.88403  1.0000
  H   H702      1.0  0.46065  0.74170  0.82086  1.0000
  C   C880      1.0  0.45657  0.63803  0.89486  1.0000
  H   H703      1.0  0.18664  0.76650  0.64798  1.0000
  C   C881      1.0  0.47258  0.91421  0.92716  1.0000
  S   S124      1.0  0.35066  0.75662  0.96108  1.0000
  C   C882      1.0  0.46370  0.48381  0.73753  1.0000
  H   H704      1.0  0.06323  0.96707  0.88163  1.0000
  H   H705      1.0  0.18738  0.57477  0.91781  1.0000
  C   C883      1.0  0.02698  0.74648  0.96060  1.0000
  C   C884      1.0  0.07153  0.93055  0.78594  1.0000
  C   C885      1.0  0.07391  0.92427  0.81866  1.0000
  C   C886      1.0  0.08865  0.70918  0.88433  1.0000
  C   C887      1.0  0.11920  0.71234  0.88386  1.0000
  C   C888      1.0  0.13925  0.72542  0.90826  1.0000
  C   C889      1.0  0.12887  0.73554  0.93310  1.0000
  C   C890      1.0  0.09833  0.73275  0.93349  1.0000
  C   C891      1.0  0.07796  0.71877  0.90927  1.0000
  C   C892      1.0  0.98937  0.80627  0.83258  1.0000
  H   H706      1.0  0.16840  0.75516  0.70710  1.0000
  S   S125      1.0  0.99945  0.62015  0.93561  1.0000
  H   H707      1.0  0.35502  0.52113  0.91280  1.0000
  H   H708      1.0  0.11789  0.64907  0.68224  1.0000
  C   C893      1.0  0.13004  0.95151  0.77229  1.0000
  H   H709      1.0  0.12681  0.65261  0.93943  1.0000
  C   C894      1.0  0.46133  0.96637  0.74065  1.0000
  C   C895      1.0  0.09951  0.94414  0.76287  1.0000
  C   C896      1.0  0.10605  0.51912  0.90350  1.0000
  H   H710      1.0  0.99263  0.79260  0.81588  1.0000
  C   C897      1.0  0.44734  0.75382  0.82187  1.0000
  H   H711      1.0  0.31721  0.52878  0.94564  1.0000
  C   C898      1.0  0.06090  0.76160  0.94837  1.0000
  H   H712      1.0  0.15995  0.54675  0.97362  1.0000
  C   C899      1.0  0.28384  0.61092  0.93660  1.0000
  C   C900      1.0  0.02360  0.78332  0.91786  1.0000
  C   C901      1.0  0.05724  0.79846  0.90543  1.0000
  C   C902      1.0  0.07577  0.78751  0.92048  1.0000
  P   P28       1.0  0.11497  0.70998  0.66868  1.0000
  H   H713      1.0  0.12707  0.70406  0.86489  1.0000
  H   H714      1.0  0.16255  0.72707  0.90806  1.0000
  H   H715      1.0  0.14455  0.74511  0.95195  1.0000
  H   H716      1.0  0.05356  0.71487  0.90972  1.0000
  H   H717      1.0  0.08085  0.57119  0.71870  1.0000
  C   C903      1.0  0.10461  0.93159  0.82796  1.0000
  S   S126      1.0  0.40485  0.68255  0.89835  1.0000
  C   C904      1.0  0.23256  0.76569  0.93941  1.0000
  C   C905      1.0  0.12160  0.70354  0.71000  1.0000
  C   C906      1.0  0.06981  0.68693  0.66762  1.0000
  C   C907      1.0  0.05244  0.88953  0.90749  1.0000
  C   C908      1.0  0.47915  0.88970  0.72948  1.0000
  H   H718      1.0  0.03262  0.85678  0.80956  1.0000
  H   H719      1.0  0.38748  0.83110  0.77478  1.0000
  C   C909      1.0  0.14100  0.54498  0.89730  1.0000
  H   H720      1.0  0.00605  0.91606  0.95968  1.0000
  H   H721      1.0  0.41919  0.89524  0.76683  1.0000
  H   H722      1.0  0.43672  0.68101  0.95566  1.0000
  H   H723      1.0  0.28303  0.74033  0.96327  1.0000
  H   H724      1.0  0.08396  0.64140  0.77833  1.0000
  C   C910      1.0  0.46927  0.64077  0.92429  1.0000
  H   H725      1.0  0.24070  0.79629  0.89319  1.0000
  Fe  Fe65      1.0  0.32138  0.70560  0.94277  1.0000
  C   C911      1.0  0.99937  0.64999  0.66751  1.0000
  H   H726      1.0  0.41858  0.97680  0.79840  1.0000
  H   H727      1.0  0.14459  0.61046  0.92617  1.0000
  H   H728      1.0  0.27441  0.62317  0.92159  1.0000
  H   H729      1.0  0.42705  0.64833  0.86467  1.0000
  C   C912      1.0  0.45007  0.87957  0.92201  1.0000
  H   H730      1.0  0.45833  0.83049  0.82948  1.0000
  S   S127      1.0  0.00791  0.48568  0.92783  1.0000
  C   C913      1.0  0.11765  0.49388  0.79354  1.0000
  C   C914      1.0  0.01468  0.66980  0.69126  1.0000
  H   H731      1.0  0.34758  0.60049  0.93461  1.0000
  C   C915      1.0  0.46411  0.78866  0.82625  1.0000
  C   C916      1.0  0.07551  0.92756  0.94663  1.0000
  C   C917      1.0  0.09804  0.67146  0.73054  1.0000
  H   H732      1.0  0.05686  0.51435  0.70263  1.0000
  C   C918      1.0  0.43106  0.88393  0.75725  1.0000
  H   H733      1.0  0.41274  0.54327  0.92656  1.0000
  H   H734      1.0  0.07608  0.65053  0.72180  1.0000
  H   H735      1.0  0.98783  0.58633  0.72645  1.0000
  C   C919      1.0  0.45158  0.97727  0.71353  1.0000
  C   C920      1.0  0.13364  0.66288  0.96147  1.0000
  C   C921      1.0  0.47261  0.50439  0.78798  1.0000
  C   C922      1.0  0.05152  0.91489  0.88711  1.0000
  H   H736      1.0  0.47116  0.65858  0.96889  1.0000
  H   H737      1.0  0.15631  0.95114  0.81209  1.0000
  H   H738      1.0  0.44696  0.51420  0.75246  1.0000
  C   C923      1.0  0.05468  0.49204  0.69561  1.0000
  H   H739      1.0  0.00881  0.79098  0.90582  1.0000
  C   C924      1.0  0.42795  0.83213  0.75036  1.0000
  H   H740      1.0  0.06392  0.87575  0.95313  1.0000
  H   H741      1.0  0.12247  0.82195  0.96083  1.0000
  C   C925      1.0  0.10618  0.53688  0.79801  1.0000
  H   H742      1.0  0.11351  0.56148  0.80454  1.0000
  H   H743      1.0  0.15176  0.96224  0.75438  1.0000
  C   C926      1.0  0.31201  0.61247  0.92461  1.0000
  C   C927      1.0  0.09051  0.50244  0.93501  1.0000
  C   C928      1.0  0.00853  0.75741  0.94541  1.0000
  H   H744      1.0  0.98208  0.74495  0.95442  1.0000
  C   C929      1.0  0.01195  0.84272  0.82908  1.0000
  C   C930      1.0  0.13257  0.94522  0.80481  1.0000
  C   C931      1.0  0.07547  0.95320  0.92619  1.0000
  H   H745      1.0  0.47280  0.84134  0.72570  1.0000
  C   C932      1.0  0.98744  0.93710  0.92543  1.0000
  H   H746      1.0  0.41395  0.80387  0.75412  1.0000
  H   H747      1.0  0.32474  0.62639  0.90052  1.0000
  H   H748      1.0  0.45586  0.95744  0.79269  1.0000
  H   H749      1.0  0.08410  0.93229  0.96983  1.0000
  H   H750      1.0  0.07584  0.51834  0.64662  1.0000
  H   H751      1.0  0.10718  0.92710  0.85301  1.0000
  H   H752      1.0  0.13394  0.48512  0.79662  1.0000
  P   P29       1.0  0.08386  0.74492  0.96546  1.0000
  S   S128      1.0  0.98906  0.55173  0.88102  1.0000
  C   C933      1.0  0.03923  0.96617  0.82489  1.0000
  C   C934      1.0  0.06360  0.94697  0.89656  1.0000
  C   C935      1.0  0.40693  0.56272  0.96750  1.0000
  C   C936      1.0  0.45964  0.50177  0.75879  1.0000
  C   C937      1.0  0.98075  0.84109  0.87599  1.0000
  H   H753      1.0  0.98177  0.64388  0.87688  1.0000
  H   H754      1.0  0.45394  0.48216  0.71475  1.0000
  C   C938      1.0  0.06621  0.48495  0.77643  1.0000
  H   H755      1.0  0.08367  0.97769  0.93358  1.0000
  H   H756      1.0  0.43202  0.57216  0.97340  1.0000
  H   H757      1.0  0.06330  0.48308  0.93942  1.0000
  C   C939      1.0  0.26895  0.59519  0.96842  1.0000
  H   H758      1.0  0.46121  0.97874  0.68954  1.0000
  C   C940      1.0  0.98769  0.48090  0.73629  1.0000
  C   C941      1.0  0.30904  0.58020  0.97567  1.0000
  C   C942      1.0  0.13046  0.69182  0.64450  1.0000
  C   C943      1.0  0.01916  0.64876  0.64371  1.0000
  H   H759      1.0  0.13687  0.62332  0.64835  1.0000
  C   C944      1.0  0.05424  0.66704  0.64376  1.0000
  C   C945      1.0  0.11853  0.77050  0.64561  1.0000
  S   S129      1.0  0.79507  0.09422  0.24490  1.0000
  Fe  Fe66      1.0  0.61923  0.20399  0.14500  1.0000
  S   S130      1.0  0.60786  0.18159  0.09943  1.0000
  S   S131      1.0  0.66228  0.25687  0.15622  1.0000
  Fe  Fe67      1.0  0.56048  0.13409  0.18364  1.0000
  S   S132      1.0  0.54609  0.10668  0.14162  1.0000
  S   S133      1.0  0.52452  0.10838  0.22891  1.0000
  Fe  Fe68      1.0  0.60263  0.13446  0.12899  1.0000
  S   S134      1.0  0.62529  0.10678  0.11059  1.0000
  Fe  Fe69      1.0  0.55174  0.15476  0.11728  1.0000
  S   S135      1.0  0.50672  0.15343  0.09976  1.0000
  S   S136      1.0  0.61607  0.15815  0.17340  1.0000
  S   S137      1.0  0.56484  0.18132  0.15963  1.0000
  S   S138      1.0  0.80830  0.15556  0.16554  1.0000
  H   H760      1.0  0.77125  0.07280  0.13964  1.0000
  H   H761      1.0  0.90669  0.31844  0.00668  1.0000
  S   S139      1.0  0.90671  0.23755  0.03369  1.0000
  H   H762      1.0  0.91566  0.43822  0.99705  1.0000
  H   H763      1.0  0.95681  0.06672  0.15146  1.0000
  C   C946      1.0  0.56669  0.43789  0.27232  1.0000
  C   C947      1.0  0.62545  0.14307  0.03203  1.0000
  H   H764      1.0  0.93180  0.25963  0.19159  1.0000
  C   C948      1.0  0.88912  0.99722  0.04167  1.0000
  H   H765      1.0  0.64193  0.43595  0.13255  1.0000
  H   H766      1.0  0.63602  0.43670  0.24733  1.0000
  H   H767      1.0  0.76987  0.42328  0.10433  1.0000
  S   S140      1.0  0.69310  0.40872  0.12889  1.0000
  H   H768      1.0  0.52548  0.42160  0.24451  1.0000
  S   S141      1.0  0.75246  0.00442  0.20530  1.0000
  C   C949      1.0  0.95874  0.01643  0.10967  1.0000
  Fe  Fe70      1.0  0.71463  0.99822  0.17159  1.0000
  S   S142      1.0  0.69407  0.03229  0.17223  1.0000
  H   H769      1.0  0.48086  0.23914  0.06644  1.0000
  S   S143      1.0  0.83482  0.01959  0.15720  1.0000
  C   C950      1.0  0.86230  0.44504  0.19483  1.0000
  C   C951      1.0  0.58320  0.22118  0.00823  1.0000
  C   C952      1.0  0.50973  0.09977  0.03907  1.0000
  P   P30       1.0  0.55103  0.19647  0.98342  1.0000
  H   H770      1.0  0.91904  0.14519  0.19115  1.0000
  P   P31       1.0  0.96447  0.19698  0.13334  1.0000
  C   C953      1.0  0.89103  0.31140  0.02921  1.0000
  H   H771      1.0  0.70422  0.24694  0.12060  1.0000
  H   H772      1.0  0.92852  0.20771  0.18164  1.0000
  C   C954      1.0  0.70274  0.23738  0.09855  1.0000
  H   H773      1.0  0.83101  0.35850  0.26716  1.0000
  H   H774      1.0  0.63774  0.38768  0.23722  1.0000
  C   C955      1.0  0.48292  0.23279  0.09133  1.0000
  H   H775      1.0  0.62691  0.99491  0.21221  1.0000
  C   C956      1.0  0.84794  0.09493  0.02605  1.0000
  C   C957      1.0  0.59574  0.42354  0.05732  1.0000
  C   C958      1.0  0.75474  0.05539  0.98817  1.0000
  S   S144      1.0  0.87181  0.16651  0.23188  1.0000
  C   C959      1.0  0.80549  0.01546  0.06783  1.0000
  C   C960      1.0  0.83632  0.17885  0.12927  1.0000
  C   C961      1.0  0.87145  0.20089  0.12876  1.0000
  C   C962      1.0  0.89274  0.21944  0.09933  1.0000
  C   C963      1.0  0.87908  0.21523  0.07019  1.0000
  C   C964      1.0  0.84394  0.19384  0.07077  1.0000
  C   C965      1.0  0.82276  0.17640  0.10026  1.0000
  H   H776      1.0  0.88197  0.20343  0.15105  1.0000
  H   H777      1.0  0.91986  0.23664  0.09920  1.0000
  H   H778      1.0  0.83307  0.19082  0.04859  1.0000
  H   H779      1.0  0.79568  0.16084  0.10064  1.0000
  C   C966      1.0  0.94824  0.09164  0.11068  1.0000
  C   C967      1.0  0.92341  0.09364  0.09642  1.0000
  C   C968      1.0  0.88914  0.07280  0.11079  1.0000
  C   C969      1.0  0.87867  0.04876  0.13943  1.0000
  C   C970      1.0  0.90370  0.04722  0.15396  1.0000
  C   C971      1.0  0.93815  0.06852  0.13987  1.0000
  H   H780      1.0  0.93084  0.11180  0.07422  1.0000
  H   H781      1.0  0.87092  0.07555  0.09965  1.0000
  H   H782      1.0  0.89652  0.02965  0.17645  1.0000
  H   H783      1.0  0.89745  0.01614  0.01970  1.0000
  C   C972      1.0  0.64344  0.08535  0.12874  1.0000
  C   C973      1.0  0.65148  0.06757  0.11030  1.0000
  C   C974      1.0  0.66607  0.05051  0.12328  1.0000
  C   C975      1.0  0.67365  0.05152  0.15486  1.0000
  C   C976      1.0  0.66571  0.06936  0.17324  1.0000
  C   C977      1.0  0.65046  0.08583  0.16052  1.0000
  H   H784      1.0  0.64619  0.06681  0.08576  1.0000
  H   H785      1.0  0.67196  0.03704  0.10866  1.0000
  H   H786      1.0  0.67173  0.07066  0.19750  1.0000
  H   H787      1.0  0.64451  0.09916  0.17525  1.0000
  C   C978      1.0  0.67041  0.29888  0.14768  1.0000
  C   C979      1.0  0.69553  0.32551  0.16252  1.0000
  C   C980      1.0  0.70262  0.35917  0.15716  1.0000
  C   C981      1.0  0.68511  0.36679  0.13627  1.0000
  C   C982      1.0  0.66029  0.34035  0.12100  1.0000
  C   C983      1.0  0.65267  0.30639  0.12695  1.0000
  H   H788      1.0  0.70939  0.32005  0.17861  1.0000
  H   H789      1.0  0.72168  0.37923  0.16914  1.0000
  H   H790      1.0  0.64653  0.34601  0.10487  1.0000
  H   H791      1.0  0.63310  0.28608  0.11560  1.0000
  H   H792      1.0  0.69170  0.13318  0.99039  1.0000
  H   H793      1.0  0.65123  0.27561  0.06228  1.0000
  Fe  Fe71      1.0  0.77665  0.99369  0.16607  1.0000
  C   C984      1.0  0.48804  0.18587  0.98090  1.0000
  C   C985      1.0  0.90295  0.10685  0.01024  1.0000
  H   H794      1.0  0.82822  0.03697  0.07491  1.0000
  H   H795      1.0  0.82506  0.41279  0.16562  1.0000
  H   H796      1.0  0.53440  0.06356  0.19955  1.0000
  S   S145      1.0  0.75853  0.45307  0.19343  1.0000
  H   H797      1.0  0.71298  0.28360  0.06869  1.0000
  H   H798      1.0  0.52842  0.23584  0.08054  1.0000
  C   C986      1.0  0.81091  0.30747  0.29375  1.0000
  H   H799      1.0  0.87975  0.02606  0.07028  1.0000
  C   C987      1.0  0.89600  0.07288  0.28385  1.0000
  C   C988      1.0  0.94986  0.35310  0.22430  1.0000
  C   C989      1.0  0.87921  0.00284  0.07015  1.0000
  C   C990      1.0  0.97167  0.34399  0.21609  1.0000
  C   C991      1.0  0.81177  0.40059  0.24717  1.0000
  C   C992      1.0  0.73840  0.35337  0.26716  1.0000
  C   C993      1.0  0.67713  0.32655  0.24121  1.0000
  C   C994      1.0  0.72106  0.32036  0.25793  1.0000
  C   C995      1.0  0.84414  0.42847  0.25207  1.0000
  H   H800      1.0  0.97711  0.38730  0.05296  1.0000
  H   H801      1.0  0.49214  0.26385  0.19045  1.0000
  C   C996      1.0  0.80513  0.39489  0.21580  1.0000
  C   C997      1.0  0.69443  0.35954  0.24978  1.0000
  C   C998      1.0  0.56664  0.98921  0.20807  1.0000
  C   C999      1.0  0.76810  0.09457  0.04914  1.0000
  H   H802      1.0  0.91984  0.29831  0.05710  1.0000
  C   C1000     1.0  0.48979  0.13383  0.30335  1.0000
  H   H803      1.0  0.49557  0.00161  0.19438  1.0000
  H   H804      1.0  0.69964  0.42385  0.06159  1.0000
  C   C1001     1.0  0.53438  0.24357  0.98813  1.0000
  C   C1002     1.0  0.97506  0.02787  0.97827  1.0000
  C   C1003     1.0  0.56703  0.32882  0.23120  1.0000
  C   C1004     1.0  0.49587  0.06510  0.22401  1.0000
  C   C1005     1.0  0.52775  0.14977  0.99752  1.0000
  H   H805      1.0  0.73159  0.30534  0.25936  1.0000
  H   H806      1.0  0.73780  0.39860  0.26866  1.0000
  H   H807      1.0  0.78050  0.37357  0.21131  1.0000
  C   C1006     1.0  0.61153  0.44593  0.18724  1.0000
  H   H808      1.0  0.84983  0.13876  0.03927  1.0000
  C   C1007     1.0  0.63171  0.41738  0.26734  1.0000
  H   H809      1.0  0.85540  0.05781  0.00992  1.0000
  H   H810      1.0  0.56532  0.05354  0.16334  1.0000
  C   C1008     1.0  0.50984  0.23120  0.09929  1.0000
  C   C1009     1.0  0.63127  0.14979  0.26221  1.0000
  C   C1010     1.0  0.71340  0.44289  0.03968  1.0000
  S   S146      1.0  0.49174  0.00821  0.28570  1.0000
  H   H811      1.0  0.80573  0.21812  0.01947  1.0000
  H   H812      1.0  0.66795  0.00074  0.24780  1.0000
  H   H813      1.0  0.65698  0.16932  0.25058  1.0000
  S   S147      1.0  0.69749  0.46382  0.19102  1.0000
  C   C1011     1.0  0.86430  0.12929  0.03162  1.0000
  C   C1012     1.0  0.48370  0.43266  0.14438  1.0000
  C   C1013     1.0  0.56204  0.35127  0.21165  1.0000
  H   H814      1.0  0.49023  0.13990  0.18509  1.0000
  C   C1014     1.0  0.61820  0.15563  0.28860  1.0000
  C   C1015     1.0  0.52369  0.36301  0.15580  1.0000
  H   H815      1.0  0.59371  0.30472  0.23509  1.0000
  P   P32       1.0  0.56916  0.39232  0.15492  1.0000
  C   C1016     1.0  0.58276  0.43093  0.17121  1.0000
  C   C1017     1.0  0.57911  0.36644  0.18025  1.0000
  S   S148      1.0  0.93002  0.44858  0.28759  1.0000
  C   C1018     1.0  0.58486  0.13005  0.30383  1.0000
  C   C1019     1.0  0.49149  0.09056  0.98677  1.0000
  C   C1020     1.0  0.60751  0.33778  0.18891  1.0000
  C   C1021     1.0  0.60193  0.35957  0.16894  1.0000
  C   C1022     1.0  0.71099  0.43169  0.01040  1.0000
  C   C1023     1.0  0.80885  0.44331  0.06422  1.0000
  C   C1024     1.0  0.92290  0.04154  0.28431  1.0000
  C   C1025     1.0  0.62557  0.47866  0.19569  1.0000
  H   H816      1.0  0.51143  0.38273  0.19331  1.0000
  C   C1026     1.0  0.59292  0.41027  0.11517  1.0000
  H   H817      1.0  0.58988  0.24187  0.08285  1.0000
  C   C1027     1.0  0.57662  0.40684  0.08771  1.0000
  Fe  Fe72      1.0  0.52156  0.98831  0.30497  1.0000
  C   C1028     1.0  0.78803  0.02169  0.04534  1.0000
  H   H818      1.0  0.52696  0.33369  0.12244  1.0000
  H   H819      1.0  0.76774  0.10201  0.02411  1.0000
  C   C1029     1.0  0.48689  0.21405  0.15575  1.0000
  C   C1030     1.0  0.57793  0.09345  0.26529  1.0000
  H   H820      1.0  0.95208  0.30649  0.28685  1.0000
  C   C1031     1.0  0.64755  0.44885  0.08145  1.0000
  H   H821      1.0  0.62572  0.33328  0.18025  1.0000
  H   H822      1.0  0.61544  0.37075  0.14483  1.0000
  C   C1032     1.0  0.53280  0.41674  0.26732  1.0000
  C   C1033     1.0  0.97931  0.01746  0.13234  1.0000
  H   H823      1.0  0.89806  0.45242  0.04467  1.0000
  C   C1034     1.0  0.52815  0.13600  0.02873  1.0000
  H   H824      1.0  0.54929  0.39211  0.08960  1.0000
  C   C1035     1.0  0.49777  0.45684  0.16500  1.0000
  H   H825      1.0  0.54771  0.43942  0.14935  1.0000
  C   C1036     1.0  0.72411  0.18328  0.00546  1.0000
  C   C1037     1.0  0.97417  0.22034  0.06711  1.0000
  C   C1038     1.0  0.70753  0.25791  0.06920  1.0000
  H   H826      1.0  0.91215  0.17887  0.03025  1.0000
  C   C1039     1.0  0.56484  0.09899  0.29176  1.0000
  C   C1040     1.0  0.52782  0.20954  0.20604  1.0000
  C   C1041     1.0  0.94706  0.23283  0.16667  1.0000
  C   C1042     1.0  0.56844  0.44929  0.16355  1.0000
  C   C1043     1.0  0.56714  0.98482  0.15182  1.0000
  C   C1044     1.0  0.97723  0.15247  0.16869  1.0000
  S   S149      1.0  0.71078  0.43713  0.27549  1.0000
  C   C1045     1.0  0.92364  0.46475  0.99728  1.0000
  C   C1046     1.0  0.55747  0.24255  0.19285  1.0000
  C   C1047     1.0  0.58910  0.25142  0.20045  1.0000
  C   C1048     1.0  0.59128  0.22794  0.22193  1.0000
  C   C1049     1.0  0.56176  0.19570  0.23622  1.0000
  C   C1050     1.0  0.53016  0.18657  0.22836  1.0000
  H   H827      1.0  0.95722  0.22775  0.07193  1.0000
  H   H828      1.0  0.54680  0.20818  0.04826  1.0000
  H   H829      1.0  0.62419  0.43324  0.19176  1.0000
  C   C1051     1.0  0.89969  0.15367  0.11552  1.0000
  H   H830      1.0  0.55779  0.07756  0.00267  1.0000
  C   C1052     1.0  0.78609  0.07148  0.09146  1.0000
  H   H831      1.0  0.63444  0.17981  0.29716  1.0000
  H   H832      1.0  0.50992  0.46158  0.00232  1.0000
  C   C1053     1.0  0.95902  0.38687  0.21342  1.0000
  C   C1054     1.0  0.64185  0.14062  0.97860  1.0000
  H   H833      1.0  0.85225  0.46943  0.02813  1.0000
  H   H834      1.0  0.53137  0.21805  0.13672  1.0000
  H   H835      1.0  0.90468  0.47026  0.11659  1.0000
  H   H836      1.0  0.65417  0.31679  0.23025  1.0000
  C   C1055     1.0  0.92799  0.32797  0.30717  1.0000
  C   C1056     1.0  0.51165  0.22148  0.13133  1.0000
  H   H837      1.0  0.55620  0.26107  0.17618  1.0000
  H   H838      1.0  0.61205  0.27594  0.18888  1.0000
  H   H839      1.0  0.61586  0.23411  0.22651  1.0000
  H   H840      1.0  0.56333  0.17682  0.25202  1.0000
  C   C1057     1.0  0.50766  0.04939  0.20769  1.0000
  H   H841      1.0  0.68504  0.37556  0.24549  1.0000
  C   C1058     1.0  0.91902  0.14101  0.01579  1.0000
  C   C1059     1.0  0.51506  0.12862  0.30839  1.0000
  Fe  Fe73      1.0  0.73422  0.46971  0.22524  1.0000
  H   H842      1.0  0.82336  0.08541  0.15665  1.0000
  H   H843      1.0  0.56521  0.24293  0.29807  1.0000
  H   H844      1.0  0.94643  0.15887  0.01153  1.0000
  C   C1060     1.0  0.91994  0.16060  0.14028  1.0000
  H   H845      1.0  0.50970  0.08940  0.06342  1.0000
  H   H846      1.0  0.85010  0.43328  0.27602  1.0000
  C   C1061     1.0  0.63121  0.44461  0.05419  1.0000
  C   C1062     1.0  0.69311  0.19143  0.07121  1.0000
  H   H847      1.0  0.70876  0.26122  0.01820  1.0000
  C   C1063     1.0  0.75643  0.20685  0.01397  1.0000
  C   C1064     1.0  0.83037  0.41705  0.18976  1.0000
  H   H848      1.0  0.69542  0.40396  0.00969  1.0000
  C   C1065     1.0  0.90284  0.05148  0.27022  1.0000
  H   H849      1.0  0.62123  0.11359  0.23060  1.0000
  H   H850      1.0  0.94254  0.39428  0.22044  1.0000
  H   H851      1.0  0.56517  0.03136  0.21973  1.0000
  C   C1066     1.0  0.81990  0.45864  0.11671  1.0000
  C   C1067     1.0  0.86752  0.08390  0.01516  1.0000
  H   H852      1.0  0.78964  0.43977  0.27944  1.0000
  H   H853      1.0  0.73483  0.12127  0.98879  1.0000
  H   H854      1.0  0.67758  0.28180  0.23770  1.0000
  C   C1068     1.0  0.75195  0.10115  0.07207  1.0000
  C   C1069     1.0  0.56565  0.01830  0.20080  1.0000
  C   C1070     1.0  0.78427  0.07847  0.05874  1.0000
  C   C1071     1.0  0.58361  0.09948  0.00359  1.0000
  C   C1072     1.0  0.58967  0.32194  0.21982  1.0000
  C   C1073     1.0  0.73329  0.47866  0.04073  1.0000
  C   C1074     1.0  0.92827  0.30108  0.29671  1.0000
  C   C1075     1.0  0.68234  0.07557  0.27477  1.0000
  C   C1076     1.0  0.78070  0.19963  0.01334  1.0000
  H   H855      1.0  0.91021  0.16903  0.09172  1.0000
  C   C1077     1.0  0.62858  0.43176  0.11175  1.0000
  C   C1078     1.0  0.69717  0.21148  0.04169  1.0000
  H   H856      1.0  0.56653  0.02400  0.12012  1.0000
  C   C1079     1.0  0.63233  0.26087  0.04702  1.0000
  C   C1080     1.0  0.59785  0.24200  0.05861  1.0000
  C   C1081     1.0  0.72474  0.37277  0.26288  1.0000
  H   H857      1.0  0.92802  0.02533  0.27333  1.0000
  C   C1082     1.0  0.57344  0.22250  0.03919  1.0000
  H   H858      1.0  0.83224  0.30770  0.28456  1.0000
  S   S150      1.0  0.89976  0.23579  0.28252  1.0000
  H   H859      1.0  0.70298  0.09163  0.25529  1.0000
  H   H860      1.0  0.84949  0.12286  0.10247  1.0000
  C   C1083     1.0  0.86494  0.12709  0.12148  1.0000
  H   H861      1.0  0.79211  0.16382  0.00256  1.0000
  H   H862      1.0  0.93371  0.00936  0.11755  1.0000
  H   H863      1.0  0.79095  0.42939  0.04791  1.0000
  C   C1084     1.0  0.87003  0.11288  0.17671  1.0000
  H   H864      1.0  0.85848  0.09661  0.20029  1.0000
  H   H865      1.0  0.54463  0.35658  0.22100  1.0000
  C   C1085     1.0  0.63197  0.38911  0.26158  1.0000
  C   C1086     1.0  0.96843  0.23563  0.14143  1.0000
  S   S151      1.0  0.80746  0.16938  0.25324  1.0000
  C   C1087     1.0  0.65071  0.15610  0.00588  1.0000
  H   H866      1.0  0.50773  0.16099  0.23879  1.0000
  H   H867      1.0  0.58509  0.45774  0.25266  1.0000
  C   C1088     1.0  0.59213  0.11470  0.03096  1.0000
  H   H868      1.0  0.64608  0.45805  0.03075  1.0000
  Fe  Fe74      1.0  0.85586  0.18326  0.27196  1.0000
  H   H869      1.0  0.92608  0.33424  0.23959  1.0000
  C   C1089     1.0  0.61786  0.24068  0.99651  1.0000
  H   H870      1.0  0.89395  0.47262  0.22984  1.0000
  Fe  Fe75      1.0  0.82153  0.14854  0.21564  1.0000
  C   C1090     1.0  0.89798  0.26774  0.29807  1.0000
  H   H871      1.0  0.96964  0.02340  0.23319  1.0000
  H   H872      1.0  0.74095  0.09830  0.12259  1.0000
  C   C1091     1.0  0.90459  0.14023  0.17116  1.0000
  C   C1092     1.0  0.74291  0.17155  0.15616  1.0000
  C   C1093     1.0  0.73458  0.15831  0.12783  1.0000
  C   C1094     1.0  0.75121  0.18048  0.09831  1.0000
  C   C1095     1.0  0.77678  0.21598  0.09697  1.0000
  C   C1096     1.0  0.78596  0.22948  0.12536  1.0000
  C   C1097     1.0  0.76830  0.20705  0.15499  1.0000
  P   P33       1.0  0.82050  0.27488  0.12410  1.0000
  C   C1098     1.0  0.84193  0.27654  0.15859  1.0000
  C   C1099     1.0  0.84908  0.29052  0.08731  1.0000
  C   C1100     1.0  0.87751  0.28944  0.08652  1.0000
  C   C1101     1.0  0.89850  0.30014  0.05763  1.0000
  C   C1102     1.0  0.86279  0.31254  0.02972  1.0000
  C   C1103     1.0  0.84190  0.30220  0.05863  1.0000
  C   C1104     1.0  0.84778  0.25092  0.16736  1.0000
  C   C1105     1.0  0.86197  0.25000  0.19518  1.0000
  C   C1106     1.0  0.87014  0.27451  0.21478  1.0000
  C   C1107     1.0  0.86465  0.30037  0.20624  1.0000
  C   C1108     1.0  0.85073  0.30153  0.17815  1.0000
  C   C1109     1.0  0.80459  0.30122  0.12596  1.0000
  C   C1110     1.0  0.77182  0.28622  0.14129  1.0000
  C   C1111     1.0  0.75999  0.30691  0.14369  1.0000
  C   C1112     1.0  0.78070  0.34269  0.13088  1.0000
  C   C1113     1.0  0.81356  0.35797  0.11589  1.0000
  C   C1114     1.0  0.82557  0.33736  0.11357  1.0000
  H   H873      1.0  0.73041  0.15389  0.17903  1.0000
  H   H874      1.0  0.71569  0.13069  0.12873  1.0000
  H   H875      1.0  0.74466  0.16971  0.07660  1.0000
  H   H876      1.0  0.78981  0.23237  0.07384  1.0000
  H   H877      1.0  0.77484  0.21657  0.17732  1.0000
  H   H878      1.0  0.88323  0.27952  0.10782  1.0000
  H   H879      1.0  0.81963  0.30240  0.05847  1.0000
  H   H880      1.0  0.84045  0.23102  0.15304  1.0000
  H   H881      1.0  0.86568  0.22956  0.20192  1.0000
  H   H882      1.0  0.88028  0.27304  0.23676  1.0000
  H   H883      1.0  0.87070  0.31916  0.22167  1.0000
  H   H884      1.0  0.84625  0.32143  0.17226  1.0000
  H   H885      1.0  0.75530  0.25857  0.15149  1.0000
  H   H886      1.0  0.73457  0.29496  0.15541  1.0000
  H   H887      1.0  0.77122  0.35850  0.13262  1.0000
  H   H888      1.0  0.82970  0.38578  0.10612  1.0000
  H   H889      1.0  0.85127  0.34962  0.10233  1.0000
  H   H890      1.0  0.56089  0.26254  0.98998  1.0000
  C   C1115     1.0  0.49144  0.07704  0.01809  1.0000
  C   C1116     1.0  0.85017  0.10643  0.15197  1.0000
  H   H891      1.0  0.97649  0.34968  0.01686  1.0000
  Fe  Fe76      1.0  0.88939  0.23148  0.98425  1.0000
  Fe  Fe77      1.0  0.72483  0.45143  0.15793  1.0000
  C   C1117     1.0  0.50338  0.48005  0.09916  1.0000
  C   C1118     1.0  0.78906  0.06982  0.99092  1.0000
  C   C1119     1.0  0.61121  0.11852  0.25078  1.0000
  Fe  Fe78      1.0  0.84496  0.11382  0.26438  1.0000
  C   C1120     1.0  0.79694  0.43978  0.09598  1.0000
  S   S152      1.0  0.86937  0.08345  0.26537  1.0000
  H   H892      1.0  0.88164  0.46253  0.17469  1.0000
  P   P34       1.0  0.69369  0.19396  0.00564  1.0000
  C   C1121     1.0  0.69036  0.30687  0.24544  1.0000
  H   H893      1.0  0.81068  0.45712  0.14099  1.0000
  Fe  Fe79      1.0  0.78308  0.11581  0.28325  1.0000
  C   C1122     1.0  0.56537  0.03059  0.16915  1.0000
  C   C1123     1.0  0.48560  0.01434  0.20464  1.0000
  C   C1124     1.0  0.71622  0.15194  0.99710  1.0000
  C   C1125     1.0  0.64232  0.26047  0.01585  1.0000
  H   H894      1.0  0.76302  0.23103  0.02080  1.0000
  H   H895      1.0  0.68736  0.16552  0.07235  1.0000
  C   C1126     1.0  0.56601  0.01381  0.14471  1.0000
  P   P35       1.0  0.48689  0.19805  0.19672  1.0000
  H   H896      1.0  0.64331  0.06652  0.24531  1.0000
  C   C1127     1.0  0.50165  0.36295  0.17837  1.0000
  H   H897      1.0  0.67499  0.46581  0.07933  1.0000
  C   C1128     1.0  0.69556  0.20420  0.09956  1.0000
  H   H898      1.0  0.58299  0.42068  0.03625  1.0000
  C   C1129     1.0  0.94896  0.26232  0.17237  1.0000
  C   C1130     1.0  0.77288  0.16879  0.00431  1.0000
  C   C1131     1.0  0.74055  0.14479  0.99658  1.0000
  P   P36       1.0  0.80219  0.06619  0.02988  1.0000
  C   C1132     1.0  0.50849  0.38984  0.29179  1.0000
  H   H899      1.0  0.89249  0.04252  0.24852  1.0000
  C   C1133     1.0  0.81014  0.33638  0.28393  1.0000
  H   H900      1.0  0.57306  0.10439  0.05158  1.0000
  H   H901      1.0  0.79949  0.06038  0.09956  1.0000
  H   H902      1.0  0.73880  0.11278  0.06476  1.0000
  C   C1134     1.0  0.89972  0.15220  0.02646  1.0000
  C   C1135     1.0  0.70484  0.24504  0.04074  1.0000
  C   C1136     1.0  0.57654  0.43293  0.30210  1.0000
  H   H903      1.0  0.66898  0.27551  0.00661  1.0000
  H   H904      1.0  0.85681  0.32079  0.00752  1.0000
  C   C1137     1.0  0.79287  0.98135  0.08264  1.0000
  C   C1138     1.0  0.77037  0.07859  0.11427  1.0000
  H   H905      1.0  0.53904  0.07881  0.30283  1.0000
  H   H906      1.0  0.63110  0.15440  0.05339  1.0000
  C   C1139     1.0  0.75288  0.09283  0.10462  1.0000
  H   H907      1.0  0.62726  0.34235  0.28281  1.0000
  S   S153      1.0  0.74075  0.99079  0.13144  1.0000
  H   H908      1.0  0.55367  0.31732  0.25531  1.0000
  C   C1140     1.0  0.51032  0.33540  0.13861  1.0000
  C   C1141     1.0  0.51228  0.25367  0.98929  1.0000
  H   H909      1.0  0.54253  0.15291  0.04526  1.0000
  C   C1142     1.0  0.78260  0.33633  0.29561  1.0000
  H   H910      1.0  0.69137  0.18799  0.12232  1.0000
  C   C1143     1.0  0.64842  0.06109  0.26908  1.0000
  C   C1144     1.0  0.62637  0.36384  0.28724  1.0000
  C   C1145     1.0  0.86921  0.45072  0.22595  1.0000
  H   H911      1.0  0.56210  0.06955  0.25595  1.0000
  S   S154      1.0  0.83112  0.13134  0.30526  1.0000
  H   H912      1.0  0.52812  0.26309  0.29156  1.0000
  C   C1146     1.0  0.75762  0.99295  0.03802  1.0000
  P   P37       1.0  0.77946  0.37192  0.28102  1.0000
  S   S155      1.0  0.57872  0.02227  0.28548  1.0000
  C   C1147     1.0  0.97092  0.02581  0.07696  1.0000
  C   C1148     1.0  0.62098  0.03951  0.29383  1.0000
  H   H913      1.0  0.51582  0.11056  0.29586  1.0000
  H   H914      1.0  0.52165  0.28006  0.99200  1.0000
  C   C1149     1.0  0.84369  0.46582  0.05318  1.0000
  H   H915      1.0  0.88307  0.98259  0.24513  1.0000
  H   H916      1.0  0.95452  0.02476  0.05982  1.0000
  H   H917      1.0  0.73567  0.04117  0.00912  1.0000
  C   C1150     1.0  0.62654  0.42100  0.29880  1.0000
  H   H918      1.0  0.91802  0.09841  0.00164  1.0000
  H   H919      1.0  0.74304  0.99651  0.02143  1.0000
  H   H920      1.0  0.96453  0.31779  0.22500  1.0000
  C   C1151     1.0  0.68937  0.06936  0.30566  1.0000
  C   C1152     1.0  0.53361  0.47334  0.01219  1.0000
  C   C1153     1.0  0.48703  0.44427  0.11148  1.0000
  H   H921      1.0  0.49578  0.44823  0.19049  1.0000
  H   H922      1.0  0.95748  0.13201  0.15756  1.0000
  C   C1154     1.0  0.91368  0.47289  0.02405  1.0000
  C   C1155     1.0  0.60855  0.11245  0.97742  1.0000
  H   H923      1.0  0.97028  0.01111  0.15774  1.0000
  C   C1156     1.0  0.55917  0.47208  0.99760  1.0000
  H   H924      1.0  0.97346  0.31760  0.15690  1.0000
  C   C1157     1.0  0.48214  0.25002  0.21498  1.0000
  P   P38       1.0  0.62090  0.45419  0.30582  1.0000
  C   C1158     1.0  0.52232  0.20939  0.98432  1.0000
  H   H925      1.0  0.95144  0.35363  0.30550  1.0000
  C   C1159     1.0  0.97259  0.29495  0.15306  1.0000
  H   H926      1.0  0.48241  0.37337  0.28769  1.0000
  C   C1160     1.0  0.72841  0.45627  0.98208  1.0000
  C   C1161     1.0  0.79057  0.43004  0.30367  1.0000
  C   C1162     1.0  0.97609  0.98363  0.01306  1.0000
  H   H927      1.0  0.94529  0.47746  0.15440  1.0000
  H   H928      1.0  0.74144  0.98044  0.28578  1.0000
  H   H929      1.0  0.86113  0.98365  0.12030  1.0000
  H   H930      1.0  0.55490  0.45990  0.97666  1.0000
  C   C1163     1.0  0.50946  0.12671  0.97662  1.0000
  H   H931      1.0  0.75539  0.00025  0.33793  1.0000
  C   C1164     1.0  0.94891  0.18620  0.35188  1.0000
  C   C1165     1.0  0.57057  0.27102  0.36925  1.0000
  H   H932      1.0  0.49824  0.14391  0.43345  1.0000
  H   H933      1.0  0.80130  0.40161  0.38964  1.0000
  S   S156      1.0  0.96171  0.04067  0.33151  1.0000
  C   C1166     1.0  0.92525  0.44281  0.55704  1.0000
  H   H934      1.0  0.72754  0.31930  0.57933  1.0000
  H   H935      1.0  0.62153  0.00694  0.39628  1.0000
  H   H936      1.0  0.62560  0.46806  0.49620  1.0000
  C   C1167     1.0  0.53765  0.04184  0.39312  1.0000
  H   H937      1.0  0.94610  0.07466  0.44826  1.0000
  C   C1168     1.0  0.70719  0.07174  0.40098  1.0000
  H   H938      1.0  0.61705  0.34797  0.33860  1.0000
  H   H939      1.0  0.62915  0.10192  0.32054  1.0000
  H   H940      1.0  0.55343  0.40173  0.47206  1.0000
  H   H941      1.0  0.50473  0.18662  0.35705  1.0000
  C   C1169     1.0  0.68885  0.13262  0.38612  1.0000
  Fe  Fe80      1.0  0.72780  0.44930  0.45962  1.0000
  C   C1170     1.0  0.50834  0.17126  0.34290  1.0000
  C   C1171     1.0  0.69699  0.15566  0.35739  1.0000
  C   C1172     1.0  0.88580  0.38208  0.42018  1.0000
  Fe  Fe81      1.0  0.51995  0.07080  0.59833  1.0000
  H   H942      1.0  0.96961  0.14083  0.58765  1.0000
  Fe  Fe82      1.0  0.56964  0.12561  0.54136  1.0000
  S   S157      1.0  0.54890  0.08616  0.50840  1.0000
  S   S158      1.0  0.61621  0.18199  0.52282  1.0000
  C   C1173     1.0  0.64847  0.18781  0.63595  1.0000
  S   S159      1.0  0.94003  0.02748  0.51401  1.0000
  Fe  Fe83      1.0  0.54862  0.04942  0.54819  1.0000
  S   S160      1.0  0.55603  0.00804  0.53581  1.0000
  S   S161      1.0  0.51777  0.10860  0.56175  1.0000
  S   S162      1.0  0.57322  0.09012  0.57985  1.0000
  C   C1174     1.0  0.54630  0.28052  0.48665  1.0000
  H   H943      1.0  0.78904  0.36412  0.34947  1.0000
  H   H944      1.0  0.59754  0.39770  0.49580  1.0000
  Fe  Fe84      1.0  0.67741  0.38412  0.50882  1.0000
  H   H945      1.0  0.60712  0.01586  0.34345  1.0000
  S   S163      1.0  0.63143  0.32640  0.51954  1.0000
  C   C1175     1.0  0.91905  0.45226  0.50106  1.0000
  H   H946      1.0  0.84409  0.23520  0.31311  1.0000
  C   C1176     1.0  0.85754  0.17537  0.38046  1.0000
  C   C1177     1.0  0.55185  0.40574  0.32661  1.0000
  S   S164      1.0  0.67287  0.42399  0.47792  1.0000
  S   S165      1.0  0.73120  0.40756  0.48760  1.0000
  C   C1178     1.0  0.58145  0.33790  0.45292  1.0000
  C   C1179     1.0  0.67543  0.14466  0.33380  1.0000
  H   H947      1.0  0.65072  0.18512  0.41700  1.0000
  C   C1180     1.0  0.89551  0.00509  0.52447  1.0000
  H   H948      1.0  0.58808  0.46399  0.35929  1.0000
  C   C1181     1.0  0.53398  0.16647  0.34772  1.0000
  C   C1182     1.0  0.62071  0.36703  0.31867  1.0000
  S   S166      1.0  0.49536  0.02745  0.56966  1.0000
  H   H949      1.0  0.87297  0.35399  0.42540  1.0000
  C   C1183     1.0  0.63213  0.46512  0.34465  1.0000
  C   C1184     1.0  0.58899  0.00160  0.53581  1.0000
  C   C1185     1.0  0.80063  0.44044  0.35777  1.0000
  C   C1186     1.0  0.90319  0.09626  0.61594  1.0000
  C   C1187     1.0  0.64775  0.29665  0.59865  1.0000
  C   C1188     1.0  0.50450  0.05934  0.41643  1.0000
  C   C1189     1.0  0.61864  0.02259  0.54930  1.0000
  H   H950      1.0  0.48482  0.05417  0.43424  1.0000
  C   C1190     1.0  0.80845  0.98693  0.41274  1.0000
  H   H951      1.0  0.87675  0.06932  0.54543  1.0000
  H   H952      1.0  0.62212  0.04369  0.56011  1.0000
  C   C1191     1.0  0.62002  0.22183  0.52290  1.0000
  C   C1192     1.0  0.59215  0.22230  0.53166  1.0000
  C   C1193     1.0  0.59624  0.25449  0.53064  1.0000
  C   C1194     1.0  0.62819  0.28667  0.52103  1.0000
  C   C1195     1.0  0.65614  0.28620  0.51253  1.0000
  C   C1196     1.0  0.65200  0.25400  0.51332  1.0000
  H   H953      1.0  0.56739  0.19786  0.53909  1.0000
  H   H954      1.0  0.57447  0.25443  0.53747  1.0000
  H   H955      1.0  0.68091  0.31063  0.50529  1.0000
  H   H956      1.0  0.67379  0.25403  0.50660  1.0000
  C   C1197     1.0  0.78447  0.27852  0.31552  1.0000
  C   C1198     1.0  0.65494  0.08965  0.46058  1.0000
  H   H957      1.0  0.65595  0.26022  0.34327  1.0000
  C   C1199     1.0  0.60132  0.00347  0.41199  1.0000
  H   H958      1.0  0.90488  0.32023  0.41658  1.0000
  S   S167      1.0  0.51857  0.45735  0.32692  1.0000
  H   H959      1.0  0.92759  0.26496  0.36104  1.0000
  C   C1200     1.0  0.96224  0.24364  0.33202  1.0000
  H   H960      1.0  0.97036  0.44597  0.56637  1.0000
  H   H961      1.0  0.49948  0.01168  0.43446  1.0000
  C   C1201     1.0  0.86751  0.26094  0.31148  1.0000
  P   P39       1.0  0.96569  0.46783  0.44975  1.0000
  H   H962      1.0  0.65273  0.01458  0.46753  1.0000
  H   H963      1.0  0.54370  0.02311  0.39269  1.0000
  H   H964      1.0  0.96518  0.35839  0.42521  1.0000
  C   C1202     1.0  0.48655  0.15531  0.32042  1.0000
  H   H965      1.0  0.93613  0.15892  0.34983  1.0000
  H   H966      1.0  0.70408  0.26411  0.61760  1.0000
  H   H967      1.0  0.88636  0.27321  0.38508  1.0000
  H   H968      1.0  0.69152  0.00586  0.34948  1.0000
  C   C1203     1.0  0.86848  0.11500  0.59614  1.0000
  H   H969      1.0  0.85644  0.08414  0.37158  1.0000
  H   H970      1.0  0.85672  0.38021  0.38214  1.0000
  C   C1204     1.0  0.68822  0.27313  0.61269  1.0000
  C   C1205     1.0  0.51318  0.46772  0.45548  1.0000
  H   H971      1.0  0.51383  0.10741  0.39304  1.0000
  H   H972      1.0  0.68897  0.10416  0.53062  1.0000
  H   H973      1.0  0.89614  0.00472  0.57518  1.0000
  H   H974      1.0  0.66676  0.04307  0.35423  1.0000
  H   H975      1.0  0.68441  0.07474  0.48560  1.0000
  C   C1206     1.0  0.60277  0.17095  0.35597  1.0000
  C   C1207     1.0  0.79788  0.40923  0.36569  1.0000
  H   H976      1.0  0.70630  0.14103  0.40379  1.0000
  C   C1208     1.0  0.88021  0.08227  0.56571  1.0000
  H   H977      1.0  0.95938  0.26033  0.31452  1.0000
  H   H978      1.0  0.67650  0.24688  0.39188  1.0000
  C   C1209     1.0  0.74164  0.46824  0.37311  1.0000
  C   C1210     1.0  0.82825  0.14152  0.38224  1.0000
  C   C1211     1.0  0.64381  0.01613  0.54893  1.0000
  C   C1212     1.0  0.68604  0.33552  0.42326  1.0000
  C   C1213     1.0  0.70419  0.35156  0.39254  1.0000
  C   C1214     1.0  0.63384  0.30023  0.40026  1.0000
  C   C1215     1.0  0.65107  0.30991  0.42712  1.0000
  C   C1216     1.0  0.57497  0.28792  0.43490  1.0000
  H   H979      1.0  0.69885  0.34376  0.44416  1.0000
  H   H980      1.0  0.73095  0.37257  0.38965  1.0000
  H   H981      1.0  0.63723  0.29871  0.45115  1.0000
  H   H982      1.0  0.60625  0.34118  0.40831  1.0000
  Fe  Fe85      1.0  0.69249  0.45576  0.51728  1.0000
  Fe  Fe86      1.0  0.74745  0.44091  0.52593  1.0000
  S   S168      1.0  0.73157  0.08755  0.31526  1.0000
  H   H983      1.0  0.91945  0.39197  0.45566  1.0000
  H   H984      1.0  0.88582  0.44462  0.37023  1.0000
  H   H985      1.0  0.53078  0.26402  0.50917  1.0000
  S   S169      1.0  0.67276  0.98228  0.53511  1.0000
  C   C1217     1.0  0.93616  0.28471  0.37582  1.0000
  C   C1218     1.0  0.54862  0.99245  0.45346  1.0000
  C   C1219     1.0  0.57209  0.22627  0.42200  1.0000
  H   H986      1.0  0.80791  0.13723  0.36880  1.0000
  H   H987      1.0  0.68470  0.39897  0.33957  1.0000
  C   C1220     1.0  0.58883  0.32383  0.42975  1.0000
  C   C1221     1.0  0.66041  0.12322  0.51221  1.0000
  C   C1222     1.0  0.64012  0.10794  0.46158  1.0000
  H   H988      1.0  0.91153  0.06771  0.58538  1.0000
  H   H989      1.0  0.69140  0.44325  0.62507  1.0000
  H   H990      1.0  0.66643  0.12985  0.59488  1.0000
  H   H991      1.0  0.59566  0.17635  0.45974  1.0000
  S   S170      1.0  0.78753  0.45082  0.55904  1.0000
  C   C1223     1.0  0.51786  0.38446  0.32153  1.0000
  H   H992      1.0  0.96817  0.99312  0.47279  1.0000
  C   C1224     1.0  0.91258  0.28940  0.38933  1.0000
  H   H993      1.0  0.80570  0.45691  0.37541  1.0000
  H   H994      1.0  0.69118  0.99616  0.46562  1.0000
  C   C1225     1.0  0.92992  0.44018  0.42938  1.0000
  H   H995      1.0  0.83866  0.46882  0.60057  1.0000
  S   S171      1.0  0.96661  0.44875  0.35145  1.0000
  C   C1226     1.0  0.63971  0.98859  0.53519  1.0000
  C   C1227     1.0  0.88046  0.99703  0.55609  1.0000
  C   C1228     1.0  0.54567  0.15627  0.44745  1.0000
  C   C1229     1.0  0.53781  0.19942  0.42127  1.0000
  C   C1230     1.0  0.91221  0.40364  0.43710  1.0000
  C   C1231     1.0  0.63694  0.08805  0.36812  1.0000
  C   C1232     1.0  0.87640  0.39681  0.39595  1.0000
  C   C1233     1.0  0.89282  0.43302  0.38919  1.0000
  C   C1234     1.0  0.91927  0.45461  0.40601  1.0000
  P   P40       1.0  0.56818  0.13583  0.33942  1.0000
  C   C1235     1.0  0.75737  0.27863  0.32787  1.0000
  H   H996      1.0  0.55547  0.32727  0.49987  1.0000
  H   H997      1.0  0.49781  0.32256  0.58651  1.0000
  H   H998      1.0  0.83854  0.03864  0.33879  1.0000
  P   P41       1.0  0.65074  0.06796  0.42724  1.0000
  H   H999      1.0  0.66663  0.03257  0.55942  1.0000
  C   C1236     1.0  0.67410  0.02798  0.44875  1.0000
  H   H1000     1.0  0.58611  0.04028  0.46797  1.0000
  C   C1237     1.0  0.79726  0.45089  0.32675  1.0000
  C   C1238     1.0  0.79060  0.38789  0.34280  1.0000
  H   H1001     1.0  0.90654  0.20692  0.39609  1.0000
  H   H1002     1.0  0.56456  0.01559  0.61125  1.0000
  C   C1239     1.0  0.66176  0.14621  0.60629  1.0000
  C   C1240     1.0  0.90676  0.44501  0.53350  1.0000
  C   C1241     1.0  0.92304  0.31596  0.40706  1.0000
  C   C1242     1.0  0.60822  0.02837  0.43104  1.0000
  C   C1243     1.0  0.96770  0.19898  0.37715  1.0000
  C   C1244     1.0  0.91007  0.08463  0.31170  1.0000
  H   H1003     1.0  0.50939  0.39853  0.50737  1.0000
  C   C1245     1.0  0.94611  0.20852  0.32941  1.0000
  H   H1004     1.0  0.63066  0.13796  0.48851  1.0000
  H   H1005     1.0  0.80059  0.47574  0.32036  1.0000
  C   C1246     1.0  0.57610  0.25679  0.34479  1.0000
  H   H1006     1.0  0.64590  0.20730  0.58769  1.0000
  H   H1007     1.0  0.73704  0.25630  0.34495  1.0000
  H   H1008     1.0  0.61377  0.06194  0.37151  1.0000
  H   H1009     1.0  0.84908  0.09967  0.55180  1.0000
  H   H1010     1.0  0.70120  0.41468  0.39274  1.0000
  C   C1247     1.0  0.59699  0.40363  0.61497  1.0000
  H   H1011     1.0  0.52105  0.20545  0.41133  1.0000
  C   C1248     1.0  0.66185  0.04825  0.33038  1.0000
  C   C1249     1.0  0.52473  0.16458  0.43386  1.0000
  C   C1250     1.0  0.78636  0.39787  0.31163  1.0000
  C   C1251     1.0  0.88376  0.18074  0.39765  1.0000
  C   C1252     1.0  0.65620  0.22576  0.38166  1.0000
  H   H1012     1.0  0.88341  0.44220  0.54039  1.0000
  H   H1013     1.0  0.62585  0.10864  0.44276  1.0000
  C   C1253     1.0  0.67291  0.08876  0.48549  1.0000
  C   C1254     1.0  0.68133  0.31604  0.58393  1.0000
  P   P42       1.0  0.58796  0.27113  0.40632  1.0000
  C   C1255     1.0  0.65243  0.31612  0.36938  1.0000
  C   C1256     1.0  0.57968  0.18282  0.44854  1.0000
  C   C1257     1.0  0.95705  0.33757  0.41173  1.0000
  H   H1014     1.0  0.88661  0.12303  0.48831  1.0000
  C   C1258     1.0  0.83269  0.47548  0.55064  1.0000
  C   C1259     1.0  0.93642  0.05273  0.31243  1.0000
  Fe  Fe87      1.0  0.49682  0.06628  0.53181  1.0000
  C   C1260     1.0  0.97044  0.30635  0.38028  1.0000
  C   C1261     1.0  0.64275  0.12453  0.48740  1.0000
  H   H1015     1.0  0.91623  0.43834  0.58215  1.0000
  H   H1016     1.0  0.73521  0.30720  0.32756  1.0000
  H   H1017     1.0  0.93887  0.03683  0.39777  1.0000
  C   C1262     1.0  0.95366  0.98952  0.45295  1.0000
  H   H1018     1.0  0.61912  0.23779  0.43781  1.0000
  C   C1263     1.0  0.64445  0.23326  0.35441  1.0000
  C   C1264     1.0  0.55422  0.07204  0.36956  1.0000
  C   C1265     1.0  0.55370  0.26635  0.46360  1.0000
  H   H1019     1.0  0.55900  0.40053  0.34936  1.0000
  C   C1266     1.0  0.61118  0.46768  0.36601  1.0000
  H   H1020     1.0  0.72058  0.18158  0.35296  1.0000
  H   H1021     1.0  0.54371  0.23890  0.46895  1.0000
  H   H1022     1.0  0.90513  0.10104  0.32253  1.0000
  S   S172      1.0  0.69363  0.41445  0.54930  1.0000
  H   H1023     1.0  0.65842  0.17173  0.56206  1.0000
  H   H1024     1.0  0.54454  0.29337  0.38378  1.0000
  C   C1267     1.0  0.62080  0.39551  0.32448  1.0000
  C   C1268     1.0  0.71449  0.43424  0.37113  1.0000
  C   C1269     1.0  0.86745  0.28753  0.32303  1.0000
  H   H1025     1.0  0.81025  0.00424  0.45721  1.0000
  C   C1270     1.0  0.72846  0.06063  0.39962  1.0000
  C   C1271     1.0  0.53793  0.14553  0.33010  1.0000
  C   C1272     1.0  0.52921  0.45432  0.44210  1.0000
  H   H1026     1.0  0.59133  0.24681  0.34785  1.0000
  C   C1273     1.0  0.65037  0.19015  0.60252  1.0000
  H   H1027     1.0  0.90497  0.45515  0.48317  1.0000
  C   C1274     1.0  0.66492  0.43203  0.62301  1.0000
  C   C1275     1.0  0.87458  0.99469  0.50002  1.0000
  C   C1276     1.0  0.96792  0.45402  0.51573  1.0000
  H   H1028     1.0  0.57897  0.47597  0.49422  1.0000
  H   H1029     1.0  0.71159  0.09198  0.38192  1.0000
  H   H1030     1.0  0.51862  0.28917  0.33412  1.0000
  C   C1277     1.0  0.62795  0.03281  0.32442  1.0000
  H   H1031     1.0  0.84401  0.28193  0.33414  1.0000
  H   H1032     1.0  0.48083  0.43341  0.57776  1.0000
  H   H1033     1.0  0.52188  0.13275  0.62663  1.0000
  H   H1034     1.0  0.66192  0.13554  0.53239  1.0000
  C   C1278     1.0  0.86457  0.09920  0.56942  1.0000
  C   C1279     1.0  0.67980  0.05550  0.42566  1.0000
  C   C1280     1.0  0.53493  0.28040  0.33702  1.0000
  C   C1281     1.0  0.53936  0.40953  0.62343  1.0000
  C   C1282     1.0  0.56026  0.31626  0.48139  1.0000
  C   C1283     1.0  0.70522  0.42540  0.34099  1.0000
  C   C1284     1.0  0.64537  0.11094  0.33923  1.0000
  C   C1285     1.0  0.65454  0.25359  0.62779  1.0000
  C   C1286     1.0  0.67567  0.10558  0.51116  1.0000
  C   C1287     1.0  0.81605  0.99642  0.37936  1.0000
  H   H1035     1.0  0.49026  0.44846  0.51913  1.0000
  H   H1036     1.0  0.86006  0.19730  0.36536  1.0000
  C   C1288     1.0  0.65727  0.16968  0.58781  1.0000
  C   C1289     1.0  0.89982  0.08123  0.58859  1.0000
  H   H1037     1.0  0.64007  0.31020  0.34812  1.0000
  C   C1290     1.0  0.68753  0.34158  0.36562  1.0000
  H   H1038     1.0  0.64895  0.98680  0.31176  1.0000
  H   H1039     1.0  0.59315  0.36580  0.44925  1.0000
  H   H1040     1.0  0.61172  0.45661  0.61319  1.0000
  C   C1291     1.0  0.72306  0.03380  0.42317  1.0000
  H   H1041     1.0  0.61631  0.39760  0.34895  1.0000
  H   H1042     1.0  0.70169  0.35490  0.34183  1.0000
  C   C1292     1.0  0.64165  0.19098  0.39584  1.0000
  C   C1293     1.0  0.56143  0.25464  0.31659  1.0000
  C   C1294     1.0  0.93367  0.08611  0.45615  1.0000
  H   H1043     1.0  0.97150  0.04346  0.44365  1.0000
  C   C1295     1.0  0.95572  0.44717  0.54815  1.0000
  H   H1044     1.0  0.93859  0.13552  0.50999  1.0000
  C   C1296     1.0  0.55339  0.39006  0.56458  1.0000
  C   C1297     1.0  0.52823  0.39191  0.55101  1.0000
  C   C1298     1.0  0.52821  0.39600  0.51775  1.0000
  C   C1299     1.0  0.55300  0.39781  0.49784  1.0000
  C   C1300     1.0  0.57778  0.39547  0.51118  1.0000
  C   C1301     1.0  0.57808  0.39168  0.54436  1.0000
  C   C1302     1.0  0.61961  0.43927  0.61636  1.0000
  C   C1303     1.0  0.93720  0.01449  0.41078  1.0000
  H   H1045     1.0  0.74847  0.07211  0.37962  1.0000
  H   H1046     1.0  0.63194  0.30545  0.59245  1.0000
  Fe  Fe88      1.0  0.97334  0.00159  0.32056  1.0000
  H   H1047     1.0  0.57298  0.07611  0.35145  1.0000
  C   C1304     1.0  0.54600  0.09614  0.36917  1.0000
  C   C1305     1.0  0.65906  0.09839  0.39142  1.0000
  H   H1048     1.0  0.94022  0.08337  0.34761  1.0000
  H   H1049     1.0  0.59807  0.39075  0.55388  1.0000
  C   C1306     1.0  0.52104  0.08959  0.39287  1.0000
  C   C1307     1.0  0.58165  0.02234  0.45216  1.0000
  C   C1308     1.0  0.69585  0.01748  0.44772  1.0000
  C   C1309     1.0  0.88090  0.15230  0.41638  1.0000
  C   C1310     1.0  0.85173  0.11813  0.41792  1.0000
  C   C1311     1.0  0.82555  0.11300  0.40049  1.0000
  P   P43       1.0  0.84753  0.08076  0.44149  1.0000
  C   C1312     1.0  0.88730  0.09252  0.45488  1.0000
  C   C1313     1.0  0.81691  0.06329  0.47713  1.0000
  C   C1314     1.0  0.81872  0.04393  0.50408  1.0000
  C   C1315     1.0  0.79523  0.03019  0.53174  1.0000
  C   C1316     1.0  0.76950  0.03530  0.53267  1.0000
  C   C1317     1.0  0.76731  0.05428  0.50597  1.0000
  C   C1318     1.0  0.79093  0.06833  0.47834  1.0000
  C   C1319     1.0  0.90458  0.07925  0.44347  1.0000
  H   H1050     1.0  0.49866  0.36391  0.34060  1.0000
  C   C1320     1.0  0.94591  0.10636  0.48007  1.0000
  C   C1321     1.0  0.92926  0.12019  0.49115  1.0000
  C   C1322     1.0  0.89992  0.11311  0.47878  1.0000
  C   C1323     1.0  0.83441  0.04765  0.41707  1.0000
  C   C1324     1.0  0.84277  0.05712  0.38350  1.0000
  C   C1325     1.0  0.83316  0.03148  0.36476  1.0000
  C   C1326     1.0  0.53799  0.46058  0.61744  1.0000
  C   C1327     1.0  0.95562  0.01828  0.43642  1.0000
  C   C1328     1.0  0.81726  0.01235  0.43152  1.0000
  C   C1329     1.0  0.51275  0.03541  0.41654  1.0000
  H   H1051     1.0  0.73930  0.02490  0.42188  1.0000
  C   C1330     1.0  0.54981  0.28283  0.36518  1.0000
  H   H1052     1.0  0.90175  0.15717  0.42904  1.0000
  H   H1053     1.0  0.80317  0.08679  0.40070  1.0000
  H   H1054     1.0  0.83769  0.03854  0.50352  1.0000
  H   H1055     1.0  0.79612  0.01427  0.55199  1.0000
  H   H1056     1.0  0.75031  0.02324  0.55351  1.0000
  H   H1057     1.0  0.74643  0.05689  0.50636  1.0000
  H   H1058     1.0  0.78815  0.08232  0.45796  1.0000
  H   H1059     1.0  0.89526  0.06273  0.42553  1.0000
  C   C1331     1.0  0.63436  0.26558  0.62057  1.0000
  H   H1060     1.0  0.52844  0.98786  0.47023  1.0000
  H   H1061     1.0  0.88589  0.00056  0.47550  1.0000
  C   C1332     1.0  0.57208  0.16824  0.63858  1.0000
  C   C1333     1.0  0.59291  0.21773  0.43599  1.0000
  C   C1334     1.0  0.70157  0.30431  0.59098  1.0000
  H   H1062     1.0  0.96787  0.11056  0.49049  1.0000
  C   C1335     1.0  0.50159  0.31499  0.61025  1.0000
  C   C1336     1.0  0.61784  0.20596  0.34158  1.0000
  Fe  Fe89      1.0  0.93953  0.41216  0.31690  1.0000
  H   H1063     1.0  0.60422  0.13688  0.39439  1.0000
  S   S173      1.0  0.89589  0.35459  0.33325  1.0000
  C   C1337     1.0  0.89747  0.32143  0.32008  1.0000
  H   H1064     1.0  0.69146  0.33989  0.56666  1.0000
  C   C1338     1.0  0.75647  0.30749  0.31806  1.0000
  C   C1339     1.0  0.61509  0.16364  0.38304  1.0000
  C   C1340     1.0  0.94975  0.45685  0.49188  1.0000
  H   H1065     1.0  0.53534  0.12928  0.45764  1.0000
  H   H1066     1.0  0.54991  0.17802  0.36598  1.0000
  H   H1067     1.0  0.60818  0.25082  0.63139  1.0000
  H   H1068     1.0  0.68054  0.47261  0.33631  1.0000
  H   H1069     1.0  0.50892  0.39074  0.56603  1.0000
  H   H1070     1.0  0.56429  0.45182  0.58270  1.0000
  H   H1071     1.0  0.58412  0.16777  0.61689  1.0000
  H   H1072     1.0  0.85610  0.12787  0.59912  1.0000
  P   P44       1.0  0.55388  0.38572  0.60756  1.0000
  H   H1073     1.0  0.97374  0.42232  0.41385  1.0000
  C   C1341     1.0  0.54869  0.44158  0.60570  1.0000
  H   H1074     1.0  0.52282  0.41355  0.41877  1.0000
  C   C1342     1.0  0.62092  0.47692  0.39576  1.0000
  H   H1075     1.0  0.93105  0.19853  0.31005  1.0000
  H   H1076     1.0  0.78516  0.25612  0.32294  1.0000
  C   C1343     1.0  0.88758  0.11342  0.61946  1.0000
  H   H1077     1.0  0.96948  0.18147  0.39478  1.0000
  C   C1344     1.0  0.65341  0.45335  0.62042  1.0000
  C   C1345     1.0  0.92997  0.07451  0.32590  1.0000
  C   C1346     1.0  0.51018  0.42318  0.43024  1.0000
  H   H1078     1.0  0.60899  0.21199  0.32036  1.0000
  H   H1079     1.0  0.59231  0.35512  0.61528  1.0000
  H   H1080     1.0  0.65181  0.38026  0.62289  1.0000
  C   C1347     1.0  0.52697  0.33999  0.62612  1.0000
  C   C1348     1.0  0.65974  0.14354  0.63957  1.0000
  H   H1081     1.0  0.55656  0.46897  0.43995  1.0000
  C   C1349     1.0  0.64259  0.39653  0.62170  1.0000
  C   C1350     1.0  0.66333  0.47301  0.35298  1.0000
  C   C1351     1.0  0.54051  0.26604  0.31289  1.0000
  C   C1352     1.0  0.60882  0.38238  0.61750  1.0000
  C   C1353     1.0  0.48090  0.27966  0.62493  1.0000
  H   H1082     1.0  0.88938  0.12490  0.64037  1.0000
  C   C1354     1.0  0.55067  0.00340  0.63525  1.0000
  C   C1355     1.0  0.97079  0.11974  0.63577  1.0000
  H   H1083     1.0  0.68234  0.16186  0.31099  1.0000
  C   C1356     1.0  0.72266  0.45042  0.31265  1.0000
  C   C1357     1.0  0.66639  0.98157  0.35648  1.0000
  H   H1084     1.0  0.60538  0.48012  0.41169  1.0000
  S   S174      1.0  0.75633  0.47986  0.41008  1.0000
  C   C1358     1.0  0.91750  0.98211  0.40108  1.0000
  C   C1359     1.0  0.85172  0.48017  0.57632  1.0000
  S   S175      1.0  0.88257  0.23447  0.89357  1.0000
  C   C1360     1.0  0.93459  0.14441  0.92312  1.0000
  H   H1085     1.0  0.97314  0.16483  0.80421  1.0000
  Fe  Fe90      1.0  0.60038  0.11812  0.87906  1.0000
  S   S176      1.0  0.58768  0.07458  0.85324  1.0000
  S   S177      1.0  0.65379  0.15840  0.89207  1.0000
  Fe  Fe91      1.0  0.52835  0.10291  0.87563  1.0000
  H   H1086     1.0  0.72139  0.21390  0.90057  1.0000
  S   S178      1.0  0.97781  0.09205  0.91300  1.0000
  Fe  Fe92      1.0  0.53621  0.04185  0.88323  1.0000
  H   H1087     1.0  0.56424  0.03719  0.80254  1.0000
  Fe  Fe93      1.0  0.56410  0.09404  0.82012  1.0000
  S   S179      1.0  0.58255  0.10306  0.76714  1.0000
  S   S180      1.0  0.55043  0.08438  0.91200  1.0000
  S   S181      1.0  0.57920  0.13962  0.84445  1.0000
  C   C1361     1.0  0.52122  0.07197  0.68223  1.0000
  C   C1362     1.0  0.55557  0.08509  0.67857  1.0000
  C   C1363     1.0  0.57380  0.09418  0.70495  1.0000
  C   C1364     1.0  0.55807  0.09070  0.73508  1.0000
  C   C1365     1.0  0.52379  0.07782  0.73872  1.0000
  C   C1366     1.0  0.50553  0.06864  0.71234  1.0000
  C   C1367     1.0  0.68347  0.25266  0.69568  1.0000
  H   H1088     1.0  0.60016  0.10364  0.70214  1.0000
  H   H1089     1.0  0.51142  0.07511  0.76178  1.0000
  C   C1368     1.0  0.89525  0.08350  0.74095  1.0000
  C   C1369     1.0  0.94444  0.37472  0.90349  1.0000
  H   H1090     1.0  0.83997  0.10123  0.96446  1.0000
  S   S182      1.0  0.93460  0.26588  0.94612  1.0000
  C   C1370     1.0  0.74496  0.06076  0.95863  1.0000
  H   H1091     1.0  0.50956  0.46259  0.65615  1.0000
  H   H1092     1.0  0.65151  0.16146  0.68014  1.0000
  H   H1093     1.0  0.93865  0.17164  0.71745  1.0000
  H   H1094     1.0  0.71867  0.05062  0.95687  1.0000
  H   H1095     1.0  0.95195  0.19450  0.82887  1.0000
  C   C1371     1.0  0.53714  0.46689  0.84468  1.0000
  H   H1096     1.0  0.60226  0.10074  0.95613  1.0000
  C   C1372     1.0  0.54672  0.00360  0.69234  1.0000
  H   H1097     1.0  0.63861  0.17659  0.76922  1.0000
  C   C1373     1.0  0.74569  0.27520  0.92871  1.0000
  H   H1098     1.0  0.93136  0.33408  0.77542  1.0000
  Fe  Fe94      1.0  0.90214  0.27880  0.92107  1.0000
  C   C1374     1.0  0.69027  0.15869  0.89988  1.0000
  C   C1375     1.0  0.68961  0.12841  0.90408  1.0000
  C   C1376     1.0  0.74894  0.16164  0.91542  1.0000
  C   C1377     1.0  0.74952  0.19188  0.91143  1.0000
  C   C1378     1.0  0.72047  0.19033  0.90371  1.0000
  H   H1099     1.0  0.77236  0.21647  0.91424  1.0000
  C   C1379     1.0  0.95849  0.17816  0.90565  1.0000
  C   C1380     1.0  0.58433  0.23494  0.88727  1.0000
  C   C1381     1.0  0.59987  0.21873  0.87984  1.0000
  C   C1382     1.0  0.60079  0.19616  0.90383  1.0000
  C   C1383     1.0  0.58601  0.18955  0.93519  1.0000
  C   C1384     1.0  0.57001  0.20541  0.94277  1.0000
  C   C1385     1.0  0.56941  0.22833  0.91864  1.0000
  C   C1386     1.0  0.65319  0.16428  0.65436  1.0000
  C   C1387     1.0  0.55059  0.01027  0.79942  1.0000
  H   H1100     1.0  0.50914  0.13675  0.95233  1.0000
  C   C1388     1.0  0.59136  0.18771  0.66139  1.0000
  S   S183      1.0  0.95058  0.21105  0.89926  1.0000
  H   H1101     1.0  0.51214  0.44366  0.85445  1.0000
  C   C1389     1.0  0.54297  0.45781  0.74825  1.0000
  C   C1390     1.0  0.90951  0.04507  0.65175  1.0000
  H   H1102     1.0  0.48747  0.34305  0.85086  1.0000
  C   C1391     1.0  0.92756  0.14456  0.71578  1.0000
  H   H1103     1.0  0.61541  0.16748  0.71796  1.0000
  H   H1104     1.0  0.95178  0.35836  0.95025  1.0000
  S   S184      1.0  0.48820  0.11097  0.89511  1.0000
  C   C1392     1.0  0.95849  0.34610  0.81630  1.0000
  C   C1393     1.0  0.56491  0.01910  0.66147  1.0000
  C   C1394     1.0  0.58328  0.46614  0.69353  1.0000
  S   S185      1.0  0.86793  0.18361  0.96167  1.0000
  H   H1105     1.0  0.94464  0.01053  0.93997  1.0000
  H   H1106     1.0  0.92221  0.09255  0.93846  1.0000
  H   H1107     1.0  0.58661  0.17157  0.95338  1.0000
  H   H1108     1.0  0.61074  0.22315  0.85542  1.0000
  H   H1109     1.0  0.61257  0.18335  0.89805  1.0000
  C   C1395     1.0  0.90943  0.11840  0.74299  1.0000
  H   H1110     1.0  0.55674  0.24044  0.92370  1.0000
  H   H1111     1.0  0.56798  0.08791  0.65552  1.0000
  C   C1396     1.0  0.93164  0.13585  0.68655  1.0000
  H   H1112     1.0  0.88846  0.04753  0.71096  1.0000
  H   H1113     1.0  0.69641  0.27429  0.67565  1.0000
  S   S186      1.0  0.85799  0.24757  0.96069  1.0000
  H   H1114     1.0  0.66083  0.15055  0.95815  1.0000
  H   H1115     1.0  0.52745  0.40501  0.82453  1.0000
  C   C1397     1.0  0.69657  0.25765  0.72494  1.0000
  C   C1398     1.0  0.53917  0.16766  0.69441  1.0000
  C   C1399     1.0  0.71981  0.27563  0.91562  1.0000
  C   C1400     1.0  0.55020  0.98558  0.82181  1.0000
  H   H1116     1.0  0.65213  0.20844  0.96788  1.0000
  H   H1117     1.0  0.77169  0.29325  0.91714  1.0000
  H   H1118     1.0  0.58300  0.25188  0.86855  1.0000
  C   C1401     1.0  0.51017  0.29389  0.67168  1.0000
  H   H1119     1.0  0.66290  0.12516  0.65403  1.0000
  C   C1402     1.0  0.49580  0.17537  0.88337  1.0000
  H   H1120     1.0  0.96896  0.39444  0.74436  1.0000
  C   C1403     1.0  0.65412  0.22010  0.69269  1.0000
  H   H1121     1.0  0.55092  0.47816  0.89148  1.0000
  H   H1122     1.0  0.94629  0.15649  0.66579  1.0000
  H   H1123     1.0  0.55014  0.34812  0.66987  1.0000
  C   C1404     1.0  0.76927  0.08043  0.93154  1.0000
  C   C1405     1.0  0.89914  0.07466  0.71171  1.0000
  H   H1124     1.0  0.91075  0.13791  0.93432  1.0000
  H   H1125     1.0  0.71930  0.28274  0.72708  1.0000
  P   P45       1.0  0.51822  0.45352  0.78396  1.0000
  C   C1406     1.0  0.97646  0.41446  0.93992  1.0000
  C   C1407     1.0  0.91723  0.10079  0.68420  1.0000
  C   C1408     1.0  0.53092  0.32921  0.65707  1.0000
  H   H1126     1.0  0.94135  0.31992  0.83035  1.0000
  C   C1409     1.0  0.97439  0.08923  0.82141  1.0000
  H   H1127     1.0  0.82229  0.11059  0.91303  1.0000
  C   C1410     1.0  0.57122  0.43810  0.71883  1.0000
  H   H1128     1.0  0.59863  0.46930  0.67234  1.0000
  H   H1129     1.0  0.66607  0.25151  0.91943  1.0000
  H   H1130     1.0  0.95888  0.05430  0.64740  1.0000
  C   C1411     1.0  0.57463  0.18797  0.68898  1.0000
  H   H1131     1.0  0.54247  0.41224  0.76545  1.0000
  C   C1412     1.0  0.48096  0.46869  0.74535  1.0000
  H   H1132     1.0  0.88144  0.06327  0.76216  1.0000
  H   H1133     1.0  0.51345  0.28568  0.69549  1.0000
  C   C1413     1.0  0.97110  0.43777  0.88818  1.0000
  C   C1414     1.0  0.73797  0.25062  0.95603  1.0000
  C   C1415     1.0  0.52020  0.14778  0.67193  1.0000
  C   C1416     1.0  0.81325  0.08917  0.96335  1.0000
  C   C1417     1.0  0.68619  0.25166  0.93000  1.0000
  C   C1418     1.0  0.87436  0.01934  0.65459  1.0000
  C   C1419     1.0  0.48913  0.40796  0.80265  1.0000
  P   P46       1.0  0.92532  0.09064  0.64681  1.0000
  H   H1134     1.0  0.96327  0.07603  0.84603  1.0000
  C   C1420     1.0  0.97421  0.38831  0.76791  1.0000
  H   H1135     1.0  0.53173  0.01949  0.75734  1.0000
  H   H1136     1.0  0.97637  0.07193  0.74642  1.0000
  H   H1137     1.0  0.50063  0.22429  0.87527  1.0000
  H   H1138     1.0  0.76193  0.08585  0.90894  1.0000
  Fe  Fe95      1.0  0.91186  0.21877  0.92228  1.0000
  H   H1139     1.0  0.55828  0.01674  0.71194  1.0000
  C   C1421     1.0  0.55121  0.43395  0.74611  1.0000
  H   H1140     1.0  0.72630  0.44763  0.95931  1.0000
  C   C1422     1.0  0.95705  0.38032  0.93292  1.0000
  H   H1141     1.0  0.90645  0.12516  0.76572  1.0000
  H   H1142     1.0  0.93637  0.99234  0.65088  1.0000
  H   H1143     1.0  0.69064  0.23399  0.77407  1.0000
  H   H1144     1.0  0.52637  0.16683  0.71634  1.0000
  C   C1423     1.0  0.93172  0.03506  0.65035  1.0000
  C   C1424     1.0  0.51893  0.39664  0.65327  1.0000
  S   S187      1.0  0.51175  0.05843  0.84846  1.0000
  H   H1145     1.0  0.72573  0.29407  0.89397  1.0000
  C   C1425     1.0  0.54715  0.47786  0.81137  1.0000
  S   S188      1.0  0.91943  0.33235  0.89331  1.0000
  H   H1146     1.0  0.58878  0.20335  0.70663  1.0000
  C   C1426     1.0  0.65117  0.19794  0.74872  1.0000
  C   C1427     1.0  0.95283  0.35417  0.78542  1.0000
  C   C1428     1.0  0.94119  0.11868  0.92539  1.0000
  C   C1429     1.0  0.50096  0.39098  0.82113  1.0000
  C   C1430     1.0  0.68046  0.23028  0.75143  1.0000
  H   H1147     1.0  0.71762  0.10626  0.91493  1.0000
  H   H1148     1.0  0.57752  0.41964  0.71738  1.0000
  C   C1431     1.0  0.71866  0.12993  0.91176  1.0000
  H   H1149     1.0  0.94211  0.39964  0.85832  1.0000
  H   H1150     1.0  0.66662  0.10374  0.90162  1.0000
  C   C1432     1.0  0.63806  0.19286  0.71955  1.0000
  Fe  Fe96      1.0  0.83972  0.20239  0.93448  1.0000
  C   C1433     1.0  0.80335  0.09448  0.93388  1.0000
  C   C1434     1.0  0.70421  0.22631  0.97060  1.0000
  H   H1151     1.0  0.56304  0.99330  0.84279  1.0000
  S   S189      1.0  0.49686  0.05892  0.65008  1.0000
  S   S190      1.0  0.78473  0.16155  0.92541  1.0000
  H   H1152     1.0  0.58983  0.04371  0.65781  1.0000
  H   H1153     1.0  0.85675  0.02655  0.65507  1.0000
  S   S191      1.0  0.51354  0.98621  0.91064  1.0000
  H   H1154     1.0  0.51917  0.18563  0.86827  1.0000
  C   C1435     1.0  0.95170  0.40367  0.88117  1.0000
  H   H1155     1.0  0.75837  0.25024  0.96503  1.0000
  P   P47       1.0  0.63714  0.21262  0.65487  1.0000
  H   H1156     1.0  0.94921  0.04160  0.80233  1.0000
  H   H1157     1.0  0.97617  0.45968  0.87093  1.0000
  H   H1158     1.0  0.48623  0.41850  0.96327  1.0000
  C   C1436     1.0  0.49511  0.47227  0.77417  1.0000
  C   C1437     1.0  0.67840  0.22718  0.95742  1.0000
  C   C1438     1.0  0.95288  0.00274  0.96071  1.0000
  C   C1439     1.0  0.91897  0.99982  0.65207  1.0000
  C   C1440     1.0  0.97177  0.12624  0.91047  1.0000
  C   C1441     1.0  0.53248  0.00021  0.77340  1.0000
  C   C1442     1.0  0.51759  0.44760  0.64702  1.0000
  H   H1159     1.0  0.49255  0.40577  0.68807  1.0000
  C   C1443     1.0  0.48521  0.26911  0.65559  1.0000
  C   C1444     1.0  0.86170  0.98415  0.65612  1.0000
  C   C1445     1.0  0.96643  0.06990  0.79681  1.0000
  H   H1160     1.0  0.49272  0.13126  0.67645  1.0000
  H   H1161     1.0  0.51132  0.37207  0.66762  1.0000
  C   C1446     1.0  0.50806  0.41562  0.66494  1.0000
  H   H1162     1.0  0.62609  0.24099  0.97240  1.0000
  C   C1447     1.0  0.97811  0.20936  0.81772  1.0000
  C   C1448     1.0  0.53668  0.14853  0.64384  1.0000
  C   C1449     1.0  0.48507  0.19724  0.88731  1.0000
  H   H1163     1.0  0.48380  0.45481  0.72862  1.0000
  H   H1164     1.0  0.87777  0.92009  0.06938  1.0000
  Fe  Fe97      1.0  0.61958  0.69804  0.11582  1.0000
  S   S192      1.0  0.58208  0.65157  0.09371  1.0000
  S   S193      1.0  0.65313  0.75372  0.08754  1.0000
  Fe  Fe98      1.0  0.60360  0.65254  0.17965  1.0000
  S   S194      1.0  0.56291  0.60318  0.16371  1.0000
  S   S195      1.0  0.62118  0.64965  0.22738  1.0000
  Fe  Fe99      1.0  0.60207  0.62317  0.12077  1.0000
  S   S196      1.0  0.61231  0.58417  0.10604  1.0000
  Fe  Fe100     1.0  0.54602  0.63463  0.13882  1.0000
  S   S197      1.0  0.49163  0.62058  0.14428  1.0000
  S   S198      1.0  0.64270  0.67161  0.13762  1.0000
  S   S199      1.0  0.58341  0.68253  0.15953  1.0000
  S   S200      1.0  0.79047  0.64595  0.19498  1.0000
  Fe  Fe101     1.0  0.87179  0.71462  0.00814  1.0000
  H   H1165     1.0  0.91970  0.84785  0.13178  1.0000
  S   S201      1.0  0.88394  0.70879  0.05916  1.0000
  H   H1166     1.0  0.77158  0.85671  0.02550  1.0000
  H   H1167     1.0  0.75195  0.92667  0.08776  1.0000
  C   C1450     1.0  0.78852  0.73559  0.26614  1.0000
  Fe  Fe102     1.0  0.50766  0.48423  0.28741  1.0000
  H   H1168     1.0  0.57208  0.53369  0.28822  1.0000
  H   H1169     1.0  0.48161  0.68378  0.28265  1.0000
  C   C1451     1.0  0.82340  0.73345  0.22595  1.0000
  H   H1170     1.0  0.51111  0.53641  0.19958  1.0000
  S   S202      1.0  0.76286  0.50764  0.13386  1.0000
  S   S203      1.0  0.67607  0.89290  0.12021  1.0000
  C   C1452     1.0  0.57054  0.50529  0.05038  1.0000
  S   S204      1.0  0.77264  0.52723  0.20624  1.0000
  H   H1171     1.0  0.55965  0.88691  0.09321  1.0000
  Fe  Fe103     1.0  0.73695  0.52017  0.16930  1.0000
  S   S205      1.0  0.72159  0.55833  0.15785  1.0000
  Fe  Fe104     1.0  0.79573  0.51068  0.17210  1.0000
  S   S206      1.0  0.84983  0.52360  0.16510  1.0000
  C   C1453     1.0  0.92978  0.61325  0.06160  1.0000
  S   S207      1.0  0.85627  0.65002  0.25409  1.0000
  C   C1454     1.0  0.90227  0.56406  0.02113  1.0000
  C   C1455     1.0  0.85039  0.58159  0.08767  1.0000
  H   H1172     1.0  0.76268  0.50425  0.29311  1.0000
  C   C1456     1.0  0.95304  0.49784  0.13382  1.0000
  H   H1173     1.0  0.88399  0.56191  0.22342  1.0000
  H   H1174     1.0  0.53587  0.89627  0.13990  1.0000
  H   H1175     1.0  0.92604  0.79202  0.23563  1.0000
  C   C1457     1.0  0.68059  0.50510  0.26483  1.0000
  H   H1176     1.0  0.93567  0.57742  0.09149  1.0000
  C   C1458     1.0  0.81761  0.76062  0.27820  1.0000
  Fe  Fe105     1.0  0.80493  0.63519  0.24356  1.0000
  H   H1177     1.0  0.56968  0.72902  0.12319  1.0000
  C   C1459     1.0  0.91447  0.55779  0.04881  1.0000
  C   C1460     1.0  0.74830  0.49207  0.98302  1.0000
  H   H1178     1.0  0.59546  0.79255  0.11170  1.0000
  H   H1179     1.0  0.49155  0.50168  0.99203  1.0000
  H   H1180     1.0  0.50591  0.59590  0.07008  1.0000
  C   C1461     1.0  0.81595  0.66085  0.15716  1.0000
  C   C1462     1.0  0.80188  0.66137  0.12877  1.0000
  C   C1463     1.0  0.82198  0.67515  0.09845  1.0000
  C   C1464     1.0  0.85652  0.68886  0.09627  1.0000
  C   C1465     1.0  0.87042  0.68784  0.12461  1.0000
  C   C1466     1.0  0.85031  0.67389  0.15485  1.0000
  H   H1181     1.0  0.77524  0.65099  0.13026  1.0000
  H   H1182     1.0  0.81084  0.67557  0.07691  1.0000
  H   H1183     1.0  0.89701  0.69813  0.12320  1.0000
  H   H1184     1.0  0.86145  0.67355  0.17641  1.0000
  C   C1467     1.0  0.49943  0.90049  0.21909  1.0000
  C   C1468     1.0  0.94166  0.62046  0.14494  1.0000
  C   C1469     1.0  0.90639  0.59401  0.15197  1.0000
  C   C1470     1.0  0.89418  0.55867  0.15841  1.0000
  C   C1471     1.0  0.91805  0.55052  0.15958  1.0000
  C   C1472     1.0  0.95335  0.57703  0.15359  1.0000
  H   H1185     1.0  0.87619  0.83744  0.21990  1.0000
  H   H1186     1.0  0.88873  0.60109  0.15267  1.0000
  H   H1187     1.0  0.90927  0.52354  0.16551  1.0000
  Fe  Fe106     1.0  0.70667  0.93293  0.15235  1.0000
  C   C1473     1.0  0.64241  0.57682  0.12120  1.0000
  C   C1474     1.0  0.66783  0.59982  0.13822  1.0000
  C   C1475     1.0  0.69156  0.59361  0.14914  1.0000
  C   C1476     1.0  0.69014  0.56402  0.14383  1.0000
  C   C1477     1.0  0.66468  0.54092  0.12680  1.0000
  C   C1478     1.0  0.64126  0.54747  0.11540  1.0000
  H   H1188     1.0  0.66953  0.62273  0.14258  1.0000
  H   H1189     1.0  0.71133  0.61197  0.16183  1.0000
  H   H1190     1.0  0.66321  0.51817  0.12221  1.0000
  H   H1191     1.0  0.62186  0.52936  0.10238  1.0000
  C   C1479     1.0  0.66113  0.79209  0.09969  1.0000
  C   C1480     1.0  0.65164  0.79321  0.13096  1.0000
  C   C1481     1.0  0.65852  0.82487  0.13854  1.0000
  C   C1482     1.0  0.67455  0.85534  0.11479  1.0000
  C   C1483     1.0  0.68372  0.85371  0.08378  1.0000
  C   C1484     1.0  0.67754  0.82267  0.07644  1.0000
  H   H1192     1.0  0.63869  0.76971  0.14912  1.0000
  H   H1193     1.0  0.65012  0.82530  0.16231  1.0000
  H   H1194     1.0  0.69479  0.87632  0.06490  1.0000
  H   H1195     1.0  0.68457  0.82210  0.05218  1.0000
  C   C1485     1.0  0.57353  0.53591  0.23728  1.0000
  C   C1486     1.0  0.59027  0.55729  0.20744  1.0000
  C   C1487     1.0  0.61121  0.59363  0.20524  1.0000
  C   C1488     1.0  0.61337  0.60823  0.23242  1.0000
  C   C1489     1.0  0.60170  0.58693  0.26270  1.0000
  C   C1490     1.0  0.58247  0.55049  0.26501  1.0000
  H   H1196     1.0  0.58464  0.54650  0.18575  1.0000
  H   H1197     1.0  0.62227  0.61017  0.18192  1.0000
  H   H1198     1.0  0.60443  0.59805  0.28406  1.0000
  H   H1199     1.0  0.73472  0.48697  0.06363  1.0000
  C   C1491     1.0  0.74356  0.57087  0.05199  1.0000
  C   C1492     1.0  0.58200  0.48156  0.17293  1.0000
  C   C1493     1.0  0.81172  0.53841  0.05720  1.0000
  P   P48       1.0  0.51276  0.73034  0.21885  1.0000
  Fe  Fe107     1.0  0.71741  0.94589  0.22110  1.0000
  P   P49       1.0  0.56714  0.93368  0.19300  1.0000
  H   H1200     1.0  0.56795  0.97253  0.13240  1.0000
  C   C1494     1.0  0.58419  0.92834  0.15743  1.0000
  C   C1495     1.0  0.61929  0.94515  0.15055  1.0000
  C   C1496     1.0  0.63264  0.93995  0.12395  1.0000
  H   H1201     1.0  0.57169  0.49627  0.16641  1.0000
  C   C1497     1.0  0.97322  0.73263  0.29802  1.0000
  S   S208      1.0  0.48719  0.93658  0.28902  1.0000
  H   H1202     1.0  0.95586  0.80668  0.28610  1.0000
  C   C1498     1.0  0.85049  0.77287  0.26431  1.0000
  C   C1499     1.0  0.92747  0.58224  0.06936  1.0000
  P   P50       1.0  0.50796  0.49491  0.05660  1.0000
  C   C1500     1.0  0.52782  0.70351  0.22964  1.0000
  C   C1501     1.0  0.87782  0.97022  0.22426  1.0000
  H   H1203     1.0  0.96990  0.82603  0.18895  1.0000
  H   H1204     1.0  0.68964  0.48913  0.27179  1.0000
  C   C1502     1.0  0.47991  0.66703  0.05396  1.0000
  H   H1205     1.0  0.65976  0.95252  0.11923  1.0000
  C   C1503     1.0  0.50670  0.55180  0.06390  1.0000
  H   H1206     1.0  0.64383  0.71132  0.01223  1.0000
  H   H1207     1.0  0.83559  0.56057  0.98270  1.0000
  C   C1504     1.0  0.74497  0.95886  0.05297  1.0000
  C   C1505     1.0  0.71818  0.54987  0.00451  1.0000
  C   C1506     1.0  0.92382  0.50726  0.02407  1.0000
  H   H1208     1.0  0.85782  0.63151  0.07783  1.0000
  C   C1507     1.0  0.64816  0.49455  0.27731  1.0000
  H   H1209     1.0  0.89539  0.60008  0.99204  1.0000
  C   C1508     1.0  0.70567  0.64580  0.29246  1.0000
  C   C1509     1.0  0.87213  0.84132  0.14096  1.0000
  S   S209      1.0  0.53622  0.49382  0.23985  1.0000
  H   H1210     1.0  0.56293  0.55560  0.00943  1.0000
  C   C1510     1.0  0.86699  0.48444  0.07408  1.0000
  H   H1211     1.0  0.74151  0.82460  0.19612  1.0000
  C   C1511     1.0  0.57330  0.69702  0.23959  1.0000
  H   H1212     1.0  0.76366  0.72661  0.27709  1.0000
  H   H1213     1.0  0.85455  0.87213  0.20522  1.0000
  C   C1512     1.0  0.71991  0.57798  0.05894  1.0000
  C   C1513     1.0  0.55641  0.72122  0.07569  1.0000
  H   H1214     1.0  0.75868  0.66625  0.01182  1.0000
  H   H1215     1.0  0.81440  0.77083  0.29829  1.0000
  S   S210      1.0  0.84088  0.73323  0.98854  1.0000
  C   C1514     1.0  0.51566  0.49256  0.15261  1.0000
  P   P51       1.0  0.88838  0.80976  0.27899  1.0000
  C   C1515     1.0  0.87825  0.94317  0.07003  1.0000
  P   P52       1.0  0.85437  0.91704  0.13539  1.0000
  C   C1516     1.0  0.87487  0.89485  0.13387  1.0000
  H   H1216     1.0  0.66942  0.68770  0.26939  1.0000
  C   C1517     1.0  0.86877  0.97868  0.09861  1.0000
  H   H1217     1.0  0.95342  0.91269  0.11730  1.0000
  C   C1518     1.0  0.56982  0.74118  0.09972  1.0000
  H   H1218     1.0  0.68121  0.64714  0.25162  1.0000
  H   H1219     1.0  0.79951  0.51248  0.05170  1.0000
  C   C1519     1.0  0.85595  0.85812  0.14173  1.0000
  C   C1520     1.0  0.48627  0.71201  0.18790  1.0000
  C   C1521     1.0  0.91006  0.91429  0.12460  1.0000
  C   C1522     1.0  0.80895  0.88511  0.13927  1.0000
  C   C1523     1.0  0.79201  0.87798  0.11207  1.0000
  C   C1524     1.0  0.75721  0.85151  0.11524  1.0000
  P   P53       1.0  0.91119  0.51754  0.05883  1.0000
  H   H1220     1.0  0.60828  0.84844  0.23256  1.0000
  C   C1525     1.0  0.79049  0.86566  0.16962  1.0000
  C   C1526     1.0  0.56129  0.59874  0.01581  1.0000
  C   C1527     1.0  0.90426  0.59493  0.01364  1.0000
  H   H1221     1.0  0.58230  0.61690  0.99701  1.0000
  S   S211      1.0  0.74351  0.93509  0.18433  1.0000
  H   H1222     1.0  0.66016  0.94787  0.27896  1.0000
  H   H1223     1.0  0.67679  0.57612  0.04479  1.0000
  S   S212      1.0  0.67861  0.94023  0.19001  1.0000
  C   C1528     1.0  0.56211  0.71847  0.23279  1.0000
  H   H1224     1.0  0.95057  0.64758  0.13927  1.0000
  H   H1225     1.0  0.71816  0.79668  0.03554  1.0000
  H   H1226     1.0  0.82876  0.84222  0.14860  1.0000
  H   H1227     1.0  0.48163  0.71299  0.00698  1.0000
  H   H1228     1.0  0.89140  0.54524  0.00524  1.0000
  H   H1229     1.0  0.80552  0.89259  0.08844  1.0000
  H   H1230     1.0  0.74404  0.84591  0.09431  1.0000
  C   C1529     1.0  0.64123  0.94512  0.26414  1.0000
  H   H1231     1.0  0.67544  0.55167  0.99603  1.0000
  H   H1232     1.0  0.80293  0.87065  0.19097  1.0000
  C   C1530     1.0  0.73917  0.83210  0.14545  1.0000
  C   C1531     1.0  0.48789  0.72856  0.25292  1.0000
  C   C1532     1.0  0.51042  0.83789  0.29451  1.0000
  C   C1533     1.0  0.85262  0.75868  0.23781  1.0000
  C   C1534     1.0  0.97383  0.55099  0.08125  1.0000
  H   H1233     1.0  0.82109  0.94157  0.17084  1.0000
  S   S213      1.0  0.77737  0.58232  0.27631  1.0000
  C   C1535     1.0  0.59306  0.83223  0.21572  1.0000
  C   C1536     1.0  0.87217  0.52300  0.29364  1.0000
  C   C1537     1.0  0.72200  0.73842  0.17213  1.0000
  C   C1538     1.0  0.70925  0.70519  0.18939  1.0000
  C   C1539     1.0  0.71545  0.68325  0.17657  1.0000
  C   C1540     1.0  0.73404  0.69439  0.14616  1.0000
  C   C1541     1.0  0.74649  0.72757  0.12844  1.0000
  C   C1542     1.0  0.74078  0.74976  0.14182  1.0000
  P   P54       1.0  0.76964  0.74127  0.08890  1.0000
  C   C1543     1.0  0.81228  0.75329  0.09117  1.0000
  C   C1544     1.0  0.74634  0.70533  0.06740  1.0000
  C   C1545     1.0  0.71070  0.68520  0.07080  1.0000
  C   C1546     1.0  0.69268  0.65936  0.05229  1.0000
  C   C1547     1.0  0.71006  0.65317  0.03044  1.0000
  C   C1548     1.0  0.74530  0.67171  0.02815  1.0000
  C   C1549     1.0  0.76337  0.69756  0.04660  1.0000
  C   C1550     1.0  0.82158  0.74531  0.12022  1.0000
  C   C1551     1.0  0.85432  0.75388  0.12142  1.0000
  C   C1552     1.0  0.87794  0.77024  0.09366  1.0000
  C   C1553     1.0  0.86899  0.77842  0.06472  1.0000
  C   C1554     1.0  0.83637  0.77014  0.06347  1.0000
  C   C1555     1.0  0.77067  0.77803  0.06831  1.0000
  C   C1556     1.0  0.80045  0.81232  0.06386  1.0000
  C   C1557     1.0  0.80087  0.84052  0.04813  1.0000
  C   C1558     1.0  0.77136  0.83490  0.03757  1.0000
  C   C1559     1.0  0.74136  0.80113  0.04297  1.0000
  C   C1560     1.0  0.74098  0.77284  0.05824  1.0000
  H   H1234     1.0  0.71660  0.75503  0.18198  1.0000
  H   H1235     1.0  0.69393  0.69621  0.21240  1.0000
  H   H1236     1.0  0.70523  0.65729  0.18983  1.0000
  H   H1237     1.0  0.73839  0.67698  0.13633  1.0000
  H   H1238     1.0  0.75009  0.77546  0.12874  1.0000
  H   H1239     1.0  0.69674  0.68965  0.08747  1.0000
  H   H1240     1.0  0.66521  0.64420  0.05483  1.0000
  H   H1241     1.0  0.96443  0.74866  0.29034  1.0000
  H   H1242     1.0  0.49881  0.61751  0.24184  1.0000
  H   H1243     1.0  0.79054  0.71130  0.04430  1.0000
  H   H1244     1.0  0.80347  0.73143  0.14181  1.0000
  H   H1245     1.0  0.86076  0.74603  0.14349  1.0000
  H   H1246     1.0  0.90262  0.77498  0.09420  1.0000
  C   C1561     1.0  0.57255  0.70619  0.99628  1.0000
  H   H1247     1.0  0.82963  0.77595  0.04064  1.0000
  H   H1248     1.0  0.82338  0.81750  0.07254  1.0000
  H   H1249     1.0  0.85741  0.81302  0.14715  1.0000
  C   C1562     1.0  0.68946  0.65697  0.27360  1.0000
  H   H1250     1.0  0.63648  0.96238  0.16568  1.0000
  H   H1251     1.0  0.71722  0.74711  0.06249  1.0000
  C   C1563     1.0  0.89963  0.96277  0.21177  1.0000
  C   C1564     1.0  0.91821  0.61962  0.03374  1.0000
  C   C1565     1.0  0.96638  0.64340  0.24394  1.0000
  C   C1566     1.0  0.50104  0.73096  0.98704  1.0000
  C   C1567     1.0  0.59375  0.93815  0.22365  1.0000
  C   C1568     1.0  0.54734  0.77576  0.20450  1.0000
  C   C1569     1.0  0.55521  0.79048  0.17169  1.0000
  C   C1570     1.0  0.58182  0.82577  0.16109  1.0000
  C   C1571     1.0  0.60071  0.84657  0.18306  1.0000
  H   H1252     1.0  0.83486  0.89137  0.24675  1.0000
  C   C1572     1.0  0.50513  0.66695  0.23309  1.0000
  H   H1253     1.0  0.61989  0.51519  0.04542  1.0000
  H   H1254     1.0  0.52146  0.70582  0.16233  1.0000
  H   H1255     1.0  0.97120  0.57026  0.15495  1.0000
  H   H1256     1.0  0.54106  0.77492  0.15415  1.0000
  H   H1257     1.0  0.58835  0.83709  0.13575  1.0000
  P   P55       1.0  0.54142  0.71164  0.01345  1.0000
  H   H1258     1.0  0.49997  0.87650  0.29482  1.0000
  C   C1573     1.0  0.84952  0.96234  0.20943  1.0000
  C   C1574     1.0  0.49740  0.70255  0.16296  1.0000
  S   S214      1.0  0.94000  0.95620  0.29613  1.0000
  H   H1259     1.0  0.69633  0.63398  0.01530  1.0000
  H   H1260     1.0  0.61007  0.88898  0.27516  1.0000
  C   C1575     1.0  0.94275  0.87198  0.23778  1.0000
  C   C1576     1.0  0.56639  0.79697  0.22646  1.0000
  H   H1261     1.0  0.65135  0.56530  0.24057  1.0000
  C   C1577     1.0  0.93687  0.64240  0.24253  1.0000
  S   S215      1.0  0.84283  0.55930  0.29197  1.0000
  H   H1262     1.0  0.56090  0.78613  0.25184  1.0000
  C   C1578     1.0  0.69422  0.55658  0.01183  1.0000
  C   C1579     1.0  0.84443  0.87585  0.25350  1.0000
  C   C1580     1.0  0.86445  0.93883  0.16967  1.0000
  C   C1581     1.0  0.68285  0.67978  0.28366  1.0000
  C   C1582     1.0  0.85761  0.84621  0.29457  1.0000
  H   H1263     1.0  0.94681  0.93200  0.00110  1.0000
  C   C1583     1.0  0.63789  0.51665  0.26867  1.0000
  H   H1264     1.0  0.62166  0.87372  0.17458  1.0000
  H   H1265     1.0  0.57564  0.51907  0.07034  1.0000
  C   C1584     1.0  0.69514  0.57067  0.03904  1.0000
  H   H1266     1.0  0.72086  0.93699  0.04807  1.0000
  H   H1267     1.0  0.72096  0.58932  0.07987  1.0000
  H   H1268     1.0  0.87613  0.76619  0.22573  1.0000
  H   H1269     1.0  0.76140  0.57563  0.06879  1.0000
  C   C1585     1.0  0.69135  0.55832  0.23445  1.0000
  C   C1586     1.0  0.70181  0.53664  0.24313  1.0000
  C   C1587     1.0  0.49379  0.63921  0.01881  1.0000
  H   H1270     1.0  0.70816  0.58276  0.21764  1.0000
  H   H1271     1.0  0.72655  0.54454  0.23284  1.0000
  C   C1588     1.0  0.86871  0.94890  0.09889  1.0000
  C   C1589     1.0  0.85565  0.86522  0.23018  1.0000
  H   H1272     1.0  0.55412  0.63727  0.02720  1.0000
  H   H1273     1.0  0.57538  0.78667  0.01455  1.0000
  C   C1590     1.0  0.92617  0.89741  0.12404  1.0000
  C   C1591     1.0  0.96541  0.61218  0.14535  1.0000
  C   C1592     1.0  0.51389  0.86237  0.20375  1.0000
  H   H1274     1.0  0.49164  0.53278  0.25486  1.0000
  S   S216      1.0  0.69441  0.91076  0.27053  1.0000
  C   C1593     1.0  0.86848  0.84574  0.23890  1.0000
  H   H1275     1.0  0.53376  0.53218  0.11087  1.0000
  H   H1276     1.0  0.71038  0.62766  0.28496  1.0000
  H   H1277     1.0  0.85338  0.50758  0.27865  1.0000
  C   C1594     1.0  0.57624  0.90286  0.10944  1.0000
  C   C1595     1.0  0.50244  0.66956  0.03005  1.0000
  C   C1596     1.0  0.53922  0.49027  0.03853  1.0000
  C   C1597     1.0  0.61045  0.49619  0.18904  1.0000
  H   H1278     1.0  0.94005  0.63213  0.07749  1.0000
  H   H1279     1.0  0.91953  0.64344  0.02802  1.0000
  C   C1598     1.0  0.52314  0.54024  0.04751  1.0000
  C   C1599     1.0  0.55029  0.56387  0.02311  1.0000
  C   C1600     1.0  0.54522  0.61017  0.03264  1.0000
  H   H1280     1.0  0.56851  0.88240  0.23910  1.0000
  H   H1281     1.0  0.50607  0.92604  0.22168  1.0000
  C   C1601     1.0  0.85473  0.48100  0.10578  1.0000
  C   C1602     1.0  0.94528  0.53363  0.99758  1.0000
  H   H1282     1.0  0.60350  0.72143  0.03511  1.0000
  H   H1283     1.0  0.48539  0.53388  0.08243  1.0000
  C   C1603     1.0  0.79141  0.72203  0.23998  1.0000
  C   C1604     1.0  0.76251  0.95302  0.07532  1.0000
  H   H1284     1.0  0.96241  0.86447  0.30566  1.0000
  Fe  Fe108     1.0  0.84860  0.67332  0.29367  1.0000
  C   C1605     1.0  0.61294  0.91188  0.26189  1.0000
  H   H1285     1.0  0.93596  0.66352  0.24802  1.0000
  C   C1606     1.0  0.70456  0.92629  0.30717  1.0000
  H   H1286     1.0  0.81857  0.61468  0.03739  1.0000
  H   H1287     1.0  0.51026  0.64007  0.00029  1.0000
  H   H1288     1.0  0.71232  0.81148  0.14781  1.0000
  C   C1607     1.0  0.51641  0.64566  0.23976  1.0000
  C   C1608     1.0  0.94008  0.52121  0.08666  1.0000
  C   C1609     1.0  0.74366  0.55780  0.02408  1.0000
  H   H1289     1.0  0.64892  0.49118  0.20632  1.0000
  C   C1610     1.0  0.96195  0.83879  0.20227  1.0000
  H   H1290     1.0  0.55929  0.64415  0.24783  1.0000
  C   C1611     1.0  0.93581  0.81921  0.22805  1.0000
  H   H1291     1.0  0.48586  0.69001  0.06300  1.0000
  H   H1292     1.0  0.54553  0.69347  0.08111  1.0000
  C   C1612     1.0  0.84516  0.86611  0.28564  1.0000
  C   C1613     1.0  0.58940  0.90834  0.24153  1.0000
  H   H1293     1.0  0.61338  0.50956  0.27860  1.0000
  H   H1294     1.0  0.88693  0.78994  0.04297  1.0000
  C   C1614     1.0  0.84502  0.60554  0.07198  1.0000
  H   H1295     1.0  0.83595  0.87395  0.30388  1.0000
  H   H1296     1.0  0.91054  0.94189  0.17567  1.0000
  C   C1615     1.0  0.87128  0.83680  0.27130  1.0000
  C   C1616     1.0  0.75572  0.83934  0.17266  1.0000
  C   C1617     1.0  0.84289  0.94683  0.18222  1.0000
  H   H1297     1.0  0.86727  0.58891  0.10565  1.0000
  C   C1618     1.0  0.95405  0.95858  0.99530  1.0000
  S   S217      1.0  0.79869  0.66111  0.28143  1.0000
  C   C1619     1.0  0.89313  0.94731  0.18454  1.0000
  C   C1620     1.0  0.90769  0.61349  0.23419  1.0000
  H   H1298     1.0  0.88474  0.61238  0.23339  1.0000
  C   C1621     1.0  0.65941  0.54839  0.24725  1.0000
  C   C1622     1.0  0.93666  0.58598  0.22899  1.0000
  S   S218      1.0  0.89531  0.72803  0.29610  1.0000
  C   C1623     1.0  0.59991  0.71246  0.01242  1.0000
  C   C1624     1.0  0.92424  0.83510  0.24510  1.0000
  H   H1299     1.0  0.62181  0.52196  0.19490  1.0000
  C   C1625     1.0  0.82272  0.59586  0.04909  1.0000
  H   H1300     1.0  0.58039  0.74654  0.22951  1.0000
  C   C1626     1.0  0.97841  0.87489  0.19418  1.0000
  C   C1627     1.0  0.55047  0.66067  0.24310  1.0000
  C   C1628     1.0  0.90722  0.86094  0.13225  1.0000
  H   H1301     1.0  0.59984  0.70848  0.24149  1.0000
  C   C1629     1.0  0.90729  0.58494  0.22831  1.0000
  C   C1630     1.0  0.59583  0.50345  0.03609  1.0000
  H   H1302     1.0  0.82407  0.86675  0.04416  1.0000
  P   P56       1.0  0.77484  0.54953  0.01390  1.0000
  C   C1631     1.0  0.83433  0.54835  0.07990  1.0000
  H   H1303     1.0  0.83896  0.53017  0.09216  1.0000
  C   C1632     1.0  0.57318  0.77346  0.03828  1.0000
  C   C1633     1.0  0.93394  0.80388  0.29757  1.0000
  C   C1634     1.0  0.47992  0.83374  0.21212  1.0000
  H   H1304     1.0  0.82542  0.72200  0.20620  1.0000
  H   H1305     1.0  0.80587  0.97708  0.10091  1.0000
  C   C1635     1.0  0.51800  0.58678  0.05674  1.0000
  C   C1636     1.0  0.87348  0.55112  0.30339  1.0000
  C   C1637     1.0  0.80489  0.56180  0.04241  1.0000
  H   H1306     1.0  0.93691  0.88594  0.25184  1.0000
  C   C1638     1.0  0.56746  0.97226  0.18359  1.0000
  H   H1307     1.0  0.59876  0.82127  0.05731  1.0000
  C   C1639     1.0  0.58454  0.77706  0.09320  1.0000
  H   H1308     1.0  0.62162  0.91430  0.08324  1.0000
  C   C1640     1.0  0.51867  0.50423  0.11987  1.0000
  C   C1641     1.0  0.62298  0.70673  0.99950  1.0000
  H   H1309     1.0  0.93635  0.56391  0.22408  1.0000
  C   C1642     1.0  0.58642  0.79325  0.06248  1.0000
  C   C1643     1.0  0.52385  0.89616  0.20661  1.0000
  C   C1644     1.0  0.61111  0.91848  0.10362  1.0000
  H   H1310     1.0  0.53228  0.85829  0.19446  1.0000
  C   C1645     1.0  0.56282  0.90800  0.13609  1.0000
  H   H1311     1.0  0.61022  0.48659  0.99791  1.0000
  H   H1312     1.0  0.76888  0.70204  0.23097  1.0000
  C   C1646     1.0  0.55766  0.73718  0.04482  1.0000
  H   H1313     1.0  0.92514  0.94256  0.11814  1.0000
  H   H1314     1.0  0.48530  0.67903  0.12095  1.0000
  C   C1647     1.0  0.62203  0.97144  0.22655  1.0000
  C   C1648     1.0  0.75118  0.50349  0.01245  1.0000
  C   C1649     1.0  0.88854  0.96735  0.04160  1.0000
  C   C1650     1.0  0.96915  0.89150  0.21227  1.0000
  C   C1651     1.0  0.53194  0.73458  0.98324  1.0000
  C   C1652     1.0  0.89628  0.76393  0.30539  1.0000
  H   H1315     1.0  0.89622  0.96304  0.01947  1.0000
  C   C1653     1.0  0.59030  0.48720  0.00949  1.0000
  H   H1316     1.0  0.95461  0.56065  0.99725  1.0000
  H   H1317     1.0  0.92167  0.96899  0.22322  1.0000
  C   C1654     1.0  0.51165  0.86470  0.30637  1.0000
  Fe  Fe109     1.0  0.82902  0.59923  0.28998  1.0000
  H   H1318     1.0  0.89334  0.49298  0.29505  1.0000
  H   H1319     1.0  0.52816  0.51139  0.16830  1.0000
  H   H1320     1.0  0.48815  0.77219  0.22989  1.0000
  C   C1655     1.0  0.96638  0.61547  0.23585  1.0000
  H   H1321     1.0  0.83322  0.96928  0.21841  1.0000
  H   H1322     1.0  0.49791  0.82905  0.27371  1.0000
  H   H1323     1.0  0.56663  0.97996  0.23282  1.0000
  H   H1324     1.0  0.87194  0.49675  0.12172  1.0000
  C   C1656     1.0  0.48457  0.52500  0.20647  1.0000
  C   C1657     1.0  0.93008  0.49412  0.11261  1.0000
  H   H1325     1.0  0.52433  0.80176  0.30025  1.0000
  H   H1326     1.0  0.71735  0.53929  0.98316  1.0000
  S   S219      1.0  0.85002  0.67028  0.98085  1.0000
  C   C1658     1.0  0.64560  0.97487  0.24669  1.0000
  C   C1659     1.0  0.72864  0.96167  0.30797  1.0000
  C   C1660     1.0  0.89507  0.51479  0.30271  1.0000
  H   H1327     1.0  0.97215  0.64407  0.97769  1.0000
  C   C1661     1.0  0.62236  0.57974  0.47954  1.0000
  H   H1328     1.0  0.69426  0.73757  0.36108  1.0000
  C   C1662     1.0  0.72435  0.70149  0.49756  1.0000
  C   C1663     1.0  0.60077  0.84841  0.39086  1.0000
  C   C1664     1.0  0.57251  0.84639  0.40404  1.0000
  S   S220      1.0  0.67791  0.48856  0.53926  1.0000
  Fe  Fe110     1.0  0.95260  0.92517  0.32951  1.0000
  S   S221      1.0  0.91053  0.86794  0.35020  1.0000
  C   C1665     1.0  0.92898  0.77543  0.41378  1.0000
  C   C1666     1.0  0.72430  0.68659  0.52853  1.0000
  H   H1329     1.0  0.93999  0.53871  0.39934  1.0000
  Fe  Fe111     1.0  0.52521  0.49861  0.35269  1.0000
  H   H1330     1.0  0.85535  0.83861  0.31978  1.0000
  C   C1667     1.0  0.67454  0.59239  0.49763  1.0000
  C   C1668     1.0  0.61104  0.82892  0.40724  1.0000
  H   H1331     1.0  0.94478  0.58366  0.48543  1.0000
  C   C1669     1.0  0.56465  0.80453  0.44979  1.0000
  H   H1332     1.0  0.90231  0.58098  0.52029  1.0000
  H   H1333     1.0  0.74457  0.78001  0.51186  1.0000
  C   C1670     1.0  0.49156  0.87620  0.45988  1.0000
  S   S222      1.0  0.82444  0.62357  0.33044  1.0000
  H   H1334     1.0  0.88952  0.68830  0.35547  1.0000
  Fe  Fe112     1.0  0.54395  0.56655  0.61921  1.0000
  S   S223      1.0  0.50642  0.51983  0.59808  1.0000
  Fe  Fe113     1.0  0.56517  0.61717  0.55515  1.0000
  S   S224      1.0  0.52928  0.57340  0.52963  1.0000
  S   S225      1.0  0.60790  0.67239  0.52902  1.0000
  H   H1335     1.0  0.90435  0.97970  0.38033  1.0000
  S   S226      1.0  0.94997  0.53962  0.53136  1.0000
  Fe  Fe114     1.0  0.54698  0.54279  0.55580  1.0000
  S   S227      1.0  0.55778  0.50891  0.53103  1.0000
  S   S228      1.0  0.52647  0.59921  0.59806  1.0000
  S   S229      1.0  0.58496  0.58759  0.57811  1.0000
  C   C1671     1.0  0.64783  0.57425  0.47987  1.0000
  C   C1672     1.0  0.62266  0.48189  0.51285  1.0000
  C   C1673     1.0  0.66481  0.56119  0.33353  1.0000
  Fe  Fe115     1.0  0.66405  0.87203  0.50731  1.0000
  H   H1336     1.0  0.95970  0.89828  0.51480  1.0000
  S   S230      1.0  0.61826  0.81444  0.52059  1.0000
  H   H1337     1.0  0.55222  0.82137  0.34806  1.0000
  C   C1674     1.0  0.55367  0.70884  0.63019  1.0000
  H   H1338     1.0  0.82328  0.96758  0.48810  1.0000
  C   C1675     1.0  0.53464  0.87664  0.41323  1.0000
  S   S231      1.0  0.65701  0.91052  0.47749  1.0000
  S   S232      1.0  0.71603  0.89418  0.48167  1.0000
  C   C1676     1.0  0.94777  0.62930  0.46332  1.0000
  C   C1677     1.0  0.88751  0.49954  0.57101  1.0000
  H   H1339     1.0  0.60087  0.56454  0.46685  1.0000
  C   C1678     1.0  0.90482  0.51440  0.53982  1.0000
  C   C1679     1.0  0.54168  0.96884  0.43311  1.0000
  C   C1680     1.0  0.73986  0.73979  0.54706  1.0000
  H   H1340     1.0  0.88091  0.48937  0.39627  1.0000
  H   H1341     1.0  0.93597  0.77059  0.43680  1.0000
  H   H1342     1.0  0.66369  0.82668  0.57078  1.0000
  S   S233      1.0  0.49171  0.96945  0.35446  1.0000
  C   C1681     1.0  0.59254  0.50531  0.53258  1.0000
  C   C1682     1.0  0.61553  0.51927  0.55477  1.0000
  C   C1683     1.0  0.64159  0.51417  0.55621  1.0000
  C   C1684     1.0  0.50014  0.86066  0.41011  1.0000
  H   H1343     1.0  0.66949  0.87491  0.33580  1.0000
  C   C1685     1.0  0.88576  0.50933  0.51408  1.0000
  H   H1344     1.0  0.61266  0.53322  0.57130  1.0000
  H   H1345     1.0  0.65890  0.52476  0.57375  1.0000
  H   H1346     1.0  0.57323  0.90366  0.44396  1.0000
  H   H1347     1.0  0.85595  0.55183  0.56478  1.0000
  C   C1686     1.0  0.61043  0.71163  0.52765  1.0000
  C   C1687     1.0  0.58220  0.71128  0.53697  1.0000
  C   C1688     1.0  0.58508  0.74296  0.53428  1.0000
  C   C1689     1.0  0.61628  0.77542  0.52290  1.0000
  C   C1690     1.0  0.64465  0.77582  0.51403  1.0000
  C   C1691     1.0  0.64164  0.74407  0.51618  1.0000
  H   H1348     1.0  0.55801  0.68660  0.54578  1.0000
  H   H1349     1.0  0.56298  0.74233  0.54115  1.0000
  H   H1350     1.0  0.66882  0.80054  0.50530  1.0000
  H   H1351     1.0  0.66365  0.74467  0.50895  1.0000
  C   C1692     1.0  0.90445  0.83444  0.33011  1.0000
  C   C1693     1.0  0.65104  0.62272  0.51367  1.0000
  C   C1694     1.0  0.48012  0.53784  0.47313  1.0000
  C   C1695     1.0  0.54663  0.73317  0.61928  1.0000
  C   C1696     1.0  0.86218  0.75887  0.32477  1.0000
  C   C1697     1.0  0.86601  0.79421  0.33717  1.0000
  H   H1352     1.0  0.53496  0.57499  0.38982  1.0000
  C   C1698     1.0  0.54224  0.86057  0.34899  1.0000
  H   H1353     1.0  0.83852  0.73318  0.33008  1.0000
  H   H1354     1.0  0.84490  0.79030  0.35152  1.0000
  H   H1355     1.0  0.50707  0.96040  0.61933  1.0000
  C   C1699     1.0  0.97446  0.72448  0.33053  1.0000
  H   H1356     1.0  0.97441  0.52517  0.47917  1.0000
  C   C1700     1.0  0.69591  0.91352  0.36591  1.0000
  H   H1357     1.0  0.77537  0.68989  0.49197  1.0000
  C   C1701     1.0  0.92151  0.56305  0.33119  1.0000
  S   S234      1.0  0.51609  0.52730  0.31269  1.0000
  C   C1702     1.0  0.85239  0.56085  0.54146  1.0000
  H   H1358     1.0  0.96766  0.82164  0.34125  1.0000
  H   H1359     1.0  0.94053  0.57879  0.34582  1.0000
  C   C1703     1.0  0.61497  0.54461  0.36976  1.0000
  C   C1704     1.0  0.63576  0.55590  0.39401  1.0000
  C   C1705     1.0  0.67026  0.56914  0.38844  1.0000
  H   H1360     1.0  0.69290  0.58629  0.49861  1.0000
  S   S235      1.0  0.57104  0.52695  0.38011  1.0000
  P   P57       1.0  0.56209  0.87496  0.38450  1.0000
  C   C1706     1.0  0.75856  0.49346  0.34485  1.0000
  H   H1361     1.0  0.68546  0.57711  0.40782  1.0000
  C   C1707     1.0  0.83903  0.97616  0.50704  1.0000
  H   H1362     1.0  0.64611  0.55477  0.46750  1.0000
  C   C1708     1.0  0.71460  0.65678  0.32172  1.0000
  H   H1363     1.0  0.93182  0.48252  0.39998  1.0000
  C   C1709     1.0  0.62374  0.60359  0.49684  1.0000
  C   C1710     1.0  0.96295  0.90629  0.42013  1.0000
  H   H1364     1.0  0.53208  0.82140  0.44406  1.0000
  C   C1711     1.0  0.91980  0.53455  0.32189  1.0000
  H   H1365     1.0  0.60346  0.60707  0.49752  1.0000
  H   H1366     1.0  0.90682  0.60939  0.38101  1.0000
  C   C1712     1.0  0.52561  0.89149  0.46358  1.0000
  Fe  Fe116     1.0  0.96016  0.48678  0.31978  1.0000
  C   C1713     1.0  0.51598  0.58654  0.42933  1.0000
  C   C1714     1.0  0.65809  0.96104  0.38669  1.0000
  S   S236      1.0  0.94821  0.52409  0.33583  1.0000
  H   H1367     1.0  0.68563  0.70777  0.32035  1.0000
  C   C1715     1.0  0.94910  0.91023  0.52557  1.0000
  H   H1368     1.0  0.52834  0.61379  0.41859  1.0000
  H   H1369     1.0  0.54552  0.48540  0.60345  1.0000
  S   S237      1.0  0.68469  0.90478  0.54588  1.0000
  C   C1716     1.0  0.89875  0.64870  0.36489  1.0000
  C   C1717     1.0  0.54708  0.89184  0.44035  1.0000
  H   H1370     1.0  0.68336  0.89495  0.38817  1.0000
  C   C1718     1.0  0.56808  0.97424  0.41251  1.0000
  H   H1371     1.0  0.82038  0.68398  0.47330  1.0000
  C   C1719     1.0  0.77357  0.66643  0.50137  1.0000
  H   H1372     1.0  0.50673  0.51334  0.41379  1.0000
  H   H1373     1.0  0.63388  0.67685  0.45659  1.0000
  C   C1720     1.0  0.72032  0.94883  0.36665  1.0000
  C   C1721     1.0  0.89318  0.67273  0.37359  1.0000
  H   H1374     1.0  0.56282  0.95586  0.39682  1.0000
  H   H1375     1.0  0.51504  0.74294  0.59236  1.0000
  C   C1722     1.0  0.82092  0.55412  0.53656  1.0000
  C   C1723     1.0  0.96639  0.92280  0.44640  1.0000
  C   C1724     1.0  0.76960  0.60575  0.52420  1.0000
  C   C1725     1.0  0.89589  0.65568  0.42910  1.0000
  C   C1726     1.0  0.89181  0.67627  0.40565  1.0000
  Fe  Fe117     1.0  0.71002  0.93430  0.45421  1.0000
  H   H1376     1.0  0.81683  0.63014  0.49358  1.0000
  C   C1727     1.0  0.69858  0.62384  0.57900  1.0000
  C   C1728     1.0  0.61028  0.93904  0.34377  1.0000
  C   C1729     1.0  0.60197  0.91781  0.37394  1.0000
  C   C1730     1.0  0.91000  0.79013  0.35080  1.0000
  C   C1731     1.0  0.88625  0.76663  0.38046  1.0000
  C   C1732     1.0  0.89548  0.76021  0.40997  1.0000
  C   C1733     1.0  0.88567  0.51064  0.40771  1.0000
  H   H1377     1.0  0.58547  0.62120  0.44391  1.0000
  C   C1734     1.0  0.94494  0.80399  0.35830  1.0000
  Fe  Fe118     1.0  0.68135  0.94472  0.51439  1.0000
  C   C1735     1.0  0.68390  0.83213  0.61578  1.0000
  C   C1736     1.0  0.81589  0.56435  0.50616  1.0000
  H   H1378     1.0  0.62488  0.55400  0.41748  1.0000
  C   C1737     1.0  0.54109  0.83377  0.33671  1.0000
  P   P58       1.0  0.90586  0.60430  0.45102  1.0000
  H   H1379     1.0  0.95967  0.68038  0.44381  1.0000
  H   H1380     1.0  0.72531  0.64598  0.33643  1.0000
  C   C1738     1.0  0.90295  0.62814  0.38824  1.0000
  H   H1381     1.0  0.89928  0.64563  0.34002  1.0000
  H   H1382     1.0  0.59265  0.93127  0.32638  1.0000
  H   H1383     1.0  0.60634  0.94624  0.51115  1.0000
  H   H1384     1.0  0.94085  0.93195  0.59700  1.0000
  C   C1739     1.0  0.51979  0.56480  0.41320  1.0000
  H   H1385     1.0  0.85895  0.75235  0.38223  1.0000
  H   H1386     1.0  0.87603  0.74312  0.43023  1.0000
  C   C1740     1.0  0.69226  0.69126  0.31270  1.0000
  C   C1741     1.0  0.66412  0.60109  0.59147  1.0000
  C   C1742     1.0  0.84203  0.58062  0.48052  1.0000
  C   C1743     1.0  0.65186  0.48440  0.40403  1.0000
  H   H1387     1.0  0.77962  0.51987  0.34611  1.0000
  S   S238      1.0  0.72952  0.58922  0.35388  1.0000
  H   H1388     1.0  0.52829  0.89700  0.34224  1.0000
  C   C1744     1.0  0.55404  0.82369  0.43334  1.0000
  C   C1745     1.0  0.68526  0.57190  0.35827  1.0000
  H   H1389     1.0  0.51588  0.94638  0.43330  1.0000
  C   C1746     1.0  0.59638  0.48667  0.51162  1.0000
  H   H1390     1.0  0.60189  0.79318  0.45018  1.0000
  C   C1747     1.0  0.82390  0.96781  0.53866  1.0000
  C   C1748     1.0  0.63046  0.78081  0.60706  1.0000
  C   C1749     1.0  0.48327  0.51566  0.45694  1.0000
  C   C1750     1.0  0.73224  0.70608  0.55322  1.0000
  C   C1751     1.0  0.59324  0.80733  0.43688  1.0000
  C   C1752     1.0  0.73945  0.75422  0.51632  1.0000
  P   P59       1.0  0.71608  0.69086  0.37174  1.0000
  C   C1753     1.0  0.67497  0.66834  0.39540  1.0000
  C   C1754     1.0  0.74029  0.67587  0.38902  1.0000
  C   C1755     1.0  0.72777  0.65227  0.41834  1.0000
  C   C1756     1.0  0.74506  0.63813  0.42969  1.0000
  C   C1757     1.0  0.77483  0.64738  0.41197  1.0000
  C   C1758     1.0  0.78779  0.67130  0.38312  1.0000
  C   C1759     1.0  0.77068  0.68560  0.37173  1.0000
  C   C1760     1.0  0.67003  0.68260  0.42023  1.0000
  C   C1761     1.0  0.63774  0.66580  0.43744  1.0000
  C   C1762     1.0  0.61037  0.63442  0.43029  1.0000
  C   C1763     1.0  0.61536  0.61950  0.40636  1.0000
  C   C1764     1.0  0.64750  0.63638  0.38893  1.0000
  C   C1765     1.0  0.73832  0.73773  0.36947  1.0000
  C   C1766     1.0  0.72095  0.75329  0.36377  1.0000
  C   C1767     1.0  0.73768  0.78933  0.36213  1.0000
  C   C1768     1.0  0.77181  0.81018  0.36657  1.0000
  C   C1769     1.0  0.78917  0.79497  0.37293  1.0000
  C   C1770     1.0  0.77256  0.75892  0.37441  1.0000
  H   H1391     1.0  0.88715  0.69468  0.41225  1.0000
  C   C1771     1.0  0.96010  0.61195  0.48004  1.0000
  C   C1772     1.0  0.52764  0.87616  0.33337  1.0000
  H   H1392     1.0  0.71781  0.68677  0.47824  1.0000
  C   C1773     1.0  0.61986  0.66689  0.61656  1.0000
  H   H1393     1.0  0.70395  0.64347  0.43178  1.0000
  H   H1394     1.0  0.73459  0.61866  0.45144  1.0000
  H   H1395     1.0  0.78706  0.63485  0.41990  1.0000
  H   H1396     1.0  0.81000  0.67719  0.36870  1.0000
  H   H1397     1.0  0.77997  0.70264  0.34848  1.0000
  H   H1398     1.0  0.69093  0.70679  0.42618  1.0000
  H   H1399     1.0  0.59442  0.59467  0.40133  1.0000
  H   H1400     1.0  0.65072  0.62436  0.37040  1.0000
  C   C1774     1.0  0.73177  0.73511  0.49156  1.0000
  H   H1401     1.0  0.90064  0.59346  0.32901  1.0000
  H   H1402     1.0  0.78473  0.83813  0.36526  1.0000
  H   H1403     1.0  0.81560  0.81127  0.37671  1.0000
  H   H1404     1.0  0.78658  0.74790  0.37964  1.0000
  C   C1775     1.0  0.90142  0.63140  0.42055  1.0000
  C   C1776     1.0  0.87874  0.57742  0.51593  1.0000
  C   C1777     1.0  0.50363  0.52960  0.42696  1.0000
  C   C1778     1.0  0.62470  0.76486  0.63919  1.0000
  Fe  Fe119     1.0  0.49104  0.55347  0.57361  1.0000
  C   C1779     1.0  0.62976  0.54756  0.33925  1.0000
  C   C1780     1.0  0.85858  0.51083  0.41984  1.0000
  H   H1405     1.0  0.66002  0.49289  0.42652  1.0000
  C   C1781     1.0  0.91898  0.53852  0.40937  1.0000
  C   C1782     1.0  0.92529  0.56690  0.42260  1.0000
  C   C1783     1.0  0.89818  0.56699  0.43543  1.0000
  C   C1784     1.0  0.86476  0.53886  0.43358  1.0000
  C   C1785     1.0  0.93819  0.92878  0.57221  1.0000
  C   C1786     1.0  0.62629  0.92918  0.39529  1.0000
  H   H1406     1.0  0.56197  0.95753  0.51174  1.0000
  H   H1407     1.0  0.95131  0.58876  0.42239  1.0000
  H   H1408     1.0  0.84325  0.53853  0.44223  1.0000
  H   H1409     1.0  0.79426  0.95959  0.42393  1.0000
  H   H1410     1.0  0.48917  0.84765  0.39020  1.0000
  C   C1787     1.0  0.92154  0.94039  0.55451  1.0000
  C   C1788     1.0  0.91882  0.93715  0.52232  1.0000
  C   C1789     1.0  0.93353  0.92305  0.50734  1.0000
  H   H1411     1.0  0.62460  0.66290  0.59298  1.0000
  P   P60       1.0  0.93054  0.91960  0.46557  1.0000
  C   C1790     1.0  0.89028  0.87899  0.46409  1.0000
  C   C1791     1.0  0.93302  0.95662  0.44404  1.0000
  H   H1412     1.0  0.89869  0.52014  0.48980  1.0000
  C   C1792     1.0  0.50582  0.66529  0.60628  1.0000
  C   C1793     1.0  0.95354  0.79703  0.38797  1.0000
  H   H1413     1.0  0.62730  0.57106  0.63382  1.0000
  C   C1794     1.0  0.91573  0.95332  0.41736  1.0000
  C   C1795     1.0  0.86048  0.87762  0.46528  1.0000
  C   C1796     1.0  0.82925  0.84637  0.46380  1.0000
  C   C1797     1.0  0.82749  0.81615  0.46161  1.0000
  C   C1798     1.0  0.85688  0.81703  0.46147  1.0000
  C   C1799     1.0  0.88811  0.84822  0.46312  1.0000
  H   H1414     1.0  0.48992  0.63891  0.60137  1.0000
  H   H1415     1.0  0.61428  0.53934  0.32018  1.0000
  C   C1800     1.0  0.49632  0.57311  0.45939  1.0000
  H   H1416     1.0  0.96676  0.73439  0.34795  1.0000
  S   S239      1.0  0.73407  0.97108  0.48897  1.0000
  H   H1417     1.0  0.52848  0.49223  0.46411  1.0000
  H   H1418     1.0  0.74986  0.65012  0.59080  1.0000
  C   C1801     1.0  0.60895  0.68824  0.61976  1.0000
  H   H1419     1.0  0.91126  0.95258  0.56547  1.0000
  H   H1420     1.0  0.90591  0.94648  0.50904  1.0000
  H   H1421     1.0  0.67675  0.96927  0.40310  1.0000
  C   C1802     1.0  0.65410  0.58810  0.62440  1.0000
  H   H1422     1.0  0.61260  0.76732  0.59068  1.0000
  H   H1423     1.0  0.55130  0.78815  0.47304  1.0000
  H   H1424     1.0  0.61553  0.86591  0.36839  1.0000
  H   H1425     1.0  0.90123  0.92874  0.40885  1.0000
  H   H1426     1.0  0.86138  0.90077  0.46724  1.0000
  H   H1427     1.0  0.80646  0.84570  0.46432  1.0000
  H   H1428     1.0  0.80336  0.79204  0.46022  1.0000
  H   H1429     1.0  0.85555  0.79360  0.46001  1.0000
  H   H1430     1.0  0.91052  0.84830  0.46348  1.0000
  S   S240      1.0  0.74723  0.48377  0.49679  1.0000
  C   C1803     1.0  0.67672  0.61731  0.51417  1.0000
  H   H1431     1.0  0.60554  0.70069  0.59843  1.0000
  C   C1804     1.0  0.65971  0.81444  0.59555  1.0000
  H   H1432     1.0  0.93875  0.89104  0.41125  1.0000
  C   C1805     1.0  0.70841  0.68000  0.33206  1.0000
  H   H1433     1.0  0.79118  0.55813  0.50209  1.0000
  C   C1806     1.0  0.87372  0.58725  0.48514  1.0000
  H   H1434     1.0  0.63335  0.83125  0.39734  1.0000
  H   H1435     1.0  0.70658  0.85824  0.60667  1.0000
  Fe  Fe120     1.0  0.73646  0.92981  0.51824  1.0000
  H   H1436     1.0  0.83685  0.58644  0.45682  1.0000
  H   H1437     1.0  0.80012  0.53990  0.55607  1.0000
  H   H1438     1.0  0.65167  0.64127  0.52676  1.0000
  H   H1439     1.0  0.90167  0.50299  0.59106  1.0000
  C   C1807     1.0  0.89882  0.57147  0.32182  1.0000
  C   C1808     1.0  0.74580  0.63928  0.52359  1.0000
  H   H1440     1.0  0.53552  0.90339  0.48435  1.0000
  C   C1809     1.0  0.68812  0.90231  0.33626  1.0000
  H   H1441     1.0  0.62132  0.91300  0.41823  1.0000
  H   H1442     1.0  0.73084  0.74609  0.46789  1.0000
  P   P61       1.0  0.71151  0.64187  0.53658  1.0000
  C   C1810     1.0  0.74405  0.60896  0.53497  1.0000
  H   H1443     1.0  0.56199  0.75947  0.62434  1.0000
  C   C1811     1.0  0.53261  0.67461  0.62417  1.0000
  S   S241      1.0  0.77905  0.94314  0.54918  1.0000
  C   C1812     1.0  0.60995  0.96749  0.52182  1.0000
  S   S242      1.0  0.73173  0.96428  0.40314  1.0000
  H   H1444     1.0  0.49358  0.58997  0.47215  1.0000
  C   C1813     1.0  0.96833  0.66610  0.45656  1.0000
  C   C1814     1.0  0.51985  0.72381  0.60135  1.0000
  H   H1445     1.0  0.72410  0.80111  0.35753  1.0000
  C   C1815     1.0  0.79918  0.66316  0.49068  1.0000
  H   H1446     1.0  0.64494  0.59329  0.57580  1.0000
  H   H1447     1.0  0.89448  0.65843  0.45393  1.0000
  C   C1816     1.0  0.79717  0.63282  0.50205  1.0000
  C   C1817     1.0  0.64242  0.97064  0.33515  1.0000
  H   H1448     1.0  0.74538  0.75448  0.56633  1.0000
  C   C1818     1.0  0.85001  0.49020  0.51941  1.0000
  C   C1819     1.0  0.72307  0.63276  0.59993  1.0000
  H   H1449     1.0  0.96472  0.90457  0.57155  1.0000
  H   H1450     1.0  0.72248  0.58732  0.55161  1.0000
  C   C1820     1.0  0.67310  0.48257  0.38258  1.0000
  H   H1451     1.0  0.73189  0.69523  0.57740  1.0000
  H   H1452     1.0  0.76762  0.58197  0.53286  1.0000
  C   C1821     1.0  0.49958  0.68994  0.59470  1.0000
  H   H1453     1.0  0.69769  0.48962  0.38845  1.0000
  C   C1822     1.0  0.73651  0.97283  0.33759  1.0000
  C   C1823     1.0  0.64512  0.49507  0.53553  1.0000
  C   C1824     1.0  0.71305  0.61958  0.63289  1.0000
  C   C1825     1.0  0.95175  0.91348  0.55781  1.0000
  C   C1826     1.0  0.84488  0.97847  0.56309  1.0000
  H   H1454     1.0  0.83266  0.48959  0.41821  1.0000
  C   C1827     1.0  0.74900  0.48467  0.31471  1.0000
  H   H1455     1.0  0.83348  0.97205  0.58765  1.0000
  H   H1456     1.0  0.83585  0.48679  0.49936  1.0000
  H   H1457     1.0  0.80785  0.97651  0.36472  1.0000
  H   H1458     1.0  0.53674  0.65501  0.63336  1.0000
  H   H1459     1.0  0.63162  0.63299  0.64133  1.0000
  Fe  Fe121     1.0  0.77422  0.60935  0.31471  1.0000
  C   C1828     1.0  0.58483  0.97400  0.52216  1.0000
  H   H1460     1.0  0.67110  0.48115  0.62010  1.0000
  C   C1829     1.0  0.51820  0.97215  0.63985  1.0000
  C   C1830     1.0  0.93799  0.83945  0.30957  1.0000
  H   H1461     1.0  0.67600  0.56316  0.31018  1.0000
  C   C1831     1.0  0.52526  0.82254  0.30953  1.0000
  S   S243      1.0  0.86430  0.72615  0.91781  1.0000
  C   C1832     1.0  0.95074  0.66649  0.94906  1.0000
  C   C1833     1.0  0.55661  0.75861  0.95713  1.0000
  Fe  Fe122     1.0  0.58756  0.61460  0.89489  1.0000
  S   S244      1.0  0.56689  0.57123  0.86598  1.0000
  S   S245      1.0  0.64218  0.65408  0.90520  1.0000
  Fe  Fe123     1.0  0.51730  0.60241  0.90816  1.0000
  H   H1462     1.0  0.70944  0.70794  0.91631  1.0000
  H   H1463     1.0  0.60753  0.53288  0.87045  1.0000
  Fe  Fe124     1.0  0.52222  0.53981  0.90536  1.0000
  C   C1834     1.0  0.53293  0.87842  0.91115  1.0000
  Fe  Fe125     1.0  0.53732  0.59080  0.84460  1.0000
  S   S246      1.0  0.52551  0.59825  0.79387  1.0000
  S   S247      1.0  0.54429  0.58252  0.93505  1.0000
  S   S248      1.0  0.56183  0.63711  0.86970  1.0000
  C   C1835     1.0  0.55141  0.57122  0.70214  1.0000
  C   C1836     1.0  0.52896  0.58082  0.70309  1.0000
  C   C1837     1.0  0.52139  0.58900  0.73141  1.0000
  C   C1838     1.0  0.53616  0.58771  0.75902  1.0000
  C   C1839     1.0  0.55884  0.57836  0.75803  1.0000
  C   C1840     1.0  0.56662  0.57044  0.72961  1.0000
  H   H1464     1.0  0.51713  0.58157  0.68213  1.0000
  S   S249      1.0  0.50516  0.48569  0.93189  1.0000
  H   H1465     1.0  0.57046  0.57743  0.77910  1.0000
  H   H1466     1.0  0.64962  0.59638  0.92371  1.0000
  C   C1841     1.0  0.93359  0.86582  0.92668  1.0000
  H   H1467     1.0  0.64672  0.76964  0.68342  1.0000
  H   H1468     1.0  0.56072  0.92678  0.75386  1.0000
  H   H1469     1.0  0.57213  0.82317  0.80868  1.0000
  H   H1470     1.0  0.49933  0.91322  0.78968  1.0000
  C   C1842     1.0  0.93450  0.89315  0.90765  1.0000
  C   C1843     1.0  0.96124  0.92856  0.90697  1.0000
  H   H1471     1.0  0.58422  0.51164  0.67582  1.0000
  H   H1472     1.0  0.91458  0.88685  0.89295  1.0000
  C   C1844     1.0  0.94512  0.67501  0.91824  1.0000
  P   P62       1.0  0.58791  0.72065  0.65370  1.0000
  H   H1473     1.0  0.62154  0.64290  0.69518  1.0000
  Fe  Fe126     1.0  0.88518  0.76750  0.94895  1.0000
  C   C1845     1.0  0.60216  0.69312  0.65024  1.0000
  C   C1846     1.0  0.53284  0.83075  0.76493  1.0000
  H   H1474     1.0  0.96627  0.88360  0.84552  1.0000
  C   C1847     1.0  0.67593  0.65213  0.91860  1.0000
  C   C1848     1.0  0.67307  0.62072  0.92595  1.0000
  C   C1849     1.0  0.73178  0.65225  0.93878  1.0000
  C   C1850     1.0  0.73448  0.68357  0.93180  1.0000
  C   C1851     1.0  0.70680  0.68345  0.92182  1.0000
  H   H1475     1.0  0.62521  0.55326  0.81178  1.0000
  C   C1852     1.0  0.55521  0.48583  0.72264  1.0000
  S   S250      1.0  0.92460  0.69648  0.91051  1.0000
  C   C1853     1.0  0.55783  0.88728  0.73089  1.0000
  C   C1854     1.0  0.52437  0.78848  0.84011  1.0000
  C   C1855     1.0  0.67904  0.81592  0.64748  1.0000
  H   H1476     1.0  0.58463  0.90960  0.88820  1.0000
  C   C1856     1.0  0.94274  0.96822  0.96893  1.0000
  H   H1477     1.0  0.97857  0.97954  0.80955  1.0000
  C   C1857     1.0  0.61838  0.65588  0.67408  1.0000
  P   P63       1.0  0.48888  0.95234  0.73658  1.0000
  H   H1478     1.0  0.52456  0.80379  0.76758  1.0000
  H   H1479     1.0  0.59277  0.76955  0.69381  1.0000
  C   C1858     1.0  0.54122  0.70407  0.75694  1.0000
  H   H1480     1.0  0.53841  0.89358  0.93005  1.0000
  C   C1859     1.0  0.57676  0.74321  0.70755  1.0000
  H   H1481     1.0  0.63666  0.68997  0.96049  1.0000
  H   H1482     1.0  0.54816  0.68959  0.95399  1.0000
  C   C1860     1.0  0.55041  0.77862  0.93529  1.0000
  H   H1483     1.0  0.50491  0.90576  0.71723  1.0000
  C   C1861     1.0  0.96773  0.65017  0.95377  1.0000
  C   C1862     1.0  0.95948  0.87438  0.94562  1.0000
  H   H1484     1.0  0.60368  0.68146  0.70114  1.0000
  H   H1485     1.0  0.54933  0.50462  0.72355  1.0000
  C   C1863     1.0  0.49979  0.84968  0.91050  1.0000
  H   H1486     1.0  0.56931  0.90424  0.70758  1.0000
  H   H1487     1.0  0.48097  0.91863  0.95044  1.0000
  C   C1864     1.0  0.70077  0.62084  0.93595  1.0000
  H   H1488     1.0  0.56830  0.76009  0.74941  1.0000
  C   C1865     1.0  0.51427  0.94060  0.79145  1.0000
  H   H1489     1.0  0.69815  0.82937  0.66296  1.0000
  P   P64       1.0  0.50884  0.81492  0.82989  1.0000
  H   H1490     1.0  0.67075  0.58749  0.67070  1.0000
  H   H1491     1.0  0.50326  0.71499  0.89113  1.0000
  C   C1866     1.0  0.80057  0.57471  0.97563  1.0000
  C   C1867     1.0  0.51398  0.97215  0.69723  1.0000
  H   H1492     1.0  0.96612  0.49372  0.81987  1.0000
  H   H1493     1.0  0.51488  0.79055  0.92263  1.0000
  H   H1494     1.0  0.53045  0.93134  0.83607  1.0000
  H   H1495     1.0  0.93708  0.79026  0.89850  1.0000
  C   C1868     1.0  0.52875  0.84360  0.79139  1.0000
  S   S251      1.0  0.76596  0.65056  0.95111  1.0000
  C   C1869     1.0  0.64975  0.78223  0.65906  1.0000
  H   H1496     1.0  0.92674  0.94911  0.95444  1.0000
  C   C1870     1.0  0.55307  0.90000  0.75696  1.0000
  C   C1871     1.0  0.57905  0.50921  0.79963  1.0000
  C   C1872     1.0  0.49228  0.83057  0.88576  1.0000
  C   C1873     1.0  0.51795  0.84005  0.86142  1.0000
  C   C1874     1.0  0.60086  0.52877  0.82090  1.0000
  H   H1497     1.0  0.77161  0.59488  0.96089  1.0000
  S   S252      1.0  0.56076  0.55951  0.66739  1.0000
  Fe  Fe127     1.0  0.82169  0.69121  0.95831  1.0000
  C   C1875     1.0  0.79302  0.59424  0.95472  1.0000
  H   H1498     1.0  0.95275  0.67343  0.86834  1.0000
  H   H1499     1.0  0.94160  0.91521  0.82842  1.0000
  C   C1876     1.0  0.55905  0.48645  0.86583  1.0000
  C   C1877     1.0  0.81415  0.61468  0.92587  1.0000
  C   C1878     1.0  0.84304  0.61584  0.91769  1.0000
  C   C1879     1.0  0.85059  0.59616  0.93816  1.0000
  H   H1500     1.0  0.56949  0.79709  0.91520  1.0000
  C   C1880     1.0  0.61899  0.69476  0.97042  1.0000
  C   C1881     1.0  0.60771  0.67743  0.67738  1.0000
  H   H1501     1.0  0.58466  0.56388  0.72891  1.0000
  H   H1502     1.0  0.58876  0.67906  0.93176  1.0000
  H   H1503     1.0  0.50039  0.49256  0.81832  1.0000
  C   C1882     1.0  0.56263  0.73794  0.73896  1.0000
  S   S253      1.0  0.49415  0.62494  0.93539  1.0000
  C   C1883     1.0  0.56996  0.71456  0.69414  1.0000
  C   C1884     1.0  0.95948  0.49730  0.77001  1.0000
  H   H1504     1.0  0.80869  0.63065  0.91046  1.0000
  H   H1505     1.0  0.86003  0.63265  0.89584  1.0000
  H   H1506     1.0  0.87339  0.59769  0.93193  1.0000
  C   C1885     1.0  0.95811  0.80479  0.87924  1.0000
  H   H1507     1.0  0.95916  0.85372  0.96041  1.0000
  S   S254      1.0  0.90017  0.82172  0.92490  1.0000
  C   C1886     1.0  0.59203  0.68873  0.95413  1.0000
  H   H1508     1.0  0.51673  0.64911  0.75725  1.0000
  C   C1887     1.0  0.55886  0.88749  0.88747  1.0000
  C   C1888     1.0  0.96891  0.92944  0.82720  1.0000
  Fe  Fe128     1.0  0.89402  0.70833  0.94241  1.0000
  H   H1509     1.0  0.97709  0.85413  0.89310  1.0000
  H   H1510     1.0  0.87429  0.94716  0.65586  1.0000
  C   C1889     1.0  0.55151  0.86809  0.86292  1.0000
  C   C1890     1.0  0.55640  0.79917  0.82610  1.0000
  C   C1891     1.0  0.88402  0.97438  0.65489  1.0000
  C   C1892     1.0  0.56866  0.77904  0.83489  1.0000
  C   C1893     1.0  0.54930  0.74848  0.85806  1.0000
  C   C1894     1.0  0.51787  0.73825  0.87268  1.0000
  C   C1895     1.0  0.50548  0.75821  0.86396  1.0000
  C   C1896     1.0  0.53826  0.87816  0.78703  1.0000
  H   H1511     1.0  0.69828  0.59644  0.94122  1.0000
  H   H1512     1.0  0.58689  0.51901  0.77414  1.0000
  H   H1513     1.0  0.75797  0.70796  0.93390  1.0000
  H   H1514     1.0  0.57192  0.87518  0.84493  1.0000
  C   C1897     1.0  0.53199  0.95071  0.81785  1.0000
  H   H1515     1.0  0.59330  0.78722  0.82398  1.0000
  H   H1516     1.0  0.55869  0.73280  0.86500  1.0000
  C   C1898     1.0  0.51965  0.77493  0.93940  1.0000
  C   C1899     1.0  0.82932  0.57548  0.96694  1.0000
  H   H1517     1.0  0.53409  0.88826  0.80672  1.0000
  H   H1518     1.0  0.76107  0.51067  0.96073  1.0000
  C   C1900     1.0  0.49495  0.75102  0.96518  1.0000
  C   C1901     1.0  0.54738  0.68057  0.71194  1.0000
  C   C1902     1.0  0.95677  0.66690  0.89233  1.0000
  C   C1903     1.0  0.57524  0.48999  0.69547  1.0000
  H   H1519     1.0  0.48116  0.74995  0.87599  1.0000
  H   H1520     1.0  0.97122  0.54570  0.95037  1.0000
  H   H1521     1.0  0.55091  0.84267  0.71451  1.0000
  H   H1522     1.0  0.94487  0.75906  0.86042  1.0000
  H   H1523     1.0  0.54082  0.65802  0.70166  1.0000
  C   C1904     1.0  0.54754  0.85261  0.73484  1.0000
  H   H1524     1.0  0.95803  0.49910  0.71920  1.0000
  H   H1525     1.0  0.58091  0.76243  0.95398  1.0000
  C   C1905     1.0  0.48416  0.94318  0.90264  1.0000
  C   C1906     1.0  0.51468  0.96545  0.76877  1.0000
  C   C1907     1.0  0.49021  0.48967  0.79573  1.0000
  C   C1908     1.0  0.94399  0.49091  0.97057  1.0000
  H   H1526     1.0  0.73201  0.62671  0.64900  1.0000
  C   C1909     1.0  0.96722  0.49269  0.73991  1.0000
  H   H1527     1.0  0.53053  0.69986  0.78140  1.0000
  C   C1910     1.0  0.53342  0.67541  0.74332  1.0000
  C   C1911     1.0  0.59094  0.51730  0.85398  1.0000
  S   S255      1.0  0.49127  0.55664  0.88236  1.0000
  H   H1528     1.0  0.47973  0.84228  0.92908  1.0000
  C   C1912     1.0  0.95502  0.52532  0.97088  1.0000
  H   H1529     1.0  0.94233  0.67284  0.96919  1.0000
  C   C1913     1.0  0.56906  0.69467  0.96684  1.0000
  H   H1530     1.0  0.83461  0.96448  0.65785  1.0000
  C   C1914     1.0  0.96244  0.78731  0.85764  1.0000
  S   S256      1.0  0.91766  0.75213  0.97058  1.0000
  H   H1531     1.0  0.50351  0.59579  0.73211  1.0000
  C   C1915     1.0  0.97334  0.65016  0.89710  1.0000
  C   C1916     1.0  0.67856  0.59742  0.64515  1.0000
  C   C1917     1.0  0.49990  0.95658  0.67065  1.0000
  H   H1532     1.0  0.96177  0.94921  0.89190  1.0000
  C   C1918     1.0  0.97888  0.64156  0.92793  1.0000
  H   H1533     1.0  0.95138  0.48458  0.94965  1.0000
  H   H1534     1.0  0.97213  0.63533  0.66771  1.0000
  H   H1535     1.0  0.48108  0.95883  0.85373  1.0000
  H   H1536     1.0  0.94461  0.50761  0.77260  1.0000
  C   C1919     1.0  0.97182  0.48968  0.79664  1.0000
  C   C1920     1.0  0.62418  0.65038  0.64373  1.0000
