data_image0
_chemical_formula_structural       HCSHSHFeSCFeS2FeHFeS3HSFeS2FeSHSHFeHCFeSFeHFeSC3HSHCHC3HC4H7SC8H4C6H5CHCH2C3SCHCSC2HCHCHC4HCHCS2CH3CH2C3HC3PC10HC7HS2HCH2CH3SH4C5H4C5SFeHCH2C2H3CHCFeHPCH2C3HCH2FeC2SCHSH2C4HC2HC3HC3H3CSH4CH3CHCHCHCHC2HC3H2CPHC3SH2C5H3CHC2HC3H3C2HC2HSC2FeS3C2HCH4SCHSCHCPCHCHC2PCFeC5HCHC3HC3HSH2CH2CH3CH2CHC3HCFeH3C5PC2HSC2H2CHCHC3HC4HC4H5CHCH2CS2C5HFeC7H4CFeC3H2C2H2CHSFeCS2CPHC2H3SC3HCHCHCSHSHFeS2FeS2FeCFeS3CHFeS2FeSFeSCFeHFeS2FeSFeSC3SCPCH2C3HC2HCH6CH2C6H4C6H3CSHSH2C4H3CH2C3HCHFeSCFeHCH4PHSCH5FeCHC4HC9HCHCH2SCH2CHC2HCH3CHCHC3H2SCH2C2H2PC16H2C3HSCHFeC3SHCH7C2HCHC2SHFeC5HC7H4CH2CH4FeC2HSH3FeCSC4H2CFeCH2C2FeHC2SC2FeS2CSC3FeHSCHCHSC2H2C4H3C8SHC2H2CH3CH2CHC2HC3HPC2HC2H3CHCHC2H2C2SC6PC2HPH2CH3C2H2C2HC3FeHCSCH2CHPCHCSH2CHC2HSCHCHCH3C2HCH3C3SCH4SCH2FeC2FeSFeSCFe2S3FeS3CS3HSC2FeSCH2C2HC2HC2H2SC3H5CHC3H2C6H4C6PC2H2C3H4C3H3C6PC6HC2HC2HC2H6CH4CH6SH2CHPC6HC4HFeC2HCH3CH6CPC5HSH2FeC2HC2HC2H2C3HC4HCH3CHC4HC2SH3C2FeCH4CHC2HFeCHCHCHCHSHC3HFeC2HC2H4SHCH3C2HCHFeS2C2H2S3HC2FeHFeS2FeSHSHCHC4SC2HC6H3C6FeCH2CH2CSH3C5FeH2C2HC2SPCH4C3FeHC3SC3H2CHC2HC2HSH2SH2C2HC4FeH2SHCFeH3C5H2SHC2H2CHC2H2CHC3HCH5C2HC4HC2HCHCHC4HSC2HCHC4HCH4FeC2H3C3H2FeSFeS2Fe2S3FeS2C2S3CSC2HC2H2C7H3C4HCH3SC4H2C7H3CH2C2HSC2H3PH2CHCHCH2C8HCSCH5C10FeH2C2SHC6PC4HC5HC3H2SH3C3H3SH4C3H4C2HCHC2H2CHCHCH2C2FeCH2C2HC2HCH2C2FeH3SFeHCPH2CHCHCH3CH2CH4CSC2H6CHCFeS3CFeCS2CH2CFeHFeS2FeSCSFeC2SC3H2CHC6H3C6H2FeHC2H4C4HCH4S2H2PSCHCH6FeCHC5SHSCH2CH2CHC2H3SC4HC2HCH5CH2C2HCHCHC2SHFeCHCSC3H2PH2CPC12HCHCSC2HCHCSCPHC2HPHCHCHSHFeH2CHS2HFeSC6H2C6H2C5H2C2FeCH2FeCSFeSC2SFeCSFeSFeSHCHCH2CHCH2C2HC3FeCHC2HSHSH2C4H2SHCHC2SH2SCHCFeCHC3HC2H3SHC6PCH2C6H3C2H4CHFeCSH5SHCH2SCHCHCSCHSH3C6PC2HCHCHC5SHCHCHC2H2Fe2HCHC2HC2HC2HSC3H3C6H2C5FeC2HC2HPH2SHCSH3FeS2CSC2H3SHC3H5SCFeCH2CHC2H2C2H2SPC3H4C4HCSCH3CSC4PC9HC2SH3CH5CH2CSHCFeC2HCHSH3CFeHSCSHFeH3C2SCS2C6H2SC5H2C5H2CSH2C2FeHSFeSCHSFeCSFeCFeSH3CH2SC2H2C4H3C3H4C2HFeCHC3PC3H2C2HS2H2C7PCH3CH2CH3FeHCH4C2HCH2C5HCHFeHC2H2S2H3SC3H4PC14H11C3HCPC7HCHFeC7SCHCH3CHCHFeCHCH3C3HCHFeHC2HPSCHSFeC2HCHSHFeSHC5H2C2HC3SC3H3CHC2HC2PFeC6HC2H3CH2CHSHSCFeS2HC6H2C3H5C2HFeC2HSCH2C4SC2H2SHSC4HCH2CSHC7PC3H2C9HC2H5CHCFeH7SHC3H5CFeH2C4HC2H3C2H5C2H3C3HCH2CHC3HCHC4SHCHCHC4H2CFeS2FeHCFeS3CSCHS3FeS2FeC2FeC2S2HSC6H4C6H2SC6H3C6H4FeHCH6C6PC4H2CS2H9C2SCHFeC3SC3HC3H2C3H3CHC3HCHFeHCHSC5H2SC2HSC2PHCHCSHC2H3CFeH3FeCH2SHCH6CHC2H2PC2H2C2HC8H3C2HCHCHCSHCH4C8H2C6HCH2C3H3CHC3HC2HC2HC4H5CFeS2FeS2FeSFeS2C2HSHSH2C6H2PHC5HCH2C4HPCSH4C7H4CSHSC2H2C5PC3HC7H5CHFeH2C3H3CHC3H2C4H2CSC4H3CHC5HC2HC3H2CHCHCHC2H4CH6C2H3CHSHC2H2C2HC2HCH3C7FeS2FeSCFeS2CHCS5FeS2Fe2HFeH2S2CSC6H4C6H2C7H3C6H7SC2FeHCH2SCHCHC2HCPC7H2C2H3C2HSHSH5CH4C3H2C3FeH3SC3HCH7CHSCHCFeCHCHSC4FeH3C2H3C5HCSH3CFeSH2CHCHCFeH4C3HCHCHC2H3C6HCSCH3CHCH2SHFeHCHC3FeHCSC2HC3H2CH2FeS2FeS2FeSFeS2H3SH2PHC6H4C4H2CH3C5HCH4C7H7CHCHC2HCHCPH2CHC3H3CSC2HC4H2CH3C2HC2HC8PHSC2H3CHC2H2C3HCHC7SC2H3C8H2C4HCH2CH3C3H2C4H2C2H2CH2CSHFeSH3S2FeS2FeSFeS2FeSFeS4C6H3C3HCH2C6H3SC2H2CH2C2PHC2H3CHC2PHSH2CSCHC2HCHCHC2H3CH2C2HC3H2C6H3SH4CHFeHC7FeC2SCH2CHC6FeH2SHCH3C2H2C2PCH3CH2FeHPC12FeC6HCH4CH5C4H2CPC10H4CH3C2HCHPCHC3H7CH4FeSFeS2FeSFeS3CFeSCSCFeS2CSHCHC6H2C6H3C6H3C2H4CH2CH4C4SCH2C4HC2H3SC2H3C2HCHCH2CHCH3CH2C3HCH2C3HC2H2FeH3C2HC2H2SFeC6PC2HC9SC2H9CSC2H5CSHFeSHCHS2FeS2FeSFeS2FeSFeS4C6H3C5H2C6H2CHC5H2C4HCHC2HC2H4CHC7PHCFeCH3C2HCHCHC3H2CHCH4C2HC3H3CH2C3PC3H2C3HC7HCH3C3H2S2H3CH4C4H3C2H2C3H4CHCH3C9H4FeCPC4HCHCH4CPHCHCH2CHCH2CFeSC2H3CSH2C4HCFeH3CHCFeS2FeSFeS3CFeSFeSFe2S2HC2H2C6HC5HCH3C6H4SH5C3HCH3C10SC2HCSC3H3CHCHC3PC8HCHC3HC3HCH6CHSH5C2HCHC4HC3HSCPHCH3C2H3C2HCHC4PC3HC10H3SC3H3CHCSCPH2CHCH2CHC2HCSH4CSHCH2CH2FeHC2H4CFeH2
_chemical_formula_sum              "H1664 C2112 S384 Fe192 P64"
_cell_length_a       47.6499
_cell_length_b       45.5078
_cell_length_c       39.1934
_cell_angle_alpha    91.3251
_cell_angle_beta     90.2698
_cell_angle_gamma    120.03

_space_group_name_H-M_alt    "P 1"
_space_group_IT_number       1

loop_
  _space_group_symop_operation_xyz
  'x, y, z'

loop_
  _atom_site_type_symbol
  _atom_site_label
  _atom_site_symmetry_multiplicity
  _atom_site_fract_x
  _atom_site_fract_y
  _atom_site_fract_z
  _atom_site_occupancy
  H   H1        1.0  0.07763  0.42810  0.08843  1.0000
  C   C1        1.0  0.12827  0.14489  0.35887  1.0000
  S   S1        1.0  0.00990  0.06743  0.29527  1.0000
  H   H2        1.0  0.16526  0.44141  0.35158  1.0000
  S   S2        1.0  0.99632  0.41225  0.28536  1.0000
  H   H3        1.0  0.98459  0.24594  0.42887  1.0000
  Fe  Fe1       1.0  0.13767  0.23568  0.27297  1.0000
  S   S3        1.0  0.12593  0.25327  0.32179  1.0000
  C   C2        1.0  0.01435  0.31502  0.46342  1.0000
  Fe  Fe2       1.0  0.11347  0.27586  0.23132  1.0000
  S   S4        1.0  0.10220  0.29743  0.27729  1.0000
  S   S5        1.0  0.10059  0.28720  0.17988  1.0000
  Fe  Fe3       1.0  0.14943  0.30588  0.29914  1.0000
  H   H4        1.0  0.12904  0.19364  0.42580  1.0000
  Fe  Fe4       1.0  0.07873  0.24392  0.29618  1.0000
  S   S6        1.0  0.02388  0.22335  0.30448  1.0000
  S   S7        1.0  0.16197  0.28750  0.25122  1.0000
  S   S8        1.0  0.08950  0.22246  0.24859  1.0000
  H   H5        1.0  0.10045  0.11078  0.99798  1.0000
  S   S9        1.0  0.14249  0.36020  0.43531  1.0000
  Fe  Fe5       1.0  0.10166  0.26656  0.39970  1.0000
  S   S10       1.0  0.07311  0.28955  0.42294  1.0000
  S   S11       1.0  0.07746  0.20733  0.39020  1.0000
  Fe  Fe6       1.0  0.10462  0.33664  0.39299  1.0000
  S   S12       1.0  0.09254  0.37520  0.36843  1.0000
  H   H6        1.0  0.12228  0.09513  0.36168  1.0000
  S   S13       1.0  0.13170  0.31338  0.36785  1.0000
  H   H7        1.0  0.16847  0.32752  0.19921  1.0000
  Fe  Fe7       1.0  0.00063  0.44144  0.36798  1.0000
  H   H8        1.0  0.15874  0.10547  0.01519  1.0000
  C   C3        1.0  0.07852  0.42207  0.22179  1.0000
  Fe  Fe8       1.0  0.04445  0.00558  0.41591  1.0000
  S   S14       1.0  0.05426  0.04526  0.37795  1.0000
  Fe  Fe9       1.0  0.00202  0.01270  0.35976  1.0000
  H   H9        1.0  0.13609  0.16843  0.02361  1.0000
  Fe  Fe10      1.0  0.06963  0.01517  0.34407  1.0000
  S   S15       1.0  0.11419  0.04605  0.30925  1.0000
  C   C4        1.0  0.05388  0.42946  0.21422  1.0000
  C   C5        1.0  0.13614  0.19503  0.97883  1.0000
  C   C6        1.0  0.07237  0.35366  0.13982  1.0000
  H   H10       1.0  0.99036  0.12624  0.40228  1.0000
  S   S16       1.0  0.01866  0.47519  0.02778  1.0000
  H   H11       1.0  0.15722  0.16827  0.11976  1.0000
  C   C7        1.0  0.15466  0.06058  0.29378  1.0000
  H   H12       1.0  0.15435  0.10030  0.26525  1.0000
  C   C8        1.0  0.07441  0.40787  0.13856  1.0000
  C   C9        1.0  0.13478  0.31549  0.15745  1.0000
  C   C10       1.0  0.00632  0.17128  0.23207  1.0000
  H   H13       1.0  0.07541  0.42952  0.15142  1.0000
  C   C11       1.0  0.02559  0.01991  0.14358  1.0000
  C   C12       1.0  0.15880  0.34045  0.10381  1.0000
  C   C13       1.0  0.13131  0.32119  0.12326  1.0000
  C   C14       1.0  0.07849  0.47816  0.25342  1.0000
  H   H14       1.0  0.12244  0.01608  0.21845  1.0000
  H   H15       1.0  0.15600  0.34531  0.07767  1.0000
  H   H16       1.0  0.10745  0.30973  0.11151  1.0000
  H   H17       1.0  0.02556  0.30999  0.02234  1.0000
  H   H18       1.0  0.00972  0.19162  0.37212  1.0000
  H   H19       1.0  0.11542  0.19908  0.05303  1.0000
  H   H20       1.0  0.15304  0.38318  0.33617  1.0000
  S   S17       1.0  0.16112  0.32119  0.01597  1.0000
  C   C15       1.0  0.99511  0.12035  0.11600  1.0000
  C   C16       1.0  0.12133  0.37872  0.24590  1.0000
  C   C17       1.0  0.03030  0.10611  0.32224  1.0000
  C   C18       1.0  0.04315  0.13811  0.30718  1.0000
  C   C19       1.0  0.05711  0.16891  0.32713  1.0000
  C   C20       1.0  0.05976  0.16900  0.36283  1.0000
  C   C21       1.0  0.04794  0.13721  0.37777  1.0000
  C   C22       1.0  0.03328  0.10635  0.35801  1.0000
  H   H21       1.0  0.04153  0.13915  0.27985  1.0000
  H   H22       1.0  0.06515  0.19247  0.31473  1.0000
  H   H23       1.0  0.04934  0.13637  0.40511  1.0000
  H   H24       1.0  0.02343  0.08269  0.37079  1.0000
  C   C23       1.0  0.02240  0.40194  0.31018  1.0000
  C   C24       1.0  0.05300  0.42699  0.32249  1.0000
  C   C25       1.0  0.07405  0.41831  0.33960  1.0000
  C   C26       1.0  0.06518  0.38424  0.34486  1.0000
  C   C27       1.0  0.03519  0.35896  0.33132  1.0000
  C   C28       1.0  0.01451  0.36784  0.31361  1.0000
  H   H25       1.0  0.06077  0.45336  0.31880  1.0000
  H   H26       1.0  0.09737  0.43841  0.34907  1.0000
  H   H27       1.0  0.02790  0.33253  0.33425  1.0000
  H   H28       1.0  0.99197  0.34797  0.30282  1.0000
  H   H29       1.0  0.13173  0.44267  0.04441  1.0000
  C   C29       1.0  0.12727  0.17169  0.41259  1.0000
  H   H30       1.0  0.12931  0.14497  0.33122  1.0000
  C   C30       1.0  0.99119  0.31399  0.24413  1.0000
  H   H31       1.0  0.12249  0.43864  0.25238  1.0000
  H   H32       1.0  0.13440  0.19498  0.36370  1.0000
  C   C31       1.0  0.00943  0.36305  0.42483  1.0000
  C   C32       1.0  0.13301  0.00021  0.22248  1.0000
  C   C33       1.0  0.01584  0.34391  0.23052  1.0000
  S   S18       1.0  0.06702  0.02173  0.46848  1.0000
  C   C34       1.0  0.98597  0.42623  0.16519  1.0000
  H   H33       1.0  0.06127  0.38898  0.42314  1.0000
  C   C35       1.0  0.17049  0.40126  0.19790  1.0000
  S   S19       1.0  0.08595  0.02792  0.99143  1.0000
  C   C36       1.0  0.12391  0.11654  0.37612  1.0000
  C   C37       1.0  0.01265  0.42605  0.10183  1.0000
  H   H34       1.0  0.03113  0.39980  0.98244  1.0000
  C   C38       1.0  0.15484  0.05727  0.40162  1.0000
  H   H35       1.0  0.15228  0.40621  0.01984  1.0000
  C   C39       1.0  0.03978  0.36745  0.43294  1.0000
  H   H36       1.0  0.13400  0.01783  0.36258  1.0000
  C   C40       1.0  0.12507  0.08495  0.16508  1.0000
  C   C41       1.0  0.98755  0.20000  0.32835  1.0000
  C   C42       1.0  0.10742  0.13296  0.98311  1.0000
  C   C43       1.0  0.00377  0.19800  0.21869  1.0000
  H   H37       1.0  0.11121  0.98499  0.27183  1.0000
  C   C44       1.0  0.13861  0.41393  0.00395  1.0000
  H   H38       1.0  0.11444  0.09183  0.42420  1.0000
  C   C45       1.0  0.16569  0.33044  0.17253  1.0000
  S   S20       1.0  0.16840  0.21062  0.26161  1.0000
  S   S21       1.0  0.01875  0.98398  0.32363  1.0000
  C   C46       1.0  0.04804  0.08679  0.45249  1.0000
  H   H39       1.0  0.03369  0.46158  0.22614  1.0000
  H   H40       1.0  0.10881  0.08411  0.04876  1.0000
  H   H41       1.0  0.04382  0.47987  0.11148  1.0000
  C   C47       1.0  0.02478  0.45622  0.12136  1.0000
  H   H42       1.0  0.02349  0.42692  0.07753  1.0000
  H   H43       1.0  0.16342  0.02299  0.31658  1.0000
  C   C48       1.0  0.99672  0.00392  0.16171  1.0000
  C   C49       1.0  0.16033  0.03921  0.45767  1.0000
  C   C50       1.0  0.15777  0.05756  0.16456  1.0000
  H   H44       1.0  0.13364  0.42188  0.45165  1.0000
  C   C51       1.0  0.03154  0.19564  0.16798  1.0000
  C   C52       1.0  0.03371  0.16835  0.18114  1.0000
  C   C53       1.0  0.01664  0.21042  0.18678  1.0000
  P   P1        1.0  0.05171  0.14820  0.15650  1.0000
  C   C54       1.0  0.02214  0.11784  0.12619  1.0000
  C   C55       1.0  0.08540  0.18059  0.13344  1.0000
  C   C56       1.0  0.08935  0.17583  0.09857  1.0000
  C   C57       1.0  0.11327  0.20241  0.08012  1.0000
  C   C58       1.0  0.13370  0.23376  0.09619  1.0000
  C   C59       1.0  0.13018  0.23854  0.13086  1.0000
  C   C60       1.0  0.10620  0.21220  0.14944  1.0000
  C   C61       1.0  0.02770  0.09338  0.11014  1.0000
  C   C62       1.0  0.00717  0.07257  0.08363  1.0000
  C   C63       1.0  0.99604  0.28665  0.24964  1.0000
  H   H45       1.0  0.99246  0.20943  0.23364  1.0000
  C   C64       1.0  0.98066  0.07549  0.07328  1.0000
  C   C65       1.0  0.06515  0.12732  0.18579  1.0000
  C   C66       1.0  0.09519  0.14545  0.20319  1.0000
  C   C67       1.0  0.10363  0.12978  0.22844  1.0000
  C   C68       1.0  0.08216  0.09629  0.23687  1.0000
  C   C69       1.0  0.05233  0.07821  0.21978  1.0000
  C   C70       1.0  0.04385  0.09350  0.19428  1.0000
  H   H46       1.0  0.02107  0.14930  0.45662  1.0000
  S   S22       1.0  0.05076  0.46219  0.39188  1.0000
  S   S23       1.0  0.01699  0.02987  0.00229  1.0000
  H   H47       1.0  0.04167  0.20580  0.14345  1.0000
  C   C71       1.0  0.15251  0.11608  0.17369  1.0000
  H   H48       1.0  0.07360  0.15217  0.08502  1.0000
  H   H49       1.0  0.10178  0.08342  0.16214  1.0000
  C   C72       1.0  0.04232  0.34373  0.45263  1.0000
  H   H50       1.0  0.10321  0.21702  0.17597  1.0000
  H   H51       1.0  0.04847  0.09105  0.11733  1.0000
  H   H52       1.0  0.01219  0.05455  0.07065  1.0000
  S   S24       1.0  0.98811  0.46998  0.40751  1.0000
  H   H53       1.0  0.11178  0.17188  0.19831  1.0000
  H   H54       1.0  0.12649  0.14371  0.24228  1.0000
  H   H55       1.0  0.10603  0.03190  0.15416  1.0000
  H   H56       1.0  0.02012  0.07927  0.18221  1.0000
  C   C73       1.0  0.16380  0.06481  0.43609  1.0000
  C   C74       1.0  0.12383  0.00412  0.09843  1.0000
  C   C75       1.0  0.10341  0.44356  0.24500  1.0000
  C   C76       1.0  0.11959  0.11489  0.41145  1.0000
  C   C77       1.0  0.07569  0.40715  0.10290  1.0000
  H   H57       1.0  0.99675  0.00999  0.18834  1.0000
  H   H58       1.0  0.00173  0.20480  0.44293  1.0000
  H   H59       1.0  0.15051  0.13856  0.17776  1.0000
  H   H60       1.0  0.13062  0.03064  0.09788  1.0000
  C   C78       1.0  0.02517  0.28873  0.24020  1.0000
  C   C79       1.0  0.15060  0.38027  0.25375  1.0000
  C   C80       1.0  0.05380  0.45726  0.23019  1.0000
  C   C81       1.0  0.04932  0.31800  0.22520  1.0000
  C   C82       1.0  0.10908  0.44508  0.99760  1.0000
  S   S25       1.0  0.06156  0.03143  0.08637  1.0000
  Fe  Fe11      1.0  0.11239  0.31254  0.46391  1.0000
  H   H61       1.0  0.02231  0.13544  0.22412  1.0000
  C   C83       1.0  0.15804  0.15493  0.09695  1.0000
  H   H62       1.0  0.05601  0.09409  0.42681  1.0000
  H   H63       1.0  0.03414  0.41316  0.19689  1.0000
  C   C84       1.0  0.15871  0.11915  0.03821  1.0000
  C   C85       1.0  0.14176  0.02400  0.38898  1.0000
  H   H64       1.0  0.00027  0.04830  0.43527  1.0000
  H   H65       1.0  0.00798  0.38154  0.40919  1.0000
  H   H66       1.0  0.02955  0.26808  0.24543  1.0000
  C   C86       1.0  0.02542  0.01243  0.10885  1.0000
  H   H67       1.0  0.07152  0.31876  0.21796  1.0000
  C   C87       1.0  0.12740  0.16575  0.99759  1.0000
  Fe  Fe12      1.0  0.16817  0.33451  0.41167  1.0000
  H   H68       1.0  0.15381  0.37178  0.27810  1.0000
  P   P2        1.0  0.07770  0.38474  0.20327  1.0000
  C   C88       1.0  0.11603  0.38760  0.21347  1.0000
  H   H69       1.0  0.97747  0.26420  0.26187  1.0000
  H   H70       1.0  0.99542  0.98526  0.06492  1.0000
  C   C89       1.0  0.04537  0.34634  0.22115  1.0000
  C   C90       1.0  0.10345  0.47146  0.26043  1.0000
  C   C91       1.0  0.13094  0.17289  0.37718  1.0000
  H   H71       1.0  0.99760  0.16270  0.25753  1.0000
  C   C92       1.0  0.97958  0.11464  0.42615  1.0000
  H   H72       1.0  0.10276  0.37025  0.26516  1.0000
  H   H73       1.0  0.15817  0.07705  0.38449  1.0000
  Fe  Fe13      1.0  0.04863  0.01552  0.03144  1.0000
  C   C93       1.0  0.15344  0.99781  0.19824  1.0000
  C   C94       1.0  0.02077  0.15617  0.21320  1.0000
  S   S26       1.0  0.13916  0.28746  0.44304  1.0000
  C   C95       1.0  0.13798  0.99831  0.41044  1.0000
  H   H74       1.0  0.03527  0.05277  0.22754  1.0000
  S   S27       1.0  0.16067  0.23557  0.99960  1.0000
  H   H75       1.0  0.01577  0.23202  0.17702  1.0000
  H   H76       1.0  0.01171  0.36504  0.22846  1.0000
  C   C96       1.0  0.14102  0.39932  0.18955  1.0000
  C   C97       1.0  0.99617  0.99010  0.09198  1.0000
  C   C98       1.0  0.13051  0.10709  0.05713  1.0000
  C   C99       1.0  0.07552  0.37983  0.08576  1.0000
  H   H77       1.0  0.13786  0.40668  0.16441  1.0000
  C   C100      1.0  0.99683  0.12762  0.45685  1.0000
  C   C101      1.0  0.12761  0.05577  0.16063  1.0000
  H   H78       1.0  0.06600  0.34712  0.45857  1.0000
  C   C102      1.0  0.11995  0.14194  0.42977  1.0000
  C   C103      1.0  0.97701  0.23276  0.45275  1.0000
  C   C104      1.0  0.98727  0.18749  0.36077  1.0000
  H   H79       1.0  0.04795  0.03783  0.15652  1.0000
  C   C105      1.0  0.07314  0.38135  0.15733  1.0000
  C   C106      1.0  0.14703  0.00565  0.44503  1.0000
  C   C107      1.0  0.12687  0.43463  0.01782  1.0000
  H   H80       1.0  0.07746  0.37980  0.05822  1.0000
  H   H81       1.0  0.15182  0.25447  0.08157  1.0000
  H   H82       1.0  0.07352  0.33184  0.09080  1.0000
  C   C108      1.0  0.07339  0.35288  0.10415  1.0000
  S   S28       1.0  0.99049  0.98395  0.25121  1.0000
  H   H83       1.0  0.07233  0.33332  0.15379  1.0000
  H   H84       1.0  0.14543  0.26301  0.14323  1.0000
  H   H85       1.0  0.10802  0.11549  0.10076  1.0000
  H   H86       1.0  0.02030  0.47977  0.16773  1.0000
  C   C109      1.0  0.13006  0.12503  0.08632  1.0000
  H   H87       1.0  0.08823  0.08461  0.25736  1.0000
  H   H88       1.0  0.00507  0.33865  0.12978  1.0000
  H   H89       1.0  0.09987  0.44906  0.45406  1.0000
  C   C110      1.0  0.98351  0.30960  0.45416  1.0000
  H   H90       1.0  0.16784  0.27640  0.37746  1.0000
  C   C111      1.0  0.01145  0.45629  0.15298  1.0000
  H   H91       1.0  0.05772  0.00081  0.19402  1.0000
  C   C112      1.0  0.98688  0.20949  0.46070  1.0000
  H   H92       1.0  0.07740  0.17350  0.45444  1.0000
  C   C113      1.0  0.01939  0.32990  0.02409  1.0000
  H   H93       1.0  0.17451  0.47301  0.21690  1.0000
  C   C114      1.0  0.17327  0.04521  0.30117  1.0000
  C   C115      1.0  0.16812  0.08818  0.27187  1.0000
  H   H94       1.0  0.99012  0.13891  0.12784  1.0000
  C   C116      1.0  0.00010  0.33042  0.05069  1.0000
  C   C117      1.0  0.01623  0.06067  0.45725  1.0000
  C   C118      1.0  0.02237  0.38033  0.00143  1.0000
  H   H95       1.0  0.09646  0.99213  0.05120  1.0000
  H   H96       1.0  0.04653  0.35521  0.97962  1.0000
  C   C119      1.0  0.03099  0.35518  0.99981  1.0000
  P   P3        1.0  0.16147  0.02004  0.15850  1.0000
  H   H97       1.0  0.99053  0.29431  0.17235  1.0000
  C   C120      1.0  0.00253  0.38048  0.02752  1.0000
  C   C121      1.0  0.17529  0.39174  0.23003  1.0000
  C   C122      1.0  0.98130  0.33434  0.43547  1.0000
  S   S29       1.0  0.09518  0.47143  0.01675  1.0000
  H   H98       1.0  0.99520  0.39949  0.02756  1.0000
  H   H99       1.0  0.99122  0.31030  0.06883  1.0000
  C   C123      1.0  0.98643  0.39581  0.11346  1.0000
  C   C124      1.0  0.99226  0.35636  0.05320  1.0000
  C   C125      1.0  0.13443  0.99168  0.12513  1.0000
  C   C126      1.0  0.97976  0.32080  0.13417  1.0000
  C   C127      1.0  0.12660  0.98264  0.25293  1.0000
  H   H100      1.0  0.17343  0.09041  0.44615  1.0000
  H   H101      1.0  0.97838  0.25758  0.59855  1.0000
  H   H102      1.0  0.99752  0.39565  0.80160  1.0000
  C   C128      1.0  0.11514  0.98919  0.56724  1.0000
  H   H103      1.0  0.17389  0.09353  0.61796  1.0000
  C   C129      1.0  0.17367  0.01609  0.56749  1.0000
  C   C130      1.0  0.07217  0.45545  0.75054  1.0000
  H   H104      1.0  0.07501  0.22221  0.47982  1.0000
  C   C131      1.0  0.10294  0.43426  0.96328  1.0000
  C   C132      1.0  0.09097  0.18552  0.47779  1.0000
  C   C133      1.0  0.15980  0.04761  0.70329  1.0000
  H   H105      1.0  0.16631  0.38899  0.59386  1.0000
  H   H106      1.0  0.05548  0.28383  0.70422  1.0000
  H   H107      1.0  0.04886  0.05263  0.80849  1.0000
  C   C134      1.0  0.11468  0.41358  0.94942  1.0000
  C   C135      1.0  0.03977  0.39390  0.75279  1.0000
  H   H108      1.0  0.14592  0.01593  0.61079  1.0000
  C   C136      1.0  0.98072  0.27618  0.70631  1.0000
  C   C137      1.0  0.10561  0.15797  0.93016  1.0000
  H   H109      1.0  0.08222  0.08504  0.85923  1.0000
  S   S30       1.0  0.13639  0.35001  0.74444  1.0000
  C   C138      1.0  0.06921  0.10273  0.48052  1.0000
  C   C139      1.0  0.16188  0.31745  0.59073  1.0000
  Fe  Fe14      1.0  0.12240  0.31053  0.78493  1.0000
  S   S31       1.0  0.07487  0.28822  0.81564  1.0000
  S   S32       1.0  0.14378  0.28228  0.75668  1.0000
  S   S33       1.0  0.09729  0.31433  0.51932  1.0000
  C   C140      1.0  0.98201  0.24324  0.85203  1.0000
  C   C141      1.0  0.09123  0.38127  0.79628  1.0000
  H   H110      1.0  0.00018  0.24913  0.67868  1.0000
  C   C142      1.0  0.10673  0.22884  0.52235  1.0000
  H   H111      1.0  0.07874  0.46904  0.57829  1.0000
  H   H112      1.0  0.16797  0.04575  0.48405  1.0000
  H   H113      1.0  0.12558  0.99504  0.86856  1.0000
  H   H114      1.0  0.01073  0.38783  0.50081  1.0000
  S   S34       1.0  0.14723  0.37751  0.95035  1.0000
  C   C143      1.0  0.13278  0.40340  0.96950  1.0000
  H   H115      1.0  0.01650  0.42528  0.60444  1.0000
  S   S35       1.0  0.02246  0.02456  0.64449  1.0000
  C   C144      1.0  0.10754  0.43126  0.64889  1.0000
  H   H116      1.0  0.13344  0.08673  0.87207  1.0000
  C   C145      1.0  0.05040  0.00674  0.53492  1.0000
  P   P4        1.0  0.11023  0.13716  0.47459  1.0000
  C   C146      1.0  0.97740  0.19214  0.49123  1.0000
  H   H117      1.0  0.06728  0.02164  0.77032  1.0000
  C   C147      1.0  0.13307  0.04609  0.68597  1.0000
  H   H118      1.0  0.07413  0.02794  0.54138  1.0000
  C   C148      1.0  0.00339  0.39955  0.52055  1.0000
  C   C149      1.0  0.08944  0.21302  0.49222  1.0000
  P   P5        1.0  0.02649  0.35536  0.77600  1.0000
  C   C150      1.0  0.14781  0.31854  0.62194  1.0000
  Fe  Fe15      1.0  0.04139  0.00687  0.68748  1.0000
  C   C151      1.0  0.14724  0.31702  0.55918  1.0000
  C   C152      1.0  0.11796  0.31719  0.55838  1.0000
  C   C153      1.0  0.10413  0.31887  0.58955  1.0000
  C   C154      1.0  0.11898  0.31967  0.62115  1.0000
  C   C155      1.0  0.04459  0.42231  0.69956  1.0000
  H   H119      1.0  0.10524  0.24998  0.53359  1.0000
  C   C156      1.0  0.04282  0.31486  0.73552  1.0000
  H   H120      1.0  0.10779  0.32043  0.64486  1.0000
  C   C157      1.0  0.01157  0.24642  0.78933  1.0000
  C   C158      1.0  0.03138  0.26371  0.81779  1.0000
  C   C159      1.0  0.11922  0.39953  0.50103  1.0000
  H   H121      1.0  0.02257  0.24670  0.76525  1.0000
  C   C160      1.0  0.12746  0.18981  0.52336  1.0000
  C   C161      1.0  0.00526  0.05012  0.49014  1.0000
  C   C162      1.0  0.04103  0.99737  0.50069  1.0000
  H   H122      1.0  0.03112  0.27472  0.87153  1.0000
  S   S36       1.0  0.09382  0.02331  0.70438  1.0000
  H   H123      1.0  0.11831  0.06201  0.64144  1.0000
  H   H124      1.0  0.06666  0.32873  0.74732  1.0000
  C   C163      1.0  0.11124  0.03700  0.79924  1.0000
  H   H125      1.0  0.12806  0.37842  0.86986  1.0000
  H   H126      1.0  0.11004  0.40572  0.92276  1.0000
  C   C164      1.0  0.00941  0.34320  0.60442  1.0000
  H   H127      1.0  0.01743  0.05781  0.54383  1.0000
  H   H128      1.0  0.07087  0.34441  0.88683  1.0000
  H   H129      1.0  0.03619  0.99634  0.58723  1.0000
  C   C165      1.0  0.98719  0.30222  0.73016  1.0000
  H   H130      1.0  0.02663  0.33368  0.84663  1.0000
  H   H131      1.0  0.09742  0.15513  0.90387  1.0000
  C   C166      1.0  0.01088  0.29341  0.56251  1.0000
  H   H132      1.0  0.14551  0.46986  0.53817  1.0000
  C   C167      1.0  0.14500  0.00785  0.58438  1.0000
  C   C168      1.0  0.98989  0.34454  0.79898  1.0000
  C   C169      1.0  0.01622  0.26180  0.84918  1.0000
  H   H133      1.0  0.11583  0.42088  0.66859  1.0000
  C   C170      1.0  0.08179  0.03572  0.79257  1.0000
  Fe  Fe16      1.0  0.05245  0.03897  0.96050  1.0000
  H   H134      1.0  0.04238  0.33395  0.53067  1.0000
  H   H135      1.0  0.06579  0.42751  0.79598  1.0000
  H   H136      1.0  0.14170  0.18073  0.53619  1.0000
  C   C171      1.0  0.12509  0.19094  0.94491  1.0000
  C   C172      1.0  0.07839  0.42704  0.50192  1.0000
  C   C173      1.0  0.02857  0.32755  0.55382  1.0000
  C   C174      1.0  0.07459  0.42314  0.59815  1.0000
  C   C175      1.0  0.08576  0.40981  0.62338  1.0000
  P   P6        1.0  0.04917  0.39677  0.56311  1.0000
  C   C176      1.0  0.02805  0.35274  0.57475  1.0000
  C   C177      1.0  0.01774  0.40665  0.55335  1.0000
  H   H137      1.0  0.01712  0.29689  0.47831  1.0000
  S   S37       1.0  0.16841  0.34326  0.81643  1.0000
  C   C178      1.0  0.98277  0.11247  0.48753  1.0000
  C   C179      1.0  0.03184  0.39250  0.71799  1.0000
  H   H138      1.0  0.99647  0.12200  0.51128  1.0000
  H   H139      1.0  0.03261  0.98317  0.83729  1.0000
  C   C180      1.0  0.10877  0.37441  0.85216  1.0000
  H   H140      1.0  0.16574  0.09561  0.77561  1.0000
  C   C181      1.0  0.06495  0.45369  0.71574  1.0000
  H   H141      1.0  0.15821  0.31577  0.53548  1.0000
  C   C182      1.0  0.07667  0.40570  0.52819  1.0000
  C   C183      1.0  0.09835  0.39329  0.52831  1.0000
  C   C184      1.0  0.05142  0.34922  0.83876  1.0000
  H   H142      1.0  0.09753  0.39122  0.77091  1.0000
  C   C185      1.0  0.09654  0.12877  0.94925  1.0000
  C   C186      1.0  0.00680  0.42073  0.57860  1.0000
  C   C187      1.0  0.05859  0.36217  0.80576  1.0000
  C   C188      1.0  0.98319  0.42928  0.57064  1.0000
  H   H143      1.0  0.13485  0.38861  0.50054  1.0000
  C   C189      1.0  0.14246  0.98552  0.51643  1.0000
  C   C190      1.0  0.12570  0.21724  0.53796  1.0000
  C   C191      1.0  0.02882  0.98905  0.56091  1.0000
  C   C192      1.0  0.98221  0.36956  0.80871  1.0000
  H   H144      1.0  0.03862  0.42106  0.67267  1.0000
  H   H145      1.0  0.13166  0.21310  0.92997  1.0000
  H   H146      1.0  0.01161  0.27417  0.54627  1.0000
  H   H147      1.0  0.00820  0.36211  0.62073  1.0000
  H   H148      1.0  0.09863  0.37805  0.54902  1.0000
  C   C193      1.0  0.09024  0.07141  0.84262  1.0000
  H   H149      1.0  0.15608  0.03487  0.72721  1.0000
  C   C194      1.0  0.99178  0.30902  0.61305  1.0000
  H   H150      1.0  0.08148  0.31898  0.58931  1.0000
  H   H151      1.0  0.08943  0.44206  0.94727  1.0000
  C   C195      1.0  0.17011  0.08076  0.64187  1.0000
  S   S38       1.0  0.07207  0.08744  0.93019  1.0000
  S   S39       1.0  0.00059  0.47500  0.73350  1.0000
  C   C196      1.0  0.13053  0.05563  0.82771  1.0000
  C   C197      1.0  0.11957  0.07249  0.84965  1.0000
  C   C198      1.0  0.97739  0.22823  0.79204  1.0000
  C   C199      1.0  0.05758  0.09280  0.51360  1.0000
  C   C200      1.0  0.02586  0.06631  0.51834  1.0000
  H   H152      1.0  0.08786  0.47996  0.76300  1.0000
  Fe  Fe17      1.0  0.98560  0.02370  0.68121  1.0000
  C   C201      1.0  0.07644  0.35535  0.86180  1.0000
  C   C202      1.0  0.14052  0.13005  0.49458  1.0000
  C   C203      1.0  0.99237  0.28411  0.59202  1.0000
  C   C204      1.0  0.08641  0.45821  0.59807  1.0000
  C   C205      1.0  0.05956  0.42571  0.76908  1.0000
  C   C206      1.0  0.15586  0.09356  0.52400  1.0000
  C   C207      1.0  0.13195  0.09937  0.51038  1.0000
  H   H153      1.0  0.14129  0.40197  0.81193  1.0000
  H   H154      1.0  0.07802  0.38300  0.62327  1.0000
  H   H155      1.0  0.07326  0.10503  0.53568  1.0000
  H   H156      1.0  0.13878  0.22938  0.56155  1.0000
  C   C208      1.0  0.13848  0.06282  0.65509  1.0000
  Fe  Fe18      1.0  0.98426  0.44696  0.68260  1.0000
  C   C209      1.0  0.00538  0.26975  0.69667  1.0000
  C   C210      1.0  0.03650  0.28931  0.71102  1.0000
  C   C211      1.0  0.11035  0.17401  0.49288  1.0000
  H   H157      1.0  0.14895  0.06965  0.53594  1.0000
  H   H158      1.0  0.10693  0.07949  0.51152  1.0000
  C   C212      1.0  0.11616  0.38747  0.81945  1.0000
  C   C213      1.0  0.01821  0.32150  0.74532  1.0000
  H   H159      1.0  0.06378  0.43907  0.50206  1.0000
  H   H160      1.0  0.01597  0.36853  0.70486  1.0000
  C   C214      1.0  0.07141  0.05314  0.81407  1.0000
  H   H161      1.0  0.11921  0.02398  0.78171  1.0000
  S   S40       1.0  0.00711  0.00998  0.72530  1.0000
  Fe  Fe19      1.0  0.16045  0.32406  0.71817  1.0000
  C   C215      1.0  0.09942  0.43342  0.47482  1.0000
  S   S41       1.0  0.16703  0.31756  0.66074  1.0000
  S   S42       1.0  0.02302  0.98490  0.93833  1.0000
  C   C216      1.0  0.98018  0.40862  0.51250  1.0000
  P   P7        1.0  0.16910  0.05790  0.83483  1.0000
  H   H162      1.0  0.97739  0.30175  0.63592  1.0000
  C   C217      1.0  0.13855  0.98921  0.84949  1.0000
  C   C218      1.0  0.11900  0.46619  0.64876  1.0000
  H   H163      1.0  0.98092  0.02920  0.49366  1.0000
  H   H164      1.0  0.98496  0.17409  0.49731  1.0000
  H   H165      1.0  0.17236  0.41594  0.65117  1.0000
  S   S43       1.0  0.97712  0.06892  0.67841  1.0000
  C   C219      1.0  0.16164  0.01500  0.82925  1.0000
  C   C220      1.0  0.17245  0.00498  0.53362  1.0000
  C   C221      1.0  0.17347  0.15452  0.49197  1.0000
  H   H166      1.0  0.07510  0.47670  0.70132  1.0000
  C   C222      1.0  0.11903  0.41874  0.47382  1.0000
  H   H167      1.0  0.09293  0.98324  0.58023  1.0000
  C   C223      1.0  0.10859  0.47962  0.62318  1.0000
  H   H168      1.0  0.05428  0.55268  0.26309  1.0000
  C   C224      1.0  0.15401  0.68527  0.98735  1.0000
  S   S44       1.0  0.00286  0.57112  0.29065  1.0000
  H   H169      1.0  0.07781  0.49885  0.26698  1.0000
  S   S45       1.0  0.97976  0.54499  0.37498  1.0000
  H   H170      1.0  0.06481  0.85091  0.44224  1.0000
  Fe  Fe20      1.0  0.11663  0.71855  0.27654  1.0000
  S   S46       1.0  0.11142  0.75421  0.31327  1.0000
  S   S47       1.0  0.13239  0.67951  0.28996  1.0000
  Fe  Fe21      1.0  0.09408  0.74410  0.21721  1.0000
  S   S48       1.0  0.08746  0.78110  0.24912  1.0000
  S   S49       1.0  0.08618  0.74038  0.16027  1.0000
  Fe  Fe22      1.0  0.13513  0.79444  0.27364  1.0000
  C   C225      1.0  0.12921  0.65188  0.97884  1.0000
  Fe  Fe23      1.0  0.06332  0.73924  0.28724  1.0000
  S   S50       1.0  0.01496  0.73411  0.30669  1.0000
  S   S51       1.0  0.14309  0.75919  0.23882  1.0000
  S   S52       1.0  0.06704  0.70128  0.25255  1.0000
  C   C226      1.0  0.10770  0.93601  0.09658  1.0000
  H   H171      1.0  0.04804  0.66899  0.14182  1.0000
  Fe  Fe24      1.0  0.11157  0.76668  0.39425  1.0000
  S   S53       1.0  0.08172  0.78656  0.42045  1.0000
  S   S54       1.0  0.09439  0.70874  0.38324  1.0000
  Fe  Fe25      1.0  0.11101  0.83553  0.39200  1.0000
  S   S55       1.0  0.09295  0.87043  0.36821  1.0000
  Fe  Fe26      1.0  0.12157  0.80956  0.46106  1.0000
  S   S56       1.0  0.14028  0.81552  0.36443  1.0000
  C   C227      1.0  0.15154  0.59351  0.12818  1.0000
  Fe  Fe27      1.0  0.00748  0.94587  0.36537  1.0000
  H   H172      1.0  0.02448  0.84301  0.05775  1.0000
  Fe  Fe28      1.0  0.03538  0.52939  0.04193  1.0000
  S   S57       1.0  0.98442  0.48363  0.25474  1.0000
  S   S58       1.0  0.05800  0.53848  0.39438  1.0000
  Fe  Fe29      1.0  0.00701  0.51359  0.37136  1.0000
  S   S59       1.0  0.02113  0.48581  0.33115  1.0000
  Fe  Fe30      1.0  0.06973  0.50738  0.35760  1.0000
  S   S60       1.0  0.12122  0.52632  0.33560  1.0000
  C   C228      1.0  0.08039  0.64860  0.20809  1.0000
  C   C229      1.0  0.05194  0.62647  0.22470  1.0000
  C   C230      1.0  0.06291  0.83746  0.07996  1.0000
  S   S61       1.0  0.08338  0.55015  0.01716  1.0000
  C   C231      1.0  0.07088  0.84746  0.14118  1.0000
  P   P8        1.0  0.14357  0.62097  0.15592  1.0000
  C   C232      1.0  0.15801  0.54955  0.31182  1.0000
  H   H173      1.0  0.14337  0.58065  0.28583  1.0000
  H   H174      1.0  0.05349  0.61648  0.24899  1.0000
  C   C233      1.0  0.11412  0.77803  0.14119  1.0000
  C   C234      1.0  0.13355  0.80742  0.16103  1.0000
  C   C235      1.0  0.15648  0.83714  0.14538  1.0000
  H   H175      1.0  0.99306  0.84278  0.30075  1.0000
  C   C236      1.0  0.14127  0.80771  0.09028  1.0000
  C   C237      1.0  0.11769  0.77830  0.10579  1.0000
  H   H176      1.0  0.13101  0.80732  0.18844  1.0000
  C   C238      1.0  0.00791  0.73201  0.16555  1.0000
  H   H177      1.0  0.14433  0.80754  0.06306  1.0000
  H   H178      1.0  0.10282  0.75551  0.09045  1.0000
  H   H179      1.0  0.03931  0.53112  0.20361  1.0000
  H   H180      1.0  0.99601  0.68392  0.36188  1.0000
  H   H181      1.0  0.02673  0.91834  0.43459  1.0000
  H   H182      1.0  0.01030  0.56098  0.46142  1.0000
  C   C239      1.0  0.10474  0.98243  0.07154  1.0000
  H   H183      1.0  0.14348  0.63104  0.32460  1.0000
  H   H184      1.0  0.10085  0.68194  0.16602  1.0000
  C   C240      1.0  0.02829  0.60897  0.31717  1.0000
  C   C241      1.0  0.02627  0.63866  0.31309  1.0000
  C   C242      1.0  0.04593  0.66900  0.33281  1.0000
  C   C243      1.0  0.06940  0.67120  0.35612  1.0000
  C   C244      1.0  0.07268  0.64211  0.35879  1.0000
  C   C245      1.0  0.05213  0.61131  0.34012  1.0000
  H   H185      1.0  0.00855  0.63795  0.29523  1.0000
  H   H186      1.0  0.04281  0.69074  0.32985  1.0000
  H   H187      1.0  0.09121  0.64328  0.37568  1.0000
  H   H188      1.0  0.05511  0.58948  0.34309  1.0000
  C   C246      1.0  0.02285  0.89695  0.30813  1.0000
  C   C247      1.0  0.05320  0.92242  0.32093  1.0000
  C   C248      1.0  0.07417  0.91406  0.33909  1.0000
  C   C249      1.0  0.06533  0.88001  0.34521  1.0000
  C   C250      1.0  0.03531  0.85464  0.33181  1.0000
  C   C251      1.0  0.01526  0.86301  0.31214  1.0000
  H   H189      1.0  0.06089  0.94865  0.31624  1.0000
  H   H190      1.0  0.09747  0.93421  0.34842  1.0000
  H   H191      1.0  0.02775  0.82830  0.33588  1.0000
  C   C252      1.0  0.05853  0.67515  0.46417  1.0000
  S   S62       1.0  0.01014  0.53741  0.99826  1.0000
  H   H192      1.0  0.02052  0.75291  0.14853  1.0000
  S   S63       1.0  0.03521  0.55005  0.09381  1.0000
  H   H193      1.0  0.11703  0.89813  0.46318  1.0000
  H   H194      1.0  0.09920  0.83354  0.10919  1.0000
  C   C253      1.0  0.15220  0.71370  0.97691  1.0000
  C   C254      1.0  0.17485  0.75893  0.11611  1.0000
  C   C255      1.0  0.10936  0.51250  0.17620  1.0000
  C   C256      1.0  0.16415  0.71296  0.46273  1.0000
  H   H195      1.0  0.15329  0.72857  0.35171  1.0000
  H   H196      1.0  0.17134  0.85989  0.16079  1.0000
  H   H197      1.0  0.08588  0.51030  0.17947  1.0000
  C   C257      1.0  0.97739  0.62279  0.12192  1.0000
  H   H198      1.0  0.01716  0.55384  0.16201  1.0000
  H   H199      1.0  0.07338  0.60190  0.43599  1.0000
  C   C258      1.0  0.10132  0.59340  0.25010  1.0000
  C   C259      1.0  0.06295  0.55292  0.20906  1.0000
  C   C260      1.0  0.07950  0.83893  0.11001  1.0000
  H   H200      1.0  0.00971  0.69583  0.13102  1.0000
  C   C261      1.0  0.10183  0.93576  0.46171  1.0000
  H   H201      1.0  0.13725  0.95103  0.28425  1.0000
  Fe  Fe31      1.0  0.06538  0.49585  0.99923  1.0000
  S   S64       1.0  0.99207  0.97468  0.40087  1.0000
  C   C262      1.0  0.15777  0.58657  0.41426  1.0000
  Fe  Fe32      1.0  0.99007  0.97545  0.98311  1.0000
  H   H202      1.0  0.12935  0.54115  0.22334  1.0000
  C   C263      1.0  0.08436  0.56975  0.18261  1.0000
  H   H203      1.0  0.97686  0.48767  0.07353  1.0000
  H   H204      1.0  0.10008  0.90073  0.20988  1.0000
  H   H205      1.0  0.00509  0.76307  0.20625  1.0000
  H   H206      1.0  0.13462  0.94724  0.14361  1.0000
  P   P9        1.0  0.98275  0.63186  0.16721  1.0000
  H   H207      1.0  0.99552  0.58190  0.05940  1.0000
  S   S65       1.0  0.99533  0.90588  0.28379  1.0000
  C   C264      1.0  0.13223  0.54813  0.08459  1.0000
  H   H208      1.0  0.10231  0.90992  0.09538  1.0000
  H   H209      1.0  0.05393  0.97463  0.13635  1.0000
  H   H210      1.0  0.08281  0.93199  0.04901  1.0000
  H   H211      1.0  0.15837  0.92316  0.35105  1.0000
  H   H212      1.0  0.11689  0.54203  0.43374  1.0000
  Fe  Fe33      1.0  0.03905  0.49314  0.42726  1.0000
  C   C265      1.0  0.12619  0.95740  0.12393  1.0000
  H   H213      1.0  0.08405  0.84806  0.16402  1.0000
  C   C266      1.0  0.16710  0.97731  0.20498  1.0000
  C   C267      1.0  0.07575  0.94085  0.45414  1.0000
  C   C268      1.0  0.06931  0.62210  0.44482  1.0000
  C   C269      1.0  0.16573  0.89040  0.31604  1.0000
  H   H214      1.0  0.11242  0.52788  0.06984  1.0000
  C   C270      1.0  0.11499  0.59839  0.18970  1.0000
  C   C271      1.0  0.05441  0.97554  0.19136  1.0000
  C   C272      1.0  0.12324  0.60978  0.22405  1.0000
  C   C273      1.0  0.12933  0.63956  0.12486  1.0000
  C   C274      1.0  0.14494  0.49927  0.14383  1.0000
  C   C275      1.0  0.14116  0.67624  0.07639  1.0000
  C   C276      1.0  0.10820  0.66505  0.07203  1.0000
  C   C277      1.0  0.08579  0.64111  0.09392  1.0000
  C   C278      1.0  0.09627  0.62842  0.12026  1.0000
  H   H215      1.0  0.08318  0.88237  0.99257  1.0000
  C   C279      1.0  0.00164  0.69949  0.15568  1.0000
  H   H216      1.0  0.14476  0.86767  0.32439  1.0000
  C   C280      1.0  0.16370  0.53147  0.19726  1.0000
  H   H217      1.0  0.07870  0.96600  0.45620  1.0000
  H   H218      1.0  0.07640  0.56041  0.15688  1.0000
  S   S66       1.0  0.14986  0.78793  0.43652  1.0000
  C   C281      1.0  0.97808  0.70870  0.32954  1.0000
  H   H219      1.0  0.98373  0.87652  0.21456  1.0000
  H   H220      1.0  0.05362  0.96885  0.24574  1.0000
  C   C282      1.0  0.16902  0.67947  0.30043  1.0000
  H   H221      1.0  0.12217  0.48699  0.27910  1.0000
  C   C283      1.0  0.13069  0.56957  0.43476  1.0000
  C   C284      1.0  0.12609  0.56729  0.10867  1.0000
  H   H222      1.0  0.12603  0.89042  0.25971  1.0000
  C   C285      1.0  0.99012  0.83877  0.18622  1.0000
  H   H223      1.0  0.06017  0.63199  0.09029  1.0000
  H   H224      1.0  0.07836  0.60995  0.13677  1.0000
  H   H225      1.0  0.10366  0.65583  0.21975  1.0000
  C   C286      1.0  0.04612  0.91383  0.44216  1.0000
  H   H226      1.0  0.09360  0.84215  0.29684  1.0000
  C   C287      1.0  0.04286  0.62358  0.43118  1.0000
  H   H227      1.0  0.00384  0.96102  0.46637  1.0000
  C   C288      1.0  0.16242  0.57472  0.28910  1.0000
  C   C289      1.0  0.13829  0.62363  0.45655  1.0000
  C   C290      1.0  0.99870  0.53014  0.15031  1.0000
  H   H228      1.0  0.01831  0.65226  0.42816  1.0000
  H   H229      1.0  0.02720  0.60493  0.41191  1.0000
  S   S67       1.0  0.16596  0.83377  0.99739  1.0000
  C   C291      1.0  0.07136  0.56481  0.24272  1.0000
  H   H230      1.0  0.13122  0.63046  0.98700  1.0000
  H   H231      1.0  0.15353  0.73987  0.10222  1.0000
  C   C292      1.0  0.03767  0.65022  0.44050  1.0000
  C   C293      1.0  0.99033  0.60424  0.10621  1.0000
  H   H232      1.0  0.12782  0.97263  0.39999  1.0000
  H   H233      1.0  0.14991  0.70395  0.43914  1.0000
  P   P10       1.0  0.03352  0.86511  0.18267  1.0000
  C   C294      1.0  0.04546  0.85468  0.14252  1.0000
  C   C295      1.0  0.04423  0.90927  0.18533  1.0000
  C   C296      1.0  0.04682  0.92758  0.15600  1.0000
  C   C297      1.0  0.16054  0.83721  0.11002  1.0000
  C   C298      1.0  0.99959  0.73787  0.19809  1.0000
  C   C299      1.0  0.05227  0.95765  0.22056  1.0000
  C   C300      1.0  0.04783  0.92497  0.21756  1.0000
  C   C301      1.0  0.02840  0.85240  0.11229  1.0000
  C   C302      1.0  0.03732  0.84416  0.08109  1.0000
  C   C303      1.0  0.05214  0.96070  0.15906  1.0000
  C   C304      1.0  0.05271  0.85717  0.21832  1.0000
  C   C305      1.0  0.03469  0.82974  0.23960  1.0000
  C   C306      1.0  0.04969  0.82406  0.26724  1.0000
  C   C307      1.0  0.09685  0.94845  0.07045  1.0000
  C   C308      1.0  0.10059  0.87360  0.25375  1.0000
  C   C309      1.0  0.08582  0.87915  0.22563  1.0000
  H   H234      1.0  0.03574  0.80285  0.28366  1.0000
  H   H235      1.0  0.00894  0.81298  0.23577  1.0000
  C   C310      1.0  0.17344  0.92210  0.33103  1.0000
  C   C311      1.0  0.02186  0.62003  0.21192  1.0000
  C   C312      1.0  0.04216  0.88142  0.43792  1.0000
  H   H236      1.0  0.04445  0.91651  0.13079  1.0000
  S   S68       1.0  0.06020  0.97587  0.38336  1.0000
  C   C313      1.0  0.02013  0.63500  0.18165  1.0000
  H   H237      1.0  0.04600  0.91149  0.24061  1.0000
  Fe  Fe34      1.0  0.99725  0.48473  0.98110  1.0000
  C   C314      1.0  0.98543  0.71141  0.22088  1.0000
  C   C315      1.0  0.16696  0.65146  0.31734  1.0000
  C   C316      1.0  0.16593  0.64051  0.43635  1.0000
  S   S69       1.0  0.01992  0.96094  0.01565  1.0000
  H   H238      1.0  0.07003  0.83118  0.05585  1.0000
  C   C317      1.0  0.14125  0.96344  0.25996  1.0000
  H   H239      1.0  0.98820  0.79440  0.16225  1.0000
  H   H240      1.0  0.10720  0.60348  0.27614  1.0000
  H   H241      1.0  0.00824  0.85710  0.11292  1.0000
  H   H242      1.0  0.10159  0.56245  0.11060  1.0000
  H   H243      1.0  0.00402  0.59565  0.12097  1.0000
  H   H244      1.0  0.10007  0.67469  0.05145  1.0000
  H   H245      1.0  0.14595  0.63215  0.23130  1.0000
  C   C318      1.0  0.04875  0.65632  0.16457  1.0000
  C   C319      1.0  0.00064  0.52274  0.11599  1.0000
  H   H246      1.0  0.16475  0.57222  0.39727  1.0000
  C   C320      1.0  0.17557  0.62202  0.41534  1.0000
  H   H247      1.0  0.15287  0.74399  0.16514  1.0000
  C   C321      1.0  0.07879  0.66358  0.17809  1.0000
  C   C322      1.0  0.98535  0.59620  0.07126  1.0000
  S   S70       1.0  0.14912  0.85934  0.43460  1.0000
  H   H248      1.0  0.01984  0.86095  0.42674  1.0000
  Fe  Fe35      1.0  0.05460  0.97364  0.97271  1.0000
  C   C323      1.0  0.13377  0.52972  0.20089  1.0000
  C   C324      1.0  0.98696  0.67260  0.17834  1.0000
  C   C325      1.0  0.16149  0.96076  0.23596  1.0000
  C   C326      1.0  0.11501  0.49749  0.14766  1.0000
  C   C327      1.0  0.08244  0.84628  0.27469  1.0000
  H   H249      1.0  0.00048  0.60497  0.22684  1.0000
  C   C328      1.0  0.15166  0.66329  0.10237  1.0000
  C   C329      1.0  0.12090  0.58795  0.45578  1.0000
  C   C330      1.0  0.16983  0.51684  0.16833  1.0000
  C   C331      1.0  0.06756  0.87584  0.44658  1.0000
  C   C332      1.0  0.10207  0.89939  0.97589  1.0000
  C   C333      1.0  0.09735  0.90289  0.45827  1.0000
  C   C334      1.0  0.16393  0.55564  0.07872  1.0000
  H   H250      1.0  0.12878  0.87259  0.97923  1.0000
  H   H251      1.0  0.98434  0.87519  0.98695  1.0000
  H   H252      1.0  0.16805  0.68828  0.37522  1.0000
  H   H253      1.0  0.05524  0.69657  0.47033  1.0000
  C   C335      1.0  0.09070  0.64729  0.46825  1.0000
  H   H254      1.0  0.16856  0.54125  0.05935  1.0000
  H   H255      1.0  0.17499  0.68912  0.00188  1.0000
  C   C336      1.0  0.17450  0.76129  0.15160  1.0000
  H   H256      1.0  0.15855  0.69486  0.05943  1.0000
  H   H257      1.0  0.17309  0.94611  0.24166  1.0000
  H   H258      1.0  0.97944  0.71606  0.24631  1.0000
  H   H259      1.0  0.98031  0.60826  0.36209  1.0000
  Fe  Fe36      1.0  0.17640  0.83675  0.40793  1.0000
  C   C337      1.0  0.17264  0.96114  0.46552  1.0000
  C   C338      1.0  0.98010  0.67920  0.21152  1.0000
  H   H260      1.0  0.14818  0.48687  0.12171  1.0000
  S   S71       1.0  0.97647  0.88710  0.37427  1.0000
  H   H261      1.0  0.16889  0.69434  0.16784  1.0000
  H   H262      1.0  0.09626  0.48464  0.12825  1.0000
  H   H263      1.0  0.09952  0.57422  0.47110  1.0000
  Fe  Fe37      1.0  0.05755  0.55544  0.97193  1.0000
  C   C339      1.0  0.12526  0.70820  0.95731  1.0000
  S   S72       1.0  0.07259  0.60472  0.94414  1.0000
  C   C340      1.0  0.05589  0.56334  0.86238  1.0000
  C   C341      1.0  0.97728  0.72963  0.85780  1.0000
  C   C342      1.0  0.99444  0.73699  0.79848  1.0000
  C   C343      1.0  0.10101  0.67476  0.94765  1.0000
  H   H264      1.0  0.08091  0.67094  0.93152  1.0000
  H   H265      1.0  0.13304  0.55320  0.51042  1.0000
  C   C344      1.0  0.12793  0.89375  0.96835  1.0000
  Fe  Fe38      1.0  0.16644  0.82632  0.71813  1.0000
  C   C345      1.0  0.09033  0.63781  0.69860  1.0000
  H   H266      1.0  0.10985  0.49371  0.52655  1.0000
  H   H267      1.0  0.99165  0.55465  0.85592  1.0000
  C   C346      1.0  0.13282  0.95598  0.84587  1.0000
  C   C347      1.0  0.05580  0.85619  0.82837  1.0000
  Fe  Fe39      1.0  0.98607  0.96920  0.63546  1.0000
  H   H268      1.0  0.14617  0.92282  0.81943  1.0000
  C   C348      1.0  0.08573  0.85842  0.82247  1.0000
  C   C349      1.0  0.06369  0.59548  0.85110  1.0000
  S   S73       1.0  0.14152  0.84835  0.74977  1.0000
  C   C350      1.0  0.03985  0.92046  0.87467  1.0000
  C   C351      1.0  0.04300  0.67344  0.77646  1.0000
  Fe  Fe40      1.0  0.11353  0.79674  0.77343  1.0000
  S   S74       1.0  0.05761  0.76920  0.77607  1.0000
  S   S75       1.0  0.13619  0.77411  0.73889  1.0000
  C   C352      1.0  0.97700  0.80027  0.95876  1.0000
  S   S76       1.0  0.05936  0.49730  0.48027  1.0000
  C   C353      1.0  0.98659  0.63108  0.81170  1.0000
  C   C354      1.0  0.12466  0.94804  0.93977  1.0000
  C   C355      1.0  0.10271  0.64637  0.95851  1.0000
  Fe  Fe41      1.0  0.04228  0.51655  0.70468  1.0000
  H   H269      1.0  0.06850  0.61545  0.86983  1.0000
  S   S77       1.0  0.09351  0.54365  0.72820  1.0000
  C   C356      1.0  0.01399  0.62755  0.81531  1.0000
  H   H270      1.0  0.06482  0.69054  0.76307  1.0000
  C   C357      1.0  0.05950  0.57528  0.79256  1.0000
  H   H271      1.0  0.04428  0.51255  0.84777  1.0000
  S   S78       1.0  0.01547  0.54466  0.69399  1.0000
  C   C358      1.0  0.99289  0.86436  0.93561  1.0000
  C   C359      1.0  0.03886  0.50549  0.51242  1.0000
  H   H272      1.0  0.09042  0.96406  0.52055  1.0000
  H   H273      1.0  0.99030  0.63618  0.65473  1.0000
  C   C360      1.0  0.15001  0.94169  0.93132  1.0000
  C   C361      1.0  0.03644  0.52040  0.57160  1.0000
  C   C362      1.0  0.05238  0.51366  0.54539  1.0000
  C   C363      1.0  0.06169  0.84942  0.88864  1.0000
  H   H274      1.0  0.01014  0.60059  0.50605  1.0000
  H   H275      1.0  0.04736  0.52750  0.59680  1.0000
  H   H276      1.0  0.08805  0.71020  0.82793  1.0000
  C   C364      1.0  0.16131  0.82759  0.62247  1.0000
  C   C365      1.0  0.10026  0.92654  0.96174  1.0000
  C   C366      1.0  0.16285  0.83017  0.55974  1.0000
  C   C367      1.0  0.12893  0.81156  0.55748  1.0000
  C   C368      1.0  0.11382  0.97817  0.53334  1.0000
  C   C369      1.0  0.14901  0.54344  0.51645  1.0000
  C   C370      1.0  0.16520  0.57081  0.65791  1.0000
  C   C371      1.0  0.02725  0.95779  0.84333  1.0000
  S   S79       1.0  0.04305  0.50257  0.95072  1.0000
  H   H277      1.0  0.16821  0.95771  0.91342  1.0000
  C   C372      1.0  0.03522  0.75974  0.84341  1.0000
  C   C373      1.0  0.02747  0.75457  0.80846  1.0000
  H   H278      1.0  0.07545  0.51539  0.55054  1.0000
  H   H279      1.0  0.06039  0.77331  0.85167  1.0000
  C   C374      1.0  0.01558  0.67687  0.77291  1.0000
  H   H280      1.0  0.09510  0.86190  0.79684  1.0000
  H   H281      1.0  0.97953  0.57719  0.73063  1.0000
  H   H282      1.0  0.15839  0.57316  0.75608  1.0000
  C   C375      1.0  0.13175  0.55926  0.70819  1.0000
  H   H283      1.0  0.99906  0.88937  0.92739  1.0000
  H   H284      1.0  0.11295  0.54900  0.65674  1.0000
  C   C376      1.0  0.16014  0.57248  0.72858  1.0000
  H   H285      1.0  0.13613  0.48292  0.66833  1.0000
  C   C377      1.0  0.10387  0.85668  0.84965  1.0000
  C   C378      1.0  0.10643  0.67525  0.83182  1.0000
  H   H286      1.0  0.12356  0.72970  0.94878  1.0000
  C   C379      1.0  0.13053  0.67037  0.84705  1.0000
  C   C380      1.0  0.14967  0.94820  0.82160  1.0000
  C   C381      1.0  0.01032  0.74735  0.86780  1.0000
  H   H287      1.0  0.05508  0.55879  0.88942  1.0000
  P   P11       1.0  0.14126  0.97187  0.47248  1.0000
  C   C382      1.0  0.17165  0.97338  0.80045  1.0000
  C   C383      1.0  0.13450  0.55873  0.67271  1.0000
  H   H288      1.0  0.04772  0.52326  0.78577  1.0000
  C   C384      1.0  0.15181  0.91451  0.94554  1.0000
  C   C385      1.0  0.99401  0.84054  0.91307  1.0000
  H   H289      1.0  0.99837  0.53860  0.91423  1.0000
  H   H290      1.0  0.01626  0.69616  0.75666  1.0000
  H   H291      1.0  0.05524  0.91732  0.89298  1.0000
  C   C386      1.0  0.00717  0.51936  0.56478  1.0000
  H   H292      1.0  0.16557  0.93627  0.51373  1.0000
  C   C387      1.0  0.17626  0.70354  0.52022  1.0000
  H   H293      1.0  0.97730  0.57797  0.63687  1.0000
  C   C388      1.0  0.15333  0.69485  0.86989  1.0000
  C   C389      1.0  0.09600  0.64890  0.76001  1.0000
  H   H294      1.0  0.08523  0.78654  0.58663  1.0000
  H   H295      1.0  0.05354  0.84704  0.91466  1.0000
  C   C390      1.0  0.98741  0.65577  0.79055  1.0000
  C   C391      1.0  0.00936  0.50399  0.50562  1.0000
  S   S80       1.0  0.15044  0.80926  0.81552  1.0000
  C   C392      1.0  0.08355  0.60489  0.57536  1.0000
  C   C393      1.0  0.10546  0.59638  0.58948  1.0000
  C   C394      1.0  0.13312  0.60260  0.57160  1.0000
  C   C395      1.0  0.13901  0.61758  0.53971  1.0000
  C   C396      1.0  0.11728  0.62650  0.52549  1.0000
  C   C397      1.0  0.08944  0.62001  0.54352  1.0000
  P   P12       1.0  0.12610  0.64706  0.48491  1.0000
  C   C398      1.0  0.15805  0.69085  0.48968  1.0000
  C   C399      1.0  0.12743  0.80868  0.62018  1.0000
  H   H296      1.0  0.99764  0.80482  0.80876  1.0000
  P   P13       1.0  0.07773  0.64387  0.80140  1.0000
  H   H297      1.0  0.12750  0.85933  0.84527  1.0000
  H   H298      1.0  0.11351  0.80044  0.64324  1.0000
  C   C400      1.0  0.99349  0.51097  0.53190  1.0000
  H   H299      1.0  0.05026  0.62437  0.73188  1.0000
  H   H300      1.0  0.06132  0.57925  0.76539  1.0000
  H   H301      1.0  0.10652  0.85191  0.90380  1.0000
  C   C401      1.0  0.98564  0.80832  0.92480  1.0000
  C   C402      1.0  0.12391  0.65206  0.69623  1.0000
  H   H302      1.0  0.06165  0.59923  0.58884  1.0000
  H   H303      1.0  0.10078  0.58457  0.61409  1.0000
  C   C403      1.0  0.98748  0.57897  0.49714  1.0000
  C   C404      1.0  0.10583  0.70525  0.83959  1.0000
  H   H304      1.0  0.07213  0.62631  0.53303  1.0000
  C   C405      1.0  0.01315  0.89196  0.85916  1.0000
  C   C406      1.0  0.04669  0.95322  0.86695  1.0000
  C   C407      1.0  0.11144  0.80084  0.58796  1.0000
  Fe  Fe42      1.0  0.99747  0.51130  0.64680  1.0000
  H   H305      1.0  0.13473  0.65294  0.67175  1.0000
  C   C408      1.0  0.04233  0.64852  0.79749  1.0000
  S   S81       1.0  0.00718  0.95115  0.67559  1.0000
  C   C409      1.0  0.09194  0.85239  0.88271  1.0000
  H   H306      1.0  0.12812  0.75268  0.86852  1.0000
  H   H307      1.0  0.98594  0.78944  0.90762  1.0000
  C   C410      1.0  0.98914  0.95161  0.51861  1.0000
  H   H308      1.0  0.01678  0.75156  0.89468  1.0000
  P   P14       1.0  0.00524  0.84994  0.86905  1.0000
  C   C411      1.0  0.04305  0.85069  0.86136  1.0000
  H   H309      1.0  0.17028  0.74348  0.89518  1.0000
  C   C412      1.0  0.13588  0.50969  0.52560  1.0000
  S   S82       1.0  0.02761  0.48674  0.65503  1.0000
  H   H310      1.0  0.98799  0.73288  0.77159  1.0000
  H   H311      1.0  0.16961  0.67592  0.72397  1.0000
  C   C413      1.0  0.05157  0.54320  0.80402  1.0000
  H   H312      1.0  0.01301  0.60864  0.83210  1.0000
  C   C414      1.0  0.06589  0.60183  0.81602  1.0000
  C   C415      1.0  0.15616  0.49635  0.53200  1.0000
  H   H313      1.0  0.17203  0.69113  0.88137  1.0000
  S   S83       1.0  0.10705  0.80117  0.51767  1.0000
  C   C416      1.0  0.99783  0.96207  0.55270  1.0000
  H   H314      1.0  0.14531  0.67342  0.77963  1.0000
  C   C417      1.0  0.04981  0.53722  0.83890  1.0000
  H   H315      1.0  0.16059  0.62233  0.52613  1.0000
  C   C418      1.0  0.14356  0.66493  0.72558  1.0000
  H   H316      1.0  0.11797  0.50669  0.62252  1.0000
  H   H317      1.0  0.04279  0.85907  0.80718  1.0000
  H   H318      1.0  0.06700  0.97509  0.87938  1.0000
  C   C419      1.0  0.99389  0.89678  0.83517  1.0000
  C   C420      1.0  0.08480  0.67361  0.47819  1.0000
  H   H319      1.0  0.15000  0.59576  0.58238  1.0000
  C   C421      1.0  0.12967  0.66343  0.75729  1.0000
  H   H320      1.0  0.07504  0.62756  0.67592  1.0000
  H   H321      1.0  0.10106  0.69369  0.49586  1.0000
  H   H322      1.0  0.11581  0.93630  0.86224  1.0000
  C   C422      1.0  0.07638  0.63622  0.73035  1.0000
  C   C423      1.0  0.01072  0.96920  0.49260  1.0000
  C   C424      1.0  0.15243  0.72446  0.87760  1.0000
  S   S84       1.0  0.06524  0.92993  0.96969  1.0000
  C   C425      1.0  0.00101  0.92961  0.82733  1.0000
  H   H323      1.0  0.12346  0.96879  0.92838  1.0000
  H   H324      1.0  0.17180  0.68735  0.54165  1.0000
  H   H325      1.0  0.13198  0.64784  0.84104  1.0000
  H   H326      1.0  0.98636  0.93317  0.80845  1.0000
  S   S85       1.0  0.98762  0.52843  0.59742  1.0000
  C   C426      1.0  0.12862  0.72958  0.86259  1.0000
  H   H327      1.0  0.16704  0.57005  0.63044  1.0000
  H   H328      1.0  0.99880  0.49738  0.48017  1.0000
  Fe  Fe43      1.0  0.17508  0.78973  0.77990  1.0000
  C   C427      1.0  0.98768  0.55687  0.47194  1.0000
  C   C428      1.0  0.98427  0.85625  0.96961  1.0000
  Fe  Fe44      1.0  0.27163  0.09843  0.40782  1.0000
  S   S86       1.0  0.30955  0.14159  0.37824  1.0000
  Fe  Fe45      1.0  0.25092  0.04647  0.34931  1.0000
  S   S87       1.0  0.28745  0.08504  0.31439  1.0000
  C   C429      1.0  0.31513  0.28562  0.45538  1.0000
  Fe  Fe46      1.0  0.32352  0.10410  0.35883  1.0000
  Fe  Fe47      1.0  0.27185  0.12165  0.33576  1.0000
  S   S88       1.0  0.26911  0.16286  0.30532  1.0000
  S   S89       1.0  0.28779  0.06193  0.39210  1.0000
  S   S90       1.0  0.23311  0.08170  0.36746  1.0000
  Fe  Fe48      1.0  0.31045  0.13611  0.25075  1.0000
  S   S91       1.0  0.33379  0.18880  0.22933  1.0000
  S   S92       1.0  0.25490  0.09783  0.24265  1.0000
  S   S93       1.0  0.22846  0.39287  0.99695  1.0000
  C   C430      1.0  0.21074  0.03631  0.11129  1.0000
  S   S94       1.0  0.34936  0.15418  0.29317  1.0000
  S   S95       1.0  0.33805  0.11964  0.21541  1.0000
  S   S96       1.0  0.31323  0.14102  0.98832  1.0000
  H   H329      1.0  0.32568  0.25798  0.02876  1.0000
  S   S97       1.0  0.22512  0.36701  0.41429  1.0000
  C   C431      1.0  0.21836  0.08590  0.26613  1.0000
  C   C432      1.0  0.19924  0.10029  0.25811  1.0000
  Fe  Fe49      1.0  0.17926  0.35778  0.97302  1.0000
  S   S98       1.0  0.25667  0.09996  0.46176  1.0000
  C   C433      1.0  0.20443  0.05732  0.28688  1.0000
  H   H330      1.0  0.20854  0.12083  0.24074  1.0000
  H   H331      1.0  0.21739  0.04391  0.29147  1.0000
  C   C434      1.0  0.31660  0.33170  0.42425  1.0000
  C   C435      1.0  0.32634  0.14675  0.09244  1.0000
  H   H332      1.0  0.19180  0.46419  0.27358  1.0000
  C   C436      1.0  0.33054  0.15564  0.03037  1.0000
  C   C437      1.0  0.18997  0.27552  0.37968  1.0000
  H   H333      1.0  0.36452  0.06335  0.21014  1.0000
  C   C438      1.0  0.36005  0.18570  0.03642  1.0000
  C   C439      1.0  0.33706  0.02486  0.37991  1.0000
  H   H334      1.0  0.36256  0.27218  0.36917  1.0000
  H   H335      1.0  0.21715  0.35958  0.16442  1.0000
  S   S99       1.0  0.19539  0.35586  0.31540  1.0000
  C   C440      1.0  0.24238  0.45694  0.34312  1.0000
  C   C441      1.0  0.23524  0.42377  0.33329  1.0000
  C   C442      1.0  0.21249  0.44638  0.08378  1.0000
  H   H336      1.0  0.31736  0.42232  0.00868  1.0000
  H   H337      1.0  0.22397  0.26629  0.07975  1.0000
  H   H338      1.0  0.35367  0.40338  0.14401  1.0000
  H   H339      1.0  0.25489  0.41897  0.32801  1.0000
  H   H340      1.0  0.33325  0.03919  0.26170  1.0000
  C   C443      1.0  0.23616  0.15582  0.42316  1.0000
  H   H341      1.0  0.29778  0.46974  0.45564  1.0000
  C   C444      1.0  0.23899  0.17390  0.29527  1.0000
  C   C445      1.0  0.23840  0.18457  0.26216  1.0000
  C   C446      1.0  0.21585  0.19424  0.25246  1.0000
  H   H342      1.0  0.25473  0.18390  0.24349  1.0000
  H   H343      1.0  0.19913  0.29433  0.43182  1.0000
  C   C447      1.0  0.31802  0.39377  0.35111  1.0000
  C   C448      1.0  0.31897  0.41413  0.37907  1.0000
  C   C449      1.0  0.29032  0.40602  0.39720  1.0000
  C   C450      1.0  0.26004  0.37744  0.38810  1.0000
  C   C451      1.0  0.25912  0.35759  0.35976  1.0000
  C   C452      1.0  0.28765  0.36562  0.34155  1.0000
  H   H344      1.0  0.34178  0.43626  0.38659  1.0000
  H   H345      1.0  0.29146  0.42250  0.41800  1.0000
  H   H346      1.0  0.23629  0.33613  0.35152  1.0000
  H   H347      1.0  0.28600  0.34988  0.31966  1.0000
  C   C453      1.0  0.33012  0.32898  0.08027  1.0000
  C   C454      1.0  0.30461  0.33299  0.06839  1.0000
  C   C455      1.0  0.28558  0.33865  0.09162  1.0000
  C   C456      1.0  0.29151  0.33959  0.12673  1.0000
  C   C457      1.0  0.31677  0.33505  0.13898  1.0000
  C   C458      1.0  0.33651  0.33048  0.11535  1.0000
  P   P15       1.0  0.32717  0.34080  0.18407  1.0000
  C   C459      1.0  0.29156  0.32026  0.21041  1.0000
  C   C460      1.0  0.35378  0.32412  0.19313  1.0000
  H   H348      1.0  0.32527  0.12703  0.45120  1.0000
  H   H349      1.0  0.21515  0.20097  0.22638  1.0000
  C   C461      1.0  0.24291  0.29611  0.25975  1.0000
  C   C462      1.0  0.26148  0.28053  0.25475  1.0000
  C   C463      1.0  0.28544  0.29224  0.23001  1.0000
  H   H350      1.0  0.35735  0.43601  0.26633  1.0000
  H   H351      1.0  0.30004  0.33252  0.04116  1.0000
  H   H352      1.0  0.26648  0.34292  0.08238  1.0000
  H   H353      1.0  0.27686  0.34479  0.14405  1.0000
  C   C464      1.0  0.19533  0.19673  0.27641  1.0000
  C   C465      1.0  0.20343  0.24704  0.17508  1.0000
  C   C466      1.0  0.34728  0.39520  0.23042  1.0000
  H   H354      1.0  0.22455  0.28718  0.27916  1.0000
  H   H355      1.0  0.25798  0.25997  0.27081  1.0000
  H   H356      1.0  0.29985  0.28009  0.22763  1.0000
  C   C467      1.0  0.33479  0.31192  0.30772  1.0000
  C   C468      1.0  0.33542  0.28490  0.29090  1.0000
  C   C469      1.0  0.31907  0.25258  0.30438  1.0000
  C   C470      1.0  0.30250  0.24727  0.33498  1.0000
  C   C471      1.0  0.30248  0.27439  0.35269  1.0000
  C   C472      1.0  0.31822  0.30664  0.33835  1.0000
  P   P16       1.0  0.28120  0.26764  0.39246  1.0000
  C   C473      1.0  0.24808  0.27497  0.38588  1.0000
  C   C474      1.0  0.26343  0.22394  0.40521  1.0000
  C   C475      1.0  0.22954  0.20309  0.40775  1.0000
  C   C476      1.0  0.21724  0.46376  0.34943  1.0000
  C   C477      1.0  0.20298  0.39682  0.33007  1.0000
  C   C478      1.0  0.24848  0.32371  0.24024  1.0000
  H   H357      1.0  0.23479  0.33652  0.24508  1.0000
  C   C479      1.0  0.23623  0.28504  0.41373  1.0000
  C   C480      1.0  0.20743  0.28550  0.41049  1.0000
  H   H358      1.0  0.37203  0.47885  0.22210  1.0000
  C   C481      1.0  0.20158  0.26533  0.35178  1.0000
  C   C482      1.0  0.23076  0.26530  0.35477  1.0000
  H   H359      1.0  0.29091  0.11314  0.05454  1.0000
  C   C483      1.0  0.25327  0.24814  0.00233  1.0000
  C   C484      1.0  0.34547  0.38537  0.19583  1.0000
  H   H360      1.0  0.34764  0.33714  0.29739  1.0000
  H   H361      1.0  0.34906  0.28898  0.26776  1.0000
  H   H362      1.0  0.31988  0.23165  0.29149  1.0000
  H   H363      1.0  0.29013  0.22197  0.34473  1.0000
  H   H364      1.0  0.31831  0.32800  0.35080  1.0000
  H   H365      1.0  0.21307  0.21221  0.40196  1.0000
  C   C485      1.0  0.19323  0.34911  0.15291  1.0000
  H   H366      1.0  0.24900  0.04966  0.07509  1.0000
  H   H367      1.0  0.22161  0.04215  0.19776  1.0000
  H   H368      1.0  0.27762  0.35831  0.20221  1.0000
  H   H369      1.0  0.32961  0.98741  0.28613  1.0000
  C   C486      1.0  0.18505  0.43673  0.34665  1.0000
  H   H370      1.0  0.28510  0.16607  0.42772  1.0000
  H   H371      1.0  0.18927  0.40904  0.17917  1.0000
  H   H372      1.0  0.23917  0.25668  0.33323  1.0000
  H   H373      1.0  0.24876  0.29198  0.43820  1.0000
  H   H374      1.0  0.30942  0.34118  0.40280  1.0000
  H   H375      1.0  0.22839  0.46902  0.16774  1.0000
  S   S100      1.0  0.22403  0.37149  0.09277  1.0000
  H   H376      1.0  0.20833  0.09093  0.17887  1.0000
  H   H377      1.0  0.37286  0.46534  0.02891  1.0000
  C   C487      1.0  0.18973  0.35301  0.11821  1.0000
  H   H378      1.0  0.18273  0.19143  0.32937  1.0000
  P   P17       1.0  0.22417  0.20262  0.09439  1.0000
  C   C488      1.0  0.24450  0.18603  0.12000  1.0000
  C   C489      1.0  0.24877  0.22471  0.05850  1.0000
  C   C490      1.0  0.23461  0.23138  0.03041  1.0000
  C   C491      1.0  0.24112  0.15415  0.11184  1.0000
  C   C492      1.0  0.25553  0.14066  0.13264  1.0000
  C   C493      1.0  0.26368  0.20471  0.14848  1.0000
  H   H379      1.0  0.31321  0.13160  0.11380  1.0000
  C   C494      1.0  0.35424  0.40994  0.17080  1.0000
  C   C495      1.0  0.21588  0.23097  0.12001  1.0000
  C   C496      1.0  0.35656  0.42871  0.23966  1.0000
  C   C497      1.0  0.18672  0.14898  0.04874  1.0000
  H   H380      1.0  0.21878  0.16816  0.34511  1.0000
  Fe  Fe50      1.0  0.24494  0.35925  0.97184  1.0000
  C   C498      1.0  0.20745  0.22403  0.15441  1.0000
  C   C499      1.0  0.33825  0.42540  0.99495  1.0000
  H   H381      1.0  0.20339  0.29424  0.17757  1.0000
  C   C500      1.0  0.19701  0.45930  0.43593  1.0000
  H   H382      1.0  0.29153  0.20498  0.19201  1.0000
  H   H383      1.0  0.30041  0.27047  0.97975  1.0000
  H   H384      1.0  0.37021  0.46229  0.16089  1.0000
  C   C501      1.0  0.17799  0.40351  0.33761  1.0000
  H   H385      1.0  0.22728  0.13944  0.08963  1.0000
  H   H386      1.0  0.25264  0.11596  0.12650  1.0000
  H   H387      1.0  0.27784  0.06266  0.18105  1.0000
  H   H388      1.0  0.33965  0.22016  0.46117  1.0000
  H   H389      1.0  0.30933  0.22524  0.40916  1.0000
  H   H390      1.0  0.20854  0.15762  0.03403  1.0000
  C   C502      1.0  0.22714  0.04331  0.17087  1.0000
  P   P18       1.0  0.35551  0.02012  0.44630  1.0000
  C   C503      1.0  0.27332  0.15874  0.16175  1.0000
  C   C504      1.0  0.22051  0.46904  0.14180  1.0000
  C   C505      1.0  0.30034  0.25097  0.02947  1.0000
  C   C506      1.0  0.36215  0.03998  0.21932  1.0000
  C   C507      1.0  0.36466  0.45285  0.21464  1.0000
  H   H391      1.0  0.18998  0.15275  0.41652  1.0000
  S   S101      1.0  0.23076  0.32341  0.01487  1.0000
  H   H392      1.0  0.29195  0.06641  0.11965  1.0000
  H   H393      1.0  0.22575  0.12929  0.42886  1.0000
  Fe  Fe51      1.0  0.21114  0.35453  0.03797  1.0000
  C   C508      1.0  0.27264  0.33575  0.21569  1.0000
  C   C509      1.0  0.21817  0.17575  0.31941  1.0000
  H   H394      1.0  0.28844  0.00834  0.45111  1.0000
  C   C510      1.0  0.27761  0.19088  0.16950  1.0000
  C   C511      1.0  0.28611  0.25787  0.00179  1.0000
  H   H395      1.0  0.21517  0.30543  0.11610  1.0000
  C   C512      1.0  0.30710  0.29712  0.42591  1.0000
  C   C513      1.0  0.26972  0.17650  0.42178  1.0000
  H   H396      1.0  0.18810  0.25753  0.32781  1.0000
  H   H397      1.0  0.19243  0.02949  0.09150  1.0000
  C   C514      1.0  0.21196  0.43961  0.43510  1.0000
  C   C515      1.0  0.19725  0.18830  0.31029  1.0000
  C   C516      1.0  0.25917  0.05500  0.16140  1.0000
  H   H398      1.0  0.21345  0.42882  0.06524  1.0000
  C   C517      1.0  0.33053  0.00422  0.40816  1.0000
  C   C518      1.0  0.21355  0.28295  0.12693  1.0000
  C   C519      1.0  0.37563  0.99524  0.21717  1.0000
  C   C520      1.0  0.28334  0.21014  0.41198  1.0000
  H   H399      1.0  0.29333  0.22944  0.07893  1.0000
  C   C521      1.0  0.28182  0.23463  0.05786  1.0000
  H   H400      1.0  0.37374  0.24666  0.41804  1.0000
  H   H401      1.0  0.21144  0.42598  0.41175  1.0000
  H   H402      1.0  0.32309  0.27558  0.16739  1.0000
  C   C522      1.0  0.31627  0.01316  0.35138  1.0000
  H   H403      1.0  0.23029  0.42973  0.12536  1.0000
  C   C523      1.0  0.20679  0.27663  0.16146  1.0000
  C   C524      1.0  0.21606  0.16909  0.41627  1.0000
  C   C525      1.0  0.26705  0.05720  0.12692  1.0000
  C   C526      1.0  0.24283  0.04784  0.10186  1.0000
  H   H404      1.0  0.34133  0.38090  0.44923  1.0000
  C   C527      1.0  0.34515  0.29096  0.18215  1.0000
  C   C528      1.0  0.18667  0.16704  0.07832  1.0000
  S   S102      1.0  0.35369  0.40146  0.32785  1.0000
  H   H405      1.0  0.30115  0.46560  0.98641  1.0000
  H   H406      1.0  0.20908  0.22363  0.03018  1.0000
  H   H407      1.0  0.26752  0.22973  0.15484  1.0000
  C   C529      1.0  0.36477  0.27729  0.19062  1.0000
  C   C530      1.0  0.22176  0.44667  0.11770  1.0000
  Fe  Fe52      1.0  0.36191  0.17258  0.19566  1.0000
  C   C531      1.0  0.35584  0.17683  0.09844  1.0000
  H   H408      1.0  0.20364  0.14197  0.18557  1.0000
  H   H409      1.0  0.19622  0.46947  0.04723  1.0000
  H   H410      1.0  0.28370  0.14769  0.17828  1.0000
  H   H411      1.0  0.34069  0.37684  0.25033  1.0000
  C   C532      1.0  0.18248  0.11807  0.17789  1.0000
  H   H412      1.0  0.32093  0.02960  0.33004  1.0000
  C   C533      1.0  0.20263  0.03382  0.14595  1.0000
  C   C534      1.0  0.20264  0.46915  0.07375  1.0000
  H   H413      1.0  0.34549  0.32559  0.06220  1.0000
  Fe  Fe53      1.0  0.18189  0.29230  0.98894  1.0000
  C   C535      1.0  0.33422  0.35434  0.45111  1.0000
  H   H414      1.0  0.20443  0.20106  0.16546  1.0000
  C   C536      1.0  0.36980  0.44977  0.00637  1.0000
  H   H415      1.0  0.30751  0.25919  0.45821  1.0000
  C   C537      1.0  0.34418  0.02621  0.24869  1.0000
  H   H416      1.0  0.35799  0.05010  0.37980  1.0000
  C   C538      1.0  0.21832  0.26040  0.10627  1.0000
  H   H417      1.0  0.19771  0.24203  0.20176  1.0000
  S   S103      1.0  0.20998  0.99101  0.34269  1.0000
  H   H418      1.0  0.19785  0.39259  0.23654  1.0000
  C   C539      1.0  0.31377  0.13637  0.05873  1.0000
  C   C540      1.0  0.35936  0.98499  0.06713  1.0000
  C   C541      1.0  0.36361  0.44349  0.18024  1.0000
  H   H419      1.0  0.35741  0.32897  0.12376  1.0000
  Fe  Fe54      1.0  0.37425  0.20573  0.26888  1.0000
  C   C542      1.0  0.37314  0.28723  0.39244  1.0000
  C   C543      1.0  0.18507  0.08891  0.17379  1.0000
  H   H420      1.0  0.24209  0.25333  0.98083  1.0000
  C   C544      1.0  0.36836  0.99032  0.45755  1.0000
  C   C545      1.0  0.36084  0.98762  0.12897  1.0000
  H   H421      1.0  0.26731  0.47727  0.34533  1.0000
  H   H422      1.0  0.36875  0.09018  0.44653  1.0000
  H   H423      1.0  0.37379  0.07474  0.12823  1.0000
  H   H424      1.0  0.35802  0.25162  0.18235  1.0000
  S   S104      1.0  0.37310  0.19164  0.14041  1.0000
  H   H425      1.0  0.37574  0.05810  0.31757  1.0000
  C   C546      1.0  0.34231  0.99727  0.26255  1.0000
  H   H426      1.0  0.18496  0.46111  0.41323  1.0000
  H   H427      1.0  0.31393  0.41625  0.46831  1.0000
  H   H428      1.0  0.37333  0.20090  0.01511  1.0000
  C   C547      1.0  0.37247  0.19619  0.07014  1.0000
  C   C548      1.0  0.22761  0.43749  0.46432  1.0000
  H   H429      1.0  0.23926  0.42228  0.46337  1.0000
  C   C549      1.0  0.19747  0.47674  0.46590  1.0000
  H   H430      1.0  0.36083  0.33599  0.79315  1.0000
  Fe  Fe55      1.0  0.28847  0.12003  0.65621  1.0000
  S   S105      1.0  0.32462  0.17247  0.63896  1.0000
  S   S106      1.0  0.23603  0.10483  0.64061  1.0000
  C   C550      1.0  0.19667  0.10981  0.88434  1.0000
  C   C551      1.0  0.32672  0.29250  0.76176  1.0000
  H   H431      1.0  0.28649  0.33355  0.67824  1.0000
  H   H432      1.0  0.36867  0.99839  0.51227  1.0000
  S   S107      1.0  0.31505  0.12766  0.70646  1.0000
  S   S108      1.0  0.31502  0.09641  0.63050  1.0000
  S   S109      1.0  0.19701  0.32653  0.94355  1.0000
  H   H433      1.0  0.26197  0.02567  0.49391  1.0000
  C   C552      1.0  0.20152  0.47179  0.57083  1.0000
  C   C553      1.0  0.33384  0.40552  0.96548  1.0000
  Fe  Fe56      1.0  0.32671  0.15586  0.93192  1.0000
  H   H434      1.0  0.19516  0.47834  0.65708  1.0000
  Fe  Fe57      1.0  0.30232  0.17969  0.86996  1.0000
  S   S110      1.0  0.33165  0.16734  0.83336  1.0000
  S   S111      1.0  0.26168  0.19037  0.85240  1.0000
  Fe  Fe58      1.0  0.31433  0.11844  0.86136  1.0000
  S   S112      1.0  0.29658  0.07027  0.82679  1.0000
  H   H435      1.0  0.25799  0.26193  0.75916  1.0000
  S   S113      1.0  0.28330  0.12957  0.89584  1.0000
  H   H436      1.0  0.33124  0.37227  0.85829  1.0000
  C   C554      1.0  0.21028  0.12418  0.91637  1.0000
  H   H437      1.0  0.35828  0.39474  0.92516  1.0000
  C   C555      1.0  0.32071  0.47569  0.93589  1.0000
  C   C556      1.0  0.30247  0.41867  0.49115  1.0000
  C   C557      1.0  0.17777  0.00668  0.80425  1.0000
  C   C558      1.0  0.32114  0.12814  0.47820  1.0000
  S   S114      1.0  0.37452  0.16184  0.56568  1.0000
  C   C559      1.0  0.25160  0.00847  0.85572  1.0000
  C   C560      1.0  0.36725  0.24528  0.54298  1.0000
  H   H438      1.0  0.25407  0.02289  0.87897  1.0000
  C   C561      1.0  0.23748  0.27360  0.82104  1.0000
  C   C562      1.0  0.26911  0.28253  0.83194  1.0000
  C   C563      1.0  0.27677  0.25771  0.84226  1.0000
  C   C564      1.0  0.25320  0.22321  0.84087  1.0000
  C   C565      1.0  0.22159  0.21420  0.82979  1.0000
  C   C566      1.0  0.21371  0.23911  0.82016  1.0000
  H   H439      1.0  0.30095  0.26530  0.85129  1.0000
  H   H440      1.0  0.20298  0.18769  0.82871  1.0000
  H   H441      1.0  0.18927  0.23156  0.81191  1.0000
  C   C567      1.0  0.34206  0.14368  0.53635  1.0000
  C   C568      1.0  0.34743  0.14221  0.50143  1.0000
  C   C569      1.0  0.19741  0.14846  0.50519  1.0000
  C   C570      1.0  0.28963  0.11565  0.49006  1.0000
  C   C571      1.0  0.28427  0.11668  0.52493  1.0000
  C   C572      1.0  0.31046  0.13064  0.54803  1.0000
  Fe  Fe59      1.0  0.35269  0.14925  0.61760  1.0000
  C   C573      1.0  0.34048  0.31969  0.69233  1.0000
  H   H442      1.0  0.25990  0.10692  0.53412  1.0000
  H   H443      1.0  0.30606  0.13181  0.57485  1.0000
  C   C574      1.0  0.19682  0.08217  0.65914  1.0000
  H   H444      1.0  0.26033  0.36910  0.48339  1.0000
  H   H445      1.0  0.29182  0.05743  0.54665  1.0000
  C   C575      1.0  0.23539  0.30079  0.68431  1.0000
  S   S115      1.0  0.29457  0.37609  0.94863  1.0000
  H   H446      1.0  0.18394  0.02999  0.89598  1.0000
  H   H447      1.0  0.21151  0.06607  0.70362  1.0000
  H   H448      1.0  0.27835  0.11709  0.78595  1.0000
  C   C576      1.0  0.31111  0.20094  0.50563  1.0000
  C   C577      1.0  0.19292  0.46657  0.63206  1.0000
  C   C578      1.0  0.21958  0.26043  0.72940  1.0000
  C   C579      1.0  0.31312  0.98338  0.74738  1.0000
  C   C580      1.0  0.21258  0.47416  0.49558  1.0000
  Fe  Fe60      1.0  0.19027  0.31692  0.78596  1.0000
  H   H449      1.0  0.23323  0.37349  0.53569  1.0000
  H   H450      1.0  0.36715  0.09687  0.81647  1.0000
  C   C581      1.0  0.27170  0.42403  0.54957  1.0000
  C   C582      1.0  0.37183  0.35150  0.64380  1.0000
  H   H451      1.0  0.25968  0.42610  0.57218  1.0000
  C   C583      1.0  0.31989  0.40040  0.77510  1.0000
  C   C584      1.0  0.30978  0.36746  0.76272  1.0000
  S   S116      1.0  0.22977  0.30643  0.80744  1.0000
  P   P19       1.0  0.31905  0.31721  0.73122  1.0000
  C   C585      1.0  0.36141  0.40996  0.94800  1.0000
  H   H452      1.0  0.31979  0.45148  0.93352  1.0000
  H   H453      1.0  0.30221  0.40640  0.78541  1.0000
  H   H454      1.0  0.28428  0.34852  0.76374  1.0000
  H   H455      1.0  0.36048  0.45098  0.78382  1.0000
  C   C586      1.0  0.30177  0.02099  0.47434  1.0000
  C   C587      1.0  0.27676  0.29845  0.71890  1.0000
  C   C588      1.0  0.28560  0.37076  0.86257  1.0000
  Fe  Fe61      1.0  0.34429  0.10736  0.67924  1.0000
  H   H456      1.0  0.37174  0.15164  0.49232  1.0000
  C   C589      1.0  0.32205  0.44183  0.86505  1.0000
  C   C590      1.0  0.28810  0.42506  0.86700  1.0000
  C   C591      1.0  0.30341  0.04906  0.52820  1.0000
  S   S117      1.0  0.36996  0.22864  0.71737  1.0000
  C   C592      1.0  0.17683  0.41630  0.59646  1.0000
  C   C593      1.0  0.31186  0.25699  0.75773  1.0000
  C   C594      1.0  0.26915  0.02527  0.82698  1.0000
  H   H457      1.0  0.24380  0.37667  0.86772  1.0000
  H   H458      1.0  0.23793  0.08118  0.82771  1.0000
  C   C595      1.0  0.33260  0.30829  0.48232  1.0000
  H   H459      1.0  0.24132  0.45404  0.51650  1.0000
  C   C596      1.0  0.25684  0.39433  0.52913  1.0000
  C   C597      1.0  0.37170  0.02529  0.80104  1.0000
  H   H460      1.0  0.36426  0.00988  0.87311  1.0000
  C   C598      1.0  0.35483  0.34954  0.67348  1.0000
  C   C599      1.0  0.19021  0.10021  0.77849  1.0000
  H   H461      1.0  0.27153  0.34337  0.86337  1.0000
  S   S118      1.0  0.34409  0.20676  0.90789  1.0000
  H   H462      1.0  0.18416  0.31659  0.59099  1.0000
  H   H463      1.0  0.30824  0.21106  0.77665  1.0000
  S   S119      1.0  0.20458  0.43914  0.77488  1.0000
  H   H464      1.0  0.22869  0.31240  0.66440  1.0000
  H   H465      1.0  0.27574  0.43940  0.87053  1.0000
  C   C600      1.0  0.25222  0.27236  0.73754  1.0000
  C   C601      1.0  0.23079  0.09220  0.80759  1.0000
  H   H466      1.0  0.36371  0.43481  0.86024  1.0000
  C   C602      1.0  0.33962  0.22245  0.48859  1.0000
  C   C603      1.0  0.26996  0.38965  0.86552  1.0000
  C   C604      1.0  0.19028  0.05599  0.90144  1.0000
  C   C605      1.0  0.25384  0.11274  0.78405  1.0000
  Fe  Fe62      1.0  0.18345  0.38096  0.77442  1.0000
  H   H467      1.0  0.26316  0.14319  0.73973  1.0000
  H   H468      1.0  0.28972  0.18243  0.49136  1.0000
  S   S120      1.0  0.20807  0.35696  0.74588  1.0000
  H   H469      1.0  0.18586  0.26625  0.69737  1.0000
  C   C606      1.0  0.26541  0.00571  0.79708  1.0000
  Fe  Fe63      1.0  0.35278  0.17895  0.68699  1.0000
  H   H470      1.0  0.33851  0.29905  0.50491  1.0000
  H   H471      1.0  0.22282  0.16706  0.50246  1.0000
  H   H472      1.0  0.29993  0.46053  0.80971  1.0000
  C   C607      1.0  0.27220  0.39172  0.49987  1.0000
  C   C608      1.0  0.24526  0.12733  0.75799  1.0000
  C   C609      1.0  0.20407  0.07050  0.93343  1.0000
  C   C610      1.0  0.26806  0.31262  0.69223  1.0000
  C   C611      1.0  0.31740  0.44876  0.51126  1.0000
  H   H473      1.0  0.28802  0.30887  0.83226  1.0000
  H   H474      1.0  0.23259  0.44610  0.84404  1.0000
  S   S121      1.0  0.35728  0.14179  0.89837  1.0000
  H   H475      1.0  0.21908  0.15094  0.92153  1.0000
  C   C612      1.0  0.34905  0.30884  0.78895  1.0000
  C   C613      1.0  0.31053  0.20193  0.54123  1.0000
  H   H476      1.0  0.29448  0.24350  0.73724  1.0000
  H   H477      1.0  0.35526  0.36002  0.50128  1.0000
  C   C614      1.0  0.21116  0.27474  0.70293  1.0000
  H   H478      1.0  0.28871  0.18445  0.55442  1.0000
  C   C615      1.0  0.33408  0.02884  0.47951  1.0000
  C   C616      1.0  0.31964  0.23840  0.77995  1.0000
  H   H479      1.0  0.31230  0.47449  0.55609  1.0000
  H   H480      1.0  0.36015  0.27135  0.64107  1.0000
  C   C617      1.0  0.33237  0.35927  0.74924  1.0000
  H   H481      1.0  0.34864  0.24057  0.82326  1.0000
  C   C618      1.0  0.36541  0.38423  0.74968  1.0000
  C   C619      1.0  0.19139  0.06537  0.68996  1.0000
  C   C620      1.0  0.22969  0.47478  0.80278  1.0000
  H   H482      1.0  0.20798  0.05560  0.95204  1.0000
  C   C621      1.0  0.28655  0.03099  0.49863  1.0000
  H   H483      1.0  0.20082  0.24097  0.74459  1.0000
  H   H484      1.0  0.33857  0.22360  0.58747  1.0000
  H   H485      1.0  0.32439  0.01038  0.75300  1.0000
  H   H486      1.0  0.19683  0.03115  0.58074  1.0000
  H   H487      1.0  0.37635  0.05547  0.51288  1.0000
  C   C622      1.0  0.34203  0.29136  0.67982  1.0000
  C   C623      1.0  0.21351  0.12119  0.75531  1.0000
  H   H488      1.0  0.33121  0.26786  0.69330  1.0000
  C   C624      1.0  0.19867  0.08538  0.80471  1.0000
  C   C625      1.0  0.37543  0.41716  0.76208  1.0000
  C   C626      1.0  0.34212  0.34262  0.48022  1.0000
  C   C627      1.0  0.22836  0.45510  0.49432  1.0000
  H   H489      1.0  0.27859  0.01836  0.77458  1.0000
  C   C628      1.0  0.36778  0.24561  0.50707  1.0000
  C   C629      1.0  0.18603  0.07546  0.87677  1.0000
  H   H490      1.0  0.22569  0.11606  0.96528  1.0000
  C   C630      1.0  0.35266  0.42534  0.77451  1.0000
  H   H491      1.0  0.35318  0.37149  0.68167  1.0000
  C   C631      1.0  0.33957  0.98885  0.87324  1.0000
  H   H492      1.0  0.20712  0.11307  0.53114  1.0000
  C   C632      1.0  0.35847  0.29318  0.64982  1.0000
  C   C633      1.0  0.35695  0.29016  0.81095  1.0000
  C   C634      1.0  0.30165  0.45138  0.54043  1.0000
  C   C635      1.0  0.33866  0.22392  0.55987  1.0000
  H   H493      1.0  0.20678  0.13218  0.73484  1.0000
  S   S122      1.0  0.35106  0.06311  0.69574  1.0000
  C   C636      1.0  0.21397  0.10454  0.94095  1.0000
  C   C637      1.0  0.24018  0.47123  0.83504  1.0000
  H   H494      1.0  0.34898  0.07255  0.55579  1.0000
  C   C638      1.0  0.33759  0.42265  0.86134  1.0000
  H   H495      1.0  0.33518  0.03494  0.82258  1.0000
  C   C639      1.0  0.31932  0.38717  0.86013  1.0000
  C   C640      1.0  0.18860  0.11801  0.52127  1.0000
  C   C641      1.0  0.33563  0.05742  0.53339  1.0000
  C   C642      1.0  0.35918  0.04599  0.81190  1.0000
  H   H496      1.0  0.19490  0.01187  0.52070  1.0000
  C   C643      1.0  0.34243  0.25501  0.80630  1.0000
  H   H497      1.0  0.35844  0.00404  0.69478  1.0000
  H   H498      1.0  0.19503  0.12579  0.86523  1.0000
  H   H499      1.0  0.28657  0.98624  0.70429  1.0000
  H   H500      1.0  0.33409  0.99590  0.92691  1.0000
  Fe  Fe64      1.0  0.37276  0.19146  0.87229  1.0000
  C   C644      1.0  0.35096  0.04748  0.50914  1.0000
  C   C645      1.0  0.18732  0.43629  0.56757  1.0000
  H   H501      1.0  0.18060  0.17798  0.47905  1.0000
  H   H502      1.0  0.19519  0.02562  0.78768  1.0000
  H   H503      1.0  0.18402  0.42378  0.54289  1.0000
  C   C646      1.0  0.18001  0.43145  0.62874  1.0000
  C   C647      1.0  0.37453  0.98630  0.49169  1.0000
  C   C648      1.0  0.37375  0.32334  0.63208  1.0000
  H   H504      1.0  0.37338  0.43525  0.52282  1.0000
  H   H505      1.0  0.37444  0.30286  0.83160  1.0000
  Fe  Fe65      1.0  0.27444  0.61746  0.42335  1.0000
  S   S123      1.0  0.31002  0.66022  0.39213  1.0000
  Fe  Fe66      1.0  0.25935  0.56276  0.36851  1.0000
  S   S124      1.0  0.29333  0.60187  0.33204  1.0000
  S   S125      1.0  0.22428  0.50521  0.36082  1.0000
  Fe  Fe67      1.0  0.32914  0.62550  0.37662  1.0000
  Fe  Fe68      1.0  0.27209  0.63483  0.34999  1.0000
  S   S126      1.0  0.26171  0.67315  0.32271  1.0000
  S   S127      1.0  0.29546  0.58421  0.41202  1.0000
  S   S128      1.0  0.23591  0.59390  0.38286  1.0000
  Fe  Fe69      1.0  0.31194  0.63583  0.25289  1.0000
  S   S129      1.0  0.33730  0.67991  0.21725  1.0000
  S   S130      1.0  0.25562  0.61326  0.25434  1.0000
  C   C649      1.0  0.31882  0.73194  0.46371  1.0000
  C   C650      1.0  0.23120  0.78436  0.37603  1.0000
  S   S131      1.0  0.35156  0.66251  0.29373  1.0000
  S   S132      1.0  0.33635  0.60893  0.22898  1.0000
  S   S133      1.0  0.34172  0.68924  0.99904  1.0000
  C   C651      1.0  0.35752  0.98145  0.24644  1.0000
  S   S134      1.0  0.23305  0.86540  0.40898  1.0000
  C   C652      1.0  0.21832  0.58781  0.27695  1.0000
  C   C653      1.0  0.19212  0.59354  0.27195  1.0000
  H   H506      1.0  0.26057  0.93525  0.37838  1.0000
  C   C654      1.0  0.33986  0.86360  0.46278  1.0000
  C   C655      1.0  0.21320  0.56129  0.29831  1.0000
  H   H507      1.0  0.19525  0.61393  0.25611  1.0000
  H   H508      1.0  0.23206  0.55506  0.30172  1.0000
  C   C656      1.0  0.37360  0.53954  0.45617  1.0000
  C   C657      1.0  0.32811  0.83495  0.44102  1.0000
  C   C658      1.0  0.18577  0.68782  0.17908  1.0000
  C   C659      1.0  0.35045  0.67572  0.03793  1.0000
  C   C660      1.0  0.34897  0.69134  0.06872  1.0000
  C   C661      1.0  0.35616  0.68227  0.10033  1.0000
  C   C662      1.0  0.20001  0.77256  0.36271  1.0000
  H   H509      1.0  0.32615  0.73977  0.31435  1.0000
  H   H510      1.0  0.34229  0.71069  0.06812  1.0000
  H   H511      1.0  0.35546  0.69502  0.12370  1.0000
  C   C663      1.0  0.20069  0.95228  0.32095  1.0000
  C   C664      1.0  0.29510  0.81621  0.43195  1.0000
  C   C665      1.0  0.26380  0.52919  0.24786  1.0000
  C   C666      1.0  0.20081  0.64628  0.19457  1.0000
  H   H512      1.0  0.24878  0.81112  0.37509  1.0000
  C   C667      1.0  0.21938  0.95049  0.29442  1.0000
  H   H513      1.0  0.34144  0.73174  0.46546  1.0000
  H   H514      1.0  0.35345  0.79542  0.28692  1.0000
  H   H515      1.0  0.30234  0.52068  0.99307  1.0000
  S   S135      1.0  0.23476  0.90858  0.00719  1.0000
  C   C668      1.0  0.24133  0.50378  0.26835  1.0000
  C   C669      1.0  0.22561  0.67535  0.31586  1.0000
  C   C670      1.0  0.22781  0.70375  0.29969  1.0000
  C   C671      1.0  0.19980  0.70591  0.29207  1.0000
  H   H516      1.0  0.25139  0.72396  0.29266  1.0000
  H   H517      1.0  0.20192  0.72770  0.27930  1.0000
  C   C672      1.0  0.31904  0.89787  0.33414  1.0000
  C   C673      1.0  0.32435  0.90440  0.36932  1.0000
  C   C674      1.0  0.29792  0.89480  0.39144  1.0000
  C   C675      1.0  0.26553  0.87805  0.37908  1.0000
  C   C676      1.0  0.26026  0.87209  0.34376  1.0000
  C   C677      1.0  0.28679  0.88197  0.32162  1.0000
  C   C678      1.0  0.28446  0.74971  0.43541  1.0000
  H   H518      1.0  0.30276  0.90086  0.41834  1.0000
  H   H519      1.0  0.23576  0.86008  0.33340  1.0000
  H   H520      1.0  0.28228  0.87750  0.29446  1.0000
  C   C679      1.0  0.32443  0.76098  0.32528  1.0000
  H   H521      1.0  0.22723  0.91728  0.26052  1.0000
  H   H522      1.0  0.20399  0.62302  0.13348  1.0000
  C   C680      1.0  0.22749  0.67140  0.21322  1.0000
  C   C681      1.0  0.28550  0.85442  0.46792  1.0000
  H   H523      1.0  0.34464  0.82706  0.43157  1.0000
  S   S136      1.0  0.37307  0.64410  0.14097  1.0000
  C   C682      1.0  0.18022  0.65443  0.17648  1.0000
  C   C683      1.0  0.33976  0.79236  0.30973  1.0000
  H   H524      1.0  0.24815  0.81189  0.43981  1.0000
  H   H525      1.0  0.19344  0.79016  0.35207  1.0000
  H   H526      1.0  0.25947  0.55027  0.10961  1.0000
  P   P20       1.0  0.28037  0.77762  0.40642  1.0000
  H   H527      1.0  0.29614  0.60902  0.09309  1.0000
  H   H528      1.0  0.18013  0.52246  0.33218  1.0000
  C   C684      1.0  0.18844  0.74699  0.46605  1.0000
  H   H529      1.0  0.27324  0.97161  0.32870  1.0000
  C   C685      1.0  0.22198  0.51464  0.20453  1.0000
  H   H530      1.0  0.36546  0.87811  0.46923  1.0000
  C   C686      1.0  0.34695  0.96977  0.09822  1.0000
  H   H531      1.0  0.35639  0.95927  0.25750  1.0000
  H   H532      1.0  0.19492  0.51001  0.08939  1.0000
  C   C687      1.0  0.25426  0.53464  0.21598  1.0000
  C   C688      1.0  0.33723  0.81953  0.32353  1.0000
  C   C689      1.0  0.23759  0.56413  0.15090  1.0000
  C   C690      1.0  0.25875  0.57064  0.12356  1.0000
  C   C691      1.0  0.27991  0.60405  0.11422  1.0000
  C   C692      1.0  0.28084  0.63112  0.13275  1.0000
  C   C693      1.0  0.26106  0.62490  0.16085  1.0000
  C   C694      1.0  0.23927  0.59160  0.16962  1.0000
  H   H533      1.0  0.23717  0.73095  0.45735  1.0000
  C   C695      1.0  0.20194  0.78233  0.09848  1.0000
  S   S137      1.0  0.17905  0.84871  0.27347  1.0000
  C   C696      1.0  0.18957  0.58242  0.09690  1.0000
  H   H534      1.0  0.28850  0.54504  0.25719  1.0000
  H   H535      1.0  0.27207  0.55470  0.20063  1.0000
  H   H536      1.0  0.22499  0.96418  0.40476  1.0000
  H   H537      1.0  0.29732  0.65699  0.12591  1.0000
  H   H538      1.0  0.26306  0.64588  0.17637  1.0000
  C   C697      1.0  0.23367  0.70478  0.21425  1.0000
  C   C698      1.0  0.18349  0.60140  0.12131  1.0000
  C   C699      1.0  0.35559  0.87908  0.11090  1.0000
  C   C700      1.0  0.31404  0.75000  0.43816  1.0000
  C   C701      1.0  0.30448  0.78399  0.36922  1.0000
  C   C702      1.0  0.31945  0.81535  0.35314  1.0000
  C   C703      1.0  0.20159  0.49179  0.09779  1.0000
  C   C704      1.0  0.36899  0.55691  0.42977  1.0000
  C   C705      1.0  0.33916  0.54259  0.41247  1.0000
  C   C706      1.0  0.30664  0.75672  0.35479  1.0000
  Fe  Fe70      1.0  0.26233  0.88143  0.99533  1.0000
  H   H539      1.0  0.33361  0.76450  0.42092  1.0000
  H   H540      1.0  0.31726  0.83647  0.36321  1.0000
  C   C707      1.0  0.21263  0.95879  0.42895  1.0000
  C   C708      1.0  0.36968  0.83624  0.21125  1.0000
  S   S138      1.0  0.35130  0.90763  0.30485  1.0000
  H   H541      1.0  0.29439  0.73199  0.36616  1.0000
  C   C709      1.0  0.24417  0.80900  0.27371  1.0000
  C   C710      1.0  0.26339  0.79420  0.27835  1.0000
  C   C711      1.0  0.28326  0.79447  0.25208  1.0000
  C   C712      1.0  0.28422  0.80988  0.22128  1.0000
  C   C713      1.0  0.26559  0.82558  0.21678  1.0000
  C   C714      1.0  0.24540  0.82484  0.24321  1.0000
  P   P21       1.0  0.26419  0.84261  0.17603  1.0000
  C   C715      1.0  0.26068  0.88003  0.18251  1.0000
  C   C716      1.0  0.30136  0.85592  0.15295  1.0000
  C   C717      1.0  0.32674  0.88985  0.15559  1.0000
  C   C718      1.0  0.28228  0.96004  0.37882  1.0000
  H   H542      1.0  0.33282  0.82784  0.09063  1.0000
  C   C719      1.0  0.33128  0.84495  0.10917  1.0000
  C   C720      1.0  0.30450  0.83322  0.13051  1.0000
  C   C721      1.0  0.24597  0.88938  0.15727  1.0000
  C   C722      1.0  0.24478  0.91937  0.16112  1.0000
  C   C723      1.0  0.20918  0.48354  0.25714  1.0000
  H   H543      1.0  0.18019  0.66784  0.43660  1.0000
  C   C724      1.0  0.27488  0.90151  0.21140  1.0000
  C   C725      1.0  0.22905  0.81030  0.15221  1.0000
  C   C726      1.0  0.22875  0.80835  0.11634  1.0000
  H   H544      1.0  0.22836  0.80845  0.29383  1.0000
  H   H545      1.0  0.26261  0.78230  0.30225  1.0000
  S   S139      1.0  0.31628  0.90412  0.01049  1.0000
  H   H546      1.0  0.29931  0.80935  0.20102  1.0000
  H   H547      1.0  0.23009  0.83602  0.24016  1.0000
  H   H548      1.0  0.37279  0.92765  0.13628  1.0000
  C   C727      1.0  0.31346  0.51140  0.42232  1.0000
  C   C728      1.0  0.31787  0.49406  0.44895  1.0000
  C   C729      1.0  0.34288  0.77121  0.09515  1.0000
  H   H549      1.0  0.28573  0.80678  0.12857  1.0000
  H   H550      1.0  0.23550  0.87360  0.13449  1.0000
  H   H551      1.0  0.30499  0.74319  0.01743  1.0000
  S   S140      1.0  0.23174  0.83953  0.03066  1.0000
  H   H552      1.0  0.23294  0.92609  0.14161  1.0000
  H   H553      1.0  0.28711  0.89538  0.23098  1.0000
  H   H554      1.0  0.20007  0.78844  0.19691  1.0000
  H   H555      1.0  0.24895  0.82708  0.10208  1.0000
  C   C730      1.0  0.20138  0.78684  0.16955  1.0000
  C   C731      1.0  0.19501  0.64966  0.32543  1.0000
  C   C732      1.0  0.20978  0.49136  0.13223  1.0000
  H   H556      1.0  0.34886  0.91669  0.37945  1.0000
  H   H557      1.0  0.36180  0.76867  0.99925  1.0000
  H   H558      1.0  0.34846  0.97118  0.04335  1.0000
  H   H559      1.0  0.18271  0.97469  0.18669  1.0000
  C   C733      1.0  0.18575  0.71517  0.37607  1.0000
  C   C734      1.0  0.21213  0.91860  0.28011  1.0000
  H   H560      1.0  0.22440  0.58749  0.19161  1.0000
  C   C735      1.0  0.27376  0.93153  0.21508  1.0000
  H   H561      1.0  0.17723  0.67156  0.10468  1.0000
  C   C736      1.0  0.21265  0.71296  0.19752  1.0000
  C   C737      1.0  0.18340  0.54246  0.31550  1.0000
  H   H562      1.0  0.29765  0.78238  0.25551  1.0000
  H   H563      1.0  0.25396  0.72389  0.22934  1.0000
  C   C738      1.0  0.18551  0.88825  0.29107  1.0000
  H   H564      1.0  0.21429  0.58914  0.09141  1.0000
  C   C739      1.0  0.23964  0.76179  0.39036  1.0000
  H   H565      1.0  0.19280  0.62776  0.33807  1.0000
  C   C740      1.0  0.35362  0.90130  0.13456  1.0000
  H   H566      1.0  0.19556  0.62024  0.19530  1.0000
  H   H567      1.0  0.21653  0.73849  0.19999  1.0000
  C   C741      1.0  0.25859  0.94041  0.19008  1.0000
  C   C742      1.0  0.25990  0.73117  0.45865  1.0000
  Fe  Fe71      1.0  0.36382  0.65447  0.19634  1.0000
  C   C743      1.0  0.27378  0.82590  0.44594  1.0000
  H   H568      1.0  0.33617  0.55569  0.39117  1.0000
  H   H569      1.0  0.18529  0.98226  0.41497  1.0000
  C   C744      1.0  0.21862  0.94077  0.45352  1.0000
  C   C745      1.0  0.35529  0.92695  0.99169  1.0000
  H   H570      1.0  0.24273  0.66480  0.22813  1.0000
  C   C746      1.0  0.17727  0.73796  0.36284  1.0000
  C   C747      1.0  0.18979  0.96897  0.43486  1.0000
  H   H571      1.0  0.32649  0.94408  0.09834  1.0000
  C   C748      1.0  0.31761  0.75609  0.07083  1.0000
  H   H572      1.0  0.33684  0.77107  0.12170  1.0000
  H   H573      1.0  0.22385  0.70855  0.39683  1.0000
  C   C749      1.0  0.21714  0.72685  0.38886  1.0000
  C   C750      1.0  0.32451  0.75551  0.03628  1.0000
  Fe  Fe72      1.0  0.20222  0.86445  0.03869  1.0000
  H   H574      1.0  0.29262  0.74441  0.07873  1.0000
  H   H575      1.0  0.34909  0.84385  0.31127  1.0000
  H   H576      1.0  0.32576  0.90785  0.17335  1.0000
  S   S141      1.0  0.18473  0.75508  0.98862  1.0000
  Fe  Fe73      1.0  0.19781  0.81113  0.98646  1.0000
  H   H577      1.0  0.28399  0.94753  0.23777  1.0000
  C   C751      1.0  0.36490  0.80349  0.20687  1.0000
  P   P22       1.0  0.20950  0.52128  0.16324  1.0000
  H   H578      1.0  0.24890  0.50044  0.29326  1.0000
  H   H579      1.0  0.29025  0.50047  0.40887  1.0000
  C   C752      1.0  0.30309  0.97157  0.40737  1.0000
  H   H580      1.0  0.20166  0.78064  0.07084  1.0000
  C   C753      1.0  0.34812  0.50780  0.46584  1.0000
  H   H581      1.0  0.36029  0.63817  0.01578  1.0000
  C   C754      1.0  0.35664  0.77004  0.02600  1.0000
  H   H582      1.0  0.18184  0.54390  0.21742  1.0000
  H   H583      1.0  0.29743  0.95529  0.42901  1.0000
  H   H584      1.0  0.32800  0.65468  0.46793  1.0000
  C   C755      1.0  0.35910  0.65054  0.03918  1.0000
  H   H585      1.0  0.36112  0.84316  0.23397  1.0000
  H   H586      1.0  0.35276  0.78478  0.22622  1.0000
  C   C756      1.0  0.36443  0.65691  0.10169  1.0000
  H   H587      1.0  0.23971  0.97358  0.28540  1.0000
  H   H588      1.0  0.19323  0.76360  0.44483  1.0000
  H   H589      1.0  0.37263  0.76934  0.17523  1.0000
  H   H590      1.0  0.23545  0.93183  0.44824  1.0000
  C   C757      1.0  0.36616  0.64133  0.07091  1.0000
  S   S142      1.0  0.18894  0.87455  0.09067  1.0000
  C   C758      1.0  0.19951  0.48882  0.22521  1.0000
  C   C759      1.0  0.28912  0.98069  0.35078  1.0000
  H   H591      1.0  0.25736  0.96346  0.19331  1.0000
  H   H592      1.0  0.19683  0.63510  0.39968  1.0000
  H   H593      1.0  0.35069  0.97530  0.15266  1.0000
  H   H594      1.0  0.18625  0.49236  0.46542  1.0000
  H   H595      1.0  0.37284  0.97787  0.40482  1.0000
  H   H596      1.0  0.37274  0.62177  0.07166  1.0000
  C   C760      1.0  0.37533  0.78641  0.08494  1.0000
  H   H597      1.0  0.37599  0.88848  0.09394  1.0000
  C   C761      1.0  0.31089  0.51464  0.96986  1.0000
  Fe  Fe74      1.0  0.28535  0.62343  0.67438  1.0000
  S   S143      1.0  0.31926  0.67852  0.66287  1.0000
  S   S144      1.0  0.23150  0.59829  0.65777  1.0000
  S   S145      1.0  0.25870  0.62385  0.47538  1.0000
  C   C762      1.0  0.24486  0.97000  0.79591  1.0000
  Fe  Fe75      1.0  0.34935  0.66073  0.63545  1.0000
  C   C763      1.0  0.32258  0.98103  0.90382  1.0000
  S   S146      1.0  0.31258  0.62462  0.72231  1.0000
  S   S147      1.0  0.31383  0.60612  0.64266  1.0000
  C   C764      1.0  0.20199  0.93322  0.48429  1.0000
  H   H598      1.0  0.25059  0.91481  0.87537  1.0000
  H   H599      1.0  0.28000  0.92802  0.82148  1.0000
  C   C765      1.0  0.32819  0.53856  0.77745  1.0000
  Fe  Fe76      1.0  0.34122  0.67574  0.94206  1.0000
  H   H600      1.0  0.27175  0.88704  0.72462  1.0000
  Fe  Fe77      1.0  0.31960  0.69432  0.87422  1.0000
  S   S148      1.0  0.34296  0.67060  0.84168  1.0000
  S   S149      1.0  0.30150  0.73156  0.86101  1.0000
  Fe  Fe78      1.0  0.32074  0.62743  0.87910  1.0000
  S   S150      1.0  0.29658  0.56906  0.87225  1.0000
  C   C766      1.0  0.28343  0.91396  0.73092  1.0000
  S   S151      1.0  0.29553  0.65017  0.90956  1.0000
  Fe  Fe79      1.0  0.18002  0.85996  0.78991  1.0000
  C   C767      1.0  0.30045  0.73811  0.76000  1.0000
  C   C768      1.0  0.31991  0.96242  0.76737  1.0000
  S   S152      1.0  0.37193  0.67922  0.58480  1.0000
  C   C769      1.0  0.22742  0.95316  0.82467  1.0000
  C   C770      1.0  0.27570  0.93509  0.87484  1.0000
  C   C771      1.0  0.34554  0.83518  0.68072  1.0000
  H   H601      1.0  0.32771  0.89604  0.49244  1.0000
  H   H602      1.0  0.34024  0.85254  0.69482  1.0000
  C   C772      1.0  0.35946  0.93570  0.95733  1.0000
  H   H603      1.0  0.26706  0.56199  0.80375  1.0000
  C   C773      1.0  0.21911  0.74360  0.81118  1.0000
  C   C774      1.0  0.21848  0.71230  0.80872  1.0000
  C   C775      1.0  0.24279  0.70779  0.82447  1.0000
  C   C776      1.0  0.26874  0.73484  0.84231  1.0000
  C   C777      1.0  0.26929  0.76609  0.84487  1.0000
  C   C778      1.0  0.24448  0.77031  0.82990  1.0000
  H   H604      1.0  0.24183  0.68357  0.82218  1.0000
  H   H605      1.0  0.28905  0.78723  0.85871  1.0000
  H   H606      1.0  0.24505  0.79427  0.83280  1.0000
  C   C779      1.0  0.34073  0.66383  0.55408  1.0000
  C   C780      1.0  0.30857  0.64925  0.56440  1.0000
  C   C781      1.0  0.28344  0.63677  0.54002  1.0000
  C   C782      1.0  0.29039  0.63840  0.50528  1.0000
  C   C783      1.0  0.32258  0.65312  0.49483  1.0000
  C   C784      1.0  0.34782  0.66606  0.51930  1.0000
  H   H607      1.0  0.30293  0.64764  0.59118  1.0000
  H   H608      1.0  0.25860  0.62576  0.54814  1.0000
  Fe  Fe80      1.0  0.34825  0.67930  0.70838  1.0000
  H   H609      1.0  0.21766  0.96013  0.87700  1.0000
  C   C785      1.0  0.19362  0.58378  0.67828  1.0000
  C   C786      1.0  0.19088  0.58464  0.71379  1.0000
  H   H610      1.0  0.21373  0.74766  0.54744  1.0000
  H   H611      1.0  0.19920  0.69131  0.79439  1.0000
  H   H612      1.0  0.21280  0.51379  0.60617  1.0000
  H   H613      1.0  0.21239  0.59444  0.72989  1.0000
  C   C787      1.0  0.23119  0.79759  0.65924  1.0000
  C   C788      1.0  0.31494  0.48771  0.80803  1.0000
  C   C789      1.0  0.27653  0.93495  0.71138  1.0000
  C   C790      1.0  0.26042  0.50027  0.85581  1.0000
  H   H614      1.0  0.33922  0.87865  0.82961  1.0000
  C   C791      1.0  0.17886  0.83814  0.59200  1.0000
  H   H615      1.0  0.37271  0.67736  0.51125  1.0000
  H   H616      1.0  0.20504  0.85286  0.59336  1.0000
  H   H617      1.0  0.26826  0.49701  0.88066  1.0000
  H   H618      1.0  0.35546  0.78014  0.53597  1.0000
  S   S153      1.0  0.18790  0.74786  0.79002  1.0000
  S   S154      1.0  0.23002  0.85211  0.94985  1.0000
  H   H619      1.0  0.31620  0.75958  0.77654  1.0000
  H   H620      1.0  0.28236  0.85304  0.80838  1.0000
  P   P23       1.0  0.35530  0.48431  0.49810  1.0000
  S   S155      1.0  0.35392  0.56640  0.68524  1.0000
  C   C792      1.0  0.26475  0.71315  0.48417  1.0000
  H   H621      1.0  0.24557  0.69841  0.50174  1.0000
  C   C793      1.0  0.25878  0.77959  0.69870  1.0000
  H   H622      1.0  0.32385  0.55070  0.75619  1.0000
  H   H623      1.0  0.23160  0.51109  0.76708  1.0000
  H   H624      1.0  0.36839  0.51508  0.66349  1.0000
  H   H625      1.0  0.32350  0.56548  0.59111  1.0000
  H   H626      1.0  0.17936  0.77379  0.66428  1.0000
  H   H627      1.0  0.28263  0.81801  0.66080  1.0000
  Fe  Fe81      1.0  0.34369  0.61079  0.68929  1.0000
  C   C794      1.0  0.23947  0.50784  0.79193  1.0000
  H   H628      1.0  0.22756  0.74250  0.73492  1.0000
  C   C795      1.0  0.18989  0.51684  0.52922  1.0000
  C   C796      1.0  0.29378  0.70580  0.76934  1.0000
  C   C797      1.0  0.27044  0.53337  0.84487  1.0000
  C   C798      1.0  0.25964  0.53688  0.81273  1.0000
  C   C799      1.0  0.31858  0.87346  0.47612  1.0000
  S   S156      1.0  0.36531  0.65084  0.91428  1.0000
  H   H629      1.0  0.37641  0.55803  0.84810  1.0000
  S   S157      1.0  0.18296  0.83891  0.66248  1.0000
  C   C800      1.0  0.30619  0.57313  0.50871  1.0000
  H   H630      1.0  0.26894  0.86238  0.47751  1.0000
  H   H631      1.0  0.26873  0.65243  0.75616  1.0000
  C   C801      1.0  0.30943  0.56075  0.56775  1.0000
  H   H632      1.0  0.29828  0.70051  0.50710  1.0000
  H   H633      1.0  0.25657  0.71591  0.68543  1.0000
  C   C802      1.0  0.20144  0.77507  0.67354  1.0000
  H   H634      1.0  0.23193  0.81384  0.63903  1.0000
  C   C803      1.0  0.35754  0.54247  0.82954  1.0000
  C   C804      1.0  0.20030  0.75515  0.70061  1.0000
  H   H635      1.0  0.29122  0.48831  0.76128  1.0000
  H   H636      1.0  0.24476  0.65903  0.70256  1.0000
  H   H637      1.0  0.26266  0.81143  0.76038  1.0000
  S   S158      1.0  0.20087  0.90799  0.82485  1.0000
  C   C805      1.0  0.33313  0.52984  0.91333  1.0000
  C   C806      1.0  0.20295  0.55099  0.52085  1.0000
  C   C807      1.0  0.20616  0.75957  0.49661  1.0000
  C   C808      1.0  0.27335  0.54848  0.50744  1.0000
  H   H638      1.0  0.32243  0.56153  0.94593  1.0000
  C   C809      1.0  0.35178  0.85154  0.79267  1.0000
  C   C810      1.0  0.29062  0.95418  0.90459  1.0000
  H   H639      1.0  0.32280  0.75133  0.67213  1.0000
  C   C811      1.0  0.32238  0.53771  0.94348  1.0000
  H   H640      1.0  0.25943  0.92428  0.69006  1.0000
  H   H641      1.0  0.31761  0.58764  0.48629  1.0000
  H   H642      1.0  0.36595  0.58543  0.80001  1.0000
  H   H643      1.0  0.22438  0.78621  0.49936  1.0000
  H   H644      1.0  0.19292  0.59022  0.50644  1.0000
  C   C812      1.0  0.22882  0.75742  0.71321  1.0000
  H   H645      1.0  0.30988  0.91103  0.77397  1.0000
  H   H646      1.0  0.30474  0.70302  0.79246  1.0000
  C   C813      1.0  0.33207  0.49860  0.90906  1.0000
  C   C814      1.0  0.29259  0.94278  0.84420  1.0000
  H   H647      1.0  0.22877  0.56739  0.51862  1.0000
  C   C815      1.0  0.32479  0.96967  0.84315  1.0000
  H   H648      1.0  0.17742  0.73875  0.71267  1.0000
  C   C816      1.0  0.37387  0.96197  0.80440  1.0000
  H   H649      1.0  0.24243  0.95553  0.77272  1.0000
  C   C817      1.0  0.29437  0.71400  0.48699  1.0000
  C   C818      1.0  0.33081  0.86073  0.80809  1.0000
  S   S159      1.0  0.20691  0.84093  0.75722  1.0000
  H   H650      1.0  0.25980  0.54425  0.48375  1.0000
  Fe  Fe82      1.0  0.20008  0.87682  0.96485  1.0000
  C   C819      1.0  0.33852  0.50721  0.83325  1.0000
  H   H651      1.0  0.33844  0.92842  0.94108  1.0000
  C   C820      1.0  0.32403  0.57987  0.53907  1.0000
  S   S160      1.0  0.36378  0.72089  0.90864  1.0000
  C   C821      1.0  0.27657  0.53591  0.56660  1.0000
  C   C822      1.0  0.30502  0.92761  0.75882  1.0000
  C   C823      1.0  0.34083  0.82807  0.76524  1.0000
  H   H652      1.0  0.34147  0.54804  0.89334  1.0000
  H   H653      1.0  0.27718  0.94835  0.92811  1.0000
  P   P24       1.0  0.21545  0.49829  0.53391  1.0000
  H   H654      1.0  0.26605  0.52166  0.58923  1.0000
  H   H655      1.0  0.34914  0.60005  0.54033  1.0000
  C   C824      1.0  0.25984  0.79997  0.67180  1.0000
  P   P25       1.0  0.29550  0.78376  0.71703  1.0000
  C   C825      1.0  0.28704  0.74219  0.72976  1.0000
  C   C826      1.0  0.32759  0.80008  0.68611  1.0000
  C   C827      1.0  0.33549  0.77833  0.66787  1.0000
  C   C828      1.0  0.25802  0.53012  0.53661  1.0000
  C   C829      1.0  0.26689  0.71341  0.70909  1.0000
  C   C830      1.0  0.26011  0.68112  0.71867  1.0000
  C   C831      1.0  0.27360  0.67733  0.74880  1.0000
  C   C832      1.0  0.30874  0.81339  0.75309  1.0000
  C   C833      1.0  0.28773  0.82271  0.76871  1.0000
  C   C834      1.0  0.29883  0.84638  0.79606  1.0000
  C   C835      1.0  0.20014  0.73783  0.52366  1.0000
  C   C836      1.0  0.35196  0.55810  0.80211  1.0000
  H   H656      1.0  0.20607  0.91856  0.50301  1.0000
  C   C837      1.0  0.18257  0.56416  0.51426  1.0000
  H   H657      1.0  0.35730  0.82112  0.75358  1.0000
  C   C838      1.0  0.36072  0.79150  0.64446  1.0000
  S   S161      1.0  0.18249  0.90553  0.93222  1.0000
  C   C839      1.0  0.37506  0.51177  0.53536  1.0000
  C   C840      1.0  0.30993  0.50337  0.78024  1.0000
  H   H658      1.0  0.36744  0.73926  0.56426  1.0000
  C   C841      1.0  0.20317  0.48661  0.60318  1.0000
  H   H659      1.0  0.35989  0.54800  0.52303  1.0000
  C   C842      1.0  0.23094  0.97275  0.85451  1.0000
  S   S162      1.0  0.36773  0.72423  0.74606  1.0000
  C   C843      1.0  0.17903  0.94329  0.49026  1.0000
  P   P26       1.0  0.34499  0.48750  0.86981  1.0000
  H   H660      1.0  0.36701  0.77459  0.63100  1.0000
  C   C844      1.0  0.29155  0.96969  0.71949  1.0000
  C   C845      1.0  0.37088  0.84825  0.65750  1.0000
  H   H661      1.0  0.18455  0.96718  0.78156  1.0000
  P   P27       1.0  0.34728  0.97969  0.80387  1.0000
  H   H662      1.0  0.37508  0.95744  0.74931  1.0000
  C   C846      1.0  0.37238  0.54087  0.54124  1.0000
  H   H663      1.0  0.17670  0.83870  0.53666  1.0000
  C   C847      1.0  0.31016  0.48367  0.96610  1.0000
  H   H664      1.0  0.39532  0.21948  0.07430  1.0000
  S   S163      1.0  0.42515  0.40812  0.27614  1.0000
  H   H665      1.0  0.40769  0.28563  0.21791  1.0000
  Fe  Fe83      1.0  0.40830  0.43497  0.31292  1.0000
  H   H666      1.0  0.56000  0.33197  0.26726  1.0000
  H   H667      1.0  0.54484  0.38320  0.43646  1.0000
  C   C848      1.0  0.38574  0.01802  0.06666  1.0000
  H   H668      1.0  0.44783  0.45852  0.11761  1.0000
  S   S164      1.0  0.37662  0.11595  0.36080  1.0000
  S   S165      1.0  0.40324  0.19127  0.23407  1.0000
  H   H669      1.0  0.45572  0.04510  0.12387  1.0000
  Fe  Fe84      1.0  0.54622  0.00987  0.03441  1.0000
  S   S166      1.0  0.39511  0.26112  0.29138  1.0000
  C   C849      1.0  0.41966  0.08704  0.29040  1.0000
  C   C850      1.0  0.45108  0.09249  0.28646  1.0000
  C   C851      1.0  0.46261  0.07435  0.30511  1.0000
  C   C852      1.0  0.44333  0.04963  0.32875  1.0000
  C   C853      1.0  0.41140  0.04384  0.33242  1.0000
  C   C854      1.0  0.40616  0.32781  0.44979  1.0000
  H   H670      1.0  0.46727  0.11179  0.26935  1.0000
  H   H671      1.0  0.39554  0.02511  0.35013  1.0000
  C   C855      1.0  0.52770  0.32987  0.43464  1.0000
  C   C856      1.0  0.41994  0.29700  0.31992  1.0000
  C   C857      1.0  0.41922  0.32742  0.31663  1.0000
  C   C858      1.0  0.43766  0.35606  0.33871  1.0000
  C   C859      1.0  0.45795  0.35547  0.36436  1.0000
  C   C860      1.0  0.43965  0.29599  0.34611  1.0000
  H   H672      1.0  0.40427  0.32904  0.29687  1.0000
  H   H673      1.0  0.43623  0.37878  0.33595  1.0000
  C   C861      1.0  0.41715  0.14860  0.35092  1.0000
  C   C862      1.0  0.42560  0.18225  0.34470  1.0000
  C   C863      1.0  0.45825  0.20687  0.33815  1.0000
  C   C864      1.0  0.47444  0.16475  0.34309  1.0000
  C   C865      1.0  0.44214  0.14059  0.35090  1.0000
  H   H674      1.0  0.40714  0.18943  0.34530  1.0000
  H   H675      1.0  0.43649  0.11516  0.35661  1.0000
  C   C866      1.0  0.38732  0.02095  0.12878  1.0000
  C   C867      1.0  0.39887  0.12788  0.14152  1.0000
  Fe  Fe85      1.0  0.44635  0.45576  0.24683  1.0000
  C   C868      1.0  0.45224  0.23884  0.42494  1.0000
  H   H676      1.0  0.39056  0.36963  0.21919  1.0000
  H   H677      1.0  0.42388  0.34444  0.23625  1.0000
  Fe  Fe86      1.0  0.47806  0.00436  0.30168  1.0000
  C   C869      1.0  0.39739  0.45418  0.98897  1.0000
  S   S167      1.0  0.52550  0.05928  0.31359  1.0000
  Fe  Fe87      1.0  0.47346  0.43117  0.30428  1.0000
  S   S168      1.0  0.50315  0.40256  0.30089  1.0000
  C   C870      1.0  0.39958  0.03602  0.09732  1.0000
  C   C871      1.0  0.56223  0.16262  0.37745  1.0000
  S   S169      1.0  0.52399  0.23073  0.32996  1.0000
  Fe  Fe88      1.0  0.51043  0.45017  0.38863  1.0000
  C   C872      1.0  0.41472  0.43875  0.45138  1.0000
  S   S170      1.0  0.48075  0.39093  0.39420  1.0000
  Fe  Fe89      1.0  0.53436  0.00518  0.42729  1.0000
  S   S171      1.0  0.55110  0.04653  0.38999  1.0000
  Fe  Fe90      1.0  0.50162  0.01410  0.36279  1.0000
  S   S172      1.0  0.45694  0.02490  0.35357  1.0000
  H   H678      1.0  0.56399  0.28219  0.12448  1.0000
  C   C873      1.0  0.39172  0.05988  0.43800  1.0000
  H   H679      1.0  0.48686  0.08066  0.30061  1.0000
  C   C874      1.0  0.45819  0.32481  0.36814  1.0000
  H   H680      1.0  0.47352  0.32371  0.38775  1.0000
  H   H681      1.0  0.44079  0.27306  0.34930  1.0000
  C   C875      1.0  0.41898  0.12127  0.43525  1.0000
  H   H682      1.0  0.38842  0.98348  0.20582  1.0000
  C   C876      1.0  0.48284  0.19818  0.33652  1.0000
  H   H683      1.0  0.46447  0.23285  0.33425  1.0000
  H   H684      1.0  0.49293  0.15755  0.34288  1.0000
  C   C877      1.0  0.53855  0.09869  0.33926  1.0000
  C   C878      1.0  0.52413  0.30196  0.45214  1.0000
  H   H685      1.0  0.56161  0.02545  0.25407  1.0000
  C   C879      1.0  0.39108  0.09032  0.44102  1.0000
  C   C880      1.0  0.52562  0.10044  0.37114  1.0000
  C   C881      1.0  0.37966  0.27292  0.42033  1.0000
  Fe  Fe91      1.0  0.56949  0.23414  0.30466  1.0000
  C   C882      1.0  0.52906  0.39388  0.32800  1.0000
  H   H686      1.0  0.46363  0.24438  0.40017  1.0000
  C   C883      1.0  0.52712  0.36188  0.32569  1.0000
  C   C884      1.0  0.53717  0.13180  0.38973  1.0000
  H   H687      1.0  0.50866  0.34230  0.30920  1.0000
  S   S173      1.0  0.52458  0.98727  0.33151  1.0000
  H   H688      1.0  0.49113  0.05137  0.24433  1.0000
  S   S174      1.0  0.52165  0.03905  0.02063  1.0000
  H   H689      1.0  0.52684  0.13211  0.41411  1.0000
  H   H690      1.0  0.52342  0.04702  0.19719  1.0000
  C   C885      1.0  0.42276  0.24985  0.46909  1.0000
  C   C886      1.0  0.56190  0.46842  0.22751  1.0000
  C   C887      1.0  0.54811  0.35456  0.34512  1.0000
  C   C888      1.0  0.56346  0.11653  0.09598  1.0000
  H   H691      1.0  0.56804  0.47586  0.07886  1.0000
  H   H692      1.0  0.41744  0.14413  0.43543  1.0000
  S   S175      1.0  0.57566  0.19702  0.27057  1.0000
  H   H693      1.0  0.46915  0.14610  0.42045  1.0000
  C   C889      1.0  0.38284  0.34369  0.21164  1.0000
  H   H694      1.0  0.41818  0.46722  0.40697  1.0000
  C   C890      1.0  0.51718  0.12501  0.09991  1.0000
  C   C891      1.0  0.39913  0.34188  0.42198  1.0000
  S   S176      1.0  0.49423  0.47751  0.27232  1.0000
  H   H695      1.0  0.55508  0.40977  0.25694  1.0000
  H   H696      1.0  0.55152  0.47490  0.27956  1.0000
  S   S177      1.0  0.44019  0.45009  0.18949  1.0000
  C   C892      1.0  0.54068  0.36158  0.45128  1.0000
  H   H697      1.0  0.49462  0.12149  0.08934  1.0000
  C   C893      1.0  0.39561  0.29289  0.44969  1.0000
  Fe  Fe92      1.0  0.56880  0.07542  0.99558  1.0000
  C   C894      1.0  0.44831  0.09197  0.42215  1.0000
  H   H698      1.0  0.42164  0.03810  0.42314  1.0000
  C   C895      1.0  0.43820  0.25736  0.43744  1.0000
  C   C896      1.0  0.40212  0.32976  0.22065  1.0000
  C   C897      1.0  0.45245  0.21380  0.44460  1.0000
  H   H699      1.0  0.51041  0.39607  0.46376  1.0000
  C   C898      1.0  0.55346  0.41877  0.34936  1.0000
  C   C899      1.0  0.39301  0.29655  0.21029  1.0000
  H   H700      1.0  0.43952  0.27749  0.42222  1.0000
  H   H701      1.0  0.37816  0.33293  0.37154  1.0000
  H   H702      1.0  0.55524  0.39667  0.13965  1.0000
  S   S178      1.0  0.49315  0.48091  0.41821  1.0000
  H   H703      1.0  0.45097  0.10895  0.20372  1.0000
  C   C900      1.0  0.47217  0.27626  0.23156  1.0000
  C   C901      1.0  0.48167  0.26814  0.26202  1.0000
  C   C902      1.0  0.51342  0.28822  0.27446  1.0000
  C   C903      1.0  0.53567  0.31661  0.25676  1.0000
  C   C904      1.0  0.52606  0.32523  0.22649  1.0000
  C   C905      1.0  0.49437  0.30435  0.21356  1.0000
  P   P28       1.0  0.55384  0.36252  0.20391  1.0000
  C   C906      1.0  0.53053  0.38105  0.18793  1.0000
  H   H704      1.0  0.44013  0.05041  0.23173  1.0000
  H   H705      1.0  0.51723  0.15466  0.14375  1.0000
  C   C907      1.0  0.57465  0.41168  0.36846  1.0000
  C   C908      1.0  0.53631  0.39549  0.15555  1.0000
  C   C909      1.0  0.51731  0.40855  0.14310  1.0000
  C   C910      1.0  0.49227  0.40710  0.16268  1.0000
  C   C911      1.0  0.48635  0.39294  0.19487  1.0000
  C   C912      1.0  0.50527  0.37986  0.20747  1.0000
  H   H706      1.0  0.40829  0.36895  0.42140  1.0000
  H   H707      1.0  0.53881  0.44575  0.22345  1.0000
  H   H708      1.0  0.54027  0.29671  0.17295  1.0000
  C   C913      1.0  0.57181  0.35122  0.16918  1.0000
  C   C914      1.0  0.57214  0.37942  0.36699  1.0000
  H   H709      1.0  0.54557  0.32960  0.34325  1.0000
  H   H710      1.0  0.44751  0.26097  0.22210  1.0000
  H   H711      1.0  0.46441  0.24634  0.27601  1.0000
  H   H712      1.0  0.52072  0.28210  0.29819  1.0000
  C   C915      1.0  0.42046  0.06092  0.42780  1.0000
  H   H713      1.0  0.48656  0.31009  0.18990  1.0000
  Fe  Fe93      1.0  0.50803  0.00784  0.97179  1.0000
  C   C916      1.0  0.56408  0.12966  0.32767  1.0000
  S   S179      1.0  0.54800  0.98913  0.08486  1.0000
  H   H714      1.0  0.52192  0.41982  0.11821  1.0000
  H   H715      1.0  0.47752  0.41714  0.15305  1.0000
  H   H716      1.0  0.46770  0.39308  0.21051  1.0000
  H   H717      1.0  0.50044  0.36933  0.23277  1.0000
  H   H718      1.0  0.46411  0.20013  0.43486  1.0000
  S   S180      1.0  0.40788  0.11285  0.26628  1.0000
  H   H719      1.0  0.45990  0.16678  0.20081  1.0000
  C   C917      1.0  0.57303  0.30864  0.13163  1.0000
  H   H720      1.0  0.51617  0.27809  0.43841  1.0000
  H   H721      1.0  0.50681  0.04653  0.13696  1.0000
  S   S181      1.0  0.51600  0.47984  0.02311  1.0000
  C   C918      1.0  0.55974  0.31705  0.15930  1.0000
  H   H722      1.0  0.41982  0.06174  0.09651  1.0000
  C   C919      1.0  0.53410  0.11168  0.08259  1.0000
  H   H723      1.0  0.52204  0.32735  0.40757  1.0000
  C   C920      1.0  0.47469  0.47536  0.16521  1.0000
  S   S182      1.0  0.56037  0.48105  0.41256  1.0000
  C   C921      1.0  0.52986  0.14368  0.13042  1.0000
  H   H724      1.0  0.42690  0.17946  0.16096  1.0000
  S   S183      1.0  0.45420  0.45376  0.34409  1.0000
  H   H725      1.0  0.46983  0.09234  0.41284  1.0000
  H   H726      1.0  0.55483  0.09238  0.25042  1.0000
  H   H727      1.0  0.50746  0.07764  0.38249  1.0000
  C   C922      1.0  0.44782  0.12223  0.42645  1.0000
  C   C923      1.0  0.42322  0.15397  0.16174  1.0000
  C   C924      1.0  0.44205  0.14695  0.18385  1.0000
  C   C925      1.0  0.43695  0.11398  0.18536  1.0000
  C   C926      1.0  0.41299  0.08773  0.16463  1.0000
  C   C927      1.0  0.40899  0.46097  0.43267  1.0000
  P   P29       1.0  0.40512  0.04477  0.16828  1.0000
  C   C928      1.0  0.44349  0.04696  0.17686  1.0000
  C   C929      1.0  0.39158  0.47529  0.44686  1.0000
  H   H728      1.0  0.42867  0.42821  0.44023  1.0000
  C   C930      1.0  0.39977  0.06231  0.31361  1.0000
  H   H729      1.0  0.55677  0.44399  0.35035  1.0000
  C   C931      1.0  0.47135  0.47449  0.12966  1.0000
  H   H730      1.0  0.52498  0.09840  0.05822  1.0000
  C   C932      1.0  0.46307  0.04676  0.15023  1.0000
  C   C933      1.0  0.49228  0.04770  0.15755  1.0000
  C   C934      1.0  0.50187  0.04831  0.19141  1.0000
  C   C935      1.0  0.48338  0.05014  0.21797  1.0000
  C   C936      1.0  0.45435  0.04949  0.21073  1.0000
  S   S184      1.0  0.43029  0.98835  0.27276  1.0000
  H   H731      1.0  0.55865  0.10922  0.19086  1.0000
  C   C937      1.0  0.37852  0.02494  0.20368  1.0000
  H   H732      1.0  0.39538  0.02964  0.04245  1.0000
  C   C938      1.0  0.55937  0.14892  0.14359  1.0000
  H   H733      1.0  0.57510  0.12995  0.30372  1.0000
  C   C939      1.0  0.38225  0.32153  0.39358  1.0000
  C   C940      1.0  0.39346  0.09478  0.14323  1.0000
  H   H734      1.0  0.56909  0.16381  0.16707  1.0000
  H   H735      1.0  0.38379  0.13333  0.12507  1.0000
  Fe  Fe94      1.0  0.57096  0.01713  0.36131  1.0000
  Fe  Fe95      1.0  0.37706  0.13891  0.25670  1.0000
  H   H736      1.0  0.57324  0.04222  0.19364  1.0000
  C   C941      1.0  0.57573  0.16084  0.34646  1.0000
  H   H737      1.0  0.42086  0.34468  0.47038  1.0000
  C   C942      1.0  0.57610  0.13485  0.12688  1.0000
  C   C943      1.0  0.43312  0.19339  0.73680  1.0000
  H   H738      1.0  0.42177  0.12324  0.79102  1.0000
  C   C944      1.0  0.53113  0.43197  0.54388  1.0000
  C   C945      1.0  0.42049  0.07555  0.78285  1.0000
  H   H739      1.0  0.41234  0.02505  0.77645  1.0000
  C   C946      1.0  0.39301  0.43395  0.95976  1.0000
  C   C947      1.0  0.42644  0.21302  0.75961  1.0000
  H   H740      1.0  0.46898  0.10408  0.69699  1.0000
  S   S185      1.0  0.42413  0.23293  0.85560  1.0000
  C   C948      1.0  0.46342  0.23938  0.84407  1.0000
  C   C949      1.0  0.48835  0.27237  0.83633  1.0000
  C   C950      1.0  0.47054  0.21299  0.84215  1.0000
  H   H741      1.0  0.48338  0.29309  0.83756  1.0000
  H   H742      1.0  0.45189  0.18746  0.84781  1.0000
  H   H743      1.0  0.40701  0.41302  0.49860  1.0000
  C   C951      1.0  0.43754  0.20640  0.47639  1.0000
  C   C952      1.0  0.44484  0.08213  0.69613  1.0000
  C   C953      1.0  0.44106  0.04939  0.69719  1.0000
  C   C954      1.0  0.40966  0.02128  0.69626  1.0000
  C   C955      1.0  0.56915  0.07782  0.57547  1.0000
  C   C956      1.0  0.52635  0.33104  0.69248  1.0000
  H   H744      1.0  0.41412  0.25596  0.65963  1.0000
  H   H745      1.0  0.54519  0.07060  0.58470  1.0000
  C   C957      1.0  0.42243  0.22414  0.48850  1.0000
  C   C958      1.0  0.40352  0.29811  0.72635  1.0000
  C   C959      1.0  0.42549  0.33186  0.71765  1.0000
  C   C960      1.0  0.44403  0.33837  0.68831  1.0000
  C   C961      1.0  0.47900  0.32839  0.55416  1.0000
  Fe  Fe96      1.0  0.54079  0.98540  0.68938  1.0000
  C   C962      1.0  0.40238  0.04032  0.78607  1.0000
  C   C963      1.0  0.48359  0.41326  0.49283  1.0000
  H   H746      1.0  0.53606  0.38254  0.69759  1.0000
  C   C964      1.0  0.37725  0.08118  0.80841  1.0000
  C   C965      1.0  0.54621  0.36592  0.69895  1.0000
  H   H747      1.0  0.53149  0.28392  0.49957  1.0000
  P   P30       1.0  0.40474  0.27400  0.48521  1.0000
  H   H748      1.0  0.50068  0.32841  0.56251  1.0000
  H   H749      1.0  0.46630  0.40761  0.47212  1.0000
  S   S186      1.0  0.54985  0.01987  0.48195  1.0000
  H   H750      1.0  0.53355  0.22624  0.63973  1.0000
  C   C966      1.0  0.52449  0.99016  0.51109  1.0000
  S   S187      1.0  0.47621  0.04523  0.70149  1.0000
  H   H751      1.0  0.50331  0.44905  0.57261  1.0000
  H   H752      1.0  0.43721  0.18652  0.49142  1.0000
  H   H753      1.0  0.42105  0.11211  0.69425  1.0000
  Fe  Fe97      1.0  0.47942  0.43217  0.69029  1.0000
  S   S188      1.0  0.47462  0.38017  0.67807  1.0000
  S   S189      1.0  0.51698  0.00303  0.65155  1.0000
  C   C967      1.0  0.50486  0.43706  0.54910  1.0000
  S   S190      1.0  0.55398  0.04581  0.94529  1.0000
  C   C968      1.0  0.40793  0.09599  0.79396  1.0000
  C   C969      1.0  0.45883  0.20913  0.71422  1.0000
  H   H754      1.0  0.44406  0.08693  0.77111  1.0000
  H   H755      1.0  0.46923  0.29225  0.51338  1.0000
  H   H756      1.0  0.46136  0.43268  0.52742  1.0000
  S   S191      1.0  0.45020  0.48025  0.59238  1.0000
  H   H757      1.0  0.48275  0.36457  0.59323  1.0000
  C   C970      1.0  0.51974  0.27899  0.82722  1.0000
  C   C971      1.0  0.52701  0.25270  0.82582  1.0000
  C   C972      1.0  0.50198  0.21964  0.83315  1.0000
  H   H758      1.0  0.53842  0.30455  0.82170  1.0000
  H   H759      1.0  0.50701  0.19895  0.83214  1.0000
  H   H760      1.0  0.40628  0.99599  0.69707  1.0000
  H   H761      1.0  0.42873  0.35271  0.73421  1.0000
  H   H762      1.0  0.44897  0.22895  0.65017  1.0000
  S   S192      1.0  0.43919  0.44350  0.68057  1.0000
  C   C973      1.0  0.40237  0.43015  0.48414  1.0000
  Fe  Fe98      1.0  0.48325  0.99919  0.69374  1.0000
  C   C974      1.0  0.48109  0.42771  0.52362  1.0000
  H   H763      1.0  0.41390  0.43712  0.94595  1.0000
  H   H764      1.0  0.38339  0.37829  0.74018  1.0000
  C   C975      1.0  0.43983  0.31070  0.66752  1.0000
  H   H765      1.0  0.43315  0.36410  0.57413  1.0000
  C   C976      1.0  0.54541  0.33692  0.50359  1.0000
  C   C977      1.0  0.37924  0.46709  0.48001  1.0000
  H   H766      1.0  0.53994  0.38616  0.57714  1.0000
  H   H767      1.0  0.56476  0.21660  0.75807  1.0000
  C   C978      1.0  0.46084  0.30757  0.52638  1.0000
  C   C979      1.0  0.43171  0.30585  0.51639  1.0000
  H   H768      1.0  0.39912  0.32501  0.52699  1.0000
  H   H769      1.0  0.53750  0.24956  0.74775  1.0000
  S   S193      1.0  0.38376  0.15918  0.66425  1.0000
  P   P31       1.0  0.56543  0.40639  0.50781  1.0000
  C   C980      1.0  0.41768  0.08678  0.69450  1.0000
  C   C981      1.0  0.38252  0.02597  0.69514  1.0000
  C   C982      1.0  0.56516  0.20361  0.70490  1.0000
  H   H770      1.0  0.55975  0.08980  0.52532  1.0000
  H   H771      1.0  0.55019  0.44132  0.56315  1.0000
  H   H772      1.0  0.55268  0.33885  0.53004  1.0000
  H   H773      1.0  0.55952  0.01402  0.55180  1.0000
  C   C983      1.0  0.46888  0.34858  0.57147  1.0000
  C   C984      1.0  0.53881  0.30901  0.69553  1.0000
  C   C985      1.0  0.39902  0.27047  0.70550  1.0000
  C   C986      1.0  0.50906  0.40681  0.48811  1.0000
  H   H774      1.0  0.46372  0.19347  0.69681  1.0000
  C   C987      1.0  0.53257  0.41510  0.51404  1.0000
  S   S194      1.0  0.45788  0.98578  0.94581  1.0000
  C   C988      1.0  0.53576  0.99353  0.54464  1.0000
  H   H775      1.0  0.45419  0.31534  0.64489  1.0000
  H   H776      1.0  0.56718  0.99515  0.87744  1.0000
  H   H777      1.0  0.40086  0.43650  0.76189  1.0000
  C   C989      1.0  0.56476  0.39179  0.57704  1.0000
  S   S195      1.0  0.51158  0.46615  0.64928  1.0000
  C   C990      1.0  0.38625  0.05870  0.69447  1.0000
  C   C991      1.0  0.54070  0.22507  0.66562  1.0000
  C   C992      1.0  0.53406  0.24112  0.69295  1.0000
  C   C993      1.0  0.54286  0.23787  0.72625  1.0000
  P   P32       1.0  0.51272  0.26411  0.68656  1.0000
  C   C994      1.0  0.50061  0.26061  0.64225  1.0000
  C   C995      1.0  0.47819  0.24472  0.71437  1.0000
  C   C996      1.0  0.47159  0.26420  0.73788  1.0000
  C   C997      1.0  0.44560  0.24834  0.76008  1.0000
  C   C998      1.0  0.46795  0.24135  0.63176  1.0000
  C   C999      1.0  0.45952  0.23739  0.59701  1.0000
  C   C1000     1.0  0.48359  0.25242  0.57257  1.0000
  C   C1001     1.0  0.51610  0.27220  0.58289  1.0000
  C   C1002     1.0  0.52454  0.27668  0.61760  1.0000
  H   H778      1.0  0.50109  0.32117  0.68570  1.0000
  C   C1003     1.0  0.41729  0.27695  0.67590  1.0000
  C   C1004     1.0  0.57189  0.32264  0.70348  1.0000
  S   S196      1.0  0.56517  0.45907  0.95872  1.0000
  H   H779      1.0  0.41058  0.21774  0.51295  1.0000
  H   H780      1.0  0.48649  0.29146  0.73985  1.0000
  H   H781      1.0  0.44033  0.26333  0.77807  1.0000
  C   C1005     1.0  0.42177  0.32635  0.53386  1.0000
  H   H782      1.0  0.43431  0.22188  0.58903  1.0000
  H   H783      1.0  0.47705  0.24828  0.54565  1.0000
  H   H784      1.0  0.53497  0.28332  0.56406  1.0000
  H   H785      1.0  0.54991  0.29160  0.62517  1.0000
  H   H786      1.0  0.40641  0.20100  0.77704  1.0000
  C   C1006     1.0  0.55822  0.21909  0.73217  1.0000
  H   H787      1.0  0.39311  0.48078  0.55722  1.0000
  H   H788      1.0  0.56145  0.19427  0.65052  1.0000
  C   C1007     1.0  0.44060  0.34803  0.56090  1.0000
  S   S197      1.0  0.50382  0.47432  0.73128  1.0000
  H   H789      1.0  0.41822  0.16595  0.73659  1.0000
  C   C1008     1.0  0.55639  0.20659  0.67164  1.0000
  Fe  Fe99      1.0  0.47247  0.47918  0.64228  1.0000
  C   C1009     1.0  0.54926  0.36537  0.48609  1.0000
  C   C1010     1.0  0.53300  0.30542  0.48658  1.0000
  H   H790      1.0  0.38989  0.29329  0.74947  1.0000
  C   C1011     1.0  0.38401  0.44355  0.49808  1.0000
  H   H791      1.0  0.38891  0.26084  0.55826  1.0000
  S   S198      1.0  0.56660  0.25944  0.81524  1.0000
  H   H792      1.0  0.56278  0.37612  0.62884  1.0000
  H   H793      1.0  0.38384  0.37503  0.63018  1.0000
  H   H794      1.0  0.38731  0.32487  0.60951  1.0000
  C   C1012     1.0  0.57555  0.99903  0.82324  1.0000
  Fe  Fe100     1.0  0.57611  0.01568  0.96637  1.0000
  H   H795      1.0  0.57596  0.40236  0.95356  1.0000
  S   S199      1.0  0.50894  0.98420  0.73252  1.0000
  C   C1013     1.0  0.54248  0.74335  0.01912  1.0000
  S   S200      1.0  0.42419  0.91276  0.25878  1.0000
  H   H796      1.0  0.38023  0.93041  0.03900  1.0000
  Fe  Fe101     1.0  0.40738  0.93749  0.29814  1.0000
  H   H797      1.0  0.42162  0.90827  0.42301  1.0000
  H   H798      1.0  0.54934  0.94292  0.46611  1.0000
  H   H799      1.0  0.56595  0.84386  0.44481  1.0000
  C   C1014     1.0  0.49799  0.49535  0.10967  1.0000
  C   C1015     1.0  0.43333  0.87207  0.44325  1.0000
  S   S201      1.0  0.40560  0.68129  0.23399  1.0000
  C   C1016     1.0  0.39829  0.85207  0.15782  1.0000
  S   S202      1.0  0.56180  0.54291  0.10011  1.0000
  S   S203      1.0  0.39580  0.76272  0.26522  1.0000
  C   C1017     1.0  0.41631  0.58280  0.31180  1.0000
  C   C1018     1.0  0.43817  0.57517  0.29545  1.0000
  C   C1019     1.0  0.45233  0.55846  0.31250  1.0000
  C   C1020     1.0  0.44421  0.54747  0.34624  1.0000
  C   C1021     1.0  0.42130  0.55407  0.36213  1.0000
  C   C1022     1.0  0.40779  0.57170  0.34532  1.0000
  H   H800      1.0  0.44449  0.58240  0.26933  1.0000
  H   H801      1.0  0.41429  0.54595  0.38789  1.0000
  S   S204      1.0  0.38275  0.63895  0.38440  1.0000
  C   C1023     1.0  0.41903  0.79678  0.29583  1.0000
  C   C1024     1.0  0.42020  0.82813  0.29209  1.0000
  C   C1025     1.0  0.43765  0.85569  0.31552  1.0000
  C   C1026     1.0  0.45608  0.85345  0.34215  1.0000
  C   C1027     1.0  0.43624  0.79384  0.32338  1.0000
  H   H802      1.0  0.40766  0.83138  0.27081  1.0000
  H   H803      1.0  0.43768  0.87917  0.31253  1.0000
  C   C1028     1.0  0.42140  0.66220  0.36393  1.0000
  C   C1029     1.0  0.44635  0.65541  0.37252  1.0000
  C   C1030     1.0  0.47752  0.67365  0.35816  1.0000
  C   C1031     1.0  0.46012  0.70702  0.32733  1.0000
  C   C1032     1.0  0.42877  0.68850  0.34136  1.0000
  H   H804      1.0  0.44139  0.63533  0.38988  1.0000
  H   H805      1.0  0.41051  0.69501  0.33507  1.0000
  C   C1033     1.0  0.49105  0.96996  0.16561  1.0000
  S   S205      1.0  0.52928  0.97566  0.98791  1.0000
  H   H806      1.0  0.49456  0.49583  0.08256  1.0000
  H   H807      1.0  0.44879  0.88956  0.46325  1.0000
  C   C1034     1.0  0.43253  0.71406  0.98577  1.0000
  C   C1035     1.0  0.57088  0.85429  0.47065  1.0000
  Fe  Fe102     1.0  0.47770  0.50249  0.31180  1.0000
  H   H808      1.0  0.55558  0.53273  0.17245  1.0000
  S   S206      1.0  0.52380  0.55896  0.31895  1.0000
  Fe  Fe103     1.0  0.47244  0.93377  0.28709  1.0000
  S   S207      1.0  0.50461  0.90790  0.28293  1.0000
  C   C1036     1.0  0.47735  0.56886  0.46596  1.0000
  H   H809      1.0  0.40668  0.79630  0.04156  1.0000
  S   S208      1.0  0.52432  0.72352  0.31669  1.0000
  Fe  Fe104     1.0  0.50576  0.94768  0.37237  1.0000
  C   C1037     1.0  0.50571  0.60045  0.46786  1.0000
  S   S209      1.0  0.47951  0.88826  0.37221  1.0000
  Fe  Fe105     1.0  0.54401  0.51426  0.43712  1.0000
  C   C1038     1.0  0.56833  0.84775  0.08803  1.0000
  Fe  Fe106     1.0  0.50648  0.51594  0.37341  1.0000
  S   S210      1.0  0.46104  0.52529  0.36992  1.0000
  H   H810      1.0  0.55652  0.54475  0.26161  1.0000
  H   H811      1.0  0.38084  0.81254  0.36831  1.0000
  H   H812      1.0  0.46895  0.55357  0.29860  1.0000
  C   C1039     1.0  0.45469  0.82197  0.34605  1.0000
  H   H813      1.0  0.46859  0.81956  0.36634  1.0000
  H   H814      1.0  0.43600  0.77019  0.32686  1.0000
  S   S211      1.0  0.40047  0.60643  0.29015  1.0000
  C   C1040     1.0  0.41751  0.88268  0.42077  1.0000
  C   C1041     1.0  0.48488  0.69973  0.33547  1.0000
  H   H815      1.0  0.49594  0.66747  0.36452  1.0000
  H   H816      1.0  0.46500  0.72706  0.31002  1.0000
  C   C1042     1.0  0.53923  0.60144  0.33851  1.0000
  C   C1043     1.0  0.52337  0.60893  0.36459  1.0000
  C   C1044     1.0  0.53595  0.64210  0.37869  1.0000
  C   C1045     1.0  0.53208  0.51659  0.16040  1.0000
  H   H817      1.0  0.56395  0.91306  0.22947  1.0000
  H   H818      1.0  0.50136  0.58956  0.37474  1.0000
  H   H819      1.0  0.52263  0.64657  0.39824  1.0000
  C   C1046     1.0  0.52925  0.89883  0.31150  1.0000
  C   C1047     1.0  0.54659  0.85883  0.33105  1.0000
  C   C1048     1.0  0.52666  0.86649  0.31023  1.0000
  H   H820      1.0  0.54372  0.83371  0.32972  1.0000
  H   H821      1.0  0.50836  0.84692  0.29369  1.0000
  H   H822      1.0  0.43813  0.96782  0.10576  1.0000
  H   H823      1.0  0.54768  0.68447  0.01025  1.0000
  C   C1049     1.0  0.39217  0.95629  0.43924  1.0000
  C   C1050     1.0  0.51737  0.73447  0.46834  1.0000
  H   H824      1.0  0.54616  0.68255  0.16488  1.0000
  Fe  Fe107     1.0  0.48974  0.50236  0.99582  1.0000
  C   C1051     1.0  0.38309  0.93681  0.01235  1.0000
  H   H825      1.0  0.51888  0.61073  0.44461  1.0000
  C   C1052     1.0  0.54615  0.57371  0.22633  1.0000
  C   C1053     1.0  0.55868  0.60382  0.20824  1.0000
  C   C1054     1.0  0.51752  0.97798  0.14496  1.0000
  P   P33       1.0  0.53215  0.61403  0.18476  1.0000
  C   C1055     1.0  0.55558  0.64190  0.15108  1.0000
  C   C1056     1.0  0.49723  0.57662  0.16649  1.0000
  C   C1057     1.0  0.49328  0.57022  0.13098  1.0000
  H   H826      1.0  0.39729  0.55053  0.46839  1.0000
  H   H827      1.0  0.38998  0.88588  0.19006  1.0000
  C   C1058     1.0  0.44346  0.52807  0.17412  1.0000
  C   C1059     1.0  0.47189  0.55537  0.18789  1.0000
  H   H828      1.0  0.50927  0.75177  0.46078  1.0000
  S   S212      1.0  0.55768  0.55117  0.39541  1.0000
  S   S213      1.0  0.45247  0.95289  0.32949  1.0000
  H   H829      1.0  0.57138  0.60774  0.13159  1.0000
  H   H830      1.0  0.40969  0.69661  0.99719  1.0000
  C   C1060     1.0  0.51500  0.63199  0.21374  1.0000
  C   C1061     1.0  0.52213  0.63517  0.24895  1.0000
  C   C1062     1.0  0.50600  0.64560  0.27154  1.0000
  C   C1063     1.0  0.48198  0.65189  0.25936  1.0000
  C   C1064     1.0  0.47426  0.64817  0.22453  1.0000
  C   C1065     1.0  0.49082  0.63844  0.20174  1.0000
  C   C1066     1.0  0.43592  0.78150  0.16081  1.0000
  P   P34       1.0  0.45362  0.82736  0.46505  1.0000
  C   C1067     1.0  0.57243  0.63193  0.12864  1.0000
  H   H831      1.0  0.52054  0.55538  0.22574  1.0000
  H   H832      1.0  0.44093  0.72294  0.40774  1.0000
  H   H833      1.0  0.51198  0.58590  0.11355  1.0000
  C   C1068     1.0  0.46257  0.96661  0.15170  1.0000
  H   H834      1.0  0.45051  0.91122  0.04817  1.0000
  H   H835      1.0  0.47392  0.55997  0.21532  1.0000
  C   C1069     1.0  0.55767  0.67349  0.14712  1.0000
  H   H836      1.0  0.49974  0.73971  0.04265  1.0000
  H   H837      1.0  0.46198  0.53781  0.08997  1.0000
  H   H838      1.0  0.39089  0.57710  0.35835  1.0000
  Fe  Fe108     1.0  0.55465  0.56621  0.97739  1.0000
  H   H839      1.0  0.53981  0.62936  0.25940  1.0000
  C   C1070     1.0  0.56659  0.56749  0.24677  1.0000
  H   H840      1.0  0.46872  0.65876  0.27714  1.0000
  H   H841      1.0  0.45485  0.65206  0.21556  1.0000
  H   H842      1.0  0.48394  0.63471  0.17495  1.0000
  H   H843      1.0  0.52043  0.88257  0.07658  1.0000
  C   C1071     1.0  0.56500  0.66951  0.36768  1.0000
  C   C1072     1.0  0.51667  0.63330  0.99244  1.0000
  H   H844      1.0  0.42469  0.51125  0.19104  1.0000
  C   C1073     1.0  0.45902  0.70892  0.98846  1.0000
  H   H845      1.0  0.52999  0.62375  0.00640  1.0000
  H   H846      1.0  0.54145  0.78665  0.15739  1.0000
  C   C1074     1.0  0.55327  0.92369  0.33325  1.0000
  C   C1075     1.0  0.49823  0.81956  0.42472  1.0000
  C   C1076     1.0  0.50833  0.80091  0.40454  1.0000
  C   C1077     1.0  0.48785  0.76614  0.39872  1.0000
  C   C1078     1.0  0.50524  0.49616  0.18045  1.0000
  H   H847      1.0  0.50348  0.65531  0.44957  1.0000
  C   C1079     1.0  0.43083  0.84013  0.43831  1.0000
  H   H848      1.0  0.38875  0.58121  0.42192  1.0000
  Fe  Fe109     1.0  0.55103  0.49713  0.97974  1.0000
  H   H849      1.0  0.50683  0.92194  0.04789  1.0000
  C   C1080     1.0  0.56988  0.88357  0.35362  1.0000
  C   C1081     1.0  0.41042  0.81814  0.41213  1.0000
  H   H850      1.0  0.50435  0.89196  0.43850  1.0000
  H   H851      1.0  0.40009  0.94603  0.41862  1.0000
  S   S214      1.0  0.43055  0.95912  0.17833  1.0000
  S   S215      1.0  0.52061  0.55410  0.02072  1.0000
  H   H852      1.0  0.51429  0.84664  0.42748  1.0000
  H   H853      1.0  0.53181  0.81363  0.39253  1.0000
  H   H854      1.0  0.49583  0.75200  0.38280  1.0000
  S   S216      1.0  0.48505  0.97440  0.40394  1.0000
  C   C1082     1.0  0.52501  0.74728  0.04592  1.0000
  C   C1083     1.0  0.39445  0.82875  0.38992  1.0000
  C   C1084     1.0  0.57518  0.75308  0.02469  1.0000
  H   H855      1.0  0.57172  0.93926  0.09933  1.0000
  H   H856      1.0  0.52655  0.76406  0.09810  1.0000
  H   H857      1.0  0.40819  0.79353  0.40747  1.0000
  H   H858      1.0  0.43638  0.79936  0.17979  1.0000
  P   P35       1.0  0.55257  0.85106  0.19046  1.0000
  C   C1085     1.0  0.52167  0.86295  0.18715  1.0000
  C   C1086     1.0  0.54014  0.76115  0.07754  1.0000
  C   C1087     1.0  0.49643  0.85170  0.21072  1.0000
  C   C1088     1.0  0.47452  0.86364  0.20978  1.0000
  C   C1089     1.0  0.47748  0.88676  0.18535  1.0000
  C   C1090     1.0  0.50212  0.89761  0.16152  1.0000
  C   C1091     1.0  0.52447  0.88631  0.16275  1.0000
  C   C1092     1.0  0.53505  0.80806  0.20471  1.0000
  C   C1093     1.0  0.52626  0.80135  0.23897  1.0000
  C   C1094     1.0  0.51467  0.76895  0.25132  1.0000
  C   C1095     1.0  0.51257  0.74299  0.22996  1.0000
  C   C1096     1.0  0.52179  0.74940  0.19593  1.0000
  C   C1097     1.0  0.53303  0.78187  0.18326  1.0000
  C   C1098     1.0  0.46740  0.80344  0.43942  1.0000
  H   H859      1.0  0.52724  0.83076  0.12068  1.0000
  H   H860      1.0  0.49400  0.83481  0.23079  1.0000
  H   H861      1.0  0.45613  0.85606  0.22911  1.0000
  H   H862      1.0  0.46125  0.89698  0.18558  1.0000
  H   H863      1.0  0.50413  0.91510  0.14226  1.0000
  H   H864      1.0  0.54430  0.89648  0.14514  1.0000
  H   H865      1.0  0.52954  0.82144  0.25671  1.0000
  H   H866      1.0  0.50869  0.76447  0.27799  1.0000
  H   H867      1.0  0.50504  0.71839  0.24041  1.0000
  H   H868      1.0  0.52158  0.72957  0.17991  1.0000
  H   H869      1.0  0.48517  0.69460  0.43304  1.0000
  C   C1099     1.0  0.52840  0.51648  0.12499  1.0000
  C   C1100     1.0  0.39856  0.86130  0.39371  1.0000
  C   C1101     1.0  0.43972  0.52199  0.13885  1.0000
  H   H870      1.0  0.41160  0.87167  0.13977  1.0000
  C   C1102     1.0  0.46459  0.54309  0.11729  1.0000
  P   P36       1.0  0.40839  0.80738  0.11577  1.0000
  C   C1103     1.0  0.45706  0.74986  0.41293  1.0000
  C   C1104     1.0  0.42356  0.77953  0.12764  1.0000
  C   C1105     1.0  0.44679  0.76839  0.43306  1.0000
  C   C1106     1.0  0.44698  0.75956  0.17028  1.0000
  C   C1107     1.0  0.44632  0.73583  0.14659  1.0000
  C   C1108     1.0  0.43518  0.73448  0.11322  1.0000
  C   C1109     1.0  0.42389  0.75627  0.10370  1.0000
  H   H871      1.0  0.45529  0.76039  0.19634  1.0000
  C   C1110     1.0  0.41458  0.95499  0.99893  1.0000
  H   H872      1.0  0.51153  0.64806  0.29874  1.0000
  Fe  Fe110     1.0  0.44515  0.96256  0.23375  1.0000
  C   C1111     1.0  0.48845  0.73111  0.97288  1.0000
  C   C1112     1.0  0.43996  0.84420  0.09514  1.0000
  C   C1113     1.0  0.43232  0.86607  0.07782  1.0000
  C   C1114     1.0  0.45641  0.89408  0.06104  1.0000
  C   C1115     1.0  0.48815  0.90005  0.06073  1.0000
  C   C1116     1.0  0.49580  0.87789  0.07702  1.0000
  C   C1117     1.0  0.47183  0.85010  0.09424  1.0000
  S   S217      1.0  0.55410  0.97622  0.40023  1.0000
  C   C1118     1.0  0.57222  0.85574  0.14987  1.0000
  H   H873      1.0  0.55382  0.83834  0.06473  1.0000
  C   C1119     1.0  0.38612  0.86038  0.18658  1.0000
  H   H874      1.0  0.45372  0.71794  0.15436  1.0000
  H   H875      1.0  0.43399  0.71550  0.09511  1.0000
  H   H876      1.0  0.41467  0.75418  0.07794  1.0000
  C   C1120     1.0  0.46017  0.97030  0.11660  1.0000
  H   H877      1.0  0.41804  0.50031  0.12823  1.0000
  C   C1121     1.0  0.55342  0.84358  0.11965  1.0000
  H   H878      1.0  0.55725  0.94917  0.33336  1.0000
  Fe  Fe111     1.0  0.54847  0.53237  0.04454  1.0000
  C   C1122     1.0  0.57304  0.91609  0.35421  1.0000
  H   H879      1.0  0.47834  0.83352  0.10707  1.0000
  C   C1123     1.0  0.39369  0.81922  0.15324  1.0000
  H   H880      1.0  0.46919  0.55516  0.44153  1.0000
  H   H881      1.0  0.50835  0.49687  0.20761  1.0000
  H   H882      1.0  0.42251  0.75533  0.44303  1.0000
  C   C1124     1.0  0.56909  0.62891  0.32798  1.0000
  C   C1125     1.0  0.50377  0.70224  0.45278  1.0000
  C   C1126     1.0  0.50832  0.89224  0.46578  1.0000
  H   H883      1.0  0.45650  0.68764  0.00269  1.0000
  C   C1127     1.0  0.51460  0.68005  0.46204  1.0000
  H   H884      1.0  0.38796  0.87036  0.37509  1.0000
  Fe  Fe112     1.0  0.57512  0.51798  0.36983  1.0000
  H   H885      1.0  0.40771  0.86141  0.07718  1.0000
  C   C1128     1.0  0.57279  0.77127  0.08267  1.0000
  C   C1129     1.0  0.38197  0.78538  0.05015  1.0000
  H   H886      1.0  0.43560  0.96235  0.01519  1.0000
  P   P37       1.0  0.52313  0.72541  0.97813  1.0000
  S   S218      1.0  0.52658  0.48549  0.34423  1.0000
  C   C1130     1.0  0.52667  0.66788  0.99451  1.0000
  H   H887      1.0  0.49266  0.96596  0.19225  1.0000
  S   S219      1.0  0.49367  0.98226  0.25833  1.0000
  Fe  Fe113     1.0  0.37779  0.70505  0.25711  1.0000
  C   C1131     1.0  0.51006  0.68063  0.97587  1.0000
  C   C1132     1.0  0.51522  0.98156  0.11003  1.0000
  H   H888      1.0  0.57402  0.94305  0.98041  1.0000
  C   C1133     1.0  0.48664  0.97786  0.09567  1.0000
  H   H889      1.0  0.48480  0.98047  0.06852  1.0000
  S   S220      1.0  0.43635  0.48642  0.00412  1.0000
  H   H890      1.0  0.53948  0.98045  0.15601  1.0000
  Fe  Fe114     1.0  0.37680  0.63655  0.26809  1.0000
  S   S221      1.0  0.42960  0.48305  0.28214  1.0000
  H   H891      1.0  0.38768  0.49231  0.43133  1.0000
  C   C1134     1.0  0.57534  0.69412  0.12027  1.0000
  C   C1135     1.0  0.37651  0.97437  0.43145  1.0000
  C   C1136     1.0  0.37660  0.79492  0.17795  1.0000
  C   C1137     1.0  0.56865  0.48533  0.25911  1.0000
  C   C1138     1.0  0.49025  0.61120  0.97155  1.0000
  H   H892      1.0  0.40279  0.49350  0.68734  1.0000
  H   H893      1.0  0.41256  0.94049  0.47913  1.0000
  C   C1139     1.0  0.39859  0.56785  0.73326  1.0000
  C   C1140     1.0  0.38984  0.76944  0.74437  1.0000
  H   H894      1.0  0.39844  0.83687  0.62178  1.0000
  C   C1141     1.0  0.38989  0.96780  0.49945  1.0000
  C   C1142     1.0  0.48753  0.86435  0.48535  1.0000
  C   C1143     1.0  0.45985  0.55490  0.49543  1.0000
  S   S222      1.0  0.44081  0.73211  0.87242  1.0000
  C   C1144     1.0  0.47680  0.73880  0.85143  1.0000
  C   C1145     1.0  0.50557  0.77035  0.85609  1.0000
  C   C1146     1.0  0.47740  0.71427  0.82969  1.0000
  H   H895      1.0  0.50554  0.78958  0.87281  1.0000
  H   H896      1.0  0.45561  0.68992  0.82570  1.0000
  H   H897      1.0  0.55695  0.59783  0.53727  1.0000
  C   C1147     1.0  0.48368  0.65832  0.95462  1.0000
  H   H898      1.0  0.40912  0.56623  0.61967  1.0000
  C   C1148     1.0  0.41897  0.52774  0.73111  1.0000
  C   C1149     1.0  0.41709  0.55453  0.74760  1.0000
  H   H899      1.0  0.45353  0.60662  0.93608  1.0000
  C   C1150     1.0  0.55351  0.68111  0.56840  1.0000
  C   C1151     1.0  0.37846  0.82645  0.63934  1.0000
  P   P38       1.0  0.55233  0.66070  0.50029  1.0000
  Fe  Fe115     1.0  0.46578  0.48851  0.71684  1.0000
  C   C1152     1.0  0.40309  0.78766  0.71452  1.0000
  C   C1153     1.0  0.42115  0.82382  0.71589  1.0000
  C   C1154     1.0  0.42615  0.84173  0.74723  1.0000
  C   C1155     1.0  0.41301  0.82321  0.77668  1.0000
  C   C1156     1.0  0.39478  0.78765  0.77519  1.0000
  C   C1157     1.0  0.51647  0.97043  0.56889  1.0000
  H   H900      1.0  0.41668  0.83644  0.80105  1.0000
  C   C1158     1.0  0.49368  0.96336  0.50163  1.0000
  C   C1159     1.0  0.38239  0.52663  0.68670  1.0000
  H   H901      1.0  0.55541  0.97387  0.81711  1.0000
  H   H902      1.0  0.39948  0.77388  0.69061  1.0000
  H   H903      1.0  0.55381  0.77035  0.50364  1.0000
  C   C1160     1.0  0.54244  0.74489  0.49250  1.0000
  H   H904      1.0  0.48502  0.96053  0.47559  1.0000
  H   H905      1.0  0.47102  0.66771  0.93924  1.0000
  C   C1161     1.0  0.55026  0.83617  0.49696  1.0000
  H   H906      1.0  0.41785  0.76255  0.61782  1.0000
  S   S223      1.0  0.44103  0.51013  0.75058  1.0000
  H   H907      1.0  0.43402  0.92747  0.80493  1.0000
  S   S224      1.0  0.46026  0.91876  0.59195  1.0000
  C   C1162     1.0  0.38512  0.56071  0.57123  1.0000
  Fe  Fe116     1.0  0.47371  0.92995  0.71525  1.0000
  S   S225      1.0  0.44809  0.88692  0.75230  1.0000
  S   S226      1.0  0.49679  0.52453  0.67737  1.0000
  H   H908      1.0  0.52595  0.97253  0.59440  1.0000
  C   C1163     1.0  0.53271  0.52309  0.51829  1.0000
  C   C1164     1.0  0.50113  0.51184  0.50652  1.0000
  C   C1165     1.0  0.41231  0.75583  0.53802  1.0000
  C   C1166     1.0  0.48208  0.50023  0.56434  1.0000
  C   C1167     1.0  0.51397  0.51397  0.57634  1.0000
  C   C1168     1.0  0.53919  0.52447  0.55323  1.0000
  H   H909      1.0  0.55869  0.94548  0.52855  1.0000
  H   H910      1.0  0.49627  0.51222  0.47973  1.0000
  C   C1169     1.0  0.53427  0.77757  0.83886  1.0000
  C   C1170     1.0  0.53467  0.75327  0.81661  1.0000
  C   C1171     1.0  0.50603  0.72157  0.81230  1.0000
  H   H911      1.0  0.55598  0.80203  0.84265  1.0000
  H   H912      1.0  0.50592  0.70250  0.79522  1.0000
  H   H913      1.0  0.43008  0.56515  0.77152  1.0000
  H   H914      1.0  0.43124  0.83770  0.69290  1.0000
  H   H915      1.0  0.52911  0.81161  0.49141  1.0000
  C   C1172     1.0  0.47387  0.94058  0.52628  1.0000
  C   C1173     1.0  0.55065  0.72800  0.91454  1.0000
  H   H916      1.0  0.54179  0.83522  0.55090  1.0000
  Fe  Fe117     1.0  0.38591  0.69498  0.87881  1.0000
  C   C1174     1.0  0.53950  0.69006  0.48671  1.0000
  C   C1175     1.0  0.51883  0.89515  0.53626  1.0000
  H   H917      1.0  0.39282  0.81891  0.49348  1.0000
  S   S227      1.0  0.56987  0.76079  0.79339  1.0000
  C   C1176     1.0  0.56875  0.54877  0.81442  1.0000
  H   H918      1.0  0.38653  0.49382  0.92865  1.0000
  H   H919      1.0  0.51317  0.77607  0.94241  1.0000
  C   C1177     1.0  0.55404  0.72318  0.50105  1.0000
  C   C1178     1.0  0.57383  0.60300  0.55817  1.0000
  C   C1179     1.0  0.48522  0.94461  0.56005  1.0000
  C   C1180     1.0  0.38050  0.55345  0.70306  1.0000
  S   S228      1.0  0.50715  0.92986  0.67556  1.0000
  C   C1181     1.0  0.55155  0.74622  0.94437  1.0000
  C   C1182     1.0  0.57346  0.55534  0.84963  1.0000
  H   H920      1.0  0.43290  0.69723  0.74544  1.0000
  H   H921      1.0  0.41750  0.73793  0.55032  1.0000
  S   S229      1.0  0.44563  0.94501  0.68065  1.0000
  H   H922      1.0  0.57600  0.60232  0.64484  1.0000
  S   S230      1.0  0.52214  0.51585  0.95002  1.0000
  C   C1183     1.0  0.57171  0.91881  0.75073  1.0000
  C   C1184     1.0  0.56086  0.78249  0.64138  1.0000
  C   C1185     1.0  0.47377  0.62371  0.95261  1.0000
  C   C1186     1.0  0.40279  0.52250  0.59055  1.0000
  H   H923      1.0  0.44974  0.92037  0.51939  1.0000
  C   C1187     1.0  0.43425  0.51237  0.90926  1.0000
  H   H924      1.0  0.41763  0.94273  0.85962  1.0000
  H   H925      1.0  0.53146  0.80541  0.63416  1.0000
  C   C1188     1.0  0.40497  0.94095  0.77388  1.0000
  S   S231      1.0  0.56418  0.53493  0.48975  1.0000
  H   H926      1.0  0.47935  0.53031  0.88308  1.0000
  C   C1189     1.0  0.41719  0.93698  0.80483  1.0000
  C   C1190     1.0  0.43939  0.78545  0.62701  1.0000
  C   C1191     1.0  0.44923  0.81635  0.61142  1.0000
  C   C1192     1.0  0.47701  0.84568  0.62340  1.0000
  C   C1193     1.0  0.49512  0.84413  0.65080  1.0000
  C   C1194     1.0  0.48488  0.81337  0.66735  1.0000
  C   C1195     1.0  0.45708  0.78395  0.65485  1.0000
  P   P39       1.0  0.50852  0.81118  0.70258  1.0000
  C   C1196     1.0  0.48139  0.78227  0.73369  1.0000
  C   C1197     1.0  0.53375  0.79461  0.68736  1.0000
  C   C1198     1.0  0.54676  0.78141  0.71066  1.0000
  H   H927      1.0  0.53305  0.70131  0.91109  1.0000
  H   H928      1.0  0.39569  0.96580  0.52576  1.0000
  C   C1199     1.0  0.39098  0.95376  0.94389  1.0000
  C   C1200     1.0  0.54095  0.79512  0.65259  1.0000
  C   C1201     1.0  0.47466  0.79430  0.76413  1.0000
  C   C1202     1.0  0.45307  0.77147  0.78739  1.0000
  C   C1203     1.0  0.43765  0.73661  0.78030  1.0000
  C   C1204     1.0  0.44476  0.72434  0.75059  1.0000
  C   C1205     1.0  0.46677  0.74702  0.72752  1.0000
  C   C1206     1.0  0.53336  0.85305  0.72210  1.0000
  C   C1207     1.0  0.51959  0.87333  0.73006  1.0000
  H   H929      1.0  0.45521  0.77650  0.50794  1.0000
  C   C1208     1.0  0.53934  0.92262  0.51650  1.0000
  C   C1209     1.0  0.40785  0.94543  0.83557  1.0000
  H   H930      1.0  0.41245  0.93452  0.75013  1.0000
  H   H931      1.0  0.48433  0.86978  0.61168  1.0000
  H   H932      1.0  0.51691  0.86708  0.65917  1.0000
  H   H933      1.0  0.44866  0.75979  0.66663  1.0000
  H   H934      1.0  0.54171  0.78098  0.73767  1.0000
  C   C1210     1.0  0.49100  0.75872  0.95500  1.0000
  H   H935      1.0  0.52773  0.92134  0.75058  1.0000
  C   C1211     1.0  0.43521  0.74145  0.96780  1.0000
  Fe  Fe118     1.0  0.48096  0.94743  0.64175  1.0000
  H   H936      1.0  0.48564  0.82108  0.77021  1.0000
  H   H937      1.0  0.44770  0.78070  0.81080  1.0000
  H   H938      1.0  0.42010  0.71912  0.79795  1.0000
  H   H939      1.0  0.47207  0.73697  0.70472  1.0000
  H   H940      1.0  0.49403  0.86388  0.72520  1.0000
  H   H941      1.0  0.47732  0.84531  0.53675  1.0000
  H   H942      1.0  0.45799  0.56077  0.54986  1.0000
  S   S232      1.0  0.38093  0.66526  0.67983  1.0000
  H   H943      1.0  0.45107  0.48969  0.52034  1.0000
  C   C1212     1.0  0.49305  0.86603  0.52081  1.0000
  C   C1213     1.0  0.57397  0.76969  0.66482  1.0000
  C   C1214     1.0  0.38628  0.95784  0.83538  1.0000
  H   H944      1.0  0.37653  0.86232  0.80207  1.0000
  H   H945      1.0  0.43532  0.81767  0.59016  1.0000
  H   H946      1.0  0.57141  0.73035  0.86515  1.0000
  H   H947      1.0  0.51923  0.51566  0.60332  1.0000
  H   H948      1.0  0.52258  0.89685  0.56365  1.0000
  C   C1215     1.0  0.55736  0.84956  0.53035  1.0000
  Fe  Fe119     1.0  0.53356  0.50850  0.68898  1.0000
  H   H949      1.0  0.37976  0.96455  0.85946  1.0000
  H   H950      1.0  0.39764  0.58862  0.74606  1.0000
  C   C1216     1.0  0.40188  0.51427  0.70023  1.0000
  C   C1217     1.0  0.43356  0.77761  0.51389  1.0000
  C   C1218     1.0  0.39855  0.80140  0.50567  1.0000
  C   C1219     1.0  0.47102  0.57222  0.52688  1.0000
  H   H951      1.0  0.39743  0.51018  0.82004  1.0000
  C   C1220     1.0  0.39058  0.50290  0.56035  1.0000
  C   C1221     1.0  0.40004  0.55134  0.59601  1.0000
  H   H952      1.0  0.56367  0.53356  0.56240  1.0000
  H   H953      1.0  0.38297  0.58309  0.57569  1.0000
  H   H954      1.0  0.55297  0.54917  0.86585  1.0000
  C   C1222     1.0  0.38357  0.95361  0.77359  1.0000
  C   C1223     1.0  0.45382  0.52228  0.88052  1.0000
  H   H955      1.0  0.43813  0.53026  0.49395  1.0000
  H   H956      1.0  0.45537  0.52876  0.82605  1.0000
  H   H957      1.0  0.50738  0.61669  0.55346  1.0000
  H   H958      1.0  0.38480  0.77405  0.79843  1.0000
  H   H959      1.0  0.39389  0.96026  0.91733  1.0000
  C   C1224     1.0  0.44035  0.52147  0.84850  1.0000
  C   C1225     1.0  0.42661  0.80023  0.49716  1.0000
  H   H960      1.0  0.53893  0.59541  0.59674  1.0000
  H   H961      1.0  0.56658  0.78306  0.61457  1.0000
  H   H962      1.0  0.54460  0.53751  0.80318  1.0000
  C   C1226     1.0  0.51675  0.61862  0.49921  1.0000
  C   C1227     1.0  0.49930  0.60400  0.52883  1.0000
  C   C1228     1.0  0.57042  0.67485  0.54260  1.0000
  H   H963      1.0  0.38502  0.87540  0.65389  1.0000
  C   C1229     1.0  0.37736  0.77957  0.52991  1.0000
  H   H964      1.0  0.52917  0.67637  0.56354  1.0000
  H   H965      1.0  0.44454  0.51245  0.93404  1.0000
  C   C1230     1.0  0.53865  0.90597  0.74445  1.0000
  H   H966      1.0  0.41442  0.74495  0.96521  1.0000
  C   C1231     1.0  0.56351  0.60123  0.59173  1.0000
  C   C1232     1.0  0.39922  0.95332  0.47321  1.0000
  C   C1233     1.0  0.41876  0.96349  0.96449  1.0000
  H   H967      1.0  0.46612  0.78432  0.93751  1.0000
  C   C1234     1.0  0.53407  0.92118  0.48132  1.0000
  H   H968      1.0  0.41434  0.51521  0.60989  1.0000
  C   C1235     1.0  0.46444  0.76378  0.95249  1.0000
  C   C1236     1.0  0.38768  0.50154  0.87408  1.0000
  C   C1237     1.0  0.40739  0.51100  0.84521  1.0000
  C   C1238     1.0  0.38412  0.75663  0.54590  1.0000
  S   S233      1.0  0.57209  0.61624  0.95063  1.0000
  H   H969      1.0  0.48293  0.58447  0.96971  1.0000
  C   C1239     1.0  0.47567  0.49988  0.52955  1.0000
  H   H970      1.0  0.55525  0.69972  0.61994  1.0000
  C   C1240     1.0  0.56656  0.86597  0.72902  1.0000
  H   H971      1.0  0.57440  0.73253  0.51879  1.0000
  C   C1241     1.0  0.56688  0.76913  0.69941  1.0000
  C   C1242     1.0  0.40129  0.50192  0.90609  1.0000
  C   C1243     1.0  0.57244  0.74432  0.88838  1.0000
  C   C1244     1.0  0.56833  0.69470  0.60026  1.0000
  H   H972      1.0  0.56766  0.60761  0.47911  1.0000
  H   H973      1.0  0.57540  0.79598  0.96981  1.0000
  C   C1245     1.0  0.57441  0.78108  0.94738  1.0000
  Fe  Fe120     1.0  0.62664  0.21926  0.29323  1.0000
  S   S234      1.0  0.61882  0.25321  0.32991  1.0000
  S   S235      1.0  0.64856  0.18534  0.30596  1.0000
  Fe  Fe121     1.0  0.59889  0.24006  0.23487  1.0000
  H   H974      1.0  0.57988  0.46529  0.17866  1.0000
  C   C1246     1.0  0.72033  0.46225  0.11898  1.0000
  Fe  Fe122     1.0  0.63947  0.29335  0.28990  1.0000
  S   S236      1.0  0.68296  0.34818  0.29174  1.0000
  S   S237      1.0  0.64953  0.25977  0.25475  1.0000
  S   S238      1.0  0.57670  0.20203  0.40237  1.0000
  C   C1247     1.0  0.57874  0.41208  0.25627  1.0000
  S   S239      1.0  0.72567  0.00262  0.35796  1.0000
  C   C1248     1.0  0.70407  0.98799  0.25845  1.0000
  H   H975      1.0  0.59325  0.43165  0.38440  1.0000
  S   S240      1.0  0.74421  0.08831  0.38685  1.0000
  S   S241      1.0  0.69460  0.36739  0.11451  1.0000
  S   S242      1.0  0.74907  0.11470  0.25210  1.0000
  Fe  Fe123     1.0  0.67466  0.32771  0.42951  1.0000
  S   S243      1.0  0.64972  0.35181  0.45825  1.0000
  S   S244      1.0  0.73081  0.35197  0.43071  1.0000
  Fe  Fe124     1.0  0.60855  0.26104  0.41294  1.0000
  C   C1249     1.0  0.59528  0.00719  0.25638  1.0000
  C   C1250     1.0  0.62591  0.06683  0.10063  1.0000
  Fe  Fe125     1.0  0.61297  0.33266  0.41411  1.0000
  C   C1251     1.0  0.69273  0.00487  0.23819  1.0000
  C   C1252     1.0  0.60572  0.11011  0.25610  1.0000
  S   S245      1.0  0.63952  0.31086  0.38497  1.0000
  S   S246      1.0  0.64566  0.27773  0.45603  1.0000
  H   H976      1.0  0.66173  0.14739  0.19458  1.0000
  S   S247      1.0  0.62392  0.03330  0.34656  1.0000
  C   C1253     1.0  0.71417  0.09042  0.27783  1.0000
  C   C1254     1.0  0.68497  0.08965  0.26976  1.0000
  C   C1255     1.0  0.65728  0.07264  0.29036  1.0000
  C   C1256     1.0  0.65763  0.05435  0.31842  1.0000
  C   C1257     1.0  0.68594  0.05273  0.32463  1.0000
  C   C1258     1.0  0.71407  0.07091  0.30492  1.0000
  H   H977      1.0  0.68399  0.10277  0.24772  1.0000
  H   H978      1.0  0.63566  0.07373  0.28464  1.0000
  H   H979      1.0  0.68629  0.03745  0.34505  1.0000
  H   H980      1.0  0.73545  0.06932  0.31046  1.0000
  C   C1259     1.0  0.61765  0.26958  0.15982  1.0000
  C   C1260     1.0  0.63614  0.29854  0.18048  1.0000
  C   C1261     1.0  0.65985  0.32840  0.16617  1.0000
  C   C1262     1.0  0.66532  0.32931  0.13119  1.0000
  C   C1263     1.0  0.64716  0.30035  0.11029  1.0000
  C   C1264     1.0  0.62293  0.27044  0.12465  1.0000
  H   H981      1.0  0.63198  0.29816  0.20754  1.0000
  H   H982      1.0  0.67379  0.35086  0.18228  1.0000
  S   S248      1.0  0.69090  0.44582  0.98611  1.0000
  C   C1265     1.0  0.73164  0.44992  0.31575  1.0000
  C   C1266     1.0  0.72273  0.41727  0.30223  1.0000
  C   C1267     1.0  0.69190  0.38899  0.30811  1.0000
  C   C1268     1.0  0.66977  0.39411  0.32698  1.0000
  C   C1269     1.0  0.67860  0.42684  0.34025  1.0000
  C   C1270     1.0  0.61300  0.13626  0.41480  1.0000
  H   H983      1.0  0.74010  0.41382  0.28759  1.0000
  H   H984      1.0  0.64590  0.37284  0.33173  1.0000
  H   H985      1.0  0.66128  0.43018  0.35519  1.0000
  C   C1271     1.0  0.68443  0.18395  0.31627  1.0000
  C   C1272     1.0  0.68149  0.15275  0.32513  1.0000
  C   C1273     1.0  0.70908  0.14973  0.33182  1.0000
  C   C1274     1.0  0.74018  0.17752  0.32818  1.0000
  C   C1275     1.0  0.74317  0.20896  0.32001  1.0000
  C   C1276     1.0  0.71555  0.21231  0.31458  1.0000
  H   H986      1.0  0.65761  0.13058  0.32656  1.0000
  H   H987      1.0  0.70626  0.12559  0.33884  1.0000
  H   H988      1.0  0.77016  0.02324  0.15304  1.0000
  H   H989      1.0  0.71834  0.23651  0.30793  1.0000
  Fe  Fe126     1.0  0.69900  0.33299  0.99088  1.0000
  H   H990      1.0  0.72160  0.13251  0.42185  1.0000
  C   C1277     1.0  0.63902  0.47533  0.08546  1.0000
  H   H991      1.0  0.75049  0.21159  0.39104  1.0000
  H   H992      1.0  0.60873  0.24789  0.10873  1.0000
  H   H993      1.0  0.76930  0.48066  0.10377  1.0000
  H   H994      1.0  0.76861  0.14058  0.15766  1.0000
  H   H995      1.0  0.62471  0.04767  0.42365  1.0000
  H   H996      1.0  0.61238  0.40676  0.45914  1.0000
  C   C1278     1.0  0.67168  0.23697  0.10594  1.0000
  C   C1279     1.0  0.68456  0.25788  0.13520  1.0000
  C   C1280     1.0  0.67556  0.24409  0.16751  1.0000
  C   C1281     1.0  0.65398  0.20931  0.17068  1.0000
  C   C1282     1.0  0.64172  0.18799  0.14139  1.0000
  C   C1283     1.0  0.65018  0.20220  0.10901  1.0000
  P   P40       1.0  0.61453  0.14281  0.14433  1.0000
  C   C1284     1.0  0.67325  0.08954  0.41893  1.0000
  C   C1285     1.0  0.61063  0.12977  0.18805  1.0000
  C   C1286     1.0  0.63825  0.13521  0.20638  1.0000
  C   C1287     1.0  0.63581  0.12603  0.24049  1.0000
  H   H997      1.0  0.77486  0.27745  0.40621  1.0000
  H   H998      1.0  0.60394  0.10338  0.28273  1.0000
  C   C1288     1.0  0.61579  0.16264  0.43595  1.0000
  S   S249      1.0  0.66668  0.34976  0.01681  1.0000
  S   S250      1.0  0.73505  0.41806  0.03970  1.0000
  H   H999      1.0  0.77463  0.08993  0.16161  1.0000
  H   H1000     1.0  0.66728  0.08047  0.17776  1.0000
  H   H1001     1.0  0.70029  0.28499  0.13281  1.0000
  H   H1002     1.0  0.68434  0.26059  0.19010  1.0000
  H   H1003     1.0  0.64636  0.19949  0.19594  1.0000
  H   H1004     1.0  0.63999  0.18634  0.08611  1.0000
  H   H1005     1.0  0.71235  0.15781  0.22885  1.0000
  H   H1006     1.0  0.65724  0.13221  0.25550  1.0000
  H   H1007     1.0  0.75886  0.40316  0.12153  1.0000
  C   C1289     1.0  0.61979  0.00452  0.23963  1.0000
  C   C1290     1.0  0.59086  0.48016  0.08963  1.0000
  S   S251      1.0  0.73374  0.34609  0.03538  1.0000
  C   C1291     1.0  0.76077  0.19719  0.21878  1.0000
  H   H1008     1.0  0.67946  0.16382  0.11705  1.0000
  Fe  Fe127     1.0  0.70382  0.36624  0.05895  1.0000
  C   C1292     1.0  0.61255  0.08468  0.11670  1.0000
  C   C1293     1.0  0.61964  0.20125  0.01693  1.0000
  C   C1294     1.0  0.63923  0.41632  0.25864  1.0000
  S   S252      1.0  0.58867  0.23237  0.17849  1.0000
  C   C1295     1.0  0.63720  0.45657  0.43862  1.0000
  C   C1296     1.0  0.73671  0.44009  0.17778  1.0000
  C   C1297     1.0  0.67707  0.11888  0.09597  1.0000
  H   H1009     1.0  0.74601  0.30176  0.45668  1.0000
  C   C1298     1.0  0.73622  0.29870  0.34732  1.0000
  C   C1299     1.0  0.64069  0.13748  0.40166  1.0000
  C   C1300     1.0  0.72701  0.42567  0.40236  1.0000
  H   H1010     1.0  0.76950  0.17949  0.21493  1.0000
  H   H1011     1.0  0.72172  0.01451  0.43547  1.0000
  C   C1301     1.0  0.61523  0.43191  0.46038  1.0000
  C   C1302     1.0  0.65456  0.44776  0.98193  1.0000
  C   C1303     1.0  0.76536  0.32496  0.19812  1.0000
  H   H1012     1.0  0.63149  0.38768  0.11027  1.0000
  H   H1013     1.0  0.76366  0.35377  0.10367  1.0000
  H   H1014     1.0  0.64339  0.25608  0.02236  1.0000
  C   C1304     1.0  0.64625  0.19069  0.44344  1.0000
  H   H1015     1.0  0.68714  0.42111  0.19225  1.0000
  C   C1305     1.0  0.59810  0.37672  0.15165  1.0000
  C   C1306     1.0  0.73856  0.24236  0.23370  1.0000
  C   C1307     1.0  0.69647  0.00136  0.44273  1.0000
  H   H1016     1.0  0.74242  0.43080  0.20047  1.0000
  C   C1308     1.0  0.67339  0.98872  0.20902  1.0000
  H   H1017     1.0  0.71376  0.47000  0.09574  1.0000
  Fe  Fe128     1.0  0.76643  0.05722  0.36859  1.0000
  H   H1018     1.0  0.73475  0.37354  0.35862  1.0000
  C   C1309     1.0  0.75833  0.37803  0.36679  1.0000
  H   H1019     1.0  0.57651  0.10680  0.08157  1.0000
  S   S253      1.0  0.59033  0.27627  0.26651  1.0000
  C   C1310     1.0  0.57915  0.02160  0.24014  1.0000
  C   C1311     1.0  0.58044  0.11388  0.20403  1.0000
  C   C1312     1.0  0.60271  0.43480  0.27931  1.0000
  C   C1313     1.0  0.63292  0.43696  0.28050  1.0000
  C   C1314     1.0  0.67444  0.19183  0.43112  1.0000
  H   H1020     1.0  0.62037  0.37710  0.21957  1.0000
  H   H1021     1.0  0.65117  0.45437  0.29879  1.0000
  S   S254      1.0  0.58775  0.13141  0.01105  1.0000
  C   C1315     1.0  0.70435  0.27815  0.35740  1.0000
  C   C1316     1.0  0.65790  0.24081  0.97647  1.0000
  H   H1022     1.0  0.66809  0.06990  0.07742  1.0000
  S   S255      1.0  0.59911  0.37177  0.39353  1.0000
  C   C1317     1.0  0.72265  0.25541  0.40228  1.0000
  C   C1318     1.0  0.69744  0.25646  0.38465  1.0000
  P   P41       1.0  0.71374  0.22903  0.43904  1.0000
  H   H1023     1.0  0.60614  0.19706  0.04018  1.0000
  C   C1319     1.0  0.60926  0.46897  0.07187  1.0000
  H   H1024     1.0  0.67272  0.44109  0.14033  1.0000
  C   C1320     1.0  0.67136  0.16517  0.40978  1.0000
  S   S256      1.0  0.77590  0.17445  0.33360  1.0000
  H   H1025     1.0  0.66236  0.41723  0.26041  1.0000
  C   C1321     1.0  0.58614  0.03152  0.20636  1.0000
  C   C1322     1.0  0.74433  0.21702  0.44501  1.0000
  H   H1026     1.0  0.63296  0.99492  0.25359  1.0000
  H   H1027     1.0  0.60825  0.40318  0.15937  1.0000
  H   H1028     1.0  0.68500  0.27925  0.34410  1.0000
  C   C1323     1.0  0.75855  0.21071  0.41665  1.0000
  Fe  Fe129     1.0  0.76266  0.39724  0.01208  1.0000
  H   H1029     1.0  0.67236  0.24071  0.39177  1.0000
  H   H1030     1.0  0.63816  0.11733  0.38435  1.0000
  H   H1031     1.0  0.69240  0.16616  0.39839  1.0000
  Fe  Fe130     1.0  0.69984  0.40144  0.99558  1.0000
  C   C1324     1.0  0.58514  0.48018  0.20204  1.0000
  H   H1032     1.0  0.65147  0.30110  0.08316  1.0000
  H   H1033     1.0  0.59555  0.18367  0.33703  1.0000
  S   S257      1.0  0.58108  0.28308  0.43995  1.0000
  H   H1034     1.0  0.67735  0.41129  0.41111  1.0000
  C   C1325     1.0  0.70185  0.42402  0.42173  1.0000
  H   H1035     1.0  0.72733  0.03423  0.17334  1.0000
  H   H1036     1.0  0.65056  0.45016  0.42043  1.0000
  H   H1037     1.0  0.73542  0.34125  0.17228  1.0000
  H   H1038     1.0  0.67760  0.24783  0.08085  1.0000
  H   H1039     1.0  0.67449  0.08454  0.39193  1.0000
  H   H1040     1.0  0.71473  0.13554  0.16589  1.0000
  C   C1326     1.0  0.58509  0.39201  0.23347  1.0000
  H   H1041     1.0  0.61442  0.03485  0.16278  1.0000
  C   C1327     1.0  0.71704  0.20738  0.23334  1.0000
  C   C1328     1.0  0.75182  0.35029  0.25747  1.0000
  H   H1042     1.0  0.60057  0.45564  0.04740  1.0000
  H   H1043     1.0  0.59766  0.45030  0.29686  1.0000
  P   P42       1.0  0.65878  0.01111  0.18357  1.0000
  C   C1329     1.0  0.62745  0.01497  0.20584  1.0000
  C   C1330     1.0  0.57804  0.10399  0.23785  1.0000
  H   H1044     1.0  0.68795  0.43504  0.46991  1.0000
  H   H1045     1.0  0.60862  0.32765  0.09211  1.0000
  C   C1331     1.0  0.60977  0.02769  0.18911  1.0000
  C   C1332     1.0  0.61120  0.36818  0.12386  1.0000
  H   H1046     1.0  0.61136  0.03967  0.09613  1.0000
  C   C1333     1.0  0.65575  0.47895  0.98850  1.0000
  C   C1334     1.0  0.74587  0.33992  0.19644  1.0000
  C   C1335     1.0  0.69328  0.05260  0.17560  1.0000
  C   C1336     1.0  0.69016  0.08164  0.17356  1.0000
  C   C1337     1.0  0.71717  0.11318  0.16676  1.0000
  C   C1338     1.0  0.74749  0.11607  0.16208  1.0000
  C   C1339     1.0  0.75090  0.08745  0.16431  1.0000
  C   C1340     1.0  0.72400  0.05593  0.17111  1.0000
  H   H1047     1.0  0.65343  0.46701  0.07126  1.0000
  H   H1048     1.0  0.72185  0.41372  0.37725  1.0000
  H   H1049     1.0  0.69207  0.19783  0.24063  1.0000
  C   C1341     1.0  0.65803  0.08388  0.09012  1.0000
  C   C1342     1.0  0.76228  0.36849  0.39947  1.0000
  H   H1050     1.0  0.69866  0.03042  0.24551  1.0000
  C   C1343     1.0  0.66395  0.13686  0.11220  1.0000
  H   H1051     1.0  0.68104  0.01790  0.39915  1.0000
  C   C1344     1.0  0.66440  0.99061  0.11742  1.0000
  H   H1052     1.0  0.76698  0.23089  0.31791  1.0000
  C   C1345     1.0  0.64522  0.06876  0.43687  1.0000
  S   S258      1.0  0.59409  0.04820  0.01417  1.0000
  H   H1053     1.0  0.70207  0.13207  0.08797  1.0000
  C   C1346     1.0  0.77144  0.25505  0.22643  1.0000
  H   H1054     1.0  0.74109  0.31576  0.32662  1.0000
  H   H1055     1.0  0.58960  0.99929  0.28259  1.0000
  H   H1056     1.0  0.72957  0.25916  0.24120  1.0000
  H   H1057     1.0  0.74594  0.35943  0.28055  1.0000
  C   C1347     1.0  0.76153  0.29791  0.36460  1.0000
  C   C1348     1.0  0.70973  0.45490  0.33524  1.0000
  C   C1349     1.0  0.63134  0.12000  0.12213  1.0000
  C   C1350     1.0  0.76043  0.45741  0.15324  1.0000
  C   C1351     1.0  0.75486  0.27681  0.39240  1.0000
  C   C1352     1.0  0.61538  0.39375  0.23534  1.0000
  C   C1353     1.0  0.61543  0.17310  0.99700  1.0000
  C   C1354     1.0  0.69969  0.11675  0.43575  1.0000
  H   H1058     1.0  0.76396  0.00897  0.21440  1.0000
  H   H1059     1.0  0.72344  0.36347  0.22513  1.0000
  C   C1355     1.0  0.77100  0.33512  0.25933  1.0000
  C   C1356     1.0  0.69715  0.44580  0.14396  1.0000
  C   C1357     1.0  0.73913  0.35258  0.22614  1.0000
  C   C1358     1.0  0.70530  0.43461  0.17328  1.0000
  C   C1359     1.0  0.72832  0.18484  0.22662  1.0000
  C   C1360     1.0  0.64079  0.23483  0.00688  1.0000
  H   H1060     1.0  0.71814  0.00036  0.28157  1.0000
  C   C1361     1.0  0.59839  0.33420  0.11362  1.0000
  H   H1061     1.0  0.75563  0.47112  0.31171  1.0000
  H   H1062     1.0  0.69034  0.00480  0.12187  1.0000
  C   C1362     1.0  0.64302  0.98908  0.14283  1.0000
  C   C1363     1.0  0.67354  0.00330  0.42208  1.0000
  C   C1364     1.0  0.73987  0.45420  0.46846  1.0000
  H   H1063     1.0  0.76969  0.31462  0.17495  1.0000
  H   H1064     1.0  0.59409  0.16221  0.44484  1.0000
  H   H1065     1.0  0.58756  0.07092  0.12475  1.0000
  C   C1365     1.0  0.70811  0.43790  0.45487  1.0000
  H   H1066     1.0  0.58923  0.11565  0.40737  1.0000
  C   C1366     1.0  0.62826  0.48249  0.98306  1.0000
  C   C1367     1.0  0.75871  0.44256  0.41529  1.0000
  C   C1368     1.0  0.75187  0.46808  0.12356  1.0000
  H   H1067     1.0  0.62316  0.98671  0.41368  1.0000
  C   C1369     1.0  0.76525  0.45702  0.44819  1.0000
  C   C1370     1.0  0.64084  0.98568  0.43041  1.0000
  H   H1068     1.0  0.64738  0.21193  0.45757  1.0000
  C   C1371     1.0  0.69821  0.12320  0.47053  1.0000
  C   C1372     1.0  0.61510  0.40896  0.54800  1.0000
  H   H1069     1.0  0.74116  0.36797  0.89500  1.0000
  C   C1373     1.0  0.73200  0.28787  0.47833  1.0000
  C   C1374     1.0  0.71348  0.25233  0.47681  1.0000
  C   C1375     1.0  0.61643  0.99819  0.60156  1.0000
  C   C1376     1.0  0.57898  0.37924  0.70731  1.0000
  H   H1070     1.0  0.71950  0.14348  0.48305  1.0000
  H   H1071     1.0  0.62443  0.99478  0.51605  1.0000
  H   H1072     1.0  0.74460  0.21966  0.50039  1.0000
  H   H1073     1.0  0.74594  0.46273  0.89888  1.0000
  H   H1074     1.0  0.66388  0.13470  0.78252  1.0000
  C   C1377     1.0  0.58348  0.40375  0.54758  1.0000
  Fe  Fe131     1.0  0.68351  0.29719  0.78670  1.0000
  S   S259      1.0  0.66343  0.31141  0.83205  1.0000
  S   S260      1.0  0.70823  0.26449  0.78247  1.0000
  Fe  Fe132     1.0  0.66157  0.33475  0.73738  1.0000
  S   S261      1.0  0.64044  0.35167  0.78005  1.0000
  S   S262      1.0  0.66623  0.35466  0.68294  1.0000
  Fe  Fe133     1.0  0.68606  0.36410  0.80993  1.0000
  S   S263      1.0  0.71698  0.41057  0.84598  1.0000
  Fe  Fe134     1.0  0.61913  0.29813  0.79900  1.0000
  S   S264      1.0  0.70828  0.35025  0.76639  1.0000
  S   S265      1.0  0.63821  0.28093  0.75448  1.0000
  C   C1378     1.0  0.69523  0.25324  0.53440  1.0000
  C   C1379     1.0  0.61663  0.00537  0.56712  1.0000
  H   H1075     1.0  0.61368  0.19734  0.87460  1.0000
  S   S266      1.0  0.60142  0.28780  0.53714  1.0000
  H   H1076     1.0  0.73504  0.22102  0.76961  1.0000
  S   S267      1.0  0.59486  0.00118  0.69621  1.0000
  H   H1077     1.0  0.75365  0.25273  0.89253  1.0000
  H   H1078     1.0  0.70758  0.45826  0.57400  1.0000
  C   C1380     1.0  0.64785  0.33466  0.64291  1.0000
  C   C1381     1.0  0.65900  0.35388  0.61334  1.0000
  C   C1382     1.0  0.64567  0.33963  0.58080  1.0000
  C   C1383     1.0  0.62041  0.30608  0.57741  1.0000
  C   C1384     1.0  0.60874  0.28691  0.60707  1.0000
  C   C1385     1.0  0.62255  0.30096  0.63962  1.0000
  H   H1079     1.0  0.67801  0.38013  0.61570  1.0000
  H   H1080     1.0  0.65428  0.35481  0.55834  1.0000
  P   P43       1.0  0.66153  0.10629  0.84978  1.0000
  H   H1081     1.0  0.61348  0.28581  0.66210  1.0000
  C   C1386     1.0  0.69074  0.11992  0.81594  1.0000
  C   C1387     1.0  0.65192  0.19111  0.85298  1.0000
  C   C1388     1.0  0.62132  0.05182  0.80525  1.0000
  C   C1389     1.0  0.73818  0.45602  0.84430  1.0000
  C   C1390     1.0  0.75207  0.19236  0.56936  1.0000
  H   H1082     1.0  0.62967  0.41682  0.52530  1.0000
  C   C1391     1.0  0.60911  0.39120  0.60669  1.0000
  H   H1083     1.0  0.68715  0.17847  0.83531  1.0000
  H   H1084     1.0  0.73505  0.45875  0.78983  1.0000
  C   C1392     1.0  0.63297  0.17904  0.96690  1.0000
  C   C1393     1.0  0.72845  0.24975  0.81014  1.0000
  C   C1394     1.0  0.73927  0.22830  0.79641  1.0000
  C   C1395     1.0  0.59806  0.42375  0.96386  1.0000
  H   H1085     1.0  0.68737  0.05769  0.50288  1.0000
  P   P44       1.0  0.74751  0.46836  0.51256  1.0000
  C   C1396     1.0  0.73409  0.25865  0.84498  1.0000
  S   S268      1.0  0.72983  0.38389  0.96578  1.0000
  H   H1086     1.0  0.63616  0.06687  0.78464  1.0000
  H   H1087     1.0  0.73432  0.03843  0.58541  1.0000
  H   H1088     1.0  0.72575  0.27480  0.85621  1.0000
  H   H1089     1.0  0.75124  0.41354  0.61925  1.0000
  C   C1397     1.0  0.70748  0.14193  0.75915  1.0000
  C   C1398     1.0  0.69776  0.09377  0.68014  1.0000
  C   C1399     1.0  0.66986  0.09615  0.67339  1.0000
  C   C1400     1.0  0.63832  0.06846  0.67855  1.0000
  C   C1401     1.0  0.63410  0.03773  0.69041  1.0000
  C   C1402     1.0  0.66199  0.03545  0.69742  1.0000
  C   C1403     1.0  0.69353  0.06318  0.69243  1.0000
  H   H1090     1.0  0.67267  0.11962  0.66399  1.0000
  H   H1091     1.0  0.61731  0.07093  0.67344  1.0000
  H   H1092     1.0  0.65924  0.01198  0.70678  1.0000
  H   H1093     1.0  0.71456  0.06078  0.69793  1.0000
  C   C1404     1.0  0.61625  0.12384  0.87322  1.0000
  S   S269      1.0  0.61268  0.00408  0.94119  1.0000
  H   H1094     1.0  0.72202  0.07344  0.62448  1.0000
  S   S270      1.0  0.73693  0.12921  0.67125  1.0000
  C   C1405     1.0  0.66376  0.16887  0.84694  1.0000
  C   C1406     1.0  0.62448  0.98832  0.54239  1.0000
  H   H1095     1.0  0.62404  0.39596  0.96449  1.0000
  H   H1096     1.0  0.58898  0.26097  0.60480  1.0000
  C   C1407     1.0  0.62246  0.17985  0.86936  1.0000
  C   C1408     1.0  0.70316  0.47317  0.55609  1.0000
  C   C1409     1.0  0.62217  0.08388  0.58441  1.0000
  C   C1410     1.0  0.63026  0.09373  0.55046  1.0000
  C   C1411     1.0  0.60791  0.09713  0.52978  1.0000
  P   P45       1.0  0.67050  0.10667  0.53503  1.0000
  C   C1412     1.0  0.68686  0.08134  0.55175  1.0000
  C   C1413     1.0  0.67027  0.10234  0.48894  1.0000
  C   C1414     1.0  0.74432  0.47316  0.81357  1.0000
  H   H1097     1.0  0.75238  0.14643  0.74219  1.0000
  C   C1415     1.0  0.60800  0.04349  0.86511  1.0000
  C   C1416     1.0  0.70204  0.13792  0.90628  1.0000
  C   C1417     1.0  0.69356  0.06073  0.52983  1.0000
  C   C1418     1.0  0.71045  0.04523  0.54199  1.0000
  C   C1419     1.0  0.72032  0.04950  0.57618  1.0000
  C   C1420     1.0  0.71343  0.06940  0.59824  1.0000
  C   C1421     1.0  0.69721  0.08565  0.58609  1.0000
  H   H1098     1.0  0.66707  0.21689  0.93317  1.0000
  H   H1099     1.0  0.61070  0.02416  0.55923  1.0000
  H   H1100     1.0  0.73587  0.16343  0.94795  1.0000
  H   H1101     1.0  0.63906  0.08198  0.60138  1.0000
  H   H1102     1.0  0.61368  0.10585  0.50389  1.0000
  C   C1422     1.0  0.60016  0.47207  0.48280  1.0000
  H   H1103     1.0  0.72333  0.10689  0.84186  1.0000
  Fe  Fe135     1.0  0.61915  0.30111  0.48185  1.0000
  H   H1104     1.0  0.69424  0.10284  0.60324  1.0000
  H   H1105     1.0  0.65959  0.15927  0.56819  1.0000
  C   C1423     1.0  0.73975  0.21061  0.58644  1.0000
  C   C1424     1.0  0.76598  0.02034  0.85406  1.0000
  C   C1425     1.0  0.74458  0.40986  0.59234  1.0000
  H   H1106     1.0  0.74086  0.14799  0.53886  1.0000
  H   H1107     1.0  0.68023  0.23990  0.55571  1.0000
  H   H1108     1.0  0.58217  0.13774  0.89297  1.0000
  C   C1426     1.0  0.68532  0.13248  0.78569  1.0000
  H   H1109     1.0  0.68166  0.20757  0.50497  1.0000
  C   C1427     1.0  0.72512  0.39971  0.52363  1.0000
  C   C1428     1.0  0.69752  0.14951  0.55103  1.0000
  C   C1429     1.0  0.74137  0.43287  0.53791  1.0000
  H   H1110     1.0  0.60226  0.09820  0.88196  1.0000
  H   H1111     1.0  0.74734  0.32187  0.91986  1.0000
  C   C1430     1.0  0.68113  0.07732  0.90021  1.0000
  C   C1431     1.0  0.76236  0.36582  0.88934  1.0000
  C   C1432     1.0  0.68201  0.10685  0.88890  1.0000
  C   C1433     1.0  0.71997  0.13922  0.93518  1.0000
  H   H1112     1.0  0.61881  0.38577  0.62928  1.0000
  H   H1113     1.0  0.69682  0.21243  0.59947  1.0000
  C   C1434     1.0  0.71367  0.28864  0.53570  1.0000
  S   S271      1.0  0.68403  0.28275  0.96198  1.0000
  C   C1435     1.0  0.75610  0.21661  0.81680  1.0000
  C   C1436     1.0  0.69562  0.23506  0.50536  1.0000
  C   C1437     1.0  0.70644  0.19871  0.58548  1.0000
  C   C1438     1.0  0.59518  0.01943  0.79732  1.0000
  H   H1114     1.0  0.70456  0.16138  0.89709  1.0000
  H   H1115     1.0  0.75594  0.23355  0.60103  1.0000
  H   H1116     1.0  0.71320  0.30254  0.55825  1.0000
  C   C1439     1.0  0.76585  0.33981  0.90318  1.0000
  H   H1117     1.0  0.65196  0.40624  0.57733  1.0000
  C   C1440     1.0  0.73218  0.30595  0.50770  1.0000
  C   C1441     1.0  0.73108  0.16217  0.55146  1.0000
  C   C1442     1.0  0.72852  0.37707  0.57780  1.0000
  C   C1443     1.0  0.75053  0.47552  0.87486  1.0000
  C   C1444     1.0  0.64578  0.13485  0.85651  1.0000
  H   H1118     1.0  0.63024  0.15778  0.95138  1.0000
  C   C1445     1.0  0.75012  0.24617  0.86554  1.0000
  C   C1446     1.0  0.68536  0.16838  0.56773  1.0000
  H   H1119     1.0  0.71719  0.03126  0.52440  1.0000
  C   C1447     1.0  0.62781  0.40278  0.57746  1.0000
  C   C1448     1.0  0.65393  0.21266  0.95667  1.0000
  C   C1449     1.0  0.71854  0.11678  0.81906  1.0000
  H   H1120     1.0  0.61023  0.01150  0.62068  1.0000
  H   H1121     1.0  0.69781  0.05570  0.93799  1.0000
  C   C1450     1.0  0.71859  0.37205  0.54354  1.0000
  H   H1122     1.0  0.62240  0.05731  0.48542  1.0000
  C   C1451     1.0  0.71820  0.10956  0.94686  1.0000
  H   H1123     1.0  0.61735  0.36801  0.71534  1.0000
  C   C1452     1.0  0.75720  0.99192  0.79800  1.0000
  H   H1124     1.0  0.70456  0.34661  0.53247  1.0000
  C   C1453     1.0  0.73513  0.13895  0.76263  1.0000
  C   C1454     1.0  0.62798  0.06419  0.83929  1.0000
  H   H1125     1.0  0.72251  0.35544  0.59350  1.0000
  H   H1126     1.0  0.66547  0.99128  0.92994  1.0000
  H   H1127     1.0  0.76470  0.11775  0.55211  1.0000
  H   H1128     1.0  0.58513  0.06705  0.62253  1.0000
  C   C1455     1.0  0.75080  0.43762  0.57256  1.0000
  H   H1129     1.0  0.71690  0.39472  0.49721  1.0000
  H   H1130     1.0  0.76197  0.12379  0.79501  1.0000
  H   H1131     1.0  0.73242  0.11062  0.96898  1.0000
  H   H1132     1.0  0.76476  0.20078  0.80558  1.0000
  H   H1133     1.0  0.61264  0.05222  0.89159  1.0000
  H   H1134     1.0  0.66575  0.21727  0.84532  1.0000
  C   C1456     1.0  0.59162  0.07560  0.59668  1.0000
  C   C1457     1.0  0.76166  0.22542  0.85160  1.0000
  H   H1135     1.0  0.70325  0.15146  0.73575  1.0000
  H   H1136     1.0  0.66897  0.47702  0.58907  1.0000
  H   H1137     1.0  0.58542  0.47843  0.49887  1.0000
  C   C1458     1.0  0.74060  0.12629  0.79248  1.0000
  H   H1138     1.0  0.66715  0.05323  0.88652  1.0000
  S   S272      1.0  0.76341  0.10687  0.48042  1.0000
  H   H1139     1.0  0.59025  0.01015  0.77100  1.0000
  C   C1459     1.0  0.60469  0.14626  0.87957  1.0000
  C   C1460     1.0  0.71883  0.48166  0.52458  1.0000
  H   H1140     1.0  0.57713  0.18914  0.70967  1.0000
  H   H1141     1.0  0.74614  0.33343  0.50812  1.0000
  C   C1461     1.0  0.69883  0.07866  0.92934  1.0000
  C   C1462     1.0  0.75523  0.21532  0.47795  1.0000
  H   H1142     1.0  0.58251  0.30652  0.70526  1.0000
  C   C1463     1.0  0.77058  0.02202  0.81871  1.0000
  C   C1464     1.0  0.59186  0.35765  0.70918  1.0000
  H   H1143     1.0  0.76124  0.99385  0.77080  1.0000
  C   C1465     1.0  0.59601  0.43922  0.48210  1.0000
  H   H1144     1.0  0.76235  0.46267  0.58448  1.0000
  H   H1145     1.0  0.74383  0.98602  0.89534  1.0000
  H   H1146     1.0  0.59438  0.40624  0.71249  1.0000
  C   C1466     1.0  0.74762  0.98791  0.86810  1.0000
  C   C1467     1.0  0.58203  0.01104  0.85713  1.0000
  C   C1468     1.0  0.64384  0.07477  0.47181  1.0000
  C   C1469     1.0  0.57758  0.38575  0.60645  1.0000
  C   C1470     1.0  0.57735  0.08868  0.54208  1.0000
  C   C1471     1.0  0.62532  0.42000  0.97011  1.0000
  C   C1472     1.0  0.59932  0.45499  0.97014  1.0000
  Fe  Fe136     1.0  0.63598  0.72931  0.28036  1.0000
  S   S273      1.0  0.62673  0.75392  0.32556  1.0000
  S   S274      1.0  0.66623  0.70301  0.27382  1.0000
  Fe  Fe137     1.0  0.60843  0.76077  0.23206  1.0000
  S   S275      1.0  0.59811  0.78858  0.27301  1.0000
  C   C1473     1.0  0.60487  0.63001  0.44231  1.0000
  Fe  Fe138     1.0  0.64674  0.80188  0.29505  1.0000
  S   S276      1.0  0.69118  0.85504  0.30259  1.0000
  S   S277      1.0  0.65818  0.77734  0.25124  1.0000
  C   C1474     1.0  0.62432  0.65868  0.42352  1.0000
  H   H1147     1.0  0.60535  0.60673  0.43737  1.0000
  C   C1475     1.0  0.65242  0.97376  0.08582  1.0000
  S   S278      1.0  0.59578  0.87585  0.38153  1.0000
  S   S279      1.0  0.73830  0.65728  0.38102  1.0000
  S   S280      1.0  0.73124  0.57247  0.40356  1.0000
  S   S281      1.0  0.71353  0.89160  0.10865  1.0000
  S   S282      1.0  0.75184  0.61031  0.25847  1.0000
  Fe  Fe139     1.0  0.67832  0.83562  0.40865  1.0000
  S   S283      1.0  0.65628  0.86205  0.43834  1.0000
  S   S284      1.0  0.73479  0.86401  0.40765  1.0000
  Fe  Fe140     1.0  0.61132  0.76943  0.40033  1.0000
  Fe  Fe141     1.0  0.62882  0.81361  0.46701  1.0000
  H   H1148     1.0  0.61432  0.89875  0.45652  1.0000
  Fe  Fe142     1.0  0.61478  0.84022  0.39962  1.0000
  H   H1149     1.0  0.72901  0.71296  0.44667  1.0000
  H   H1150     1.0  0.64264  0.83203  0.20343  1.0000
  S   S285      1.0  0.63839  0.81680  0.36837  1.0000
  S   S286      1.0  0.65236  0.78785  0.43952  1.0000
  C   C1476     1.0  0.59775  0.51541  0.26462  1.0000
  S   S287      1.0  0.62599  0.52867  0.35272  1.0000
  C   C1477     1.0  0.71725  0.58722  0.28538  1.0000
  C   C1478     1.0  0.69333  0.59678  0.28687  1.0000
  C   C1479     1.0  0.66619  0.58040  0.30830  1.0000
  C   C1480     1.0  0.66095  0.55216  0.32672  1.0000
  C   C1481     1.0  0.68372  0.54121  0.32360  1.0000
  C   C1482     1.0  0.71167  0.55857  0.30339  1.0000
  H   H1151     1.0  0.69602  0.61746  0.27170  1.0000
  H   H1152     1.0  0.64928  0.58958  0.31049  1.0000
  H   H1153     1.0  0.67953  0.51895  0.33700  1.0000
  H   H1154     1.0  0.72851  0.54928  0.30137  1.0000
  C   C1483     1.0  0.63515  0.79851  0.16027  1.0000
  C   C1484     1.0  0.64637  0.79530  0.12839  1.0000
  C   C1485     1.0  0.67203  0.82357  0.11362  1.0000
  C   C1486     1.0  0.68589  0.85537  0.13019  1.0000
  C   C1487     1.0  0.67595  0.85831  0.16300  1.0000
  C   C1488     1.0  0.65071  0.82973  0.17827  1.0000
  H   H1155     1.0  0.63539  0.77081  0.11527  1.0000
  H   H1156     1.0  0.68115  0.82061  0.08943  1.0000
  C   C1489     1.0  0.71746  0.96117  0.34570  1.0000
  C   C1490     1.0  0.74127  0.95472  0.33300  1.0000
  C   C1491     1.0  0.73292  0.92166  0.32156  1.0000
  C   C1492     1.0  0.70061  0.89481  0.32192  1.0000
  C   C1493     1.0  0.67701  0.90109  0.33562  1.0000
  C   C1494     1.0  0.68545  0.93404  0.34751  1.0000
  C   C1495     1.0  0.59001  0.65260  0.10182  1.0000
  H   H1157     1.0  0.75158  0.91686  0.31212  1.0000
  H   H1158     1.0  0.65212  0.88080  0.33675  1.0000
  H   H1159     1.0  0.66685  0.93855  0.35785  1.0000
  C   C1496     1.0  0.68660  0.69145  0.30444  1.0000
  C   C1497     1.0  0.68126  0.69136  0.33951  1.0000
  C   C1498     1.0  0.69712  0.68055  0.36233  1.0000
  C   C1499     1.0  0.71870  0.67005  0.35065  1.0000
  C   C1500     1.0  0.72516  0.67170  0.31583  1.0000
  C   C1501     1.0  0.70871  0.68163  0.29286  1.0000
  H   H1160     1.0  0.66445  0.69893  0.34895  1.0000
  H   H1161     1.0  0.69240  0.67992  0.38922  1.0000
  H   H1162     1.0  0.74241  0.66470  0.30645  1.0000
  H   H1163     1.0  0.71328  0.68176  0.26588  1.0000
  H   H1164     1.0  0.63860  0.71082  0.41493  1.0000
  H   H1165     1.0  0.58916  0.74998  0.00462  1.0000
  H   H1166     1.0  0.63865  0.65707  0.40301  1.0000
  S   S288      1.0  0.72061  0.49479  0.35566  1.0000
  C   C1502     1.0  0.71974  0.75139  0.42753  1.0000
  C   C1503     1.0  0.59953  0.59144  0.24979  1.0000
  Fe  Fe143     1.0  0.71132  0.87706  0.05319  1.0000
  H   H1167     1.0  0.60184  0.65245  0.20002  1.0000
  C   C1504     1.0  0.64028  0.48875  0.43849  1.0000
  H   H1168     1.0  0.67205  0.91326  0.21334  1.0000
  H   H1169     1.0  0.58718  0.50556  0.13458  1.0000
  S   S289      1.0  0.73759  0.85226  0.03062  1.0000
  C   C1505     1.0  0.70276  0.50245  0.23506  1.0000
  H   H1170     1.0  0.76407  0.73968  0.21961  1.0000
  C   C1506     1.0  0.72632  0.79862  0.13062  1.0000
  H   H1171     1.0  0.60506  0.69982  0.07682  1.0000
  C   C1507     1.0  0.62422  0.68887  0.43029  1.0000
  C   C1508     1.0  0.61217  0.62164  0.23229  1.0000
  H   H1172     1.0  0.65598  0.50719  0.42022  1.0000
  C   C1509     1.0  0.73968  0.89382  0.23120  1.0000
  P   P46       1.0  0.64614  0.52651  0.17598  1.0000
  C   C1510     1.0  0.67987  0.52293  0.19246  1.0000
  C   C1511     1.0  0.65884  0.57114  0.17277  1.0000
  C   C1512     1.0  0.68364  0.59539  0.19443  1.0000
  C   C1513     1.0  0.67439  0.63953  0.17349  1.0000
  C   C1514     1.0  0.64970  0.61567  0.15182  1.0000
  C   C1515     1.0  0.64198  0.58167  0.15143  1.0000
  C   C1516     1.0  0.73350  0.52220  0.22151  1.0000
  H   H1173     1.0  0.70503  0.94172  0.26542  1.0000
  H   H1174     1.0  0.67856  0.65903  0.45266  1.0000
  C   C1517     1.0  0.73751  0.54179  0.19306  1.0000
  C   C1518     1.0  0.71082  0.54220  0.17857  1.0000
  H   H1175     1.0  0.62984  0.50681  0.98763  1.0000
  H   H1176     1.0  0.59811  0.94239  0.27996  1.0000
  H   H1177     1.0  0.60553  0.95268  0.46563  1.0000
  C   C1519     1.0  0.67599  0.50263  0.22053  1.0000
  C   C1520     1.0  0.69677  0.95505  0.24931  1.0000
  H   H1178     1.0  0.59130  0.93587  0.37070  1.0000
  S   S290      1.0  0.58633  0.79296  0.42986  1.0000
  H   H1179     1.0  0.69193  0.61660  0.42954  1.0000
  S   S291      1.0  0.60075  0.76363  0.17628  1.0000
  H   H1180     1.0  0.65122  0.94255  0.17766  1.0000
  H   H1181     1.0  0.76592  0.97519  0.33154  1.0000
  H   H1182     1.0  0.69644  0.58802  0.21204  1.0000
  H   H1183     1.0  0.63594  0.62323  0.13580  1.0000
  H   H1184     1.0  0.62232  0.56373  0.13504  1.0000
  C   C1521     1.0  0.58357  0.63076  0.46618  1.0000
  H   H1185     1.0  0.73334  0.75661  0.25852  1.0000
  H   H1186     1.0  0.60985  0.94290  0.05450  1.0000
  H   H1187     1.0  0.61372  0.86677  0.06189  1.0000
  H   H1188     1.0  0.71450  0.55847  0.15732  1.0000
  C   C1522     1.0  0.73676  0.73383  0.42959  1.0000
  C   C1523     1.0  0.59019  0.76692  0.05634  1.0000
  C   C1524     1.0  0.66617  0.95562  0.19991  1.0000
  H   H1189     1.0  0.58248  0.62437  0.30839  1.0000
  H   H1190     1.0  0.64337  0.55119  0.24399  1.0000
  C   C1525     1.0  0.62084  0.88330  0.26678  1.0000
  C   C1526     1.0  0.61979  0.91093  0.28162  1.0000
  C   C1527     1.0  0.59980  0.92187  0.26746  1.0000
  Fe  Fe144     1.0  0.68969  0.81556  0.00500  1.0000
  H   H1191     1.0  0.61504  0.58719  0.26667  1.0000
  H   H1192     1.0  0.68694  0.76013  0.09972  1.0000
  H   H1193     1.0  0.65977  0.72295  0.14857  1.0000
  S   S292      1.0  0.58598  0.71100  0.25763  1.0000
  C   C1528     1.0  0.62092  0.87540  0.11635  1.0000
  C   C1529     1.0  0.60610  0.87130  0.14800  1.0000
  C   C1530     1.0  0.61477  0.51042  0.20752  1.0000
  H   H1194     1.0  0.63382  0.92342  0.30462  1.0000
  C   C1531     1.0  0.58094  0.87682  0.22400  1.0000
  H   H1195     1.0  0.76377  0.80741  0.36697  1.0000
  H   H1196     1.0  0.77498  0.72720  0.40932  1.0000
  H   H1197     1.0  0.75141  0.77420  0.31738  1.0000
  H   H1198     1.0  0.64711  0.88741  0.11503  1.0000
  H   H1199     1.0  0.62118  0.88004  0.17084  1.0000
  H   H1200     1.0  0.73478  0.79505  0.21660  1.0000
  H   H1201     1.0  0.63597  0.87441  0.27799  1.0000
  C   C1532     1.0  0.59758  0.95303  0.10463  1.0000
  H   H1202     1.0  0.63753  0.64057  0.23565  1.0000
  S   S293      1.0  0.72311  0.91389  0.01147  1.0000
  C   C1533     1.0  0.64396  0.72104  0.99916  1.0000
  H   H1203     1.0  0.68412  0.74026  0.20678  1.0000
  C   C1534     1.0  0.69144  0.62937  0.19469  1.0000
  Fe  Fe145     1.0  0.76053  0.62243  0.37829  1.0000
  C   C1535     1.0  0.67809  0.93901  0.21990  1.0000
  H   H1204     1.0  0.67352  0.49758  0.12676  1.0000
  C   C1536     1.0  0.60164  0.86643  0.23798  1.0000
  H   H1205     1.0  0.68731  0.88277  0.17616  1.0000
  S   S294      1.0  0.66336  0.83888  0.03061  1.0000
  C   C1537     1.0  0.75919  0.86114  0.34299  1.0000
  C   C1538     1.0  0.72946  0.77771  0.40467  1.0000
  C   C1539     1.0  0.76529  0.87676  0.37549  1.0000
  C   C1540     1.0  0.60209  0.86371  0.08637  1.0000
  Fe  Fe146     1.0  0.67631  0.87398  0.98688  1.0000
  H   H1206     1.0  0.65261  0.69277  0.03710  1.0000
  H   H1207     1.0  0.76153  0.55775  0.18314  1.0000
  H   H1208     1.0  0.60472  0.68259  0.33357  1.0000
  C   C1541     1.0  0.62072  0.52804  0.23897  1.0000
  C   C1542     1.0  0.63861  0.69109  0.01458  1.0000
  H   H1209     1.0  0.71024  0.64754  0.21207  1.0000
  H   H1210     1.0  0.71634  0.79142  0.40278  1.0000
  H   H1211     1.0  0.67987  0.66569  0.17443  1.0000
  C   C1543     1.0  0.59182  0.62808  0.21192  1.0000
  C   C1544     1.0  0.60321  0.68988  0.45454  1.0000
  C   C1545     1.0  0.69614  0.75635  0.18541  1.0000
  C   C1546     1.0  0.68252  0.74649  0.15257  1.0000
  C   C1547     1.0  0.69778  0.76746  0.12514  1.0000
  H   H1212     1.0  0.60221  0.52894  0.28884  1.0000
  C   C1548     1.0  0.76294  0.74195  0.40821  1.0000
  S   S295      1.0  0.67485  0.76058  0.01663  1.0000
  H   H1213     1.0  0.60222  0.71300  0.45817  1.0000
  H   H1214     1.0  0.71595  0.88830  0.23966  1.0000
  H   H1215     1.0  0.58188  0.89439  0.99327  1.0000
  C   C1549     1.0  0.72479  0.78738  0.19092  1.0000
  Fe  Fe147     1.0  0.75586  0.55109  0.37075  1.0000
  S   S296      1.0  0.63131  0.87842  0.97637  1.0000
  H   H1216     1.0  0.77080  0.67446  0.46479  1.0000
  H   H1217     1.0  0.73711  0.81481  0.10912  1.0000
  C   C1550     1.0  0.74280  0.86977  0.21125  1.0000
  H   H1218     1.0  0.73507  0.84075  0.33638  1.0000
  C   C1551     1.0  0.77267  0.76813  0.38499  1.0000
  H   H1219     1.0  0.60194  0.84436  0.22751  1.0000
  C   C1552     1.0  0.61588  0.65891  0.00067  1.0000
  Fe  Fe148     1.0  0.74619  0.88598  0.98639  1.0000
  H   H1220     1.0  0.72110  0.84624  0.20401  1.0000
  H   H1221     1.0  0.69635  0.57698  0.46800  1.0000
  H   H1222     1.0  0.67830  0.50074  0.99729  1.0000
  H   H1223     1.0  0.75431  0.52308  0.23380  1.0000
  C   C1553     1.0  0.60059  0.91594  0.98026  1.0000
  C   C1554     1.0  0.74003  0.80878  0.16362  1.0000
  C   C1555     1.0  0.68750  0.61751  0.45659  1.0000
  H   H1224     1.0  0.59222  0.96674  0.15579  1.0000
  C   C1556     1.0  0.75568  0.75822  0.26722  1.0000
  H   H1225     1.0  0.69883  0.74445  0.44327  1.0000
  C   C1557     1.0  0.59141  0.68370  0.09756  1.0000
  H   H1226     1.0  0.61260  0.63612  0.01238  1.0000
  C   C1558     1.0  0.76019  0.74522  0.02427  1.0000
  C   C1559     1.0  0.61904  0.95529  0.07929  1.0000
  H   H1227     1.0  0.76370  0.70072  0.03422  1.0000
  H   H1228     1.0  0.61543  0.77435  0.06029  1.0000
  H   H1229     1.0  0.73390  0.73197  0.02500  1.0000
  C   C1560     1.0  0.75613  0.78642  0.38396  1.0000
  C   C1561     1.0  0.58186  0.66243  0.34233  1.0000
  C   C1562     1.0  0.62228  0.49671  0.46110  1.0000
  C   C1563     1.0  0.58038  0.90498  0.23873  1.0000
  C   C1564     1.0  0.76605  0.76810  0.30109  1.0000
  C   C1565     1.0  0.63104  0.96638  0.45975  1.0000
  H   H1230     1.0  0.75341  0.82513  0.46208  1.0000
  C   C1566     1.0  0.77283  0.74840  0.24547  1.0000
  S   S297      1.0  0.58555  0.54847  0.00341  1.0000
  C   C1567     1.0  0.60943  0.96931  0.13648  1.0000
  H   H1231     1.0  0.60229  0.64429  0.08419  1.0000
  H   H1232     1.0  0.66901  0.97520  0.06619  1.0000
  H   H1233     1.0  0.77196  0.90320  0.14176  1.0000
  C   C1568     1.0  0.77350  0.87660  0.20048  1.0000
  H   H1234     1.0  0.76459  0.94304  0.25658  1.0000
  C   C1569     1.0  0.76707  0.92468  0.24075  1.0000
  H   H1235     1.0  0.62412  0.52145  0.46040  1.0000
  H   H1236     1.0  0.57686  0.71845  0.11739  1.0000
  S   S298      1.0  0.57868  0.71113  0.38745  1.0000
  H   H1237     1.0  0.76419  0.79318  0.01267  1.0000
  Fe  Fe149     1.0  0.77347  0.59003  0.43911  1.0000
  H   H1238     1.0  0.58454  0.78231  0.10714  1.0000
  C   C1570     1.0  0.67983  0.64135  0.46970  1.0000
  H   H1239     1.0  0.69997  0.48811  0.25778  1.0000
  C   C1571     1.0  0.63180  0.50385  0.13520  1.0000
  C   C1572     1.0  0.59603  0.94350  0.97293  1.0000
  C   C1573     1.0  0.60202  0.49742  0.12111  1.0000
  Fe  Fe150     1.0  0.57726  0.73910  0.30107  1.0000
  H   H1240     1.0  0.65259  0.48783  0.23208  1.0000
  C   C1574     1.0  0.65033  0.49278  0.11694  1.0000
  S   S299      1.0  0.73356  0.58845  0.70605  1.0000
  C   C1575     1.0  0.59837  0.88584  0.47744  1.0000
  C   C1576     1.0  0.60302  0.68620  0.95597  1.0000
  H   H1241     1.0  0.58656  0.94433  0.76142  1.0000
  C   C1577     1.0  0.62651  0.57148  0.80794  1.0000
  C   C1578     1.0  0.69792  0.63540  0.92306  1.0000
  C   C1579     1.0  0.76297  0.50906  0.81346  1.0000
  H   H1242     1.0  0.71125  0.58061  0.81634  1.0000
  H   H1243     1.0  0.58955  0.68445  0.93296  1.0000
  C   C1580     1.0  0.68677  0.98190  0.47199  1.0000
  H   H1244     1.0  0.69460  0.66487  0.83308  1.0000
  H   H1245     1.0  0.71158  0.62241  0.92539  1.0000
  Fe  Fe151     1.0  0.68853  0.79585  0.79684  1.0000
  S   S300      1.0  0.66653  0.82460  0.82246  1.0000
  S   S301      1.0  0.70296  0.76472  0.83135  1.0000
  Fe  Fe152     1.0  0.67026  0.80896  0.72391  1.0000
  S   S302      1.0  0.64710  0.83784  0.74539  1.0000
  S   S303      1.0  0.67248  0.79424  0.66738  1.0000
  Fe  Fe153     1.0  0.69094  0.86358  0.78161  1.0000
  S   S304      1.0  0.72221  0.92241  0.78406  1.0000
  Fe  Fe154     1.0  0.62452  0.79705  0.78485  1.0000
  S   S305      1.0  0.71512  0.83610  0.75803  1.0000
  S   S306      1.0  0.64560  0.76691  0.76117  1.0000
  H   H1246     1.0  0.61664  0.67947  0.52952  1.0000
  H   H1247     1.0  0.61356  0.82423  0.92347  1.0000
  H   H1248     1.0  0.63092  0.61283  0.63342  1.0000
  S   S307      1.0  0.61983  0.81648  0.52466  1.0000
  H   H1249     1.0  0.65661  0.51021  0.54830  1.0000
  H   H1250     1.0  0.71253  0.72278  0.87820  1.0000
  P   P47       1.0  0.64127  0.94054  0.51968  1.0000
  H   H1251     1.0  0.72189  0.56894  0.63304  1.0000
  C   C1581     1.0  0.65948  0.80271  0.62773  1.0000
  C   C1582     1.0  0.66434  0.78901  0.59716  1.0000
  C   C1583     1.0  0.65333  0.79377  0.56528  1.0000
  C   C1584     1.0  0.63707  0.81219  0.56351  1.0000
  C   C1585     1.0  0.63267  0.82633  0.59398  1.0000
  C   C1586     1.0  0.64394  0.82185  0.62581  1.0000
  H   H1252     1.0  0.67642  0.77429  0.59820  1.0000
  H   H1253     1.0  0.65676  0.78252  0.54220  1.0000
  H   H1254     1.0  0.62028  0.84075  0.59300  1.0000
  H   H1255     1.0  0.64017  0.83277  0.64893  1.0000
  C   C1587     1.0  0.65972  0.64631  0.89289  1.0000
  C   C1588     1.0  0.76305  0.77054  0.81621  1.0000
  C   C1589     1.0  0.73409  0.95782  0.84736  1.0000
  C   C1590     1.0  0.73873  0.95952  0.81201  1.0000
  H   H1256     1.0  0.58999  0.89105  0.56328  1.0000
  H   H1257     1.0  0.72222  0.50638  0.47682  1.0000
  C   C1591     1.0  0.71116  0.49994  0.50167  1.0000
  H   H1258     1.0  0.72006  0.93334  0.85880  1.0000
  H   H1259     1.0  0.76542  0.67243  0.76178  1.0000
  H   H1260     1.0  0.77535  0.90400  0.71770  1.0000
  C   C1592     1.0  0.73549  0.75607  0.83649  1.0000
  C   C1593     1.0  0.65254  0.94351  0.95284  1.0000
  C   C1594     1.0  0.58182  0.66046  0.47165  1.0000
  C   C1595     1.0  0.67349  0.64203  0.50444  1.0000
  C   C1596     1.0  0.68906  0.51034  0.51046  1.0000
  H   H1261     1.0  0.73871  0.96720  0.58922  1.0000
  C   C1597     1.0  0.60030  0.70262  0.60650  1.0000
  H   H1262     1.0  0.72000  0.61504  0.60404  1.0000
  H   H1263     1.0  0.72108  0.81871  0.89548  1.0000
  H   H1264     1.0  0.61910  0.50484  0.61741  1.0000
  H   H1265     1.0  0.71144  0.72666  0.64184  1.0000
  C   C1598     1.0  0.69159  0.68056  0.61082  1.0000
  C   C1599     1.0  0.69266  0.57992  0.70410  1.0000
  C   C1600     1.0  0.68492  0.60522  0.69793  1.0000
  C   C1601     1.0  0.65217  0.59686  0.69489  1.0000
  C   C1602     1.0  0.62663  0.56305  0.69704  1.0000
  C   C1603     1.0  0.63434  0.53784  0.70393  1.0000
  C   C1604     1.0  0.66711  0.54633  0.70777  1.0000
  H   H1266     1.0  0.70416  0.63123  0.69553  1.0000
  H   H1267     1.0  0.64663  0.61684  0.69082  1.0000
  H   H1268     1.0  0.74959  0.59201  0.56345  1.0000
  H   H1269     1.0  0.67275  0.52658  0.71294  1.0000
  H   H1270     1.0  0.66752  0.66066  0.51417  1.0000
  H   H1271     1.0  0.62948  0.74125  0.95782  1.0000
  H   H1272     1.0  0.76938  0.81291  0.88587  1.0000
  C   C1605     1.0  0.72052  0.94953  0.57106  1.0000
  H   H1273     1.0  0.73865  0.91454  0.57077  1.0000
  C   C1606     1.0  0.64126  0.52859  0.61346  1.0000
  H   H1274     1.0  0.68883  0.69667  0.96464  1.0000
  C   C1607     1.0  0.67074  0.53372  0.62655  1.0000
  C   C1608     1.0  0.62878  0.91567  0.97016  1.0000
  H   H1275     1.0  0.62407  0.96836  0.63818  1.0000
  C   C1609     1.0  0.61919  0.97072  0.95439  1.0000
  H   H1276     1.0  0.66732  0.67210  0.61942  1.0000
  C   C1610     1.0  0.74853  0.72364  0.61338  1.0000
  P   P48       1.0  0.67179  0.59783  0.86201  1.0000
  H   H1277     1.0  0.60782  0.57491  0.89143  1.0000
  H   H1278     1.0  0.61510  0.51182  0.70617  1.0000
  C   C1611     1.0  0.74697  0.65772  0.78005  1.0000
  H   H1279     1.0  0.76522  0.78780  0.79652  1.0000
  C   C1612     1.0  0.74014  0.62497  0.78767  1.0000
  C   C1613     1.0  0.58560  0.89875  0.74320  1.0000
  C   C1614     1.0  0.67641  0.62823  0.89534  1.0000
  H   H1280     1.0  0.61120  0.90861  0.74845  1.0000
  H   H1281     1.0  0.68484  0.57722  0.52923  1.0000
  H   H1282     1.0  0.64663  0.57741  0.79127  1.0000
  C   C1615     1.0  0.69823  0.66087  0.58762  1.0000
  S   S308      1.0  0.58585  0.55405  0.69055  1.0000
  C   C1616     1.0  0.71590  0.54677  0.89828  1.0000
  C   C1617     1.0  0.61740  0.69680  0.58092  1.0000
  H   H1283     1.0  0.76790  0.91551  0.84834  1.0000
  C   C1618     1.0  0.69911  0.56470  0.62225  1.0000
  C   C1619     1.0  0.68289  0.59503  0.51301  1.0000
  C   C1620     1.0  0.76908  0.89385  0.85746  1.0000
  C   C1621     1.0  0.60515  0.90009  0.51069  1.0000
  H   H1284     1.0  0.64357  0.64199  0.87144  1.0000
  H   H1285     1.0  0.73617  0.65865  0.55935  1.0000
  C   C1622     1.0  0.68105  0.48372  0.56481  1.0000
  H   H1286     1.0  0.68403  0.52503  0.49274  1.0000
  H   H1287     1.0  0.61153  0.79153  0.87101  1.0000
  H   H1288     1.0  0.67155  0.51413  0.64096  1.0000
  C   C1623     1.0  0.73030  0.67331  0.57712  1.0000
  C   C1624     1.0  0.67428  0.61837  0.52626  1.0000
  H   H1289     1.0  0.73101  0.59599  0.87876  1.0000
  C   C1625     1.0  0.71041  0.57174  0.88498  1.0000
  C   C1626     1.0  0.68542  0.67756  0.94545  1.0000
  H   H1290     1.0  0.73533  0.69702  0.79020  1.0000
  C   C1627     1.0  0.67394  0.50225  0.54192  1.0000
  C   C1628     1.0  0.69793  0.59096  0.60578  1.0000
  C   C1629     1.0  0.64753  0.97062  0.94460  1.0000
  C   C1630     1.0  0.65399  0.96464  0.48106  1.0000
  C   C1631     1.0  0.59511  0.77891  0.89164  1.0000
  C   C1632     1.0  0.75529  0.70445  0.59006  1.0000
  C   C1633     1.0  0.70063  0.62071  0.82919  1.0000
  C   C1634     1.0  0.62564  0.71847  0.97004  1.0000
  P   P49       1.0  0.66654  0.61991  0.57122  1.0000
  H   H1291     1.0  0.64235  0.70349  0.58562  1.0000
  S   S309      1.0  0.76074  0.58118  0.49446  1.0000
  C   C1635     1.0  0.71667  0.71178  0.62361  1.0000
  C   C1636     1.0  0.73005  0.67163  0.79616  1.0000
  H   H1292     1.0  0.61160  0.60833  0.52522  1.0000
  H   H1293     1.0  0.61710  0.54993  0.58594  1.0000
  H   H1294     1.0  0.69686  0.97889  0.56677  1.0000
  C   C1637     1.0  0.64017  0.55447  0.59602  1.0000
  H   H1295     1.0  0.70494  0.98035  0.48719  1.0000
  C   C1638     1.0  0.60265  0.68314  0.54907  1.0000
  C   C1639     1.0  0.73351  0.73388  0.86213  1.0000
  H   H1296     1.0  0.63756  0.93728  0.59460  1.0000
  H   H1297     1.0  0.65135  0.68469  0.91562  1.0000
  C   C1640     1.0  0.75823  0.72568  0.86703  1.0000
  C   C1641     1.0  0.60508  0.60906  0.55149  1.0000
  C   C1642     1.0  0.70704  0.65329  0.82068  1.0000
  H   H1298     1.0  0.62769  0.52799  0.88497  1.0000
  C   C1643     1.0  0.66416  0.67074  0.91789  1.0000
  H   H1299     1.0  0.75598  0.70830  0.88661  1.0000
  C   C1644     1.0  0.60466  0.57004  0.86405  1.0000
  C   C1645     1.0  0.59612  0.79728  0.92111  1.0000
  C   C1646     1.0  0.67270  0.93294  0.53539  1.0000
  C   C1647     1.0  0.67331  0.90372  0.52466  1.0000
  C   C1648     1.0  0.69704  0.89715  0.53732  1.0000
  C   C1649     1.0  0.72056  0.91994  0.56066  1.0000
  C   C1650     1.0  0.69674  0.95607  0.55837  1.0000
  S   S310      1.0  0.69954  0.84763  0.95843  1.0000
  C   C1651     1.0  0.71660  0.60622  0.81159  1.0000
  C   C1652     1.0  0.63204  0.96350  0.55180  1.0000
  H   H1300     1.0  0.65523  0.88576  0.50674  1.0000
  H   H1301     1.0  0.69678  0.87406  0.52918  1.0000
  H   H1302     1.0  0.74880  0.69677  0.50898  1.0000
  C   C1653     1.0  0.66845  0.58609  0.59250  1.0000
  C   C1654     1.0  0.58434  0.60512  0.61876  1.0000
  C   C1655     1.0  0.63147  0.57845  0.84328  1.0000
  C   C1656     1.0  0.63183  0.95633  0.58657  1.0000
  C   C1657     1.0  0.58475  0.88137  0.53725  1.0000
  C   C1658     1.0  0.59525  0.55678  0.79362  1.0000
  C   C1659     1.0  0.61557  0.61120  0.61221  1.0000
  C   C1660     1.0  0.62654  0.61398  0.57859  1.0000
  H   H1303     1.0  0.76803  0.74754  0.62376  1.0000
  H   H1304     1.0  0.74050  0.55185  0.90200  1.0000
  C   C1661     1.0  0.68950  0.59474  0.47830  1.0000
  C   C1662     1.0  0.65807  0.50877  0.90158  1.0000
  C   C1663     1.0  0.65248  0.53370  0.88826  1.0000
  C   C1664     1.0  0.70234  0.65994  0.94801  1.0000
  H   H1305     1.0  0.67411  0.94348  0.94436  1.0000
  C   C1665     1.0  0.67865  0.56529  0.87932  1.0000
  H   H1306     1.0  0.59160  0.55174  0.76630  1.0000
  H   H1307     1.0  0.72081  0.87049  0.87727  1.0000
  C   C1666     1.0  0.74211  0.86814  0.87351  1.0000
  H   H1308     1.0  0.75142  0.50843  0.60416  1.0000
  H   H1309     1.0  0.61205  0.71387  0.63095  1.0000
  H   H1310     1.0  0.76775  0.52188  0.78948  1.0000
  C   C1667     1.0  0.76868  0.51144  0.87477  1.0000
  C   C1668     1.0  0.68975  0.51524  0.90653  1.0000
  C   C1669     1.0  0.74236  0.83913  0.88400  1.0000
  H   H1311     1.0  0.75313  0.61405  0.77508  1.0000
  H   H1312     1.0  0.59008  0.76072  0.65634  1.0000
  C   C1670     1.0  0.62415  0.97374  0.61133  1.0000
  C   C1671     1.0  0.76965  0.83587  0.87859  1.0000
  C   C1672     1.0  0.77257  0.71331  0.49892  1.0000
  C   C1673     1.0  0.59841  0.65627  0.97088  1.0000
  H   H1313     1.0  0.63778  0.48436  0.90822  1.0000
  H   H1314     1.0  0.69398  0.49581  0.91686  1.0000
  C   C1674     1.0  0.77052  0.61496  0.55509  1.0000
  C   C1675     1.0  0.77534  0.52855  0.84402  1.0000
  H   H1315     1.0  0.57798  0.85102  0.72355  1.0000
  H   H1316     1.0  0.57725  0.75951  0.71772  1.0000
  C   C1676     1.0  0.77641  0.52786  0.60837  1.0000
  H   H1317     1.0  0.77629  0.55813  0.56703  1.0000
  H   H1318     1.0  0.71907  0.66543  0.96921  1.0000
  C   C1677     1.0  0.93340  0.07217  0.45666  1.0000
  S   S311      1.0  0.91563  0.41415  0.26875  1.0000
  H   H1319     1.0  0.93060  0.44674  0.10788  1.0000
  Fe  Fe155     1.0  0.90216  0.44447  0.30456  1.0000
  S   S312      1.0  0.84939  0.42055  0.32539  1.0000
  H   H1320     1.0  0.78378  0.46915  0.97566  1.0000
  H   H1321     1.0  0.89774  0.40318  0.04721  1.0000
  H   H1322     1.0  0.93609  0.07600  0.40171  1.0000
  S   S313      1.0  0.81737  0.15126  0.40025  1.0000
  S   S314      1.0  0.80146  0.09877  0.33490  1.0000
  Fe  Fe156     1.0  0.83652  0.11823  0.38032  1.0000
  S   S315      1.0  0.89202  0.14193  0.38883  1.0000
  S   S316      1.0  0.80231  0.07371  0.41246  1.0000
  Fe  Fe157     1.0  0.80446  0.13431  0.25228  1.0000
  S   S317      1.0  0.83055  0.17601  0.21469  1.0000
  Fe  Fe158     1.0  0.86647  0.12762  0.26354  1.0000
  S   S318      1.0  0.89554  0.16884  0.22566  1.0000
  S   S319      1.0  0.87840  0.08692  0.28460  1.0000
  Fe  Fe159     1.0  0.87390  0.19860  0.25093  1.0000
  S   S320      1.0  0.89767  0.25716  0.25755  1.0000
  Fe  Fe160     1.0  0.85042  0.14483  0.19193  1.0000
  S   S321      1.0  0.84193  0.12615  0.13584  1.0000
  S   S322      1.0  0.84704  0.15918  0.28998  1.0000
  S   S323      1.0  0.82280  0.10227  0.22779  1.0000
  S   S324      1.0  0.87115  0.19647  0.99059  1.0000
  C   C1678     1.0  0.90338  0.07216  0.30502  1.0000
  C   C1679     1.0  0.93420  0.09414  0.31944  1.0000
  C   C1680     1.0  0.95258  0.08132  0.33549  1.0000
  C   C1681     1.0  0.94117  0.04609  0.33732  1.0000
  C   C1682     1.0  0.90980  0.02426  0.32385  1.0000
  C   C1683     1.0  0.89167  0.03701  0.30718  1.0000
  H   H1323     1.0  0.94392  0.12123  0.31860  1.0000
  H   H1324     1.0  0.89917  0.99716  0.32652  1.0000
  H   H1325     1.0  0.86791  0.01929  0.29666  1.0000
  C   C1684     1.0  0.91330  0.29006  0.29055  1.0000
  C   C1685     1.0  0.91570  0.32140  0.28344  1.0000
  C   C1686     1.0  0.92979  0.34905  0.30727  1.0000
  H   H1326     1.0  0.95749  0.20337  0.28910  1.0000
  C   C1687     1.0  0.92516  0.28703  0.32234  1.0000
  H   H1327     1.0  0.90666  0.32449  0.25923  1.0000
  H   H1328     1.0  0.93093  0.37249  0.30145  1.0000
  C   C1688     1.0  0.84847  0.14692  0.09624  1.0000
  C   C1689     1.0  0.86933  0.18189  0.09331  1.0000
  C   C1690     1.0  0.87568  0.19660  0.06085  1.0000
  C   C1691     1.0  0.86114  0.17669  0.03095  1.0000
  C   C1692     1.0  0.83982  0.14186  0.03400  1.0000
  C   C1693     1.0  0.83360  0.12713  0.06641  1.0000
  H   H1329     1.0  0.88115  0.19740  0.11592  1.0000
  H   H1330     1.0  0.89227  0.22355  0.05884  1.0000
  H   H1331     1.0  0.82847  0.12616  0.01133  1.0000
  S   S325      1.0  0.96156  0.02926  0.36349  1.0000
  C   C1694     1.0  0.92815  0.16358  0.36425  1.0000
  C   C1695     1.0  0.95784  0.16965  0.37857  1.0000
  H   H1332     1.0  0.92440  0.26354  0.32814  1.0000
  H   H1333     1.0  0.81690  0.43517  0.21888  1.0000
  C   C1696     1.0  0.92846  0.17585  0.33176  1.0000
  H   H1334     1.0  0.95796  0.16014  0.40351  1.0000
  H   H1335     1.0  0.90606  0.17135  0.32019  1.0000
  C   C1697     1.0  0.81584  0.39902  0.35385  1.0000
  C   C1698     1.0  0.78000  0.40207  0.12924  1.0000
  P   P50       1.0  0.88369  0.04764  0.14857  1.0000
  H   H1336     1.0  0.86790  0.30096  0.01372  1.0000
  C   C1699     1.0  0.95749  0.06075  0.21281  1.0000
  C   C1700     1.0  0.81918  0.38765  0.38578  1.0000
  H   H1337     1.0  0.93407  0.16447  0.10483  1.0000
  H   H1338     1.0  0.81842  0.46442  0.08912  1.0000
  H   H1339     1.0  0.95314  0.37335  0.15519  1.0000
  C   C1701     1.0  0.89993  0.45509  0.44140  1.0000
  H   H1340     1.0  0.81758  0.10005  0.06832  1.0000
  C   C1702     1.0  0.79003  0.02399  0.16724  1.0000
  C   C1703     1.0  0.78366  0.20365  0.42106  1.0000
  P   P51       1.0  0.96682  0.35737  0.08692  1.0000
  H   H1341     1.0  0.94023  0.11751  0.25092  1.0000
  S   S326      1.0  0.92480  0.98888  0.25873  1.0000
  H   H1342     1.0  0.86131  0.02748  0.21888  1.0000
  H   H1343     1.0  0.93284  0.25524  0.18561  1.0000
  C   C1704     1.0  0.94300  0.34689  0.33838  1.0000
  S   S327      1.0  0.81734  0.43226  0.02110  1.0000
  C   C1705     1.0  0.83625  0.40036  0.14520  1.0000
  H   H1344     1.0  0.93482  0.03128  0.16727  1.0000
  C   C1706     1.0  0.93937  0.09915  0.23220  1.0000
  C   C1707     1.0  0.89785  0.01269  0.09818  1.0000
  H   H1345     1.0  0.85854  0.04225  0.07880  1.0000
  C   C1708     1.0  0.94973  0.46992  0.11969  1.0000
  H   H1346     1.0  0.90814  0.99487  0.41093  1.0000
  C   C1709     1.0  0.85271  0.43433  0.00391  1.0000
  H   H1347     1.0  0.81316  0.19541  0.45701  1.0000
  C   C1710     1.0  0.81241  0.01732  0.22006  1.0000
  C   C1711     1.0  0.95539  0.32292  0.11595  1.0000
  H   H1348     1.0  0.93521  0.48167  0.01510  1.0000
  H   H1349     1.0  0.84461  0.45504  0.39942  1.0000
  H   H1350     1.0  0.95419  0.10179  0.08118  1.0000
  C   C1712     1.0  0.78304  0.37431  0.11854  1.0000
  H   H1351     1.0  0.85822  0.39988  0.15101  1.0000
  H   H1352     1.0  0.92409  0.12285  0.14858  1.0000
  C   C1713     1.0  0.92273  0.30029  0.12325  1.0000
  C   C1714     1.0  0.91472  0.27586  0.14813  1.0000
  H   H1353     1.0  0.85972  0.35080  0.01441  1.0000
  C   C1715     1.0  0.93217  0.35492  0.06514  1.0000
  C   C1716     1.0  0.91082  0.32551  0.04599  1.0000
  C   C1717     1.0  0.80930  0.47685  0.20540  1.0000
  H   H1354     1.0  0.84203  0.39019  0.39327  1.0000
  H   H1355     1.0  0.97530  0.09913  0.34754  1.0000
  C   C1718     1.0  0.92739  0.38303  0.06527  1.0000
  C   C1719     1.0  0.91208  0.46242  0.00440  1.0000
  C   C1720     1.0  0.97454  0.09927  0.08956  1.0000
  C   C1721     1.0  0.88449  0.32384  0.02820  1.0000
  C   C1722     1.0  0.90795  0.98665  0.43676  1.0000
  C   C1723     1.0  0.81978  0.46508  0.26283  1.0000
  H   H1356     1.0  0.82175  0.04084  0.12473  1.0000
  H   H1357     1.0  0.86963  0.08465  0.03501  1.0000
  H   H1358     1.0  0.90745  0.14567  0.04772  1.0000
  S   S328      1.0  0.95139  0.46901  0.33040  1.0000
  H   H1359     1.0  0.89989  0.29128  0.44620  1.0000
  H   H1360     1.0  0.90334  0.30177  0.11056  1.0000
  H   H1361     1.0  0.78181  0.40250  0.32023  1.0000
  H   H1362     1.0  0.91455  0.30387  0.04474  1.0000
  C   C1724     1.0  0.84169  0.02660  0.20393  1.0000
  H   H1363     1.0  0.85345  0.44944  0.16932  1.0000
  Fe  Fe161     1.0  0.96668  0.44092  0.29163  1.0000
  H   H1364     1.0  0.94395  0.40645  0.07889  1.0000
  C   C1725     1.0  0.90338  0.12709  0.06678  1.0000
  C   C1726     1.0  0.81114  0.37339  0.12662  1.0000
  C   C1727     1.0  0.84727  0.99725  0.40562  1.0000
  C   C1728     1.0  0.89990  0.00113  0.46428  1.0000
  C   C1729     1.0  0.90121  0.38135  0.04721  1.0000
  C   C1730     1.0  0.81561  0.45707  0.22785  1.0000
  C   C1731     1.0  0.79302  0.37345  0.40860  1.0000
  Fe  Fe162     1.0  0.78119  0.13112  0.35661  1.0000
  C   C1732     1.0  0.90177  0.44875  0.40655  1.0000
  C   C1733     1.0  0.79421  0.20176  0.45375  1.0000
  S   S329      1.0  0.96210  0.38260  0.36865  1.0000
  C   C1734     1.0  0.91540  0.06422  0.18095  1.0000
  H   H1365     1.0  0.79657  0.36586  0.43345  1.0000
  H   H1366     1.0  0.96509  0.05949  0.05242  1.0000
  C   C1735     1.0  0.94835  0.08650  0.42594  1.0000
  H   H1367     1.0  0.96868  0.31251  0.25165  1.0000
  C   C1736     1.0  0.80465  0.42883  0.14865  1.0000
  C   C1737     1.0  0.83262  0.02157  0.35923  1.0000
  C   C1738     1.0  0.85497  0.05400  0.37161  1.0000
  C   C1739     1.0  0.87330  0.05820  0.40108  1.0000
  C   C1740     1.0  0.87049  0.02993  0.41766  1.0000
  C   C1741     1.0  0.83330  0.42827  0.15579  1.0000
  Fe  Fe163     1.0  0.97190  0.00820  0.28949  1.0000
  H   H1368     1.0  0.78631  0.31431  0.35693  1.0000
  H   H1369     1.0  0.97441  0.09147  0.25921  1.0000
  S   S330      1.0  0.91871  0.44599  0.17960  1.0000
  H   H1370     1.0  0.79481  0.19941  0.39900  1.0000
  C   C1742     1.0  0.91099  0.44081  0.97784  1.0000
  H   H1371     1.0  0.81891  0.01878  0.33609  1.0000
  H   H1372     1.0  0.85830  0.07597  0.35801  1.0000
  H   H1373     1.0  0.88989  0.08361  0.41073  1.0000
  C   C1743     1.0  0.91836  0.13767  0.09895  1.0000
  C   C1744     1.0  0.78505  0.39392  0.34464  1.0000
  H   H1374     1.0  0.82198  0.43950  0.45219  1.0000
  H   H1375     1.0  0.82523  0.45021  0.27997  1.0000
  C   C1745     1.0  0.90605  0.42163  0.39603  1.0000
  C   C1746     1.0  0.90948  0.40143  0.42003  1.0000
  P   P52       1.0  0.89294  0.03593  0.45692  1.0000
  C   C1747     1.0  0.88314  0.45917  0.01730  1.0000
  H   H1376     1.0  0.90659  0.41605  0.36915  1.0000
  H   H1377     1.0  0.91309  0.38074  0.41153  1.0000
  H   H1378     1.0  0.95805  0.33130  0.42822  1.0000
  C   C1748     1.0  0.84561  0.03528  0.16933  1.0000
  H   H1379     1.0  0.89974  0.46440  0.38742  1.0000
  H   H1380     1.0  0.91087  0.03649  0.08543  1.0000
  Fe  Fe164     1.0  0.93346  0.45811  0.23477  1.0000
  H   H1381     1.0  0.88437  0.47600  0.03794  1.0000
  P   P53       1.0  0.80030  0.29982  0.23215  1.0000
  C   C1749     1.0  0.82186  0.30715  0.27265  1.0000
  C   C1750     1.0  0.82870  0.31387  0.19759  1.0000
  C   C1751     1.0  0.86001  0.34185  0.20252  1.0000
  C   C1752     1.0  0.88148  0.35390  0.17543  1.0000
  C   C1753     1.0  0.87193  0.33817  0.14315  1.0000
  C   C1754     1.0  0.84096  0.30999  0.13800  1.0000
  C   C1755     1.0  0.81932  0.29795  0.16507  1.0000
  C   C1756     1.0  0.83823  0.33973  0.28824  1.0000
  C   C1757     1.0  0.85514  0.34529  0.31919  1.0000
  C   C1758     1.0  0.85613  0.31858  0.33481  1.0000
  C   C1759     1.0  0.84023  0.28621  0.31942  1.0000
  C   C1760     1.0  0.82336  0.28053  0.28849  1.0000
  Fe  Fe165     1.0  0.78145  0.10613  0.42820  1.0000
  C   C1761     1.0  0.93603  0.05065  0.18480  1.0000
  C   C1762     1.0  0.95786  0.19403  0.31410  1.0000
  C   C1763     1.0  0.88131  0.01030  0.12853  1.0000
  C   C1764     1.0  0.90442  0.43524  0.46544  1.0000
  C   C1765     1.0  0.89099  0.07905  0.11694  1.0000
  C   C1766     1.0  0.93914  0.27373  0.16580  1.0000
  H   H1382     1.0  0.80772  0.24126  0.21381  1.0000
  C   C1767     1.0  0.87559  0.06877  0.08466  1.0000
  H   H1383     1.0  0.86793  0.35476  0.22711  1.0000
  H   H1384     1.0  0.90538  0.37592  0.17957  1.0000
  H   H1385     1.0  0.88847  0.34804  0.12215  1.0000
  H   H1386     1.0  0.83357  0.29773  0.11295  1.0000
  C   C1768     1.0  0.85222  0.48168  0.40017  1.0000
  H   H1387     1.0  0.83831  0.36106  0.27641  1.0000
  H   H1388     1.0  0.86823  0.37055  0.33066  1.0000
  H   H1389     1.0  0.87028  0.32329  0.35809  1.0000
  H   H1390     1.0  0.84166  0.26554  0.33078  1.0000
  H   H1391     1.0  0.81191  0.25519  0.27729  1.0000
  C   C1769     1.0  0.94894  0.47642  0.15462  1.0000
  C   C1770     1.0  0.97163  0.29594  0.15851  1.0000
  C   C1771     1.0  0.88195  0.09267  0.05967  1.0000
  C   C1772     1.0  0.95875  0.08456  0.23676  1.0000
  H   H1392     1.0  0.81365  0.35208  0.11804  1.0000
  H   H1393     1.0  0.88956  0.25883  0.15428  1.0000
  C   C1773     1.0  0.93954  0.31504  0.34612  1.0000
  P   P54       1.0  0.80127  0.46555  0.16039  1.0000
  C   C1774     1.0  0.87977  0.35181  0.02869  1.0000
  C   C1775     1.0  0.91228  0.11382  0.12393  1.0000
  C   C1776     1.0  0.91714  0.25683  0.43192  1.0000
  C   C1777     1.0  0.89713  0.27122  0.42871  1.0000
  C   C1778     1.0  0.87343  0.25986  0.40272  1.0000
  C   C1779     1.0  0.86967  0.23426  0.37960  1.0000
  C   C1780     1.0  0.88963  0.22012  0.38241  1.0000
  C   C1781     1.0  0.91315  0.23116  0.40845  1.0000
  C   C1782     1.0  0.91743  0.08871  0.20481  1.0000
  C   C1783     1.0  0.82844  0.99314  0.37640  1.0000
  H   H1394     1.0  0.85806  0.27094  0.40029  1.0000
  H   H1395     1.0  0.85130  0.22512  0.35943  1.0000
  H   H1396     1.0  0.88667  0.20027  0.36439  1.0000
  H   H1397     1.0  0.92780  0.21923  0.40993  1.0000
  C   C1784     1.0  0.90902  0.40845  0.45477  1.0000
  H   H1398     1.0  0.94939  0.31230  0.36987  1.0000
  H   H1399     1.0  0.90104  0.09870  0.20323  1.0000
  H   H1400     1.0  0.82074  0.47630  0.35800  1.0000
  C   C1785     1.0  0.85154  0.41246  0.97753  1.0000
  C   C1786     1.0  0.81948  0.03389  0.15116  1.0000
  H   H1401     1.0  0.81013  0.01203  0.24708  1.0000
  C   C1787     1.0  0.78650  0.01580  0.20170  1.0000
  H   H1402     1.0  0.79522  0.27646  0.16053  1.0000
  P   P55       1.0  0.94727  0.27127  0.46609  1.0000
  C   C1788     1.0  0.77820  0.32253  0.22965  1.0000
  H   H1403     1.0  0.77795  0.44379  0.39983  1.0000
  C   C1789     1.0  0.97343  0.39616  0.14552  1.0000
  C   C1790     1.0  0.89832  0.98434  0.08436  1.0000
  C   C1791     1.0  0.78227  0.23217  0.21830  1.0000
  H   H1404     1.0  0.78996  0.46990  0.45778  1.0000
  H   H1405     1.0  0.91117  0.98626  0.06100  1.0000
  H   H1406     1.0  0.97221  0.04909  0.21694  1.0000
  H   H1407     1.0  0.77946  0.33264  0.28411  1.0000
  H   H1408     1.0  0.97535  0.42645  0.18961  1.0000
  H   H1409     1.0  0.83285  0.14363  0.47115  1.0000
  H   H1410     1.0  0.89426  0.09676  0.48488  1.0000
  C   C1792     1.0  0.93053  0.28019  0.50357  1.0000
  H   H1411     1.0  0.93825  0.32428  0.63907  1.0000
  H   H1412     1.0  0.82964  0.40239  0.84095  1.0000
  H   H1413     1.0  0.94880  0.38031  0.83558  1.0000
  H   H1414     1.0  0.79396  0.31520  0.90492  1.0000
  Fe  Fe166     1.0  0.79055  0.14237  0.67725  1.0000
  S   S331      1.0  0.82652  0.19494  0.65945  1.0000
  Fe  Fe167     1.0  0.84639  0.12888  0.69654  1.0000
  S   S332      1.0  0.88590  0.18053  0.68156  1.0000
  S   S333      1.0  0.85435  0.08560  0.71321  1.0000
  Fe  Fe168     1.0  0.85640  0.20102  0.70606  1.0000
  S   S334      1.0  0.87944  0.25206  0.73513  1.0000
  Fe  Fe169     1.0  0.85383  0.17164  0.63619  1.0000
  S   S335      1.0  0.87777  0.18796  0.58550  1.0000
  S   S336      1.0  0.81903  0.14996  0.72617  1.0000
  S   S337      1.0  0.81572  0.11849  0.64895  1.0000
  C   C1793     1.0  0.90523  0.29132  0.56391  1.0000
  Fe  Fe170     1.0  0.85216  0.17442  0.93631  1.0000
  S   S338      1.0  0.86649  0.14367  0.90193  1.0000
  C   C1794     1.0  0.87427  0.47793  0.81389  1.0000
  S   S339      1.0  0.82400  0.15354  0.84030  1.0000
  C   C1795     1.0  0.83026  0.27605  0.78581  1.0000
  Fe  Fe171     1.0  0.87575  0.18237  0.86193  1.0000
  S   S340      1.0  0.91870  0.20360  0.82464  1.0000
  S   S341      1.0  0.86455  0.21468  0.89725  1.0000
  C   C1796     1.0  0.88635  0.26229  0.54342  1.0000
  S   S342      1.0  0.94710  0.44481  0.96033  1.0000
  H   H1415     1.0  0.78820  0.20576  0.50742  1.0000
  C   C1797     1.0  0.87546  0.07490  0.49760  1.0000
  H   H1416     1.0  0.77984  0.30099  0.75237  1.0000
  C   C1798     1.0  0.84661  0.16644  0.55546  1.0000
  C   C1799     1.0  0.85331  0.16426  0.52109  1.0000
  C   C1800     1.0  0.82774  0.14568  0.49767  1.0000
  C   C1801     1.0  0.79574  0.12930  0.50889  1.0000
  C   C1802     1.0  0.88311  0.30452  0.93857  1.0000
  C   C1803     1.0  0.81461  0.15035  0.56637  1.0000
  H   H1417     1.0  0.87808  0.17622  0.51268  1.0000
  H   H1418     1.0  0.93394  0.47088  0.86814  1.0000
  C   C1804     1.0  0.88826  0.08089  0.70249  1.0000
  C   C1805     1.0  0.88810  0.05081  0.71070  1.0000
  C   C1806     1.0  0.91476  0.04638  0.70311  1.0000
  C   C1807     1.0  0.78003  0.20760  0.48219  1.0000
  C   C1808     1.0  0.94212  0.07221  0.68750  1.0000
  C   C1809     1.0  0.91542  0.10645  0.68644  1.0000
  H   H1419     1.0  0.86725  0.03088  0.72313  1.0000
  H   H1420     1.0  0.96776  0.30687  0.73706  1.0000
  H   H1421     1.0  0.91602  0.12977  0.68013  1.0000
  C   C1810     1.0  0.90353  0.29116  0.71492  1.0000
  C   C1811     1.0  0.91202  0.29227  0.68067  1.0000
  C   C1812     1.0  0.93181  0.32372  0.66555  1.0000
  C   C1813     1.0  0.94315  0.35439  0.68433  1.0000
  C   C1814     1.0  0.93468  0.35338  0.71861  1.0000
  C   C1815     1.0  0.91499  0.32186  0.73383  1.0000
  H   H1422     1.0  0.90347  0.26883  0.66593  1.0000
  H   H1423     1.0  0.94356  0.37677  0.73346  1.0000
  H   H1424     1.0  0.90874  0.32114  0.76042  1.0000
  C   C1816     1.0  0.80869  0.27781  0.76291  1.0000
  C   C1817     1.0  0.93451  0.32739  0.83755  1.0000
  H   H1425     1.0  0.87222  0.44553  0.77191  1.0000
  H   H1426     1.0  0.82832  0.39315  0.96703  1.0000
  H   H1427     1.0  0.89165  0.29297  0.95672  1.0000
  H   H1428     1.0  0.87929  0.39848  0.94453  1.0000
  C   C1818     1.0  0.85853  0.45372  0.78752  1.0000
  H   H1429     1.0  0.89574  0.29513  0.58765  1.0000
  H   H1430     1.0  0.81322  0.42179  0.76063  1.0000
  C   C1819     1.0  0.84609  0.98733  0.80798  1.0000
  H   H1431     1.0  0.86242  0.24334  0.55149  1.0000
  H   H1432     1.0  0.79969  0.26060  0.74084  1.0000
  H   H1433     1.0  0.78253  0.40476  0.49433  1.0000
  H   H1434     1.0  0.95122  0.33750  0.57005  1.0000
  C   C1820     1.0  0.85276  0.28501  0.92268  1.0000
  C   C1821     1.0  0.86160  0.46728  0.48869  1.0000
  C   C1822     1.0  0.90243  0.33871  0.93077  1.0000
  C   C1823     1.0  0.83081  0.32083  0.82131  1.0000
  S   S343      1.0  0.78256  0.21132  0.87901  1.0000
  C   C1824     1.0  0.79775  0.30071  0.76931  1.0000
  H   H1435     1.0  0.85560  0.45118  0.57384  1.0000
  H   H1436     1.0  0.80923  0.15242  0.59271  1.0000
  C   C1825     1.0  0.83094  0.05180  0.53702  1.0000
  C   C1826     1.0  0.84094  0.02882  0.84311  1.0000
  C   C1827     1.0  0.81627  0.42624  0.53709  1.0000
  C   C1828     1.0  0.83378  0.47023  0.91339  1.0000
  H   H1437     1.0  0.84067  0.45336  0.90093  1.0000
  C   C1829     1.0  0.83014  0.00635  0.87004  1.0000
  C   C1830     1.0  0.81243  0.38512  0.85884  1.0000
  H   H1438     1.0  0.78247  0.44177  0.79572  1.0000
  H   H1439     1.0  0.88406  0.23399  0.49785  1.0000
  H   H1440     1.0  0.79889  0.41005  0.55555  1.0000
  S   S344      1.0  0.95332  0.46967  0.67020  1.0000
  C   C1831     1.0  0.82388  0.47622  0.82694  1.0000
  C   C1832     1.0  0.96222  0.22629  0.82339  1.0000
  H   H1441     1.0  0.85720  0.03685  0.79123  1.0000
  H   H1442     1.0  0.81600  0.05572  0.55526  1.0000
  H   H1443     1.0  0.83790  0.98847  0.49746  1.0000
  C   C1833     1.0  0.93658  0.31503  0.55410  1.0000
  C   C1834     1.0  0.82454  0.01896  0.52850  1.0000
  H   H1444     1.0  0.81870  0.28364  0.88596  1.0000
  C   C1835     1.0  0.97019  0.42365  0.53750  1.0000
  H   H1445     1.0  0.84249  0.05336  0.84610  1.0000
  C   C1836     1.0  0.94196  0.30239  0.82786  1.0000
  H   H1446     1.0  0.95277  0.43142  0.53111  1.0000
  H   H1447     1.0  0.83766  0.25839  0.92851  1.0000
  C   C1837     1.0  0.95796  0.23929  0.47560  1.0000
  H   H1448     1.0  0.88576  0.41938  0.88723  1.0000
  C   C1838     1.0  0.84371  0.01405  0.50463  1.0000
  H   H1449     1.0  0.93397  0.22594  0.52457  1.0000
  H   H1450     1.0  0.93059  0.42073  0.77279  1.0000
  H   H1451     1.0  0.91433  0.02323  0.70978  1.0000
  C   C1839     1.0  0.93512  0.44935  0.81906  1.0000
  H   H1452     1.0  0.83788  0.25749  0.78150  1.0000
  H   H1453     1.0  0.97539  0.44084  0.59010  1.0000
  C   C1840     1.0  0.96968  0.31098  0.80899  1.0000
  C   C1841     1.0  0.88055  0.41567  0.96467  1.0000
  C   C1842     1.0  0.85631  0.07972  0.52148  1.0000
  H   H1454     1.0  0.78473  0.04650  0.80728  1.0000
  C   C1843     1.0  0.79246  0.33617  0.89462  1.0000
  H   H1455     1.0  0.96253  0.21528  0.76965  1.0000
  H   H1456     1.0  0.90753  0.37952  0.90073  1.0000
  C   C1844     1.0  0.80819  0.45201  0.80058  1.0000
  C   C1845     1.0  0.80863  0.32206  0.79845  1.0000
  C   C1846     1.0  0.80699  0.42333  0.50277  1.0000
  H   H1457     1.0  0.86077  0.10510  0.52754  1.0000
  C   C1847     1.0  0.94218  0.10218  0.67921  1.0000
  C   C1848     1.0  0.94934  0.30932  0.52422  1.0000
  H   H1458     1.0  0.95571  0.47254  0.81029  1.0000
  H   H1459     1.0  0.79945  0.33922  0.80307  1.0000
  Fe  Fe172     1.0  0.81249  0.18383  0.87875  1.0000
  H   H1460     1.0  0.94031  0.07357  0.51144  1.0000
  H   H1461     1.0  0.95043  0.18432  0.53742  1.0000
  H   H1462     1.0  0.92586  0.35406  0.94337  1.0000
  C   C1849     1.0  0.81089  0.45775  0.93916  1.0000
  C   C1850     1.0  0.80166  0.47902  0.95572  1.0000
  H   H1463     1.0  0.91327  0.32064  0.85263  1.0000
  C   C1851     1.0  0.78928  0.13125  0.54324  1.0000
  C   C1852     1.0  0.95101  0.08501  0.48751  1.0000
  H   H1464     1.0  0.92632  0.27617  0.83490  1.0000
  H   H1465     1.0  0.85864  0.29595  0.83156  1.0000
  S   S345      1.0  0.79986  0.14508  0.91953  1.0000
  Fe  Fe173     1.0  0.81436  0.11634  0.88221  1.0000
  C   C1853     1.0  0.92259  0.44865  0.85138  1.0000
  C   C1854     1.0  0.94853  0.22164  0.50625  1.0000
  C   C1855     1.0  0.92091  0.42019  0.79792  1.0000
  C   C1856     1.0  0.89432  0.39029  0.80916  1.0000
  C   C1857     1.0  0.88120  0.38966  0.84143  1.0000
  C   C1858     1.0  0.89535  0.41924  0.86225  1.0000
  P   P56       1.0  0.84761  0.35094  0.85694  1.0000
  C   C1859     1.0  0.81585  0.35857  0.87206  1.0000
  C   C1860     1.0  0.84160  0.29767  0.81464  1.0000
  H   H1466     1.0  0.88425  0.36788  0.79251  1.0000
  C   C1861     1.0  0.86132  0.33357  0.89004  1.0000
  C   C1862     1.0  0.89174  0.35317  0.90647  1.0000
  C   C1863     1.0  0.82546  0.44064  0.78096  1.0000
  C   C1864     1.0  0.95809  0.19804  0.51387  1.0000
  C   C1865     1.0  0.84902  0.01938  0.81213  1.0000
  C   C1866     1.0  0.84195  0.29945  0.89858  1.0000
  C   C1867     1.0  0.86967  0.04206  0.48952  1.0000
  C   C1868     1.0  0.84816  0.44949  0.54735  1.0000
  C   C1869     1.0  0.89879  0.25691  0.51317  1.0000
  S   S346      1.0  0.78300  0.05744  0.88206  1.0000
  C   C1870     1.0  0.82955  0.44355  0.47873  1.0000
  C   C1871     1.0  0.95458  0.36096  0.82795  1.0000
  H   H1467     1.0  0.90438  0.44041  0.49249  1.0000
  H   H1468     1.0  0.89783  0.00398  0.51943  1.0000
  H   H1469     1.0  0.95633  0.26059  0.69587  1.0000
  H   H1470     1.0  0.82336  0.01359  0.89381  1.0000
  H   H1471     1.0  0.80031  0.43153  0.94645  1.0000
  H   H1472     1.0  0.96321  0.12239  0.66731  1.0000
  H   H1473     1.0  0.97095  0.24218  0.87633  1.0000
  H   H1474     1.0  0.78256  0.40855  0.85685  1.0000
  H   H1475     1.0  0.80442  0.99731  0.54000  1.0000
  C   C1872     1.0  0.90219  0.99179  0.49768  1.0000
  S   S347      1.0  0.96850  0.39300  0.66380  1.0000
  C   C1873     1.0  0.78578  0.38866  0.86753  1.0000
  C   C1874     1.0  0.87083  0.46968  0.52325  1.0000
  H   H1476     1.0  0.97059  0.40473  0.48661  1.0000
  H   H1477     1.0  0.97398  0.32731  0.51763  1.0000
  H   H1478     1.0  0.97531  0.29131  0.80220  1.0000
  H   H1479     1.0  0.91229  0.39314  0.47334  1.0000
  H   H1480     1.0  0.77778  0.20095  0.57085  1.0000
  C   C1875     1.0  0.81709  0.87767  0.07620  1.0000
  S   S348      1.0  0.92095  0.91416  0.25336  1.0000
  H   H1481     1.0  0.89750  0.92054  0.37342  1.0000
  Fe  Fe174     1.0  0.90284  0.94078  0.28872  1.0000
  S   S349      1.0  0.84707  0.90935  0.29552  1.0000
  H   H1482     1.0  0.87605  0.52124  0.22936  1.0000
  C   C1876     1.0  0.86417  0.72475  0.38041  1.0000
  H   H1483     1.0  0.80749  0.53236  0.26445  1.0000
  S   S350      1.0  0.80200  0.64079  0.41625  1.0000
  S   S351      1.0  0.91872  0.48789  0.26835  1.0000
  Fe  Fe175     1.0  0.82350  0.61683  0.38237  1.0000
  S   S352      1.0  0.87976  0.64120  0.38408  1.0000
  S   S353      1.0  0.79684  0.56623  0.40860  1.0000
  Fe  Fe176     1.0  0.80686  0.62747  0.25742  1.0000
  S   S354      1.0  0.83611  0.67363  0.22548  1.0000
  Fe  Fe177     1.0  0.86851  0.62156  0.27392  1.0000
  S   S355      1.0  0.90072  0.66811  0.24314  1.0000
  S   S356      1.0  0.87935  0.58042  0.29625  1.0000
  Fe  Fe178     1.0  0.87450  0.69335  0.26754  1.0000
  S   S357      1.0  0.89168  0.75035  0.28027  1.0000
  Fe  Fe179     1.0  0.86048  0.64658  0.20302  1.0000
  S   S358      1.0  0.87366  0.64337  0.14681  1.0000
  S   S359      1.0  0.84438  0.64824  0.30017  1.0000
  S   S360      1.0  0.82930  0.59921  0.23218  1.0000
  S   S361      1.0  0.82517  0.66564  0.00124  1.0000
  C   C1877     1.0  0.90817  0.57129  0.31735  1.0000
  C   C1878     1.0  0.90064  0.53731  0.32092  1.0000
  C   C1879     1.0  0.92186  0.52892  0.33831  1.0000
  C   C1880     1.0  0.95160  0.55426  0.35242  1.0000
  C   C1881     1.0  0.87663  0.75847  0.39154  1.0000
  C   C1882     1.0  0.93762  0.59652  0.33180  1.0000
  H   H1484     1.0  0.87816  0.51709  0.31022  1.0000
  H   H1485     1.0  0.80259  0.91493  0.40851  1.0000
  H   H1486     1.0  0.94465  0.62264  0.32825  1.0000
  C   C1883     1.0  0.91474  0.78729  0.30799  1.0000
  C   C1884     1.0  0.91445  0.81733  0.30086  1.0000
  C   C1885     1.0  0.93300  0.84762  0.32062  1.0000
  C   C1886     1.0  0.95193  0.84873  0.34861  1.0000
  C   C1887     1.0  0.93319  0.78798  0.33636  1.0000
  H   H1487     1.0  0.90018  0.81744  0.27948  1.0000
  H   H1488     1.0  0.93349  0.87058  0.31353  1.0000
  C   C1888     1.0  0.85927  0.64914  0.10667  1.0000
  C   C1889     1.0  0.87115  0.64252  0.07629  1.0000
  C   C1890     1.0  0.86088  0.64706  0.04388  1.0000
  C   C1891     1.0  0.83867  0.65859  0.04133  1.0000
  C   C1892     1.0  0.82679  0.66519  0.07172  1.0000
  C   C1893     1.0  0.83695  0.66050  0.10412  1.0000
  H   H1489     1.0  0.88834  0.63365  0.07788  1.0000
  H   H1490     1.0  0.87022  0.64177  0.02087  1.0000
  C   C1894     1.0  0.90947  0.73893  0.00539  1.0000
  H   H1491     1.0  0.82753  0.66570  0.12712  1.0000
  C   C1895     1.0  0.91754  0.66859  0.36322  1.0000
  C   C1896     1.0  0.94549  0.66704  0.37216  1.0000
  C   C1897     1.0  0.93979  0.82879  0.21159  1.0000
  C   C1898     1.0  0.95076  0.71196  0.32229  1.0000
  C   C1899     1.0  0.92089  0.69219  0.33884  1.0000
  H   H1492     1.0  0.94379  0.64949  0.39125  1.0000
  H   H1493     1.0  0.90079  0.69587  0.33295  1.0000
  C   C1900     1.0  0.81627  0.89748  0.32708  1.0000
  C   C1901     1.0  0.82246  0.91304  0.35963  1.0000
  C   C1902     1.0  0.79731  0.90250  0.38364  1.0000
  C   C1903     1.0  0.79202  0.87031  0.13169  1.0000
  H   H1494     1.0  0.81669  0.83071  0.41144  1.0000
  C   C1904     1.0  0.91191  0.73042  0.03886  1.0000
  H   H1495     1.0  0.84664  0.93340  0.36621  1.0000
  C   C1905     1.0  0.96717  0.60635  0.05183  1.0000
  C   C1906     1.0  0.97315  0.50670  0.16981  1.0000
  H   H1496     1.0  0.92063  0.71299  0.04378  1.0000
  C   C1907     1.0  0.83849  0.89824  0.98678  1.0000
  C   C1908     1.0  0.85924  0.77516  0.38535  1.0000
  H   H1497     1.0  0.78504  0.88752  0.46222  1.0000
  H   H1498     1.0  0.85684  0.89158  0.41822  1.0000
  H   H1499     1.0  0.97204  0.51234  0.19654  1.0000
  H   H1500     1.0  0.90054  0.77217  0.40344  1.0000
  C   C1909     1.0  0.84634  0.53294  0.14402  1.0000
  H   H1501     1.0  0.88064  0.58433  0.13096  1.0000
  C   C1910     1.0  0.81706  0.49234  0.27580  1.0000
  C   C1911     1.0  0.80087  0.90797  0.20979  1.0000
  C   C1912     1.0  0.78505  0.89604  0.12409  1.0000
  C   C1913     1.0  0.88062  0.87550  0.34206  1.0000
  C   C1914     1.0  0.85786  0.84111  0.33769  1.0000
  C   C1915     1.0  0.83426  0.82459  0.36229  1.0000
  C   C1916     1.0  0.83425  0.84286  0.39172  1.0000
  P   P57       1.0  0.80701  0.77952  0.35782  1.0000
  H   H1502     1.0  0.86712  0.83349  0.44224  1.0000
  C   C1917     1.0  0.81188  0.76006  0.29095  1.0000
  Fe  Fe180     1.0  0.94258  0.96207  0.22472  1.0000
  C   C1918     1.0  0.96787  0.98013  0.14525  1.0000
  H   H1503     1.0  0.79868  0.51786  0.20262  1.0000
  H   H1504     1.0  0.95257  0.72981  0.30345  1.0000
  H   H1505     1.0  0.82078  0.49898  0.30277  1.0000
  C   C1919     1.0  0.86625  0.97941  0.14546  1.0000
  C   C1920     1.0  0.94014  0.87872  0.08036  1.0000
  H   H1506     1.0  0.77891  0.85920  0.29397  1.0000
  C   C1921     1.0  0.95838  0.63208  0.10251  1.0000
  H   H1507     1.0  0.85730  0.77150  0.46132  1.0000
  C   C1922     1.0  0.82862  0.75775  0.36906  1.0000
  H   H1508     1.0  0.93396  0.76536  0.34251  1.0000
  C   C1923     1.0  0.83394  0.70748  0.36386  1.0000
  C   C1924     1.0  0.81599  0.72365  0.35874  1.0000
  C   C1925     1.0  0.88042  0.89361  0.37109  1.0000
  H   H1509     1.0  0.89789  0.88846  0.32237  1.0000
  H   H1510     1.0  0.85881  0.82751  0.31514  1.0000
  C   C1926     1.0  0.86730  0.95132  0.13191  1.0000
  H   H1511     1.0  0.92690  0.83820  0.22684  1.0000
  C   C1927     1.0  0.80087  0.74919  0.25740  1.0000
  H   H1512     1.0  0.93322  0.90171  0.12588  1.0000
  H   H1513     1.0  0.81408  0.74112  0.24089  1.0000
  H   H1514     1.0  0.83395  0.76082  0.29938  1.0000
  H   H1515     1.0  0.97011  0.87973  0.45404  1.0000
  C   C1928     1.0  0.80780  0.86098  0.10721  1.0000
  C   C1929     1.0  0.95099  0.81816  0.35685  1.0000
  H   H1516     1.0  0.82457  0.68165  0.35437  1.0000
  C   C1930     1.0  0.97531  0.68647  0.35522  1.0000
  C   C1931     1.0  0.85255  0.51562  0.07670  1.0000
  C   C1932     1.0  0.87015  0.54944  0.08828  1.0000
  H   H1517     1.0  0.85453  0.50872  0.05052  1.0000
  H   H1518     1.0  0.88595  0.56898  0.07115  1.0000
  H   H1519     1.0  0.95946  0.51281  0.43995  1.0000
  C   C1933     1.0  0.95363  0.62422  0.06746  1.0000
  H   H1520     1.0  0.81730  0.91646  0.04521  1.0000
  H   H1521     1.0  0.93922  0.63176  0.05251  1.0000
  C   C1934     1.0  0.81083  0.74479  0.02826  1.0000
  C   C1935     1.0  0.82823  0.77968  0.02178  1.0000
  C   C1936     1.0  0.81117  0.79693  0.01588  1.0000
  P   P58       1.0  0.87189  0.80217  0.01830  1.0000
  C   C1937     1.0  0.89100  0.83557  0.05095  1.0000
  C   C1938     1.0  0.88750  0.77395  0.02594  1.0000
  C   C1939     1.0  0.79411  0.76881  0.31346  1.0000
  H   H1522     1.0  0.90279  0.73569  0.09174  1.0000
  H   H1523     1.0  0.79279  0.70991  0.34542  1.0000
  C   C1940     1.0  0.89756  0.76083  0.99892  1.0000
  C   C1941     1.0  0.88965  0.76491  0.05951  1.0000
  C   C1942     1.0  0.92501  0.85456  0.05380  1.0000
  H   H1524     1.0  0.81710  0.87475  0.99320  1.0000
  C   C1943     1.0  0.89781  0.93272  0.98338  1.0000
  C   C1944     1.0  0.88773  0.86426  0.10276  1.0000
  C   C1945     1.0  0.87247  0.84037  0.07596  1.0000
  C   C1946     1.0  0.88025  0.81709  0.97503  1.0000
  C   C1947     1.0  0.86969  0.90266  0.99244  1.0000
  C   C1948     1.0  0.92150  0.88337  0.10494  1.0000
  C   C1949     1.0  0.94210  0.78254  0.18260  1.0000
  H   H1525     1.0  0.81741  0.86630  0.23560  1.0000
  C   C1950     1.0  0.96744  0.97391  0.11015  1.0000
  H   H1526     1.0  0.82313  0.73041  0.03161  1.0000
  H   H1527     1.0  0.90541  0.55722  0.43956  1.0000
  H   H1528     1.0  0.82512  0.71200  0.44150  1.0000
  C   C1951     1.0  0.82871  0.49883  0.13275  1.0000
  C   C1952     1.0  0.92473  0.79464  0.20106  1.0000
  C   C1953     1.0  0.97467  0.80452  0.17512  1.0000
  H   H1529     1.0  0.88152  0.77424  0.08073  1.0000
  H   H1530     1.0  0.82936  0.87057  0.05742  1.0000
  S   S362      1.0  0.94753  0.96014  0.32210  1.0000
  S   S363      1.0  0.93255  0.95704  0.16832  1.0000
  H   H1531     1.0  0.87358  0.86794  0.12221  1.0000
  H   H1532     1.0  0.84635  0.82523  0.07539  1.0000
  H   H1533     1.0  0.92171  0.86647  0.98782  1.0000
  C   C1954     1.0  0.97235  0.85071  0.20445  1.0000
  H   H1534     1.0  0.85695  0.92803  0.14583  1.0000
  H   H1535     1.0  0.80956  0.67401  0.07020  1.0000
  H   H1536     1.0  0.93988  0.85049  0.03567  1.0000
  H   H1537     1.0  0.81055  0.96804  0.36690  1.0000
  C   C1955     1.0  0.80578  0.83565  0.18865  1.0000
  C   C1956     1.0  0.91749  0.96271  0.44248  1.0000
  C   C1957     1.0  0.82172  0.84899  0.22028  1.0000
  C   C1958     1.0  0.87252  0.55081  0.39927  1.0000
  H   H1538     1.0  0.88129  0.57784  0.39771  1.0000
  H   H1539     1.0  0.83839  0.53789  0.35772  1.0000
  H   H1540     1.0  0.87721  0.57598  0.22501  1.0000
  C   C1959     1.0  0.84833  0.52821  0.37648  1.0000
  C   C1960     1.0  0.88317  0.95372  0.10133  1.0000
  H   H1541     1.0  0.84358  0.97501  0.41875  1.0000
  H   H1542     1.0  0.91828  0.51310  0.20115  1.0000
  C   C1961     1.0  0.83181  0.80128  0.18468  1.0000
  C   C1962     1.0  0.84861  0.81594  0.21538  1.0000
  C   C1963     1.0  0.84312  0.83933  0.23340  1.0000
  H   H1543     1.0  0.83515  0.78213  0.17144  1.0000
  H   H1544     1.0  0.86499  0.80831  0.22592  1.0000
  H   H1545     1.0  0.85515  0.84991  0.25785  1.0000
  H   H1546     1.0  0.84429  0.54054  0.16966  1.0000
  C   C1964     1.0  0.85735  0.87728  0.39607  1.0000
  H   H1547     1.0  0.96545  0.81824  0.37823  1.0000
  C   C1965     1.0  0.90189  0.74328  0.06591  1.0000
  H   H1548     1.0  0.87210  0.88246  0.00347  1.0000
  H   H1549     1.0  0.87035  0.80182  0.39222  1.0000
  H   H1550     1.0  0.85473  0.97730  0.16974  1.0000
  C   C1966     1.0  0.95864  0.52910  0.46004  1.0000
  C   C1967     1.0  0.94785  0.59675  0.18547  1.0000
  C   C1968     1.0  0.94575  0.56494  0.18566  1.0000
  C   C1969     1.0  0.91946  0.53746  0.20060  1.0000
  C   C1970     1.0  0.89531  0.54178  0.21579  1.0000
  C   C1971     1.0  0.89628  0.57287  0.21384  1.0000
  C   C1972     1.0  0.92212  0.60016  0.19815  1.0000
  C   C1973     1.0  0.88805  0.84096  0.45855  1.0000
  C   C1974     1.0  0.88628  0.53885  0.42287  1.0000
  H   H1551     1.0  0.78828  0.93205  0.08746  1.0000
  H   H1552     1.0  0.87819  0.71216  0.38390  1.0000
  H   H1553     1.0  0.91611  0.72790  0.98432  1.0000
  H   H1554     1.0  0.96341  0.60013  0.02472  1.0000
  Fe  Fe181     1.0  0.96944  0.51169  0.29208  1.0000
  C   C1975     1.0  0.79427  0.91260  0.09312  1.0000
  P   P59       1.0  0.77786  0.84785  0.17119  1.0000
  C   C1976     1.0  0.94621  0.86692  0.46513  1.0000
  C   C1977     1.0  0.78436  0.87149  0.31902  1.0000
  C   C1978     1.0  0.87588  0.50396  0.42392  1.0000
  C   C1979     1.0  0.80536  0.50341  0.21899  1.0000
  H   H1555     1.0  0.94508  0.95616  0.09703  1.0000
  C   C1980     1.0  0.80963  0.51132  0.25397  1.0000
  H   H1556     1.0  0.92486  0.95270  0.42123  1.0000
  C   C1981     1.0  0.77695  0.72771  0.02957  1.0000
  H   H1557     1.0  0.94710  0.64519  0.11455  1.0000
  H   H1558     1.0  0.81908  0.95510  0.23856  1.0000
  H   H1559     1.0  0.92197  0.62378  0.19650  1.0000
  H   H1560     1.0  0.82480  0.91404  0.20156  1.0000
  C   C1982     1.0  0.81009  0.81066  0.17165  1.0000
  P   P60       1.0  0.89172  0.48791  0.45630  1.0000
  H   H1561     1.0  0.92168  0.86281  0.41747  1.0000
  C   C1983     1.0  0.91888  0.85743  0.44448  1.0000
  H   H1562     1.0  0.91480  0.50264  0.34105  1.0000
  C   C1984     1.0  0.95827  0.58811  0.35037  1.0000
  H   H1563     1.0  0.82405  0.82354  0.00967  1.0000
  H   H1564     1.0  0.81267  0.84072  0.11169  1.0000
  C   C1985     1.0  0.83202  0.49043  0.09881  1.0000
  H   H1565     1.0  0.97117  0.65975  0.23054  1.0000
  C   C1986     1.0  0.81041  0.90356  0.06923  1.0000
  H   H1566     1.0  0.93067  0.75578  0.17551  1.0000
  H   H1567     1.0  0.90002  0.77727  0.20838  1.0000
  C   C1987     1.0  0.83850  0.49370  0.37662  1.0000
  Fe  Fe182     1.0  0.96828  0.93747  0.28349  1.0000
  S   S364      1.0  0.78296  0.60026  0.34241  1.0000
  C   C1988     1.0  0.86710  0.55807  0.12194  1.0000
  C   C1989     1.0  0.81554  0.72188  0.46077  1.0000
  H   H1568     1.0  0.88455  0.93211  0.09131  1.0000
  H   H1569     1.0  0.96484  0.56171  0.17486  1.0000
  H   H1570     1.0  0.79620  0.79790  0.14870  1.0000
  C   C1990     1.0  0.79771  0.93160  0.23034  1.0000
  S   S365      1.0  0.93627  0.93547  0.98888  1.0000
  H   H1571     1.0  0.96980  0.81798  0.00757  1.0000
  H   H1572     1.0  0.96637  0.89383  0.08204  1.0000
  C   C1991     1.0  0.97584  0.49301  0.10033  1.0000
  C   C1992     1.0  0.77731  0.77981  0.01738  1.0000
  C   C1993     1.0  0.83493  0.92391  0.97196  1.0000
  C   C1994     1.0  0.97635  0.82422  0.98122  1.0000
  H   H1573     1.0  0.89603  0.76714  0.97282  1.0000
  C   C1995     1.0  0.84760  0.50419  0.90382  1.0000
  Fe  Fe183     1.0  0.97172  0.95537  0.70974  1.0000
  H   H1574     1.0  0.79033  0.92816  0.77616  1.0000
  H   H1575     1.0  0.86286  0.53254  0.55246  1.0000
  H   H1576     1.0  0.92254  0.70701  0.52295  1.0000
  C   C1996     1.0  0.80071  0.91344  0.76583  1.0000
  H   H1577     1.0  0.80807  0.48296  0.55055  1.0000
  C   C1997     1.0  0.79644  0.53249  0.49516  1.0000
  Fe  Fe184     1.0  0.85853  0.65820  0.70296  1.0000
  S   S366      1.0  0.86995  0.71168  0.68386  1.0000
  S   S367      1.0  0.91557  0.63391  0.72340  1.0000
  Fe  Fe185     1.0  0.83341  0.71159  0.71879  1.0000
  S   S368      1.0  0.84529  0.75787  0.75207  1.0000
  Fe  Fe186     1.0  0.82774  0.68588  0.64798  1.0000
  S   S369      1.0  0.83562  0.70613  0.59552  1.0000
  S   S370      1.0  0.82119  0.66107  0.74013  1.0000
  S   S371      1.0  0.81616  0.63377  0.66243  1.0000
  C   C1998     1.0  0.97072  0.81836  0.84412  1.0000
  Fe  Fe187     1.0  0.83744  0.66314  0.94468  1.0000
  S   S372      1.0  0.86206  0.63753  0.91843  1.0000
  Fe  Fe188     1.0  0.82971  0.69347  0.87776  1.0000
  S   S373      1.0  0.85449  0.67039  0.84726  1.0000
  Fe  Fe189     1.0  0.82388  0.62247  0.87655  1.0000
  Fe  Fe190     1.0  0.89092  0.68675  0.89043  1.0000
  S   S374      1.0  0.94695  0.71433  0.89003  1.0000
  S   S375      1.0  0.86827  0.71292  0.91916  1.0000
  H   H1578     1.0  0.86887  0.56185  0.73720  1.0000
  C   C1999     1.0  0.78493  0.70068  0.47399  1.0000
  C   C2000     1.0  0.90659  0.58896  0.88013  1.0000
  H   H1579     1.0  0.91556  0.98161  0.96126  1.0000
  H   H1580     1.0  0.94446  0.71153  0.81449  1.0000
  C   C2001     1.0  0.81411  0.67226  0.56683  1.0000
  C   C2002     1.0  0.82419  0.67449  0.53313  1.0000
  C   C2003     1.0  0.86016  0.79612  0.94798  1.0000
  C   C2004     1.0  0.94696  0.77763  0.79657  1.0000
  C   C2005     1.0  0.82724  0.97431  0.86603  1.0000
  C   C2006     1.0  0.92908  0.93779  0.86654  1.0000
  H   H1581     1.0  0.84505  0.69748  0.52465  1.0000
  C   C2007     1.0  0.78737  0.64254  0.57791  1.0000
  C   C2008     1.0  0.91920  0.59717  0.72827  1.0000
  C   C2009     1.0  0.95029  0.60100  0.72656  1.0000
  C   C2010     1.0  0.87339  0.92210  0.87795  1.0000
  C   C2011     1.0  0.92929  0.54169  0.73950  1.0000
  H   H1582     1.0  0.84729  0.55132  0.91269  1.0000
  C   C2012     1.0  0.89291  0.56517  0.73529  1.0000
  H   H1583     1.0  0.90615  0.54205  0.50782  1.0000
  H   H1584     1.0  0.86325  0.54734  0.80787  1.0000
  H   H1585     1.0  0.84786  0.87974  0.78799  1.0000
  C   C2013     1.0  0.87368  0.80194  0.74899  1.0000
  C   C2014     1.0  0.89082  0.81710  0.71927  1.0000
  C   C2015     1.0  0.91213  0.85281  0.71877  1.0000
  C   C2016     1.0  0.91655  0.87319  0.74815  1.0000
  C   C2017     1.0  0.89965  0.85770  0.77760  1.0000
  C   C2018     1.0  0.87837  0.82260  0.77794  1.0000
  H   H1586     1.0  0.88752  0.80142  0.69677  1.0000
  H   H1587     1.0  0.95109  0.51152  0.95207  1.0000
  H   H1588     1.0  0.86554  0.81132  0.80105  1.0000
  H   H1589     1.0  0.94980  0.76448  0.77467  1.0000
  S   S376      1.0  0.81809  0.73101  0.85139  1.0000
  H   H1590     1.0  0.95230  0.94156  0.87529  1.0000
  H   H1591     1.0  0.84978  0.79133  0.89387  1.0000
  H   H1592     1.0  0.94506  0.95377  0.81541  1.0000
  H   H1593     1.0  0.81895  0.95731  0.88730  1.0000
  H   H1594     1.0  0.89582  0.48596  0.53146  1.0000
  C   C2019     1.0  0.97422  0.80101  0.81586  1.0000
  C   C2020     1.0  0.86560  0.80754  0.91452  1.0000
  C   C2021     1.0  0.94265  0.85989  0.49992  1.0000
  H   H1595     1.0  0.90287  0.87298  0.80043  1.0000
  C   C2022     1.0  0.81528  0.51283  0.94636  1.0000
  H   H1596     1.0  0.90655  0.92181  0.91525  1.0000
  H   H1597     1.0  0.83822  0.58591  0.69746  1.0000
  H   H1598     1.0  0.80759  0.52908  0.95882  1.0000
  C   C2023     1.0  0.86893  0.92813  0.84392  1.0000
  C   C2024     1.0  0.91224  0.78729  0.83434  1.0000
  C   C2025     1.0  0.94822  0.51872  0.92673  1.0000
  C   C2026     1.0  0.84421  0.53267  0.53672  1.0000
  C   C2027     1.0  0.94096  0.53796  0.86158  1.0000
  C   C2028     1.0  0.89518  0.94009  0.82164  1.0000
  C   C2029     1.0  0.81276  0.50457  0.53587  1.0000
  C   C2030     1.0  0.89430  0.95851  0.96880  1.0000
  C   C2031     1.0  0.97113  0.54324  0.87264  1.0000
  C   C2032     1.0  0.80797  0.64645  0.51063  1.0000
  S   S377      1.0  0.79956  0.57387  0.84191  1.0000
  C   C2033     1.0  0.80374  0.87907  0.71942  1.0000
  C   C2034     1.0  0.79686  0.89108  0.85258  1.0000
  H   H1599     1.0  0.83136  0.60516  0.57967  1.0000
  C   C2035     1.0  0.85579  0.61217  0.70228  1.0000
  S   S378      1.0  0.94277  0.91794  0.75070  1.0000
  C   C2036     1.0  0.88699  0.56153  0.85774  1.0000
  C   C2037     1.0  0.95803  0.57332  0.51035  1.0000
  C   C2038     1.0  0.79239  0.81955  0.48341  1.0000
  H   H1600     1.0  0.89481  0.75233  0.79120  1.0000
  H   H1601     1.0  0.91389  0.58463  0.90486  1.0000
  H   H1602     1.0  0.84055  0.54784  0.66119  1.0000
  C   C2039     1.0  0.79067  0.74722  0.51040  1.0000
  H   H1603     1.0  0.86800  0.88576  0.50277  1.0000
  C   C2040     1.0  0.78788  0.76257  0.82129  1.0000
  H   H1604     1.0  0.83284  0.85592  0.72952  1.0000
  C   C2041     1.0  0.91173  0.84339  0.51409  1.0000
  C   C2042     1.0  0.88417  0.83389  0.49340  1.0000
  C   C2043     1.0  0.91786  0.51283  0.91563  1.0000
  P   P61       1.0  0.84384  0.81321  0.51063  1.0000
  C   C2044     1.0  0.82118  0.76897  0.49659  1.0000
  C   C2045     1.0  0.84666  0.81605  0.55684  1.0000
  C   C2046     1.0  0.84435  0.78887  0.57537  1.0000
  C   C2047     1.0  0.84761  0.79139  0.61100  1.0000
  C   C2048     1.0  0.85373  0.82120  0.62840  1.0000
  C   C2049     1.0  0.85661  0.84857  0.61018  1.0000
  C   C2050     1.0  0.85308  0.84605  0.57458  1.0000
  C   C2051     1.0  0.85695  0.48898  0.83419  1.0000
  H   H1605     1.0  0.94774  0.65177  0.65455  1.0000
  C   C2052     1.0  0.89805  0.53770  0.74144  1.0000
  H   H1606     1.0  0.85394  0.91427  0.89603  1.0000
  C   C2053     1.0  0.95530  0.57345  0.73162  1.0000
  C   C2054     1.0  0.82472  0.83646  0.49547  1.0000
  C   C2055     1.0  0.96957  0.72458  0.82286  1.0000
  H   H1607     1.0  0.93201  0.64340  0.88805  1.0000
  C   C2056     1.0  0.79473  0.52472  0.63444  1.0000
  C   C2057     1.0  0.87818  0.56789  0.82574  1.0000
  C   C2058     1.0  0.79023  0.55629  0.58798  1.0000
  H   H1608     1.0  0.90962  0.83846  0.54112  1.0000
  C   C2059     1.0  0.83292  0.88620  0.77255  1.0000
  H   H1609     1.0  0.84065  0.76589  0.56241  1.0000
  H   H1610     1.0  0.84599  0.77039  0.62513  1.0000
  H   H1611     1.0  0.85678  0.82329  0.65597  1.0000
  H   H1612     1.0  0.86219  0.87201  0.62366  1.0000
  H   H1613     1.0  0.85604  0.86785  0.56117  1.0000
  H   H1614     1.0  0.89267  0.94590  0.79552  1.0000
  C   C2060     1.0  0.91164  0.86062  0.93426  1.0000
  H   H1615     1.0  0.87892  0.55107  0.61591  1.0000
  S   S379      1.0  0.93582  0.50760  0.74935  1.0000
  H   H1616     1.0  0.87774  0.51336  0.74778  1.0000
  H   H1617     1.0  0.89789  0.50140  0.93307  1.0000
  H   H1618     1.0  0.96465  0.61469  0.82521  1.0000
  H   H1619     1.0  0.91172  0.61755  0.56914  1.0000
  H   H1620     1.0  0.92005  0.68707  0.66470  1.0000
  C   C2061     1.0  0.79198  0.89955  0.73267  1.0000
  C   C2062     1.0  0.82781  0.56053  0.49602  1.0000
  H   H1621     1.0  0.84287  0.61009  0.75788  1.0000
  C   C2063     1.0  0.91601  0.77067  0.80589  1.0000
  H   H1622     1.0  0.89679  0.71778  0.57270  1.0000
  C   C2064     1.0  0.91918  0.95305  0.47560  1.0000
  C   C2065     1.0  0.91701  0.62225  0.87071  1.0000
  C   C2066     1.0  0.78105  0.61679  0.52158  1.0000
  C   C2067     1.0  0.85863  0.62625  0.73824  1.0000
  H   H1623     1.0  0.92985  0.65683  0.52123  1.0000
  C   C2068     1.0  0.88365  0.66293  0.74696  1.0000
  C   C2069     1.0  0.90564  0.68533  0.71959  1.0000
  C   C2070     1.0  0.89123  0.83984  0.90766  1.0000
  H   H1624     1.0  0.81713  0.85802  0.85749  1.0000
  S   S380      1.0  0.79721  0.64498  0.90451  1.0000
  C   C2071     1.0  0.83365  0.75584  0.47198  1.0000
  P   P62       1.0  0.87613  0.51911  0.86943  1.0000
  H   H1625     1.0  0.88248  0.60616  0.79156  1.0000
  C   C2072     1.0  0.83452  0.96429  0.83468  1.0000
  H   H1626     1.0  0.96557  0.93017  0.51237  1.0000
  H   H1627     1.0  0.95791  0.59072  0.52959  1.0000
  H   H1628     1.0  0.92523  0.86448  0.69591  1.0000
  C   C2073     1.0  0.82196  0.90762  0.78567  1.0000
  C   C2074     1.0  0.82853  0.89049  0.48277  1.0000
  H   H1629     1.0  0.78401  0.50261  0.65024  1.0000
  H   H1630     1.0  0.84258  0.91793  0.48193  1.0000
  H   H1631     1.0  0.92429  0.71111  0.72613  1.0000
  C   C2075     1.0  0.91396  0.52241  0.88288  1.0000
  C   C2076     1.0  0.82415  0.87233  0.73940  1.0000
  H   H1632     1.0  0.88619  0.67281  0.77290  1.0000
  C   C2077     1.0  0.96591  0.61763  0.64632  1.0000
  H   H1633     1.0  0.87703  0.67802  0.62007  1.0000
  C   C2078     1.0  0.92709  0.56099  0.62563  1.0000
  C   C2079     1.0  0.90277  0.56972  0.62527  1.0000
  C   C2080     1.0  0.90966  0.60231  0.63649  1.0000
  C   C2081     1.0  0.94161  0.62631  0.64639  1.0000
  P   P63       1.0  0.87979  0.61572  0.63329  1.0000
  C   C2082     1.0  0.89370  0.64527  0.59879  1.0000
  C   C2083     1.0  0.84012  0.58035  0.62191  1.0000
  C   C2084     1.0  0.82180  0.58273  0.59497  1.0000
  H   H1634     1.0  0.91599  0.65415  0.83164  1.0000
  C   C2085     1.0  0.93944  0.81110  0.85331  1.0000
  C   C2086     1.0  0.83800  0.52540  0.92029  1.0000
  C   C2087     1.0  0.82664  0.55060  0.64082  1.0000
  C   C2088     1.0  0.88917  0.67343  0.59917  1.0000
  C   C2089     1.0  0.90006  0.69586  0.57214  1.0000
  C   C2090     1.0  0.91459  0.68982  0.54407  1.0000
  C   C2091     1.0  0.91865  0.66149  0.54314  1.0000
  C   C2092     1.0  0.90833  0.63933  0.57038  1.0000
  C   C2093     1.0  0.87811  0.63447  0.67442  1.0000
  C   C2094     1.0  0.90279  0.67120  0.68337  1.0000
  H   H1635     1.0  0.77865  0.53244  0.47791  1.0000
  H   H1636     1.0  0.93152  0.88577  0.92912  1.0000
  H   H1637     1.0  0.92177  0.53573  0.61758  1.0000
  S   S381      1.0  0.94801  0.96954  0.66868  1.0000
  C   C2095     1.0  0.88892  0.60127  0.81637  1.0000
  C   C2096     1.0  0.85170  0.56068  0.51683  1.0000
  C   C2097     1.0  0.90807  0.62838  0.83887  1.0000
  H   H1638     1.0  0.93871  0.54618  0.83645  1.0000
  H   H1639     1.0  0.87604  0.58234  0.51700  1.0000
  H   H1640     1.0  0.79646  0.86786  0.69395  1.0000
  C   C2098     1.0  0.92883  0.54556  0.49831  1.0000
  H   H1641     1.0  0.89519  0.84872  0.88172  1.0000
  C   C2099     1.0  0.78564  0.73987  0.84646  1.0000
  S   S382      1.0  0.79127  0.68846  0.68153  1.0000
  C   C2100     1.0  0.78833  0.50452  0.51556  1.0000
  P   P64       1.0  0.83063  0.92287  0.82946  1.0000
  H   H1642     1.0  0.81674  0.64769  0.48514  1.0000
  H   H1643     1.0  0.77797  0.79220  0.48250  1.0000
  C   C2101     1.0  0.84279  0.87211  0.49454  1.0000
  H   H1644     1.0  0.97055  0.50962  0.52686  1.0000
  C   C2102     1.0  0.92505  0.94471  0.83290  1.0000
  H   H1645     1.0  0.92716  0.93491  0.47974  1.0000
  H   H1646     1.0  0.88811  0.78164  0.84146  1.0000
  C   C2103     1.0  0.86306  0.95396  0.96288  1.0000
  H   H1647     1.0  0.97082  0.62563  0.72140  1.0000
  C   C2104     1.0  0.95858  0.58488  0.63632  1.0000
  C   C2105     1.0  0.79671  0.86158  0.86263  1.0000
  H   H1648     1.0  0.91425  0.96107  0.52908  1.0000
  C   C2106     1.0  0.97485  0.53394  0.90534  1.0000
  S   S383      1.0  0.96929  0.94179  0.58448  1.0000
  H   H1649     1.0  0.93608  0.82385  0.87520  1.0000
  H   H1650     1.0  0.80874  0.77361  0.80505  1.0000
  H   H1651     1.0  0.83353  0.58201  0.48015  1.0000
  H   H1652     1.0  0.96397  0.86767  0.51596  1.0000
  C   C2107     1.0  0.90328  0.92659  0.88904  1.0000
  S   S384      1.0  0.79612  0.91902  0.96251  1.0000
  H   H1653     1.0  0.81008  0.48470  0.84195  1.0000
  C   C2108     1.0  0.91166  0.96765  0.50327  1.0000
  H   H1654     1.0  0.86064  0.97382  0.95094  1.0000
  H   H1655     1.0  0.78003  0.71349  0.58234  1.0000
  C   C2109     1.0  0.79623  0.87345  0.47150  1.0000
  H   H1656     1.0  0.78076  0.75663  0.52977  1.0000
  H   H1657     1.0  0.89989  0.48795  0.81798  1.0000
  Fe  Fe191     1.0  0.78208  0.63778  0.69933  1.0000
  H   H1658     1.0  0.77951  0.64097  0.60397  1.0000
  C   C2110     1.0  0.90608  0.84941  0.96780  1.0000
  C   C2111     1.0  0.92903  0.52298  0.47338  1.0000
  H   H1659     1.0  0.84017  0.77088  0.95263  1.0000
  H   H1660     1.0  0.97365  0.87548  0.82199  1.0000
  H   H1661     1.0  0.85270  0.98059  0.78387  1.0000
  H   H1662     1.0  0.96616  0.65846  0.78754  1.0000
  C   C2112     1.0  0.77827  0.83807  0.47161  1.0000
  Fe  Fe192     1.0  0.97285  0.50129  0.71838  1.0000
  H   H1663     1.0  0.97098  0.77541  0.96747  1.0000
  H   H1664     1.0  0.77762  0.52585  0.89852  1.0000
