data_image0
_chemical_formula_structural       FeS2FeSHFeSFeCS2FeSFeS5HS2CS3FeCFeSHCH2FeSH2C3HC7H4C2FeC2H2C2H5CSHC6H5CH2C7H2SPCHCSHFeC2H2CHC2HC3HFeC3HCHCH3SHC3HC4HCHCFeC3PC4HCHCHC2HC4HC2PH2CHC3SCH2C5HCH6CHCHC6H3C5SC2HC3H3C8HFeH7CHCSCH2C9SHCHCHCHCHC4FeC7PC14H2C2H21FeHCFeCHCSFeCHSHCHCH3S2C3HC3SC2HCPHC2SCHCH2C4H3CHPC3HC2FeC4HCPC3HC2H2CHC3HSHC3HCH2CH2C2HCHCH2CH2CHCHFeH2CFeCH5C2H2CH3CHC2HCHCH2C5H2C4HCHC4HC2HC2H2CHCHPCH6C3HC2HC3HCH3C2HCSHCSHCHC2HC3HSH5CSHFeSH2CHFeCSH2CSHFeS2FeS2FeHFeS3PCSCFeSCFeS2FeSFeS3HSCPH2FeSHC7H4C7H2CH2CHC7H3C3HCSC8H4C2HSH2C2SC7H7C2HCHC8PC15HC2H7CH3CH4C3H5CH2C3HCH2C2HC3HC4HCH2CHCHC5H3CHC2H3C6PC15H17CPC2H2SCHC2H2CHC2H2CHCH4C2HCHCH2C2H2CH2C4H4CH2CHCHC4HC4HC6HCHCHSFeCHC2H5C4H2CH6C2HCPH2CHCSCH2CHC2H3C2PHCH2CHC3PC3HC2HCHC3HC2H2CHCH2C2H4C2HCH5CHCHCH2CHCHCHCH3CHC3HC2HC2HCH2C4H2C2HCH2C2HC3HCHC2H7CS4CPH2S2H3C2SH3CHC2HCHC2H2C6H4C5H2CHCHCHC7H7FeHC3HC10H5C3H2C2HC3HCHC3HCPCHCHCH5CH2C2HC3HCH2CFeHCH4CH2CHC2FeCH3C2HC3H2S2HFeSFeS2C2HFeCHC2HC2HCHCH2C4HSCH3CHCH3CH2SCSCFeC2H4CS2C3HCH4PHC3HC2FeC4HCHSHC2HC3H2FeC2H2C3HCHCHCHC2H4C2HC2HCHC2H3CHFeH2FeS2FeS2HFeS2FeS2FeSFeS3FeSFeSFeSFeS3FeSHFeSCFeSFeS3FeS2FeSFeSFeS3HFeS2FeHFeSHSH2CH2CH2C2HC6H4CHSC6H4C3H2CH2C13H4C6H6C12H4CH2C2H5CHC3HPC12HC6H4CH6CH2CH2C3H2C2HC5HCH5C6PC9HC8H11CHCH6C5H6CHC8PC15HC3H16C2H2CHCH4C2HC4H2CH2C2HSC3SCHC2H2CHC3SHCHCSCHC2HCH2C2H5PH2C2HCHC5HCHC2HC4H2C2H2C4PHCHSCH2CHC2H2C3PC7H2C10HC2HCHC3HC2HCHC2PC2HCH2C5PHCPCHCHC2H2C2H3C2H2CHCHCPSCH4C2H2C3H2CHC6H6C3HCHCHCPC6H4PHCHC2H2C5HC3H2CH2CHCH2C5HC3HC6H4CH3CH2CHC2H2C4SCHCH2CH2CHCH3CH2SCHC2SCHC4HCFeS2FeS2FeSFeS3FeSH3FeS2FeS2FeSHFeCFeS3FeHFeS3FeSHFeHFeSHSFeS2FeS2FeSFeS3C2HC7H4CH2CHC6H4C6HCH2C3FeH2C2HC3HCSCHC6H4C6H4C6H4C8HC2H3C6PC18H21C6H7C4H4C6PSC4HC6H6CH2SHC2HC11HC3H3CHSHC3HC2HCSFeCH3PHC2FeHCS2C2H2C3HC3H2C2H3CHCPC3HC5H2CHCHC3HPC3HSHCHCHC2HC5HC2H2C2HCH2CHCHC3HCH2CH2C7HC2H2C6H4C2H2CH2PC3PCHC3H2CH2C2HC3HC4PHC2HCPCH4C5HPHC3H3C3HC4H3C2H3CH2CSCHC2HCHC3H4C3HC2HC3HCHC4H4C2HCHCH2C2H2C4HC2HC2HCHCH4CHCHC2H2SH2CH2CPHC3SC4H4CHCHCH2C2H13C5HCHCSHC2HC2PH2CH2C4H2CHCH2CH2CH2CHCH2C2HCSHC2HC3HC2H9C2HCHCH2C2SHFeSFeSCSC6H3C3HC4HS2HCHCSC3HC2H4CFeC2HCHC3H3CH3C3H2C3H2CH3CHCH2C3HCHCSC3HCFeC2H3CH4C2PHCH2C2H2CHCSC3HPSHC3HCH2C2FeHCHCHSHFeH4PC6FeCH4SHCSCHCSH4C4HCSC6H2FeH5SFeC2H2C3HCH2SHC2HSH2C6H5CHFeHCHCHCHCHC3HCH4CHCHCH2CPH2CHC3SH2C2H4CH6CH2C3H2CHSC2HCHC2HC2H6SHC5HC2HC2HCHPHC3H2CSC2HFeSHFeS2FeSFeS3CSHSC2HFeS2CHCSCFeSFeC4SC2PC2FeS2FeS2FeSFeS3HC2HCHC3H2C7H4C6H4CHCH2CH3C7H4C6H4C6H4SC3HC2H2C7PC9H2CHC2H5C2H3C2HC2HCHCH3SC2SH2CHC3H3SC6H5C6PC9H13C4H5C4HC3SHC2HC2PHCH2CHC2H2CHCHC2H2C4H3SCH2CH2C3H3CHCH3C5PC7H2CH2C6H9PC2H4C7H2C6H3CHFeH6C2H2CHPHC3FeCHCH3CH2C3HC2FeHCHC3H3CHCH2C3SHC2H3PC2HCH2CHC2HCHC3H2CHFeC2HCHS2FeSFeSFe2SFeCS3C3FeS2FeS2FeSFeHS2HS2FeSHC2HPHCH3C4H3CH2SC6H4C7H4CHC4H3CH2C9H2CHSH2C4HPC2FeCHC2HPH2CHC2H3C6HCSHCHC4HC4HC2HSH2CH2C2HCPCSCHC2FeH3C5HC2PC15HCH7CHCHC2H2SCHCH2SHC2HC4HC2SH3CH3C2HCHC2HC3HC5PHCH3CH3CH4C4SCH3C3H2CHFeCHC2HCHCHC3H3CH2FeC4HC2H2C2HC7H3PH2SC4HCFeCH2C2HCSCSHC5HC3HSC3H2C3HCHC3HC2SHCH2C8HCHCH2C5HCHSHCHCH13FeHSH2CH4CPCFeCHC2H6C2H2C4H
_chemical_formula_sum              "Fe128 S256 H1536 C1920 P64"
_cell_length_a       38.7671
_cell_length_b       59.5131
_cell_length_c       73.4302
_cell_angle_alpha    89.5088
_cell_angle_beta     89.935
_cell_angle_gamma    86.1513

_space_group_name_H-M_alt    "P 1"
_space_group_IT_number       1

loop_
  _space_group_symop_operation_xyz
  'x, y, z'

loop_
  _atom_site_type_symbol
  _atom_site_label
  _atom_site_symmetry_multiplicity
  _atom_site_fract_x
  _atom_site_fract_y
  _atom_site_fract_z
  _atom_site_occupancy
  Fe  Fe1       1.0  0.09967  0.38821  0.21335  1.0000
  S   S1        1.0  0.12093  0.41903  0.22468  1.0000
  S   S2        1.0  0.13059  0.35595  0.22060  1.0000
  Fe  Fe2       1.0  0.03910  0.41478  0.19572  1.0000
  S   S3        1.0  0.05724  0.44789  0.20582  1.0000
  H   H1        1.0  0.46396  0.03903  0.02772  1.0000
  Fe  Fe3       1.0  0.11100  0.43440  0.19703  1.0000
  S   S4        1.0  0.15288  0.45618  0.18484  1.0000
  Fe  Fe4       1.0  0.06611  0.42941  0.23254  1.0000
  C   C1        1.0  0.43997  0.03711  0.25164  1.0000
  S   S5        1.0  0.09190  0.40277  0.18509  1.0000
  S   S6        1.0  0.04556  0.39725  0.22278  1.0000
  Fe  Fe5       1.0  0.33692  0.45044  0.12507  1.0000
  S   S7        1.0  0.28568  0.43500  0.13317  1.0000
  Fe  Fe6       1.0  0.40925  0.43605  0.10906  1.0000
  S   S8        1.0  0.44985  0.40809  0.10219  1.0000
  S   S9        1.0  0.38773  0.43746  0.13759  1.0000
  S   S10       1.0  0.35784  0.44578  0.09640  1.0000
  S   S11       1.0  0.19508  0.36951  0.29846  1.0000
  S   S12       1.0  0.29526  0.33947  0.29734  1.0000
  H   H2        1.0  0.38675  0.29062  0.29444  1.0000
  S   S13       1.0  0.18572  0.09801  0.31372  1.0000
  S   S14       1.0  0.25853  0.13942  0.29985  1.0000
  C   C2        1.0  0.20729  0.03320  0.15436  1.0000
  S   S15       1.0  0.38830  0.06138  0.07962  1.0000
  S   S16       1.0  0.09874  0.05740  0.19711  1.0000
  S   S17       1.0  0.05913  0.06436  0.23578  1.0000
  Fe  Fe7       1.0  0.04541  0.05244  0.20811  1.0000
  C   C3        1.0  0.32432  0.45837  0.18879  1.0000
  Fe  Fe8       1.0  0.11256  0.06631  0.22553  1.0000
  S   S18       1.0  0.14102  0.09712  0.23110  1.0000
  H   H3        1.0  0.08019  0.11724  0.26494  1.0000
  C   C4        1.0  0.41111  0.10096  0.28044  1.0000
  H   H4        1.0  0.25739  0.34642  0.16902  1.0000
  H   H5        1.0  0.24372  0.99390  0.20788  1.0000
  Fe  Fe9       1.0  0.24667  0.35583  0.30947  1.0000
  S   S19       1.0  0.47949  0.37115  0.02209  1.0000
  H   H6        1.0  0.16031  0.03973  0.17005  1.0000
  H   H7        1.0  0.20604  0.04982  0.14826  1.0000
  C   C5        1.0  0.42922  0.06279  0.06898  1.0000
  C   C6        1.0  0.45604  0.04631  0.07207  1.0000
  C   C7        1.0  0.31773  0.43880  0.17944  1.0000
  H   H8        1.0  0.45187  0.03209  0.08082  1.0000
  C   C8        1.0  0.32942  0.04923  0.25161  1.0000
  C   C9        1.0  0.17230  0.09851  0.29092  1.0000
  C   C10       1.0  0.15351  0.08098  0.28441  1.0000
  C   C11       1.0  0.14365  0.08060  0.26606  1.0000
  C   C12       1.0  0.15230  0.09785  0.25420  1.0000
  C   C13       1.0  0.17004  0.11578  0.26083  1.0000
  C   C14       1.0  0.18014  0.11608  0.27917  1.0000
  H   H9        1.0  0.14699  0.06750  0.29351  1.0000
  H   H10       1.0  0.12930  0.06694  0.26117  1.0000
  H   H11       1.0  0.17616  0.12937  0.25176  1.0000
  H   H12       1.0  0.19361  0.13002  0.28425  1.0000
  C   C15       1.0  0.46605  0.45862  0.18399  1.0000
  C   C16       1.0  0.23458  0.01752  0.14956  1.0000
  Fe  Fe10      1.0  0.30623  0.12707  0.31552  1.0000
  C   C17       1.0  0.42163  0.38325  0.31320  1.0000
  C   C18       1.0  0.41165  0.10779  0.31282  1.0000
  H   H13       1.0  0.32767  0.43623  0.16576  1.0000
  H   H14       1.0  0.29568  0.08368  0.28507  1.0000
  C   C19       1.0  0.45760  0.39829  0.07974  1.0000
  C   C20       1.0  0.43399  0.40314  0.06563  1.0000
  H   H15       1.0  0.20139  0.06181  0.21445  1.0000
  H   H16       1.0  0.41669  0.18369  0.26617  1.0000
  H   H17       1.0  0.41007  0.41292  0.06840  1.0000
  H   H18       1.0  0.40797  0.07982  0.23858  1.0000
  H   H19       1.0  0.09635  0.01862  0.16009  1.0000
  C   C21       1.0  0.47944  0.47235  0.27973  1.0000
  S   S20       1.0  0.05873  0.02244  0.27332  1.0000
  H   H20       1.0  0.42247  0.39843  0.03717  1.0000
  C   C22       1.0  0.14908  0.35903  0.24223  1.0000
  C   C23       1.0  0.13276  0.37381  0.25470  1.0000
  C   C24       1.0  0.14713  0.37650  0.27193  1.0000
  C   C25       1.0  0.17846  0.36491  0.27670  1.0000
  C   C26       1.0  0.19512  0.35013  0.26428  1.0000
  C   C27       1.0  0.18011  0.34695  0.24710  1.0000
  H   H21       1.0  0.10879  0.38313  0.25112  1.0000
  H   H22       1.0  0.13409  0.38793  0.28149  1.0000
  H   H23       1.0  0.21923  0.34106  0.26799  1.0000
  H   H24       1.0  0.19277  0.33548  0.23746  1.0000
  H   H25       1.0  0.40680  0.37793  0.32477  1.0000
  C   C28       1.0  0.08026  0.31633  0.31258  1.0000
  H   H26       1.0  0.17148  0.48159  0.01854  1.0000
  H   H27       1.0  0.07934  0.98918  0.18139  1.0000
  C   C29       1.0  0.42519  0.39387  0.28144  1.0000
  C   C30       1.0  0.19085  0.44941  0.17137  1.0000
  C   C31       1.0  0.19670  0.42871  0.16258  1.0000
  C   C32       1.0  0.22591  0.42463  0.15120  1.0000
  C   C33       1.0  0.24999  0.44107  0.14839  1.0000
  C   C34       1.0  0.24444  0.46169  0.15737  1.0000
  C   C35       1.0  0.21510  0.46580  0.16871  1.0000
  H   H28       1.0  0.17821  0.41603  0.16418  1.0000
  H   H29       1.0  0.22971  0.40861  0.14439  1.0000
  S   S21       1.0  0.23393  0.20275  0.31067  1.0000
  P   P1        1.0  0.39593  0.45930  0.24860  1.0000
  C   C36       1.0  0.01971  0.08082  0.27655  1.0000
  H   H30       1.0  0.49381  0.03559  0.25862  1.0000
  C   C37       1.0  0.01374  0.01353  0.14531  1.0000
  S   S22       1.0  0.05723  0.43809  0.26261  1.0000
  H   H31       1.0  0.16852  0.31377  0.31242  1.0000
  Fe  Fe11      1.0  0.37331  0.48174  0.09761  1.0000
  C   C38       1.0  0.01503  0.01698  0.30242  1.0000
  C   C39       1.0  0.48850  0.04824  0.06385  1.0000
  H   H32       1.0  0.15617  0.45315  0.25947  1.0000
  H   H33       1.0  0.47541  0.40249  0.27183  1.0000
  C   C40       1.0  0.41153  0.43583  0.23468  1.0000
  H   H34       1.0  0.99692  0.18913  0.15325  1.0000
  C   C41       1.0  0.45571  0.48111  0.17934  1.0000
  C   C42       1.0  0.10079  0.00030  0.31539  1.0000
  H   H35       1.0  0.39957  0.34307  0.27793  1.0000
  C   C43       1.0  0.16621  0.47204  0.12963  1.0000
  C   C44       1.0  0.06792  0.46011  0.32530  1.0000
  C   C45       1.0  0.03199  0.37910  0.26641  1.0000
  H   H36       1.0  0.18433  0.41700  0.27069  1.0000
  Fe  Fe12      1.0  0.40178  0.47327  0.13677  1.0000
  C   C46       1.0  0.31080  0.46191  0.20625  1.0000
  C   C47       1.0  0.03024  0.04489  0.11113  1.0000
  C   C48       1.0  0.32647  0.47250  0.25634  1.0000
  H   H37       1.0  0.24116  0.06977  0.27335  1.0000
  C   C49       1.0  0.38958  0.42706  0.22176  1.0000
  H   H38       1.0  0.19758  0.42262  0.30206  1.0000
  C   C50       1.0  0.39226  0.00225  0.22039  1.0000
  H   H39       1.0  0.25938  0.44430  0.27302  1.0000
  H   H40       1.0  0.36359  0.43438  0.22006  1.0000
  H   H41       1.0  0.48327  0.03679  0.29194  1.0000
  S   S23       1.0  0.27402  0.38375  0.32206  1.0000
  H   H42       1.0  0.42321  0.03677  0.30372  1.0000
  C   C51       1.0  0.29083  0.22227  0.32432  1.0000
  C   C52       1.0  0.17122  0.01701  0.11314  1.0000
  C   C53       1.0  0.03874  0.12718  0.21036  1.0000
  H   H43       1.0  0.48905  0.06729  0.00799  1.0000
  C   C54       1.0  0.39337  0.08434  0.19300  1.0000
  C   C55       1.0  0.45718  0.40829  0.22535  1.0000
  C   C56       1.0  0.47962  0.14940  0.28607  1.0000
  C   C57       1.0  0.18641  0.42730  0.31512  1.0000
  H   H44       1.0  0.42094  0.10372  0.21214  1.0000
  C   C58       1.0  0.49461  0.06662  0.05244  1.0000
  H   H45       1.0  0.28798  0.43621  0.08753  1.0000
  C   C59       1.0  0.24757  0.24731  0.30956  1.0000
  Fe  Fe13      1.0  0.22900  0.12001  0.31999  1.0000
  C   C60       1.0  0.07190  0.37549  0.31464  1.0000
  C   C61       1.0  0.36944  0.01013  0.23417  1.0000
  C   C62       1.0  0.45773  0.15888  0.27256  1.0000
  P   P2        1.0  0.48388  0.30869  0.32235  1.0000
  C   C63       1.0  0.20129  0.38962  0.19755  1.0000
  C   C64       1.0  0.18564  0.37520  0.18562  1.0000
  C   C65       1.0  0.29729  0.42285  0.18736  1.0000
  C   C66       1.0  0.20580  0.35977  0.17526  1.0000
  H   H46       1.0  0.18500  0.40138  0.20541  1.0000
  C   C67       1.0  0.29828  0.04215  0.24459  1.0000
  H   H47       1.0  0.17165  0.46798  0.22901  1.0000
  C   C68       1.0  0.48816  0.38508  0.07604  1.0000
  H   H48       1.0  0.08690  0.36253  0.30727  1.0000
  C   C69       1.0  0.39332  0.10759  0.29644  1.0000
  C   C70       1.0  0.29853  0.26251  0.32255  1.0000
  H   H49       1.0  0.28073  0.33541  0.25161  1.0000
  C   C71       1.0  0.24175  0.35847  0.17700  1.0000
  C   C72       1.0  0.21993  0.02710  0.21240  1.0000
  C   C73       1.0  0.47671  0.39371  0.30027  1.0000
  C   C74       1.0  0.27435  0.01964  0.19673  1.0000
  H   H50       1.0  0.10536  0.46100  0.30332  1.0000
  C   C75       1.0  0.46271  0.99083  0.03978  1.0000
  C   C76       1.0  0.40544  0.38703  0.29634  1.0000
  P   P3        1.0  0.37050  0.03872  0.24208  1.0000
  H   H51       1.0  0.39536  0.44150  0.28645  1.0000
  H   H52       1.0  0.04797  0.05867  0.16735  1.0000
  C   C77       1.0  0.48172  0.45396  0.05677  1.0000
  H   H53       1.0  0.41032  0.01320  0.21422  1.0000
  C   C78       1.0  0.24887  0.46725  0.05331  1.0000
  C   C79       1.0  0.22590  0.42043  0.22993  1.0000
  C   C80       1.0  0.32807  0.06493  0.26583  1.0000
  S   S24       1.0  0.36080  0.38345  0.29304  1.0000
  C   C81       1.0  0.18496  0.45271  0.23434  1.0000
  H   H54       1.0  0.27307  0.48235  0.26226  1.0000
  H   H55       1.0  0.39721  0.10089  0.26770  1.0000
  C   C82       1.0  0.48926  0.08154  0.10852  1.0000
  C   C83       1.0  0.46487  0.04103  0.18918  1.0000
  C   C84       1.0  0.45910  0.14839  0.01017  1.0000
  C   C85       1.0  0.33377  0.21769  0.28493  1.0000
  C   C86       1.0  0.23738  0.38842  0.19939  1.0000
  H   H56       1.0  0.46928  0.38415  0.32831  1.0000
  C   C87       1.0  0.30234  0.21210  0.27747  1.0000
  H   H57       1.0  0.30499  0.02746  0.05185  1.0000
  H   H58       1.0  0.32810  0.40659  0.23090  1.0000
  H   H59       1.0  0.48787  0.43741  0.06262  1.0000
  H   H60       1.0  0.46585  0.15885  0.02148  1.0000
  H   H61       1.0  0.02080  0.03011  0.06673  1.0000
  H   H62       1.0  0.47234  0.44968  0.13929  1.0000
  C   C88       1.0  0.29643  0.07190  0.27386  1.0000
  H   H63       1.0  0.35133  0.07186  0.27084  1.0000
  C   C89       1.0  0.46061  0.39713  0.28337  1.0000
  H   H64       1.0  0.11606  0.39378  0.31982  1.0000
  C   C90       1.0  0.32904  0.02167  0.04536  1.0000
  C   C91       1.0  0.26168  0.46893  0.09071  1.0000
  C   C92       1.0  0.39385  0.25464  0.29732  1.0000
  C   C93       1.0  0.27144  0.36566  0.23554  1.0000
  C   C94       1.0  0.28441  0.38604  0.22978  1.0000
  C   C95       1.0  0.25747  0.37253  0.18918  1.0000
  H   H65       1.0  0.39970  0.09455  0.18133  1.0000
  H   H66       1.0  0.09233  0.13305  0.21450  1.0000
  H   H67       1.0  0.33749  0.23525  0.28718  1.0000
  C   C96       1.0  0.06577  0.15991  0.19890  1.0000
  C   C97       1.0  0.03433  0.16805  0.19112  1.0000
  C   C98       1.0  0.26662  0.04945  0.25246  1.0000
  C   C99       1.0  0.40007  0.03683  0.27702  1.0000
  C   C100      1.0  0.08844  0.39373  0.32155  1.0000
  S   S25       1.0  0.12871  0.03126  0.23469  1.0000
  C   C101      1.0  0.44674  0.09438  0.28078  1.0000
  C   C102      1.0  0.24602  0.01183  0.20603  1.0000
  H   H68       1.0  0.35171  0.03754  0.20339  1.0000
  C   C103      1.0  0.36709  0.99132  0.03352  1.0000
  C   C104      1.0  0.45225  0.01683  0.00572  1.0000
  C   C105      1.0  0.40046  0.27538  0.28949  1.0000
  H   H69       1.0  0.33933  0.34484  0.26134  1.0000
  H   H70       1.0  0.15776  0.37584  0.18459  1.0000
  H   H71       1.0  0.30030  0.20554  0.32840  1.0000
  C   C106      1.0  0.14214  0.31461  0.30742  1.0000
  C   C107      1.0  0.13652  0.31507  0.28864  1.0000
  C   C108      1.0  0.10290  0.31621  0.28177  1.0000
  C   C109      1.0  0.07476  0.31683  0.29372  1.0000
  C   C110      1.0  0.48962  0.99777  0.19936  1.0000
  C   C111      1.0  0.02395  0.00997  0.28466  1.0000
  C   C112      1.0  0.41834  0.45053  0.28440  1.0000
  C   C113      1.0  0.48760  0.45372  0.19944  1.0000
  H   H72       1.0  0.46000  0.08926  0.26837  1.0000
  Fe  Fe14      1.0  0.37745  0.03242  0.09891  1.0000
  H   H73       1.0  0.15833  0.31467  0.27937  1.0000
  H   H74       1.0  0.09886  0.31660  0.26716  1.0000
  H   H75       1.0  0.04868  0.31776  0.28834  1.0000
  H   H76       1.0  0.37425  0.03608  0.28247  1.0000
  H   H77       1.0  0.05809  0.31675  0.32154  1.0000
  H   H78       1.0  0.29156  0.40841  0.17939  1.0000
  H   H79       1.0  0.43213  0.12535  0.02684  1.0000
  C   C114      1.0  0.02588  0.12168  0.25821  1.0000
  H   H80       1.0  0.40368  0.09523  0.11549  1.0000
  C   C115      1.0  0.41056  0.23459  0.29082  1.0000
  S   S26       1.0  0.14920  0.99809  0.19011  1.0000
  C   C116      1.0  0.43514  0.39978  0.21245  1.0000
  H   H81       1.0  0.33967  0.47082  0.18238  1.0000
  H   H82       1.0  0.44447  0.38616  0.20366  1.0000
  C   C117      1.0  0.34433  0.43343  0.26248  1.0000
  C   C118      1.0  0.05180  0.09012  0.27548  1.0000
  C   C119      1.0  0.05500  0.11044  0.26617  1.0000
  C   C120      1.0  0.49553  0.37720  0.05835  1.0000
  C   C121      1.0  0.37891  0.05686  0.22296  1.0000
  C   C122      1.0  0.05980  0.06990  0.14003  1.0000
  C   C123      1.0  0.43414  0.23574  0.27635  1.0000
  C   C124      1.0  0.44075  0.25654  0.26854  1.0000
  C   C125      1.0  0.42386  0.27634  0.27507  1.0000
  S   S27       1.0  0.42614  0.47140  0.10883  1.0000
  H   H83       1.0  0.42770  0.44822  0.05377  1.0000
  C   C126      1.0  0.06493  0.08887  0.12908  1.0000
  H   H84       1.0  0.18410  0.05142  0.11515  1.0000
  C   C127      1.0  0.35411  0.03686  0.04165  1.0000
  H   H85       1.0  0.36650  0.17805  0.32553  1.0000
  C   C128      1.0  0.44759  0.45988  0.05155  1.0000
  H   H86       1.0  0.07435  0.08118  0.28149  1.0000
  C   C129      1.0  0.01442  0.03745  0.07987  1.0000
  H   H87       1.0  0.29840  0.03085  0.23312  1.0000
  C   C130      1.0  0.26571  0.06411  0.26723  1.0000
  C   C131      1.0  0.00831  0.44114  0.28989  1.0000
  C   C132      1.0  0.47791  0.15794  0.30373  1.0000
  C   C133      1.0  0.46768  0.03635  0.26381  1.0000
  Fe  Fe15      1.0  0.32036  0.01312  0.12348  1.0000
  C   C134      1.0  0.46507  0.09447  0.29718  1.0000
  C   C135      1.0  0.15343  0.09898  0.17657  1.0000
  C   C136      1.0  0.14497  0.12139  0.18120  1.0000
  C   C137      1.0  0.16915  0.13377  0.19014  1.0000
  C   C138      1.0  0.20171  0.12367  0.19461  1.0000
  C   C139      1.0  0.20992  0.10091  0.19059  1.0000
  C   C140      1.0  0.18588  0.08885  0.18114  1.0000
  P   P4        1.0  0.25232  0.08798  0.19559  1.0000
  C   C141      1.0  0.27823  0.09315  0.17570  1.0000
  C   C142      1.0  0.26927  0.09910  0.21631  1.0000
  C   C143      1.0  0.30506  0.10005  0.21871  1.0000
  C   C144      1.0  0.31812  0.10885  0.23470  1.0000
  C   C145      1.0  0.29560  0.11631  0.24854  1.0000
  C   C146      1.0  0.26004  0.11472  0.24654  1.0000
  C   C147      1.0  0.24688  0.10588  0.23059  1.0000
  C   C148      1.0  0.29865  0.11176  0.17480  1.0000
  C   C149      1.0  0.31863  0.11548  0.15930  1.0000
  C   C150      1.0  0.31764  0.10101  0.14443  1.0000
  C   C151      1.0  0.29625  0.08305  0.14495  1.0000
  C   C152      1.0  0.27646  0.07922  0.16044  1.0000
  C   C153      1.0  0.25005  0.05817  0.19979  1.0000
  C   C154      1.0  0.27652  0.04273  0.19375  1.0000
  H   H88       1.0  0.05992  0.12940  0.16159  1.0000
  H   H89       1.0  0.21091  0.48194  0.17528  1.0000
  C   C155      1.0  0.11147  0.00990  0.11916  1.0000
  C   C156      1.0  0.22196  0.05022  0.20943  1.0000
  H   H90       1.0  0.41327  0.39647  0.26825  1.0000
  H   H91       1.0  0.11971  0.12913  0.17787  1.0000
  H   H92       1.0  0.16266  0.15115  0.19371  1.0000
  H   H93       1.0  0.22029  0.13356  0.20132  1.0000
  H   H94       1.0  0.19221  0.07157  0.17739  1.0000
  H   H95       1.0  0.32286  0.09393  0.20829  1.0000
  H   H96       1.0  0.34571  0.10957  0.23656  1.0000
  H   H97       1.0  0.30579  0.12251  0.26113  1.0000
  H   H98       1.0  0.24281  0.11983  0.25759  1.0000
  H   H99       1.0  0.21929  0.10418  0.22949  1.0000
  H   H100      1.0  0.29904  0.12348  0.18598  1.0000
  H   H101      1.0  0.33467  0.12969  0.15873  1.0000
  H   H102      1.0  0.33309  0.10378  0.13240  1.0000
  H   H103      1.0  0.29493  0.07196  0.13334  1.0000
  H   H104      1.0  0.25996  0.06525  0.16046  1.0000
  H   H105      1.0  0.29857  0.04837  0.18641  1.0000
  H   H106      1.0  0.13483  0.08935  0.16958  1.0000
  H   H107      1.0  0.36342  0.48044  0.00101  1.0000
  H   H108      1.0  0.04050  0.11118  0.21764  1.0000
  H   H109      1.0  0.00788  0.47544  0.25268  1.0000
  H   H110      1.0  0.22321  0.24992  0.30243  1.0000
  Fe  Fe16      1.0  0.30050  0.32054  0.32394  1.0000
  H   H111      1.0  0.28530  0.37090  0.19074  1.0000
  C   C157      1.0  0.44103  0.39489  0.04797  1.0000
  Fe  Fe17      1.0  0.11199  0.02185  0.20653  1.0000
  C   C158      1.0  0.18129  0.02757  0.16677  1.0000
  H   H112      1.0  0.24568  0.36152  0.23163  1.0000
  C   C159      1.0  0.00729  0.13531  0.20271  1.0000
  S   S28       1.0  0.26531  0.02554  0.13287  1.0000
  Fe  Fe18      1.0  0.07314  0.02851  0.24339  1.0000
  C   C160      1.0  0.45707  0.38672  0.31516  1.0000
  H   H113      1.0  0.39293  0.46980  0.20904  1.0000
  S   S29       1.0  0.05696  0.01590  0.21595  1.0000
  H   H114      1.0  0.19346  0.34872  0.16602  1.0000
  C   C161      1.0  0.36646  0.05208  0.20555  1.0000
  H   H115      1.0  0.41463  0.09397  0.05497  1.0000
  C   C162      1.0  0.44735  0.10130  0.31315  1.0000
  H   H116      1.0  0.05063  0.11850  0.31275  1.0000
  H   H117      1.0  0.38429  0.40285  0.20048  1.0000
  H   H118      1.0  0.26249  0.47458  0.15540  1.0000
  S   S30       1.0  0.35804  0.03982  0.12707  1.0000
  S   S31       1.0  0.42429  0.02786  0.16105  1.0000
  C   C163      1.0  0.43522  0.08113  0.05743  1.0000
  C   C164      1.0  0.04232  0.08596  0.32441  1.0000
  C   C165      1.0  0.47183  0.38188  0.04426  1.0000
  H   H119      1.0  0.04904  0.09618  0.18086  1.0000
  C   C166      1.0  0.18199  0.00604  0.17459  1.0000
  C   C167      1.0  0.03849  0.03547  0.09409  1.0000
  C   C168      1.0  0.46785  0.08310  0.04925  1.0000
  S   S32       1.0  0.33662  0.00793  0.09396  1.0000
  C   C169      1.0  0.42461  0.46144  0.26780  1.0000
  C   C170      1.0  0.46675  0.00089  0.18443  1.0000
  H   H120      1.0  0.45748  0.44509  0.17576  1.0000
  C   C171      1.0  0.42638  0.33751  0.28036  1.0000
  P   P5        1.0  0.25802  0.40549  0.21583  1.0000
  H   H121      1.0  0.26738  0.46945  0.10516  1.0000
  C   C172      1.0  0.29116  0.44570  0.21443  1.0000
  C   C173      1.0  0.28399  0.42607  0.20502  1.0000
  S   S33       1.0  0.34833  0.11543  0.29500  1.0000
  C   C174      1.0  0.43406  0.17690  0.27670  1.0000
  H   H122      1.0  0.36308  0.38019  0.25066  1.0000
  C   C175      1.0  0.03630  0.37425  0.31697  1.0000
  H   H123      1.0  0.02346  0.36018  0.31152  1.0000
  H   H124      1.0  0.28131  0.44855  0.22804  1.0000
  C   C176      1.0  0.26773  0.44940  0.06198  1.0000
  C   C177      1.0  0.46169  0.03659  0.28256  1.0000
  C   C178      1.0  0.15048  0.42958  0.31725  1.0000
  C   C179      1.0  0.33763  0.37605  0.24623  1.0000
  H   H125      1.0  0.06334  0.02658  0.09173  1.0000
  H   H126      1.0  0.21498  0.44708  0.21006  1.0000
  H   H127      1.0  0.36390  0.41964  0.26284  1.0000
  C   C180      1.0  0.39398  0.20847  0.32448  1.0000
  H   H128      1.0  0.02900  0.03000  0.30869  1.0000
  P   P6        1.0  0.39949  0.20768  0.30004  1.0000
  C   C181      1.0  0.42788  0.03668  0.28917  1.0000
  C   C182      1.0  0.43212  0.18561  0.29443  1.0000
  C   C183      1.0  0.00477  0.15580  0.19298  1.0000
  H   H129      1.0  0.01787  0.06485  0.28358  1.0000
  C   C184      1.0  0.20942  0.44071  0.22355  1.0000
  C   C185      1.0  0.32429  0.35606  0.25223  1.0000
  Fe  Fe19      1.0  0.39637  0.01246  0.13697  1.0000
  C   C186      1.0  0.43785  0.07799  0.13495  1.0000
  C   C187      1.0  0.19205  0.42398  0.25778  1.0000
  C   C188      1.0  0.29575  0.18957  0.27501  1.0000
  C   C189      1.0  0.35198  0.17807  0.28756  1.0000
  H   H130      1.0  0.28249  0.22522  0.27426  1.0000
  C   C190      1.0  0.17625  0.44436  0.25146  1.0000
  P   P7        1.0  0.06047  0.04237  0.12983  1.0000
  C   C191      1.0  0.35910  0.20071  0.28987  1.0000
  C   C192      1.0  0.44558  0.42635  0.23635  1.0000
  C   C193      1.0  0.11407  0.31545  0.31959  1.0000
  H   H131      1.0  0.34955  0.05438  0.04540  1.0000
  C   C194      1.0  0.01842  0.44954  0.27287  1.0000
  C   C195      1.0  0.25927  0.22552  0.31520  1.0000
  H   H132      1.0  0.10768  0.12116  0.32776  1.0000
  H   H133      1.0  0.27091  0.18525  0.26981  1.0000
  C   C196      1.0  0.31774  0.39101  0.23507  1.0000
  H   H134      1.0  0.08845  0.16950  0.19758  1.0000
  C   C197      1.0  0.35247  0.45483  0.25634  1.0000
  C   C198      1.0  0.07044  0.01283  0.15926  1.0000
  C   C199      1.0  0.40542  0.08944  0.21033  1.0000
  H   H135      1.0  0.44531  0.03688  0.23715  1.0000
  S   S34       1.0  0.41787  0.00663  0.10872  1.0000
  H   H136      1.0  0.46352  0.43297  0.24588  1.0000
  C   C200      1.0  0.47324  0.46123  0.29613  1.0000
  C   C201      1.0  0.31095  0.42969  0.26851  1.0000
  C   C202      1.0  0.40131  0.40917  0.21066  1.0000
  H   H137      1.0  0.22825  0.39624  0.25234  1.0000
  C   C203      1.0  0.32069  0.17262  0.27992  1.0000
  H   H138      1.0  0.30518  0.41312  0.27348  1.0000
  H   H139      1.0  0.06882  0.35237  0.25847  1.0000
  C   C204      1.0  0.39818  0.07577  0.22528  1.0000
  H   H140      1.0  0.37031  0.16447  0.29179  1.0000
  H   H141      1.0  0.13430  0.42667  0.30559  1.0000
  C   C205      1.0  0.06087  0.10504  0.32162  1.0000
  C   C206      1.0  0.29125  0.35081  0.24682  1.0000
  H   H142      1.0  0.29420  0.00775  0.19144  1.0000
  C   C207      1.0  0.21686  0.41207  0.24712  1.0000
  H   H143      1.0  0.45862  0.15185  0.25899  1.0000
  C   C208      1.0  0.14517  0.00199  0.11464  1.0000
  H   H144      1.0  0.31551  0.15517  0.27820  1.0000
  H   H145      1.0  0.36540  0.06133  0.17709  1.0000
  C   C209      1.0  0.45408  0.02259  0.17930  1.0000
  H   H146      1.0  0.02298  0.42685  0.29586  1.0000
  H   H147      1.0  0.19768  0.02087  0.21924  1.0000
  C   C210      1.0  0.40585  0.03797  0.25814  1.0000
  H   H148      1.0  0.12533  0.06559  0.12371  1.0000
  C   C211      1.0  0.05347  0.07279  0.15869  1.0000
  H   H149      1.0  0.39835  0.11289  0.32522  1.0000
  Fe  Fe20      1.0  0.25332  0.16771  0.31984  1.0000
  H   H150      1.0  0.43822  0.44133  0.31103  1.0000
  H   H151      1.0  0.05139  0.38934  0.27210  1.0000
  C   C212      1.0  0.34804  0.99503  0.24264  1.0000
  Fe  Fe21      1.0  0.32322  0.36617  0.31172  1.0000
  C   C213      1.0  0.16356  0.03995  0.11605  1.0000
  H   H152      1.0  0.06935  0.12478  0.12832  1.0000
  H   H153      1.0  0.99769  0.36781  0.19039  1.0000
  H   H154      1.0  0.01748  0.08476  0.31790  1.0000
  H   H155      1.0  0.10530  0.03587  0.31743  1.0000
  H   H156      1.0  0.27787  0.43500  0.05424  1.0000
  C   C214      1.0  0.44039  0.12945  0.01318  1.0000
  C   C215      1.0  0.13003  0.04790  0.12087  1.0000
  H   H157      1.0  0.40491  0.04142  0.03183  1.0000
  H   H158      1.0  0.45307  0.18202  0.32179  1.0000
  C   C216      1.0  0.28525  0.44728  0.26837  1.0000
  H   H159      1.0  0.16410  0.45439  0.13292  1.0000
  H   H160      1.0  0.24267  0.04370  0.24722  1.0000
  H   H161      1.0  0.10082  0.00058  0.30063  1.0000
  C   C217      1.0  0.44262  0.45044  0.29849  1.0000
  H   H162      1.0  0.41628  0.32576  0.30730  1.0000
  C   C218      1.0  0.10361  0.03291  0.12245  1.0000
  C   C219      1.0  0.43239  0.11583  0.99857  1.0000
  H   H163      1.0  0.25775  0.28261  0.30911  1.0000
  C   C220      1.0  0.04696  0.02163  0.14604  1.0000
  H   H164      1.0  0.42862  0.29236  0.26879  1.0000
  C   C221      1.0  0.31039  0.24072  0.32795  1.0000
  H   H165      1.0  0.06894  0.08707  0.11454  1.0000
  H   H166      1.0  0.37488  0.25424  0.30814  1.0000
  C   C222      1.0  0.06798  0.13946  0.20849  1.0000
  C   C223      1.0  0.39248  0.00651  0.02966  1.0000
  C   C224      1.0  0.04179  0.35823  0.25878  1.0000
  C   C225      1.0  0.42996  0.08892  0.11843  1.0000
  C   C226      1.0  0.37393  0.06566  0.19061  1.0000
  H   H167      1.0  0.03327  0.18396  0.18385  1.0000
  H   H168      1.0  0.20499  0.46507  0.10955  1.0000
  C   C227      1.0  0.38574  0.02935  0.03392  1.0000
  C   C228      1.0  0.06519  0.11024  0.13683  1.0000
  C   C229      1.0  0.05386  0.09416  0.16641  1.0000
  C   C230      1.0  0.05997  0.11286  0.15554  1.0000
  H   H169      1.0  0.44724  0.22067  0.27090  1.0000
  C   C231      1.0  0.99779  0.05643  0.11370  1.0000
  H   H170      1.0  0.33160  0.00035  0.25395  1.0000
  C   C232      1.0  0.26704  0.26583  0.31335  1.0000
  C   C233      1.0  0.46475  0.03637  0.01316  1.0000
  C   C234      1.0  0.33551  0.99891  0.04125  1.0000
  C   C235      1.0  0.45581  0.09107  0.10540  1.0000
  H   H171      1.0  0.41773  0.07580  0.14494  1.0000
  C   C236      1.0  0.01726  0.39130  0.32629  1.0000
  C   C237      1.0  0.08181  0.46846  0.30910  1.0000
  H   H172      1.0  0.15890  0.35055  0.32654  1.0000
  C   C238      1.0  0.00632  0.99263  0.27697  1.0000
  C   C239      1.0  0.45436  0.17602  0.30792  1.0000
  H   H173      1.0  0.47241  0.09725  0.04047  1.0000
  H   H174      1.0  0.24456  0.46674  0.03877  1.0000
  C   C240      1.0  0.43886  0.48095  0.04369  1.0000
  H   H175      1.0  0.02849  0.13741  0.25097  1.0000
  C   C241      1.0  0.43606  0.32765  0.29710  1.0000
  H   H176      1.0  0.41799  0.10109  0.00096  1.0000
  P   P8        1.0  0.43401  0.99621  0.02063  1.0000
  C   C242      1.0  0.27378  0.45016  0.08070  1.0000
  H   H177      1.0  0.45868  0.25732  0.25726  1.0000
  H   H178      1.0  0.02486  0.32972  0.24427  1.0000
  H   H179      1.0  0.19760  0.01085  0.11013  1.0000
  H   H180      1.0  0.48360  0.40131  0.22654  1.0000
  H   H181      1.0  0.31569  0.47716  0.21348  1.0000
  H   H182      1.0  0.44957  0.09940  0.09254  1.0000
  C   C243      1.0  0.01697  0.34555  0.25071  1.0000
  C   C244      1.0  0.45543  0.47229  0.26557  1.0000
  C   C245      1.0  0.29302  0.46869  0.26231  1.0000
  H   H183      1.0  0.45559  0.05790  0.18526  1.0000
  C   C246      1.0  0.99993  0.46848  0.26555  1.0000
  C   C247      1.0  0.47144  0.06887  0.13829  1.0000
  H   H184      1.0  0.44395  0.34988  0.25456  1.0000
  C   C248      1.0  0.48782  0.03794  0.20401  1.0000
  C   C249      1.0  0.23538  0.99597  0.15743  1.0000
  C   C250      1.0  0.45139  0.34131  0.26718  1.0000
  H   H185      1.0  0.47684  0.05998  0.15102  1.0000
  C   C251      1.0  0.00412  0.99714  0.15774  1.0000
  H   H186      1.0  0.46150  0.48014  0.25269  1.0000
  H   H187      1.0  0.01345  0.98662  0.26354  1.0000
  H   H188      1.0  0.09173  0.99794  0.12052  1.0000
  C   C252      1.0  0.06089  0.99616  0.17143  1.0000
  C   C253      1.0  0.99747  0.38747  0.26568  1.0000
  H   H189      1.0  0.49251  0.46053  0.30685  1.0000
  C   C254      1.0  0.20906  0.99023  0.16969  1.0000
  S   S35       1.0  0.35799  0.98556  0.13439  1.0000
  H   H190      1.0  0.45878  0.98652  0.17698  1.0000
  C   C255      1.0  0.10313  0.02032  0.32500  1.0000
  S   S36       1.0  0.99581  0.07367  0.20185  1.0000
  H   H191      1.0  0.46130  0.10154  0.32589  1.0000
  C   C256      1.0  0.47912  0.05242  0.00199  1.0000
  H   H192      1.0  0.48260  0.02474  0.13213  1.0000
  C   C257      1.0  0.47088  0.32100  0.30061  1.0000
  C   C258      1.0  0.18967  0.47828  0.11635  1.0000
  H   H193      1.0  0.23586  0.42819  0.32833  1.0000
  C   C259      1.0  0.02769  0.98845  0.17078  1.0000
  C   C260      1.0  0.48999  0.27836  0.32082  1.0000
  C   C261      1.0  0.48610  0.33487  0.27059  1.0000
  H   H194      1.0  0.12908  0.48345  0.14990  1.0000
  S   S37       1.0  0.32429  0.28500  0.32716  1.0000
  H   H195      1.0  0.31638  0.98703  0.04447  1.0000
  H   H196      1.0  0.49429  0.15004  0.31425  1.0000
  H   H197      1.0  0.42224  0.23822  0.32863  1.0000
  H   H198      1.0  0.22233  0.39039  0.40576  1.0000
  H   H199      1.0  0.05620  0.41444  0.40025  1.0000
  C   C262      1.0  0.07456  0.98921  0.46795  1.0000
  S   S38       1.0  0.33088  0.34641  0.33780  1.0000
  H   H200      1.0  0.09464  0.44180  0.50165  1.0000
  Fe  Fe22      1.0  0.27848  0.36119  0.34678  1.0000
  S   S39       1.0  0.26225  0.37577  0.37433  1.0000
  H   H201      1.0  0.04177  0.02552  0.36615  1.0000
  H   H202      1.0  0.01815  0.42306  0.33969  1.0000
  C   C263      1.0  0.38549  0.20884  0.36248  1.0000
  H   H203      1.0  0.12836  0.14098  0.40824  1.0000
  Fe  Fe23      1.0  0.09018  0.46629  0.59916  1.0000
  C   C264      1.0  0.15056  0.15837  0.37087  1.0000
  S   S40       1.0  0.08034  0.43591  0.58050  1.0000
  H   H204      1.0  0.06946  0.40677  0.36793  1.0000
  H   H205      1.0  0.01806  0.23715  0.48903  1.0000
  C   C265      1.0  0.01567  0.44025  0.52173  1.0000
  S   S41       1.0  0.11250  0.46276  0.62771  1.0000
  H   H206      1.0  0.07107  0.41164  0.48340  1.0000
  Fe  Fe24      1.0  0.10378  0.35673  0.48643  1.0000
  S   S42       1.0  0.05053  0.34401  0.48476  1.0000
  S   S43       1.0  0.12474  0.38125  0.50751  1.0000
  Fe  Fe25      1.0  0.12406  0.33570  0.44903  1.0000
  S   S44       1.0  0.07133  0.32261  0.44488  1.0000
  S   S45       1.0  0.16403  0.32373  0.42774  1.0000
  Fe  Fe26      1.0  0.05072  0.35607  0.45559  1.0000
  H   H207      1.0  0.37412  0.29882  0.35495  1.0000
  Fe  Fe27      1.0  0.07557  0.31109  0.47406  1.0000
  S   S46       1.0  0.05367  0.27721  0.48218  1.0000
  S   S47       1.0  0.10291  0.37016  0.45750  1.0000
  S   S48       1.0  0.12921  0.32285  0.47796  1.0000
  P   P9        1.0  0.10687  0.04569  0.35666  1.0000
  C   C266      1.0  0.15633  0.29228  0.34710  1.0000
  S   S49       1.0  0.08513  0.01360  0.58911  1.0000
  C   C267      1.0  0.06648  0.01163  0.47270  1.0000
  Fe  Fe28      1.0  0.04304  0.09558  0.46220  1.0000
  S   S50       1.0  0.08812  0.07028  0.46247  1.0000
  C   C268      1.0  0.37223  0.19177  0.35219  1.0000
  Fe  Fe29      1.0  0.08820  0.13385  0.47355  1.0000
  S   S51       1.0  0.13604  0.10965  0.47544  1.0000
  S   S52       1.0  0.09908  0.17174  0.47379  1.0000
  Fe  Fe30      1.0  0.11808  0.09662  0.44871  1.0000
  S   S53       1.0  0.14721  0.08761  0.42245  1.0000
  Fe  Fe31      1.0  0.10189  0.08498  0.48945  1.0000
  S   S54       1.0  0.11675  0.05581  0.50979  1.0000
  S   S55       1.0  0.07153  0.12091  0.44637  1.0000
  S   S56       1.0  0.05545  0.11010  0.48962  1.0000
  H   H208      1.0  0.35850  0.17869  0.35886  1.0000
  S   S57       1.0  0.00269  0.37741  0.44674  1.0000
  C   C269      1.0  0.39907  0.32766  0.36468  1.0000
  P   P10       1.0  0.12217  0.31417  0.34384  1.0000
  H   H209      1.0  0.17948  0.23841  0.33382  1.0000
  H   H210      1.0  0.12249  0.17676  0.54297  1.0000
  Fe  Fe32      1.0  0.26860  0.13620  0.35197  1.0000
  S   S58       1.0  0.26732  0.13760  0.38281  1.0000
  H   H211      1.0  0.11169  0.10957  0.38905  1.0000
  C   C270      1.0  0.39772  0.46552  0.63987  1.0000
  C   C271      1.0  0.17981  0.10259  0.41174  1.0000
  C   C272      1.0  0.20007  0.11705  0.42134  1.0000
  C   C273      1.0  0.22701  0.12757  0.41241  1.0000
  C   C274      1.0  0.23348  0.12407  0.39376  1.0000
  C   C275      1.0  0.21265  0.11003  0.38410  1.0000
  C   C276      1.0  0.18618  0.09925  0.39308  1.0000
  H   H212      1.0  0.19566  0.11955  0.43575  1.0000
  H   H213      1.0  0.24310  0.13832  0.41998  1.0000
  H   H214      1.0  0.21729  0.10717  0.36974  1.0000
  H   H215      1.0  0.17067  0.08816  0.38550  1.0000
  C   C277      1.0  0.09365  0.02470  0.56677  1.0000
  C   C278      1.0  0.11092  0.01196  0.55317  1.0000
  C   C279      1.0  0.11773  0.02177  0.53597  1.0000
  C   C280      1.0  0.10707  0.04440  0.53187  1.0000
  C   C281      1.0  0.08927  0.05704  0.54537  1.0000
  C   C282      1.0  0.08289  0.04731  0.56265  1.0000
  C   C283      1.0  0.18116  0.25463  0.34032  1.0000
  H   H216      1.0  0.13146  0.01169  0.52576  1.0000
  H   H217      1.0  0.08090  0.07443  0.54262  1.0000
  C   C284      1.0  0.05515  0.42014  0.49371  1.0000
  H   H218      1.0  0.00706  0.09895  0.42111  1.0000
  H   H219      1.0  0.08074  0.06525  0.42075  1.0000
  C   C285      1.0  0.45301  0.33525  0.34988  1.0000
  H   H220      1.0  0.08695  0.02247  0.47608  1.0000
  C   C286      1.0  0.08149  0.04543  0.37731  1.0000
  C   C287      1.0  0.06625  0.24804  0.47861  1.0000
  C   C288      1.0  0.09870  0.24060  0.47173  1.0000
  C   C289      1.0  0.10780  0.21728  0.46994  1.0000
  C   C290      1.0  0.08484  0.20097  0.47509  1.0000
  C   C291      1.0  0.05223  0.20842  0.48175  1.0000
  C   C292      1.0  0.04313  0.23172  0.48354  1.0000
  H   H221      1.0  0.11741  0.25275  0.46867  1.0000
  H   H222      1.0  0.13319  0.21175  0.46497  1.0000
  H   H223      1.0  0.03430  0.19627  0.48599  1.0000
  C   C293      1.0  0.08983  0.45361  0.45615  1.0000
  C   C294      1.0  0.42798  0.40866  0.65292  1.0000
  C   C295      1.0  0.16724  0.37436  0.34737  1.0000
  H   H224      1.0  0.06289  0.30003  0.52039  1.0000
  C   C296      1.0  0.03209  0.13581  0.39575  1.0000
  S   S59       1.0  0.24888  0.33401  0.33466  1.0000
  C   C297      1.0  0.42226  0.30293  0.34098  1.0000
  C   C298      1.0  0.03247  0.03279  0.39433  1.0000
  C   C299      1.0  0.09351  0.42114  0.56010  1.0000
  C   C300      1.0  0.12059  0.42749  0.54893  1.0000
  C   C301      1.0  0.12977  0.41503  0.53306  1.0000
  C   C302      1.0  0.11144  0.39645  0.52769  1.0000
  C   C303      1.0  0.08408  0.39032  0.53875  1.0000
  C   C304      1.0  0.07583  0.40225  0.55497  1.0000
  H   H225      1.0  0.13482  0.44178  0.55264  1.0000
  H   H226      1.0  0.15116  0.41993  0.52479  1.0000
  H   H227      1.0  0.06979  0.37607  0.53507  1.0000
  H   H228      1.0  0.05586  0.39662  0.56382  1.0000
  C   C305      1.0  0.17422  0.05378  0.34646  1.0000
  C   C306      1.0  0.05740  0.11992  0.38941  1.0000
  H   H229      1.0  0.02964  0.04247  0.42255  1.0000
  S   S60       1.0  0.03414  0.46974  0.66168  1.0000
  H   H230      1.0  0.11394  0.45982  0.46078  1.0000
  H   H231      1.0  0.08386  0.16905  0.41962  1.0000
  C   C307      1.0  0.48799  0.26491  0.33658  1.0000
  C   C308      1.0  0.15794  0.43733  0.34928  1.0000
  S   S61       1.0  0.30269  0.15697  0.33438  1.0000
  C   C309      1.0  0.09053  0.30110  0.52198  1.0000
  C   C310      1.0  0.23481  0.36129  0.38913  1.0000
  C   C311      1.0  0.22958  0.33848  0.38676  1.0000
  C   C312      1.0  0.20794  0.32733  0.39877  1.0000
  C   C313      1.0  0.19090  0.33889  0.41317  1.0000
  C   C314      1.0  0.19614  0.36171  0.41562  1.0000
  C   C315      1.0  0.21819  0.37280  0.40371  1.0000
  H   H232      1.0  0.24270  0.32935  0.37583  1.0000
  H   H233      1.0  0.20442  0.30963  0.39692  1.0000
  H   H234      1.0  0.18350  0.37074  0.42677  1.0000
  H   H235      1.0  0.21075  0.43683  0.35863  1.0000
  H   H236      1.0  0.02409  0.46351  0.34379  1.0000
  H   H237      1.0  0.07749  0.23848  0.40086  1.0000
  H   H238      1.0  0.05868  0.20012  0.39617  1.0000
  C   C316      1.0  0.01186  0.37830  0.40908  1.0000
  C   C317      1.0  0.06514  0.44968  0.39828  1.0000
  H   H239      1.0  0.33468  0.23813  0.33506  1.0000
  C   C318      1.0  0.09118  0.05748  0.39260  1.0000
  H   H240      1.0  0.43235  0.42178  0.64306  1.0000
  C   C319      1.0  0.08211  0.46299  0.36860  1.0000
  C   C320      1.0  0.33909  0.43926  0.66044  1.0000
  C   C321      1.0  0.24910  0.27319  0.55658  1.0000
  C   C322      1.0  0.28054  0.26649  0.54827  1.0000
  C   C323      1.0  0.28085  0.25727  0.53082  1.0000
  C   C324      1.0  0.24977  0.25485  0.52161  1.0000
  C   C325      1.0  0.21811  0.26186  0.52976  1.0000
  C   C326      1.0  0.21798  0.27077  0.54742  1.0000
  P   P11       1.0  0.17773  0.25818  0.51826  1.0000
  C   C327      1.0  0.18595  0.25590  0.49405  1.0000
  C   C328      1.0  0.15926  0.23293  0.52677  1.0000
  C   C329      1.0  0.17217  0.22191  0.54261  1.0000
  C   C330      1.0  0.15878  0.20180  0.54848  1.0000
  C   C331      1.0  0.13256  0.19249  0.53858  1.0000
  C   C332      1.0  0.11950  0.20337  0.52288  1.0000
  C   C333      1.0  0.13266  0.22352  0.51709  1.0000
  C   C334      1.0  0.18869  0.27541  0.48340  1.0000
  C   C335      1.0  0.19504  0.27385  0.46468  1.0000
  C   C336      1.0  0.19957  0.25275  0.45652  1.0000
  C   C337      1.0  0.19764  0.23321  0.46706  1.0000
  C   C338      1.0  0.19098  0.23473  0.48576  1.0000
  C   C339      1.0  0.14867  0.28295  0.52158  1.0000
  C   C340      1.0  0.16198  0.30407  0.52445  1.0000
  C   C341      1.0  0.04876  0.44716  0.51808  1.0000
  H   H241      1.0  0.27230  0.47540  0.64629  1.0000
  C   C342      1.0  0.10163  0.99943  0.35344  1.0000
  C   C343      1.0  0.11270  0.28170  0.52024  1.0000
  H   H242      1.0  0.24883  0.28023  0.57015  1.0000
  H   H243      1.0  0.30465  0.26837  0.55538  1.0000
  H   H244      1.0  0.30522  0.25196  0.52442  1.0000
  H   H245      1.0  0.25059  0.24752  0.50816  1.0000
  H   H246      1.0  0.19377  0.27584  0.55410  1.0000
  H   H247      1.0  0.19275  0.22853  0.55040  1.0000
  H   H248      1.0  0.16896  0.19328  0.56063  1.0000
  C   C344      1.0  0.37660  0.19152  0.33328  1.0000
  H   H249      1.0  0.09942  0.19605  0.51504  1.0000
  H   H250      1.0  0.12243  0.23161  0.50489  1.0000
  H   H251      1.0  0.18601  0.29190  0.48951  1.0000
  C   C345      1.0  0.03206  0.02019  0.47280  1.0000
  H   H252      1.0  0.19634  0.28906  0.45649  1.0000
  H   H253      1.0  0.20091  0.21685  0.46075  1.0000
  H   H254      1.0  0.18973  0.21935  0.49366  1.0000
  H   H255      1.0  0.18956  0.30584  0.52480  1.0000
  C   C346      1.0  0.00191  0.15416  0.46883  1.0000
  C   C347      1.0  0.02799  0.32327  0.36885  1.0000
  C   C348      1.0  0.03628  0.47001  0.33175  1.0000
  H   H256      1.0  0.10146  0.26599  0.51740  1.0000
  H   H257      1.0  0.00877  0.33713  0.37096  1.0000
  H   H258      1.0  0.00445  0.43116  0.43860  1.0000
  H   H259      1.0  0.25083  0.05273  0.36913  1.0000
  H   H260      1.0  0.37868  0.33240  0.37431  1.0000
  C   C349      1.0  0.39658  0.30868  0.35381  1.0000
  H   H261      1.0  0.49201  0.23122  0.34777  1.0000
  H   H262      1.0  0.37892  0.45636  0.63258  1.0000
  C   C350      1.0  0.02794  0.45949  0.45080  1.0000
  C   C351      1.0  0.12417  0.16853  0.36011  1.0000
  C   C352      1.0  0.10400  0.32191  0.52508  1.0000
  H   H263      1.0  0.42850  0.35611  0.37068  1.0000
  C   C353      1.0  0.99866  0.03153  0.58773  1.0000
  H   H264      1.0  0.15007  0.33969  0.52826  1.0000
  H   H265      1.0  0.01293  0.39978  0.48913  1.0000
  C   C354      1.0  0.13970  0.32339  0.52634  1.0000
  C   C355      1.0  0.07987  0.44130  0.36144  1.0000
  H   H266      1.0  0.06966  0.05746  0.57298  1.0000
  C   C356      1.0  0.08934  0.43165  0.44964  1.0000
  C   C357      1.0  0.06349  0.42796  0.39138  1.0000
  C   C358      1.0  0.07635  0.15602  0.41053  1.0000
  H   H267      1.0  0.00881  0.02410  0.39484  1.0000
  C   C359      1.0  0.05613  0.06818  0.33530  1.0000
  C   C360      1.0  0.16193  0.38021  0.36557  1.0000
  C   C361      1.0  0.14367  0.36641  0.37703  1.0000
  C   C362      1.0  0.13145  0.34648  0.37042  1.0000
  H   H268      1.0  0.04068  0.06186  0.51139  1.0000
  C   C363      1.0  0.41524  0.48189  0.63052  1.0000
  H   H269      1.0  0.46316  0.38452  0.63954  1.0000
  H   H270      1.0  0.99956  0.45136  0.57715  1.0000
  C   C364      1.0  0.02375  0.20124  0.41925  1.0000
  H   H271      1.0  0.41370  0.23882  0.36185  1.0000
  C   C365      1.0  0.44549  0.38750  0.65084  1.0000
  H   H272      1.0  0.15232  0.03389  0.38831  1.0000
  C   C366      1.0  0.40451  0.46103  0.65841  1.0000
  C   C367      1.0  0.21164  0.25937  0.34921  1.0000
  C   C368      1.0  0.21465  0.28048  0.35699  1.0000
  C   C369      1.0  0.18712  0.29687  0.35597  1.0000
  C   C370      1.0  0.06847  0.43711  0.50405  1.0000
  H   H273      1.0  0.17303  0.39500  0.37095  1.0000
  H   H274      1.0  0.14018  0.37069  0.39125  1.0000
  H   H275      1.0  0.11896  0.33549  0.37982  1.0000
  C   C371      1.0  0.13578  0.43455  0.33440  1.0000
  H   H276      1.0  0.01839  0.47497  0.48700  1.0000
  C   C372      1.0  0.10266  0.02009  0.34413  1.0000
  C   C373      1.0  0.15364  0.27105  0.33917  1.0000
  H   H277      1.0  0.23324  0.24682  0.34966  1.0000
  H   H278      1.0  0.23867  0.28435  0.36343  1.0000
  H   H279      1.0  0.19041  0.31328  0.36167  1.0000
  C   C374      1.0  0.27348  0.20713  0.36972  1.0000
  C   C375      1.0  0.28845  0.22712  0.37401  1.0000
  C   C376      1.0  0.27208  0.24209  0.38633  1.0000
  C   C377      1.0  0.24059  0.23716  0.39423  1.0000
  C   C378      1.0  0.22477  0.21743  0.38950  1.0000
  C   C379      1.0  0.24184  0.20224  0.37743  1.0000
  P   P12       1.0  0.18441  0.21090  0.40004  1.0000
  C   C380      1.0  0.19304  0.19406  0.42031  1.0000
  C   C381      1.0  0.15993  0.23702  0.40523  1.0000
  C   C382      1.0  0.14326  0.24028  0.42209  1.0000
  C   C383      1.0  0.12596  0.26107  0.42605  1.0000
  C   C384      1.0  0.12474  0.27853  0.41324  1.0000
  C   C385      1.0  0.14137  0.27549  0.39653  1.0000
  C   C386      1.0  0.15866  0.25479  0.39248  1.0000
  C   C387      1.0  0.16646  0.18239  0.42823  1.0000
  C   C388      1.0  0.17314  0.16843  0.44338  1.0000
  C   C389      1.0  0.20628  0.16615  0.45087  1.0000
  C   C390      1.0  0.23292  0.17774  0.44311  1.0000
  C   C391      1.0  0.22640  0.19163  0.42785  1.0000
  C   C392      1.0  0.16029  0.19453  0.38447  1.0000
  C   C393      1.0  0.16842  0.17126  0.38305  1.0000
  C   C394      1.0  0.13373  0.20466  0.37356  1.0000
  H   H280      1.0  0.28632  0.19531  0.36039  1.0000
  H   H281      1.0  0.31271  0.23100  0.36779  1.0000
  H   H282      1.0  0.28380  0.25754  0.38975  1.0000
  H   H283      1.0  0.22865  0.24881  0.40399  1.0000
  H   H284      1.0  0.23114  0.18649  0.37398  1.0000
  H   H285      1.0  0.14385  0.22709  0.43232  1.0000
  H   H286      1.0  0.11353  0.26386  0.43910  1.0000
  H   H287      1.0  0.11166  0.29468  0.41646  1.0000
  H   H288      1.0  0.14153  0.28944  0.38699  1.0000
  H   H289      1.0  0.17161  0.25271  0.37952  1.0000
  H   H290      1.0  0.14065  0.18386  0.42257  1.0000
  H   H291      1.0  0.15274  0.15901  0.44917  1.0000
  H   H292      1.0  0.21136  0.15504  0.46248  1.0000
  H   H293      1.0  0.25879  0.17555  0.44869  1.0000
  H   H294      1.0  0.24759  0.20003  0.42183  1.0000
  H   H295      1.0  0.18900  0.16307  0.39117  1.0000
  H   H296      1.0  0.12701  0.22253  0.37418  1.0000
  C   C395      1.0  0.09215  0.12216  0.39354  1.0000
  P   P13       1.0  0.08916  0.43650  0.33759  1.0000
  C   C396      1.0  0.04458  0.24506  0.42411  1.0000
  C   C397      1.0  0.11571  0.19166  0.36147  1.0000
  H   H297      1.0  0.15749  0.14048  0.36969  1.0000
  H   H298      1.0  0.05798  0.40671  0.43829  1.0000
  S   S62       1.0  0.27637  0.10534  0.33446  1.0000
  C   C398      1.0  0.04799  0.21004  0.40738  1.0000
  H   H299      1.0  0.04263  0.47132  0.55976  1.0000
  C   C399      1.0  0.04150  0.15433  0.40594  1.0000
  C   C400      1.0  0.10158  0.14006  0.40424  1.0000
  H   H300      1.0  0.11334  0.06759  0.39210  1.0000
  H   H301      1.0  0.09719  0.27379  0.36228  1.0000
  C   C401      1.0  0.01751  0.05274  0.51279  1.0000
  H   H302      1.0  0.07589  0.48397  0.39231  1.0000
  C   C402      1.0  0.19383  0.43515  0.34704  1.0000
  C   C403      1.0  0.22371  0.05057  0.36662  1.0000
  H   H303      1.0  0.20458  0.25163  0.44203  1.0000
  H   H304      1.0  0.05005  0.10545  0.38180  1.0000
  C   C404      1.0  0.05835  0.42365  0.44355  1.0000
  H   H305      1.0  0.21404  0.03828  0.39371  1.0000
  C   C405      1.0  0.40347  0.22555  0.35388  1.0000
  H   H306      1.0  0.11297  0.42081  0.44931  1.0000
  H   H307      1.0  0.13108  0.09082  0.34787  1.0000
  H   H308      1.0  0.03470  0.36709  0.41110  1.0000
  H   H309      1.0  0.14787  0.44076  0.36277  1.0000
  C   C406      1.0  0.05113  0.03380  0.37807  1.0000
  C   C407      1.0  0.08295  0.30885  0.35604  1.0000
  H   H310      1.0  0.05967  0.45976  0.52650  1.0000
  C   C408      1.0  0.04381  0.04348  0.40987  1.0000
  H   H311      1.0  0.38187  0.20906  0.37712  1.0000
  C   C409      1.0  0.03358  0.40988  0.33278  1.0000
  H   H312      1.0  0.22542  0.06211  0.33873  1.0000
  H   H313      1.0  0.06087  0.34312  0.35270  1.0000
  C   C410      1.0  0.07092  0.42371  0.37302  1.0000
  C   C411      1.0  0.15275  0.04699  0.36061  1.0000
  H   H314      1.0  0.18222  0.38470  0.33855  1.0000
  H   H315      1.0  0.09554  0.19955  0.35293  1.0000
  C   C412      1.0  0.05848  0.23184  0.40989  1.0000
  H   H316      1.0  0.04166  0.05337  0.33712  1.0000
  H   H317      1.0  0.03264  0.17590  0.45319  1.0000
  C   C413      1.0  0.20296  0.04249  0.38046  1.0000
  C   C414      1.0  0.01159  0.16485  0.45277  1.0000
  C   C415      1.0  0.01635  0.47866  0.56092  1.0000
  C   C416      1.0  0.07268  0.05625  0.40889  1.0000
  H   H318      1.0  0.05256  0.26197  0.42615  1.0000
  H   H319      1.0  0.11956  0.99462  0.55599  1.0000
  H   H320      1.0  0.08691  0.33702  0.52603  1.0000
  H   H321      1.0  0.00549  0.40068  0.54690  1.0000
  C   C417      1.0  0.01810  0.03319  0.52349  1.0000
  H   H322      1.0  0.10281  0.99874  0.36818  1.0000
  H   H323      1.0  0.04469  0.26815  0.38030  1.0000
  C   C418      1.0  0.16771  0.04039  0.37742  1.0000
  H   H324      1.0  0.48253  0.27257  0.34970  1.0000
  C   C419      1.0  0.08867  0.06938  0.34350  1.0000
  H   H325      1.0  0.00981  0.24673  0.44699  1.0000
  C   C420      1.0  0.04833  0.28442  0.37414  1.0000
  C   C421      1.0  0.02208  0.41321  0.49726  1.0000
  C   C422      1.0  0.13611  0.34068  0.35201  1.0000
  C   C423      1.0  0.28720  0.45966  0.64884  1.0000
  H   H326      1.0  0.05913  0.45302  0.41241  1.0000
  C   C424      1.0  0.02779  0.43752  0.44402  1.0000
  C   C425      1.0  0.10642  0.08905  0.34131  1.0000
  C   C426      1.0  0.20941  0.05593  0.34955  1.0000
  C   C427      1.0  0.40803  0.22525  0.33497  1.0000
  H   H327      1.0  0.00091  0.44801  0.53279  1.0000
  C   C428      1.0  0.07802  0.28768  0.36384  1.0000
  C   C429      1.0  0.02343  0.30221  0.37671  1.0000
  C   C430      1.0  0.05755  0.32658  0.35852  1.0000
  C   C431      1.0  0.15418  0.35478  0.34059  1.0000
  C   C432      1.0  0.00210  0.42311  0.51143  1.0000
  C   C433      1.0  0.07457  0.46716  0.38692  1.0000
  H   H328      1.0  0.32884  0.47547  0.66169  1.0000
  C   C434      1.0  0.29315  0.41905  0.64691  1.0000
  H   H329      1.0  0.28278  0.40337  0.64292  1.0000
  C   C435      1.0  0.45110  0.31591  0.33920  1.0000
  H   H330      1.0  0.11061  0.15846  0.35060  1.0000
  S   S63       1.0  0.21941  0.14920  0.33864  1.0000
  Fe  Fe33      1.0  0.06415  0.48264  0.63731  1.0000
  C   C436      1.0  0.27397  0.43943  0.64369  1.0000
  H   H331      1.0  0.03292  0.98812  0.50792  1.0000
  C   C437      1.0  0.02025  0.23651  0.43584  1.0000
  C   C438      1.0  0.05934  0.46757  0.45655  1.0000
  H   H332      1.0  0.08952  0.47671  0.35996  1.0000
  H   H333      1.0  0.45384  0.35381  0.66170  1.0000
  H   H334      1.0  0.13067  0.26742  0.33165  1.0000
  H   H335      1.0  0.04179  0.02742  0.53036  1.0000
  H   H336      1.0  0.34016  0.40297  0.65738  1.0000
  C   C439      1.0  0.31940  0.45962  0.65737  1.0000
  C   C440      1.0  0.06927  0.41144  0.33025  1.0000
  C   C441      1.0  0.00951  0.21480  0.43331  1.0000
  C   C442      1.0  0.42712  0.34103  0.36261  1.0000
  H   H337      1.0  0.24876  0.43961  0.63725  1.0000
  H   H338      1.0  0.16368  0.05789  0.33309  1.0000
  C   C443      1.0  0.32568  0.41893  0.65519  1.0000
  H   H339      1.0  0.41921  0.28860  0.33227  1.0000
  H   H340      1.0  0.00984  0.04684  0.59199  1.0000
  H   H341      1.0  0.01523  0.15721  0.48145  1.0000
  H   H342      1.0  0.02602  0.03785  0.47566  1.0000
  H   H343      1.0  0.47417  0.34607  0.34832  1.0000
  H   H344      1.0  0.01726  0.37983  0.37977  1.0000
  C   C444      1.0  0.99911  0.02572  0.56932  1.0000
  C   C445      1.0  0.00551  0.00615  0.46896  1.0000
  H   H345      1.0  0.01036  0.03693  0.55969  1.0000
  C   C446      1.0  0.09285  0.10660  0.33013  1.0000
  P   P14       1.0  0.00855  0.17363  0.41544  1.0000
  H   H346      1.0  0.00064  0.29977  0.38489  1.0000
  H   H347      1.0  0.00515  0.13328  0.39310  1.0000
  C   C447      1.0  0.00194  0.38553  0.39137  1.0000
  H   H348      1.0  0.00426  0.17437  0.37554  1.0000
  C   C448      1.0  0.49352  0.24148  0.33556  1.0000
  S   S64       1.0  0.04049  0.48392  0.60941  1.0000
  C   C449      1.0  0.20805  0.43020  0.32997  1.0000
  H   H349      1.0  0.06036  0.48476  0.46116  1.0000
  H   H350      1.0  0.99877  0.40211  0.58038  1.0000
  C   C450      1.0  0.47822  0.12256  0.94088  1.0000
  H   H351      1.0  0.38185  0.39772  0.69121  1.0000
  C   C451      1.0  0.46460  0.12323  0.92314  1.0000
  C   C452      1.0  0.47530  0.48264  0.78609  1.0000
  H   H352      1.0  0.35015  0.98770  0.77231  1.0000
  H   H353      1.0  0.37271  0.46624  0.78031  1.0000
  H   H354      1.0  0.48387  0.99487  0.75985  1.0000
  C   C453      1.0  0.24704  0.98717  0.74127  1.0000
  C   C454      1.0  0.48158  0.04900  0.98324  1.0000
  P   P15       1.0  0.38177  0.43969  0.67027  1.0000
  H   H355      1.0  0.01862  0.47765  0.72329  1.0000
  C   C455      1.0  0.44437  0.16834  0.94578  1.0000
  H   H356      1.0  0.45737  0.10468  0.89848  1.0000
  H   H357      1.0  0.42063  0.98675  0.79037  1.0000
  C   C456      1.0  0.02682  0.48307  0.73657  1.0000
  H   H358      1.0  0.17842  0.47433  0.71673  1.0000
  C   C457      1.0  0.40526  0.41268  0.66762  1.0000
  C   C458      1.0  0.08576  0.48385  0.80478  1.0000
  C   C459      1.0  0.22721  0.00782  0.74111  1.0000
  P   P16       1.0  0.47554  0.14737  0.95501  1.0000
  C   C460      1.0  0.11784  0.99273  0.68263  1.0000
  C   C461      1.0  0.26241  0.99760  0.79250  1.0000
  C   C462      1.0  0.38800  0.98497  0.73059  1.0000
  H   H359      1.0  0.32521  0.45785  0.69419  1.0000
  C   C463      1.0  0.34692  0.45970  0.72077  1.0000
  C   C464      1.0  0.00295  0.47979  0.67810  1.0000
  H   H360      1.0  0.40226  0.15945  0.96332  1.0000
  C   C465      1.0  0.29087  0.02348  0.77276  1.0000
  H   H361      1.0  0.43606  0.11064  0.96978  1.0000
  C   C466      1.0  0.12406  0.44850  0.82264  1.0000
  C   C467      1.0  0.44022  0.37019  0.66332  1.0000
  C   C468      1.0  0.45373  0.47609  0.91071  1.0000
  H   H362      1.0  0.24847  0.01010  0.81916  1.0000
  C   C469      1.0  0.16054  0.48411  0.70797  1.0000
  C   C470      1.0  0.26032  0.01383  0.80620  1.0000
  H   H363      1.0  0.42988  0.44409  0.73251  1.0000
  H   H364      1.0  0.23167  0.02072  0.75094  1.0000
  C   C471      1.0  0.46220  0.14011  0.97782  1.0000
  H   H365      1.0  0.32318  0.46724  0.72655  1.0000
  C   C472      1.0  0.05605  0.47248  0.74487  1.0000
  H   H366      1.0  0.08910  0.47090  0.76827  1.0000
  H   H367      1.0  0.43899  0.47145  0.89899  1.0000
  C   C473      1.0  0.13932  0.47320  0.69601  1.0000
  C   C474      1.0  0.40706  0.44667  0.72402  1.0000
  H   H368      1.0  0.08298  0.00480  0.70377  1.0000
  H   H369      1.0  0.18629  0.02813  0.72785  1.0000
  H   H370      1.0  0.43561  0.46993  0.68149  1.0000
  H   H371      1.0  0.29899  0.05595  0.78415  1.0000
  C   C475      1.0  0.37628  0.45584  0.73164  1.0000
  C   C476      1.0  0.20133  0.01211  0.72803  1.0000
  H   H372      1.0  0.37546  0.46037  0.74589  1.0000
  C   C477      1.0  0.46997  0.02939  0.97568  1.0000
  H   H373      1.0  0.37754  0.21344  0.92549  1.0000
  H   H374      1.0  0.16801  0.45987  0.80807  1.0000
  H   H375      1.0  0.47981  0.18100  0.92594  1.0000
  H   H376      1.0  0.11689  0.00865  0.67530  1.0000
  H   H377      1.0  0.10011  0.47736  0.67532  1.0000
  C   C478      1.0  0.44300  0.12121  0.98093  1.0000
  H   H378      1.0  0.17562  0.99936  0.70468  1.0000
  C   C479      1.0  0.45379  0.18245  0.93144  1.0000
  H   H379      1.0  0.04194  0.47187  0.81947  1.0000
  C   C480      1.0  0.41032  0.17029  0.95242  1.0000
  H   H380      1.0  0.07056  0.45892  0.73792  1.0000
  H   H381      1.0  0.23204  0.48189  0.69097  1.0000
  C   C481      1.0  0.27783  0.00229  0.77570  1.0000
  H   H382      1.0  0.43271  0.43455  0.69978  1.0000
  C   C482      1.0  0.46751  0.10401  0.91223  1.0000
  H   H383      1.0  0.27192  0.04739  0.81384  1.0000
  C   C483      1.0  0.37931  0.44576  0.69436  1.0000
  H   H384      1.0  0.14057  0.45498  0.69547  1.0000
  C   C484      1.0  0.39975  0.39510  0.67996  1.0000
  H   H385      1.0  0.41331  0.98516  0.72431  1.0000
  H   H386      1.0  0.36021  0.18815  0.95044  1.0000
  H   H387      1.0  0.47268  0.02647  0.96118  1.0000
  C   C485      1.0  0.06942  0.46955  0.81687  1.0000
  H   H388      1.0  0.41311  0.36052  0.68748  1.0000
  C   C486      1.0  0.45554  0.01330  0.98686  1.0000
  C   C487      1.0  0.40857  0.44150  0.70548  1.0000
  C   C488      1.0  0.48890  0.46942  0.91187  1.0000
  H   H389      1.0  0.31850  0.47783  0.76370  1.0000
  C   C489      1.0  0.34833  0.45456  0.70224  1.0000
  C   C490      1.0  0.35786  0.48163  0.78393  1.0000
  H   H390      1.0  0.47236  0.46489  0.78409  1.0000
  C   C491      1.0  0.19515  0.99589  0.71502  1.0000
  C   C492      1.0  0.49451  0.10235  0.94752  1.0000
  H   H391      1.0  0.44756  0.99810  0.98068  1.0000
  C   C493      1.0  0.39607  0.20076  0.93105  1.0000
  H   H392      1.0  0.48408  0.16858  0.99063  1.0000
  H   H393      1.0  0.42575  0.99124  0.82370  1.0000
  C   C494      1.0  0.27352  0.03484  0.80320  1.0000
  C   C495      1.0  0.28876  0.03966  0.78648  1.0000
  C   C496      1.0  0.41731  0.37398  0.67785  1.0000
  C   C497      1.0  0.38633  0.18653  0.94512  1.0000
  H   H394      1.0  0.48696  0.06927  0.91037  1.0000
  H   H395      1.0  0.30267  0.02748  0.75984  1.0000
  C   C498      1.0  0.08855  0.45197  0.82577  1.0000
  C   C499      1.0  0.38453  0.98740  0.74941  1.0000
  H   H396      1.0  0.13883  0.43487  0.82955  1.0000
  C   C500      1.0  0.14049  0.46257  0.81054  1.0000
  H   H397      1.0  0.43734  0.20971  0.91328  1.0000
  H   H398      1.0  0.07576  0.44103  0.83511  1.0000
  C   C501      1.0  0.09888  0.99056  0.69867  1.0000
  C   C502      1.0  0.06637  0.47930  0.76211  1.0000
  H   H399      1.0  0.45203  0.13854  0.91758  1.0000
  C   C503      1.0  0.48400  0.08403  0.91893  1.0000
  C   C504      1.0  0.12144  0.48015  0.80160  1.0000
  C   C505      1.0  0.42976  0.19867  0.92418  1.0000
  H   H400      1.0  0.21492  0.46908  0.99527  1.0000
  C   C506      1.0  0.46972  0.15380  0.99256  1.0000
  H   H401      1.0  0.47923  0.47231  0.71443  1.0000
  C   C507      1.0  0.42956  0.47294  0.66730  1.0000
  C   C508      1.0  0.35216  0.98619  0.75766  1.0000
  H   H402      1.0  0.40728  0.98967  0.75756  1.0000
  H   H403      1.0  0.18981  0.48350  0.66540  1.0000
  H   H404      1.0  0.49337  0.06128  0.97468  1.0000
  H   H405      1.0  0.38946  0.98527  0.99038  1.0000
  H   H406      1.0  0.34125  0.53794  0.09751  1.0000
  H   H407      1.0  0.18908  0.84993  0.06816  1.0000
  H   H408      1.0  0.42593  0.52880  0.00238  1.0000
  C   C509      1.0  0.15094  0.54431  0.06420  1.0000
  S   S65       1.0  0.42799  0.48962  0.16069  1.0000
  S   S66       1.0  0.36238  0.50087  0.07031  1.0000
  S   S67       1.0  0.34961  0.48679  0.12574  1.0000
  S   S68       1.0  0.39289  0.59369  0.02964  1.0000
  C   C510      1.0  0.30227  0.58939  0.03913  1.0000
  P   P17       1.0  0.24691  0.85055  0.00807  1.0000
  H   H409      1.0  0.14501  0.89768  0.02901  1.0000
  H   H410      1.0  0.38870  0.54180  0.20835  1.0000
  S   S69       1.0  0.39567  0.94952  0.08948  1.0000
  S   S70       1.0  0.40381  0.78447  0.99874  1.0000
  H   H411      1.0  0.29192  0.76321  0.00452  1.0000
  H   H412      1.0  0.30237  0.86844  0.02986  1.0000
  H   H413      1.0  0.27239  0.80301  0.01356  1.0000
  C   C511      1.0  0.39483  0.48532  0.23565  1.0000
  C   C512      1.0  0.47205  0.97895  0.07124  1.0000
  S   S71       1.0  0.35394  0.89722  0.01678  1.0000
  H   H414      1.0  0.07470  0.49210  0.28682  1.0000
  H   H415      1.0  0.48106  0.98398  0.12830  1.0000
  H   H416      1.0  0.17082  0.52032  0.03079  1.0000
  C   C513      1.0  0.31589  0.54175  0.12350  1.0000
  H   H417      1.0  0.36936  0.94819  0.21760  1.0000
  C   C514      1.0  0.28073  0.56074  0.01180  1.0000
  C   C515      1.0  0.03353  0.49632  0.30641  1.0000
  H   H418      1.0  0.14489  0.88041  0.05991  1.0000
  C   C516      1.0  0.09821  0.97995  0.32474  1.0000
  H   H419      1.0  0.23322  0.83671  0.04582  1.0000
  C   C517      1.0  0.32329  0.50711  0.99811  1.0000
  C   C518      1.0  0.42771  0.97014  0.00902  1.0000
  H   H420      1.0  0.32579  0.78564  0.02755  1.0000
  H   H421      1.0  0.17474  0.53530  0.11887  1.0000
  C   C519      1.0  0.38427  0.93600  0.06870  1.0000
  C   C520      1.0  0.35305  0.94134  0.05957  1.0000
  C   C521      1.0  0.34456  0.92949  0.04369  1.0000
  C   C522      1.0  0.36707  0.91212  0.03656  1.0000
  C   C523      1.0  0.39853  0.90698  0.04554  1.0000
  C   C524      1.0  0.40694  0.91877  0.06146  1.0000
  H   H422      1.0  0.33509  0.95427  0.06500  1.0000
  H   H423      1.0  0.32011  0.93366  0.03700  1.0000
  H   H424      1.0  0.41616  0.89366  0.04039  1.0000
  H   H425      1.0  0.43109  0.91431  0.06837  1.0000
  C   C525      1.0  0.21415  0.85003  0.04196  1.0000
  C   C526      1.0  0.20314  0.56422  0.06159  1.0000
  C   C527      1.0  0.39006  0.52612  0.21601  1.0000
  C   C528      1.0  0.16420  0.87463  0.05002  1.0000
  C   C529      1.0  0.31802  0.53542  0.10525  1.0000
  H   H426      1.0  0.36724  0.80936  0.04242  1.0000
  H   H427      1.0  0.30850  0.50109  0.00946  1.0000
  C   C530      1.0  0.28641  0.53767  0.13365  1.0000
  H   H428      1.0  0.15536  0.57434  0.04796  1.0000
  C   C531      1.0  0.34347  0.81705  0.03670  1.0000
  H   H429      1.0  0.22094  0.49922  0.05643  1.0000
  C   C532      1.0  0.20259  0.53072  0.08080  1.0000
  H   H430      1.0  0.23649  0.52450  0.13369  1.0000
  C   C533      1.0  0.32005  0.80368  0.02822  1.0000
  C   C534      1.0  0.38688  0.56691  0.04012  1.0000
  C   C535      1.0  0.37227  0.54931  0.03095  1.0000
  C   C536      1.0  0.36565  0.52916  0.04035  1.0000
  C   C537      1.0  0.37411  0.52603  0.05892  1.0000
  C   C538      1.0  0.39011  0.54322  0.06785  1.0000
  C   C539      1.0  0.39610  0.56353  0.05856  1.0000
  H   H431      1.0  0.36498  0.55152  0.01680  1.0000
  H   H432      1.0  0.35341  0.51602  0.03326  1.0000
  H   H433      1.0  0.39732  0.54110  0.08201  1.0000
  H   H434      1.0  0.40769  0.57688  0.06580  1.0000
  H   H435      1.0  0.45003  0.91371  0.01133  1.0000
  H   H436      1.0  0.31207  0.60018  0.04948  1.0000
  H   H437      1.0  0.35481  0.85084  0.04386  1.0000
  Fe  Fe34      1.0  0.37441  0.86988  0.99628  1.0000
  H   H438      1.0  0.45942  0.51567  0.18695  1.0000
  C   C540      1.0  0.29067  0.52514  0.09708  1.0000
  C   C541      1.0  0.29957  0.59703  0.02112  1.0000
  C   C542      1.0  0.34781  0.97282  0.23657  1.0000
  H   H439      1.0  0.39369  0.54211  0.24207  1.0000
  C   C543      1.0  0.26044  0.52168  0.10697  1.0000
  C   C544      1.0  0.06457  0.48639  0.29969  1.0000
  C   C545      1.0  0.28926  0.58272  0.00746  1.0000
  C   C546      1.0  0.30674  0.85037  0.02928  1.0000
  C   C547      1.0  0.29010  0.81367  0.02007  1.0000
  C   C548      1.0  0.38945  0.50568  0.20686  1.0000
  C   C549      1.0  0.26530  0.89509  0.00517  1.0000
  C   C550      1.0  0.14930  0.51122  0.13513  1.0000
  C   C551      1.0  0.29454  0.56741  0.04353  1.0000
  C   C552      1.0  0.39296  0.52627  0.23497  1.0000
  H   H440      1.0  0.38776  0.50557  0.19212  1.0000
  H   H441      1.0  0.39702  0.50639  0.25949  1.0000
  H   H442      1.0  0.21360  0.54641  0.02018  1.0000
  H   H443      1.0  0.49522  0.50716  0.21404  1.0000
  H   H444      1.0  0.46170  0.94920  0.02657  1.0000
  C   C553      1.0  0.19317  0.50116  0.11231  1.0000
  C   C554      1.0  0.26003  0.87514  0.99575  1.0000
  C   C555      1.0  0.28406  0.55306  0.02991  1.0000
  H   H445      1.0  0.29319  0.51995  0.08300  1.0000
  H   H446      1.0  0.29869  0.56112  0.05730  1.0000
  C   C556      1.0  0.25876  0.52767  0.12545  1.0000
  C   C557      1.0  0.33655  0.84035  0.03746  1.0000
  H   H447      1.0  0.27995  0.53574  0.03344  1.0000
  C   C558      1.0  0.21454  0.85986  0.02452  1.0000
  C   C559      1.0  0.18935  0.87701  0.01990  1.0000
  C   C560      1.0  0.24158  0.48653  0.08228  1.0000
  H   H448      1.0  0.45741  0.51251  0.03481  1.0000
  C   C561      1.0  0.22010  0.54865  0.07347  1.0000
  H   H449      1.0  0.28513  0.54206  0.14793  1.0000
  C   C562      1.0  0.28382  0.83721  0.01998  1.0000
  C   C563      1.0  0.18908  0.85745  0.05467  1.0000
  C   C564      1.0  0.23976  0.52230  0.00205  1.0000
  H   H450      1.0  0.33749  0.54925  0.12989  1.0000
  C   C565      1.0  0.16794  0.52857  0.07593  1.0000
  P   P18       1.0  0.22433  0.50997  0.09573  1.0000
  C   C566      1.0  0.17245  0.51757  0.12169  1.0000
  H   H451      1.0  0.18911  0.88468  0.00645  1.0000
  C   C567      1.0  0.16855  0.56211  0.05701  1.0000
  H   H452      1.0  0.46177  0.97311  0.08405  1.0000
  C   C568      1.0  0.46703  0.49830  0.19027  1.0000
  H   H453      1.0  0.24675  0.55081  0.07687  1.0000
  H   H454      1.0  0.20978  0.97343  0.17549  1.0000
  H   H455      1.0  0.13397  0.52392  0.14263  1.0000
  H   H456      1.0  0.01959  0.50971  0.29880  1.0000
  H   H457      1.0  0.38424  0.74192  0.01330  1.0000
  C   C569      1.0  0.36956  0.96539  0.22233  1.0000
  H   H458      1.0  0.33089  0.96131  0.24297  1.0000
  H   H459      1.0  0.12406  0.54270  0.06070  1.0000
  C   C570      1.0  0.39514  0.50597  0.24478  1.0000
  C   C571      1.0  0.19047  0.49295  0.01393  1.0000
  H   H460      1.0  0.42264  0.98054  0.05818  1.0000
  C   C572      1.0  0.48745  0.49344  0.20573  1.0000
  C   C573      1.0  0.46434  0.49609  0.04078  1.0000
  C   C574      1.0  0.19016  0.51475  0.02087  1.0000
  H   H461      1.0  0.21684  0.57805  0.05604  1.0000
  C   C575      1.0  0.16429  0.88437  0.03263  1.0000
  H   H462      1.0  0.15402  0.51473  0.08124  1.0000
  H   H463      1.0  0.40927  0.97428  0.20349  1.0000
  C   C576      1.0  0.43786  0.92955  0.00649  1.0000
  Fe  Fe35      1.0  0.38465  0.60797  0.00053  1.0000
  H   H464      1.0  0.09592  0.96455  0.31719  1.0000
  C   C577      1.0  0.44438  0.94974  0.01503  1.0000
  H   H465      1.0  0.37189  0.97347  0.03105  1.0000
  H   H466      1.0  0.38725  0.70278  0.00139  1.0000
  H   H467      1.0  0.25587  0.98358  0.15381  1.0000
  H   H468      1.0  0.28261  0.92867  0.00352  1.0000
  C   C578      1.0  0.44982  0.98325  0.05647  1.0000
  H   H469      1.0  0.17577  0.83730  0.00101  1.0000
  H   H470      1.0  0.26109  0.89612  0.01972  1.0000
  C   C579      1.0  0.39340  0.73874  0.99959  1.0000
  H   H471      1.0  0.33175  0.48923  0.25178  1.0000
  C   C580      1.0  0.39196  0.98006  0.21435  1.0000
  C   C581      1.0  0.01948  0.48820  0.32248  1.0000
  Fe  Fe36      1.0  0.37650  0.98191  0.10482  1.0000
  C   C582      1.0  0.21456  0.52945  0.01489  1.0000
  H   H472      1.0  0.44725  0.56673  0.99824  1.0000
  H   H473      1.0  0.30690  0.61379  0.01765  1.0000
  H   H474      1.0  0.02035  0.97568  0.18038  1.0000
  C   C583      1.0  0.39232  0.48534  0.21658  1.0000
  C   C584      1.0  0.14634  0.48845  0.13917  1.0000
  H   H475      1.0  0.48964  0.48642  0.12766  1.0000
  C   C585      1.0  0.27721  0.91375  0.99598  1.0000
  C   C586      1.0  0.21498  0.48589  0.00085  1.0000
  C   C587      1.0  0.23558  0.48569  0.06342  1.0000
  H   H476      1.0  0.41222  0.48559  0.04006  1.0000
  H   H477      1.0  0.15133  0.98415  0.11267  1.0000
  S   S72       1.0  0.08694  0.51602  0.63430  1.0000
  S   S73       1.0  0.03396  0.54797  0.59700  1.0000
  H   H478      1.0  0.21666  0.96907  0.66173  1.0000
  Fe  Fe37      1.0  0.13657  0.94537  0.62830  1.0000
  S   S74       1.0  0.18525  0.93071  0.64414  1.0000
  Fe  Fe38      1.0  0.08606  0.92865  0.59902  1.0000
  S   S75       1.0  0.13153  0.95043  0.59763  1.0000
  S   S76       1.0  0.09424  0.92117  0.62871  1.0000
  C   C588      1.0  0.09891  0.97948  0.34377  1.0000
  C   C589      1.0  0.00698  0.93567  0.48688  1.0000
  H   H479      1.0  0.02659  0.50852  0.54589  1.0000
  Fe  Fe39      1.0  0.09188  0.97893  0.60387  1.0000
  C   C590      1.0  0.22231  0.93311  0.65863  1.0000
  H   H480      1.0  0.05483  0.95796  0.45979  1.0000
  C   C591      1.0  0.37308  0.54834  0.65278  1.0000
  C   C592      1.0  0.00928  0.86673  0.60494  1.0000
  H   H481      1.0  0.31171  0.65271  0.58907  1.0000
  C   C593      1.0  0.07638  0.95490  0.54840  1.0000
  C   C594      1.0  0.36404  0.52612  0.65105  1.0000
  H   H482      1.0  0.05958  0.58488  0.43392  1.0000
  C   C595      1.0  0.43985  0.49378  0.63955  1.0000
  H   H483      1.0  0.08841  0.86411  0.65510  1.0000
  C   C596      1.0  0.04814  0.97521  0.46376  1.0000
  H   H484      1.0  0.05158  0.86267  0.55994  1.0000
  H   H485      1.0  0.40918  0.63332  0.64908  1.0000
  C   C597      1.0  0.35858  0.56531  0.64121  1.0000
  C   C598      1.0  0.03891  0.54952  0.55909  1.0000
  C   C599      1.0  0.02155  0.55732  0.57476  1.0000
  C   C600      1.0  0.32238  0.64153  0.59968  1.0000
  H   H486      1.0  0.37558  0.59418  0.60514  1.0000
  S   S77       1.0  0.18860  0.50830  0.63030  1.0000
  C   C601      1.0  0.99588  0.49561  0.42972  1.0000
  H   H487      1.0  0.02710  0.91299  0.50806  1.0000
  H   H488      1.0  0.09747  0.96363  0.35101  1.0000
  H   H489      1.0  0.14830  0.55164  0.63070  1.0000
  C   C602      1.0  0.02770  0.55738  0.54172  1.0000
  H   H490      1.0  0.06114  0.53762  0.56040  1.0000
  C   C603      1.0  0.24435  0.52178  0.65004  1.0000
  H   H491      1.0  0.47160  0.63908  0.64613  1.0000
  H   H492      1.0  0.00185  0.68590  0.37980  1.0000
  H   H493      1.0  0.04353  0.57152  0.46476  1.0000
  C   C604      1.0  0.32837  0.63164  0.63167  1.0000
  H   H494      1.0  0.08757  0.96510  0.50326  1.0000
  H   H495      1.0  0.11523  0.94352  0.52904  1.0000
  S   S78       1.0  0.07726  0.89957  0.57987  1.0000
  C   C605      1.0  0.01345  0.91508  0.56611  1.0000
  S   S79       1.0  0.01143  0.94190  0.65223  1.0000
  C   C606      1.0  0.00924  0.51689  0.43121  1.0000
  Fe  Fe40      1.0  0.05699  0.95085  0.63403  1.0000
  C   C607      1.0  0.33416  0.55978  0.62813  1.0000
  C   C608      1.0  0.31453  0.64598  0.61794  1.0000
  H   H496      1.0  0.02598  0.83219  0.61049  1.0000
  H   H497      1.0  0.45323  0.50666  0.63242  1.0000
  H   H498      1.0  0.24813  0.53281  0.63853  1.0000
  H   H499      1.0  0.08852  0.94548  0.55967  1.0000
  C   C609      1.0  0.34433  0.62283  0.59514  1.0000
  S   S80       1.0  0.04647  0.95701  0.60408  1.0000
  S   S81       1.0  0.09914  0.97528  0.63467  1.0000
  C   C610      1.0  0.34984  0.61252  0.62717  1.0000
  C   C611      1.0  0.34049  0.52064  0.63767  1.0000
  C   C612      1.0  0.09135  0.95372  0.53111  1.0000
  H   H500      1.0  0.32129  0.57258  0.61954  1.0000
  C   C613      1.0  0.47370  0.58332  0.63636  1.0000
  H   H501      1.0  0.32251  0.63574  0.64570  1.0000
  H   H502      1.0  0.30635  0.53330  0.61630  1.0000
  H   H503      1.0  0.43021  0.56307  0.63609  1.0000
  H   H504      1.0  0.03523  0.87255  0.60517  1.0000
  P   P19       1.0  0.36914  0.59410  0.64456  1.0000
  H   H505      1.0  0.05162  0.89930  0.66001  1.0000
  C   C614      1.0  0.32542  0.53748  0.62629  1.0000
  C   C615      1.0  0.03845  0.89713  0.56748  1.0000
  C   C616      1.0  0.42701  0.61920  0.64565  1.0000
  H   H506      1.0  0.03522  0.96925  0.56483  1.0000
  C   C617      1.0  0.13559  0.55989  0.64225  1.0000
  C   C618      1.0  0.04592  0.96833  0.55126  1.0000
  Fe  Fe41      1.0  0.13426  0.49669  0.62318  1.0000
  C   C619      1.0  0.00730  0.49971  0.55319  1.0000
  C   C620      1.0  0.04484  0.97898  0.51934  1.0000
  C   C621      1.0  0.41497  0.59770  0.64312  1.0000
  C   C622      1.0  0.11152  0.57808  0.63942  1.0000
  H   H507      1.0  0.29942  0.59565  0.65939  1.0000
  C   C623      1.0  0.00112  0.87398  0.54958  1.0000
  H   H508      1.0  0.23607  0.89742  0.65848  1.0000
  S   S82       1.0  0.11507  0.49914  0.59380  1.0000
  H   H509      1.0  0.04143  0.55143  0.52968  1.0000
  C   C624      1.0  0.35822  0.60846  0.60883  1.0000
  C   C625      1.0  0.03231  0.87664  0.55899  1.0000
  H   H510      1.0  0.33314  0.50348  0.63643  1.0000
  C   C626      1.0  0.02989  0.98048  0.53677  1.0000
  C   C627      1.0  0.46221  0.62260  0.64384  1.0000
  C   C628      1.0  0.07567  0.96583  0.51659  1.0000
  H   H511      1.0  0.35077  0.61955  0.58100  1.0000
  H   H512      1.0  0.01785  0.93090  0.57249  1.0000
  Fe  Fe42      1.0  0.06646  0.51621  0.60553  1.0000
  C   C629      1.0  0.21597  0.50811  0.65000  1.0000
  C   C630      1.0  0.02396  0.57931  0.45576  1.0000
  H   H513      1.0  0.10557  0.58391  0.62567  1.0000
  H   H514      1.0  0.02678  0.94723  0.48906  1.0000
  C   C631      1.0  0.43858  0.57978  0.63832  1.0000
  C   C632      1.0  0.99883  0.57287  0.53989  1.0000
  C   C633      1.0  0.03294  0.58691  0.43843  1.0000
  H   H515      1.0  0.29787  0.66066  0.62146  1.0000
  C   C634      1.0  0.99727  0.50416  0.50109  1.0000
  H   H516      1.0  0.37499  0.51325  0.66028  1.0000
  C   C635      1.0  0.44712  0.48919  0.65787  1.0000
  H   H517      1.0  0.01135  0.49997  0.51352  1.0000
  C   C636      1.0  0.01479  0.52976  0.41557  1.0000
  H   H518      1.0  0.07561  0.60230  0.65202  1.0000
  C   C637      1.0  0.00724  0.91624  0.49780  1.0000
  C   C638      1.0  0.00021  0.66746  0.40513  1.0000
  H   H519      1.0  0.01916  0.67721  0.41174  1.0000
  H   H520      1.0  0.02453  0.54630  0.41680  1.0000
  H   H521      1.0  0.01525  0.52364  0.44439  1.0000
  H   H522      1.0  0.40961  0.48544  0.61629  1.0000
  C   C639      1.0  0.09458  0.58835  0.65427  1.0000
  C   C640      1.0  0.00756  0.52136  0.39837  1.0000
  H   H523      1.0  0.01143  0.53140  0.38626  1.0000
  C   C641      1.0  0.00403  0.84402  0.60793  1.0000
  C   C642      1.0  0.14228  0.55165  0.65988  1.0000
  H   H524      1.0  0.15983  0.53689  0.66161  1.0000
  C   C643      1.0  0.00156  0.49018  0.48591  1.0000
  H   H525      1.0  0.01507  0.60342  0.41372  1.0000
  C   C644      1.0  0.00769  0.59750  0.42707  1.0000
  C   C645      1.0  0.01334  0.98335  0.46482  1.0000
  H   H526      1.0  0.10137  0.98279  0.46743  1.0000
  H   H527      1.0  0.49197  0.56939  0.63300  1.0000
  H   H528      1.0  0.99646  0.85806  0.54336  1.0000
  C   C646      1.0  0.48552  0.60468  0.63915  1.0000
  H   H529      1.0  0.99564  0.98407  0.39451  1.0000
  Fe  Fe43      1.0  0.39751  0.64808  0.97432  1.0000
  H   H530      1.0  0.33816  0.58096  0.82338  1.0000
  H   H531      1.0  0.32333  0.91081  0.78898  1.0000
  Fe  Fe44      1.0  0.40617  0.59834  0.96131  1.0000
  S   S83       1.0  0.36140  0.58836  0.97837  1.0000
  S   S84       1.0  0.42690  0.56802  0.94495  1.0000
  Fe  Fe45      1.0  0.33430  0.62096  0.96899  1.0000
  S   S85       1.0  0.27823  0.62616  0.95977  1.0000
  S   S86       1.0  0.37703  0.62943  0.95026  1.0000
  H   H532      1.0  0.40354  0.58339  0.76996  1.0000
  Fe  Fe46      1.0  0.17638  0.65499  0.82422  1.0000
  S   S87       1.0  0.15483  0.64715  0.85177  1.0000
  S   S88       1.0  0.17806  0.68920  0.81080  1.0000
  Fe  Fe47      1.0  0.19590  0.60567  0.81611  1.0000
  S   S89       1.0  0.17454  0.59410  0.84270  1.0000
  S   S90       1.0  0.21794  0.57830  0.79764  1.0000
  Fe  Fe48      1.0  0.12980  0.61922  0.83685  1.0000
  S   S91       1.0  0.07293  0.61233  0.84054  1.0000
  Fe  Fe49      1.0  0.20167  0.62270  0.85494  1.0000
  S   S92       1.0  0.24573  0.61560  0.87527  1.0000
  S   S93       1.0  0.14927  0.62851  0.80929  1.0000
  S   S94       1.0  0.22499  0.63292  0.82829  1.0000
  Fe  Fe50      1.0  0.40410  0.51356  0.73638  1.0000
  S   S95       1.0  0.42209  0.54797  0.73104  1.0000
  Fe  Fe51      1.0  0.34391  0.51996  0.70766  1.0000
  S   S96       1.0  0.35903  0.55474  0.70047  1.0000
  Fe  Fe52      1.0  0.41456  0.54038  0.70151  1.0000
  S   S97       1.0  0.45706  0.54232  0.68018  1.0000
  Fe  Fe53      1.0  0.36539  0.55903  0.73072  1.0000
  S   S98       1.0  0.34653  0.59041  0.74598  1.0000
  S   S99       1.0  0.39910  0.50504  0.70668  1.0000
  S   S100      1.0  0.34786  0.52499  0.73804  1.0000
  Fe  Fe54      1.0  0.42674  0.92720  0.73659  1.0000
  S   S101      1.0  0.43780  0.89076  0.74278  1.0000
  H   H533      1.0  0.00393  0.52154  0.76904  1.0000
  Fe  Fe55      1.0  0.36331  0.91781  0.71181  1.0000
  S   S102      1.0  0.37155  0.88021  0.71677  1.0000
  C   C647      1.0  0.48967  0.94462  0.78234  1.0000
  Fe  Fe56      1.0  0.38045  0.88931  0.74599  1.0000
  S   S103      1.0  0.36433  0.87384  0.77264  1.0000
  Fe  Fe57      1.0  0.42884  0.88507  0.71306  1.0000
  S   S104      1.0  0.46734  0.85848  0.70081  1.0000
  S   S105      1.0  0.36959  0.92641  0.74159  1.0000
  S   S106      1.0  0.42036  0.92205  0.70631  1.0000
  Fe  Fe58      1.0  0.20472  0.85119  0.85285  1.0000
  S   S107      1.0  0.22023  0.81795  0.83994  1.0000
  S   S108      1.0  0.24272  0.87033  0.86913  1.0000
  Fe  Fe59      1.0  0.13407  0.85541  0.83301  1.0000
  S   S109      1.0  0.14430  0.82237  0.81884  1.0000
  Fe  Fe60      1.0  0.16552  0.80974  0.84578  1.0000
  S   S110      1.0  0.15385  0.77658  0.85890  1.0000
  Fe  Fe61      1.0  0.19799  0.83359  0.81425  1.0000
  S   S111      1.0  0.22180  0.83018  0.78622  1.0000
  S   S112      1.0  0.15132  0.84204  0.86062  1.0000
  S   S113      1.0  0.18651  0.86751  0.82654  1.0000
  H   H534      1.0  0.01034  0.83418  0.79310  1.0000
  Fe  Fe62      1.0  0.35331  0.84683  0.95982  1.0000
  S   S114      1.0  0.40578  0.82886  0.95625  1.0000
  S   S115      1.0  0.30755  0.83473  0.94426  1.0000
  Fe  Fe63      1.0  0.40132  0.82027  0.98605  1.0000
  H   H535      1.0  0.08576  0.65097  0.87302  1.0000
  Fe  Fe64      1.0  0.42614  0.86177  0.96542  1.0000
  S   S116      1.0  0.46915  0.88383  0.95643  1.0000
  H   H536      1.0  0.15189  0.97561  0.66321  1.0000
  S   S117      1.0  0.37358  0.88027  0.96662  1.0000
  H   H537      1.0  0.45521  0.49603  0.98695  1.0000
  H   H538      1.0  0.02331  0.58276  0.74407  1.0000
  C   C648      1.0  0.43514  0.85830  0.80640  1.0000
  H   H539      1.0  0.11717  0.59428  0.71537  1.0000
  H   H540      1.0  0.06929  0.60792  0.73559  1.0000
  C   C649      1.0  0.06080  0.71438  0.86432  1.0000
  H   H541      1.0  0.11650  0.94376  0.74845  1.0000
  H   H542      1.0  0.26781  0.97091  0.68193  1.0000
  C   C650      1.0  0.40190  0.91359  0.89354  1.0000
  C   C651      1.0  0.20478  0.55636  0.69357  1.0000
  H   H543      1.0  0.07035  0.94771  0.77172  1.0000
  C   C652      1.0  0.26140  0.85985  0.88970  1.0000
  C   C653      1.0  0.28929  0.87049  0.89727  1.0000
  C   C654      1.0  0.30411  0.86289  0.91392  1.0000
  C   C655      1.0  0.29088  0.84468  0.92312  1.0000
  C   C656      1.0  0.26317  0.83398  0.91548  1.0000
  C   C657      1.0  0.24851  0.84150  0.89882  1.0000
  H   H544      1.0  0.29931  0.88473  0.89027  1.0000
  H   H545      1.0  0.32545  0.87122  0.91970  1.0000
  H   H546      1.0  0.25276  0.81995  0.92257  1.0000
  H   H547      1.0  0.22677  0.83346  0.89321  1.0000
  C   C658      1.0  0.38404  0.51772  0.85497  1.0000
  H   H548      1.0  0.24307  0.57282  0.85167  1.0000
  S   S118      1.0  0.43073  0.48917  0.75695  1.0000
  C   C659      1.0  0.32373  0.86280  0.77597  1.0000
  C   C660      1.0  0.31359  0.85761  0.79378  1.0000
  C   C661      1.0  0.28173  0.84842  0.79711  1.0000
  C   C662      1.0  0.26030  0.84368  0.78253  1.0000
  C   C663      1.0  0.27029  0.84898  0.76470  1.0000
  C   C664      1.0  0.30178  0.85880  0.76143  1.0000
  H   H549      1.0  0.33053  0.86067  0.80505  1.0000
  H   H550      1.0  0.27420  0.84444  0.81090  1.0000
  H   H551      1.0  0.25381  0.84530  0.75338  1.0000
  H   H552      1.0  0.30951  0.86271  0.74766  1.0000
  C   C665      1.0  0.01336  0.59746  0.82527  1.0000
  C   C666      1.0  0.42633  0.50937  0.83133  1.0000
  C   C667      1.0  0.44894  0.49919  0.84421  1.0000
  H   H553      1.0  0.15097  0.93891  0.67838  1.0000
  H   H554      1.0  0.46620  0.49847  0.66483  1.0000
  C   C668      1.0  0.07329  0.89492  0.66898  1.0000
  H   H555      1.0  0.16191  0.78399  0.70594  1.0000
  H   H556      1.0  0.48333  0.92734  0.78080  1.0000
  C   C669      1.0  0.27216  0.91453  0.67504  1.0000
  C   C670      1.0  0.30513  0.94127  0.77494  1.0000
  C   C671      1.0  0.08897  0.52934  0.78939  1.0000
  C   C672      1.0  0.13756  0.95335  0.68469  1.0000
  C   C673      1.0  0.37390  0.60724  0.68106  1.0000
  C   C674      1.0  0.40387  0.93375  0.80382  1.0000
  C   C675      1.0  0.02843  0.86397  0.70947  1.0000
  C   C676      1.0  0.16940  0.71336  0.82413  1.0000
  C   C677      1.0  0.17177  0.73470  0.81614  1.0000
  C   C678      1.0  0.16693  0.75424  0.82670  1.0000
  C   C679      1.0  0.15917  0.75250  0.84523  1.0000
  C   C680      1.0  0.15529  0.73124  0.85302  1.0000
  C   C681      1.0  0.16073  0.71169  0.84255  1.0000
  H   H557      1.0  0.17825  0.73609  0.80185  1.0000
  H   H558      1.0  0.16948  0.77062  0.82057  1.0000
  H   H559      1.0  0.14845  0.72986  0.86724  1.0000
  H   H560      1.0  0.15839  0.69538  0.84878  1.0000
  C   C682      1.0  0.25422  0.58226  0.78390  1.0000
  C   C683      1.0  0.26333  0.56593  0.77085  1.0000
  C   C684      1.0  0.29154  0.56841  0.75926  1.0000
  C   C685      1.0  0.31128  0.58708  0.76075  1.0000
  C   C686      1.0  0.30242  0.60343  0.77393  1.0000
  C   C687      1.0  0.27383  0.60107  0.78550  1.0000
  H   H561      1.0  0.24806  0.55148  0.76946  1.0000
  H   H562      1.0  0.29729  0.55611  0.74886  1.0000
  H   H563      1.0  0.31763  0.61790  0.77517  1.0000
  H   H564      1.0  0.26695  0.61373  0.79557  1.0000
  H   H565      1.0  0.15191  0.57664  0.78103  1.0000
  H   H566      1.0  0.44877  0.53388  0.76846  1.0000
  C   C688      1.0  0.40829  0.71175  0.97542  1.0000
  C   C689      1.0  0.43764  0.48867  0.92470  1.0000
  C   C690      1.0  0.30374  0.53260  0.83786  1.0000
  C   C691      1.0  0.30275  0.60609  0.68722  1.0000
  C   C692      1.0  0.44439  0.92657  0.86507  1.0000
  C   C693      1.0  0.32795  0.54647  0.83020  1.0000
  C   C694      1.0  0.26896  0.62396  0.93625  1.0000
  C   C695      1.0  0.29316  0.61350  0.92447  1.0000
  C   C696      1.0  0.28513  0.61103  0.90599  1.0000
  C   C697      1.0  0.25310  0.61923  0.89888  1.0000
  C   C698      1.0  0.22876  0.62990  0.91059  1.0000
  C   C699      1.0  0.23666  0.63216  0.92926  1.0000
  H   H567      1.0  0.31793  0.60703  0.92971  1.0000
  H   H568      1.0  0.30377  0.60242  0.89717  1.0000
  H   H569      1.0  0.20393  0.63629  0.90533  1.0000
  H   H570      1.0  0.21774  0.64027  0.93831  1.0000
  C   C700      1.0  0.05443  0.91590  0.72697  1.0000
  H   H571      1.0  0.24644  0.68950  0.82358  1.0000
  H   H572      1.0  0.22051  0.95571  0.76514  1.0000
  C   C701      1.0  0.46563  0.56603  0.93218  1.0000
  C   C702      1.0  0.47091  0.54838  0.91971  1.0000
  H   H573      1.0  0.07922  0.71950  0.89154  1.0000
  H   H574      1.0  0.28392  0.59722  0.83704  1.0000
  H   H575      1.0  0.41578  0.95969  0.84438  1.0000
  H   H576      1.0  0.45112  0.53666  0.91788  1.0000
  H   H577      1.0  0.28752  0.89928  0.67858  1.0000
  C   C703      1.0  0.12244  0.86989  0.67754  1.0000
  H   H578      1.0  0.26497  0.89674  0.79244  1.0000
  C   C704      1.0  0.31651  0.60065  0.67007  1.0000
  C   C705      1.0  0.05837  0.85476  0.71812  1.0000
  C   C706      1.0  0.05647  0.84553  0.73574  1.0000
  H   H579      1.0  0.46768  0.59011  0.73723  1.0000
  P   P20       1.0  0.09518  0.83534  0.74769  1.0000
  C   C707      1.0  0.10824  0.85696  0.76291  1.0000
  C   C708      1.0  0.08796  0.80995  0.76052  1.0000
  C   C709      1.0  0.11023  0.80298  0.77486  1.0000
  C   C710      1.0  0.22721  0.90047  0.73553  1.0000
  C   C711      1.0  0.05706  0.77603  0.76500  1.0000
  C   C712      1.0  0.06156  0.79612  0.75551  1.0000
  C   C713      1.0  0.14222  0.85614  0.76957  1.0000
  C   C714      1.0  0.15221  0.87229  0.78184  1.0000
  C   C715      1.0  0.12853  0.88950  0.78748  1.0000
  C   C716      1.0  0.09488  0.89069  0.78070  1.0000
  C   C717      1.0  0.08463  0.87450  0.76852  1.0000
  C   C718      1.0  0.12924  0.82809  0.73150  1.0000
  H   H580      1.0  0.48550  0.54606  0.79365  1.0000
  C   C719      1.0  0.09079  0.66518  0.78365  1.0000
  C   C720      1.0  0.48515  0.58289  0.68785  1.0000
  C   C721      1.0  0.37450  0.50326  0.97916  1.0000
  C   C722      1.0  0.15286  0.84390  0.72647  1.0000
  C   C723      1.0  0.07040  0.59083  0.73053  1.0000
  C   C724      1.0  0.36992  0.49524  0.79764  1.0000
  H   H581      1.0  0.02939  0.90962  0.81751  1.0000
  H   H582      1.0  0.08289  0.85522  0.71115  1.0000
  H   H583      1.0  0.06151  0.66327  0.84354  1.0000
  H   H584      1.0  0.13133  0.81288  0.77879  1.0000
  C   C725      1.0  0.32448  0.61214  0.70126  1.0000
  H   H585      1.0  0.04462  0.80064  0.74418  1.0000
  H   H586      1.0  0.16098  0.84283  0.76550  1.0000
  H   H587      1.0  0.17827  0.87121  0.78719  1.0000
  H   H588      1.0  0.13582  0.90146  0.79760  1.0000
  H   H589      1.0  0.07621  0.90357  0.78560  1.0000
  H   H590      1.0  0.05804  0.87560  0.76402  1.0000
  C   C726      1.0  0.30907  0.50842  0.77887  1.0000
  H   H591      1.0  0.19864  0.85017  0.71103  1.0000
  H   H592      1.0  0.13899  0.85481  0.67514  1.0000
  C   C727      1.0  0.25122  0.55512  0.97423  1.0000
  H   H593      1.0  0.15054  0.86071  0.73193  1.0000
  H   H594      1.0  0.20432  0.81190  0.69783  1.0000
  C   C728      1.0  0.13020  0.88447  0.69158  1.0000
  C   C729      1.0  0.15913  0.50765  0.70844  1.0000
  C   C730      1.0  0.43292  0.92320  0.89738  1.0000
  H   H595      1.0  0.24777  0.91358  0.71078  1.0000
  H   H596      1.0  0.25244  0.89482  0.74089  1.0000
  C   C731      1.0  0.43932  0.49844  0.86249  1.0000
  C   C732      1.0  0.40388  0.75689  0.98889  1.0000
  H   H597      1.0  0.45030  0.59868  0.78813  1.0000
  C   C733      1.0  0.23140  0.68295  0.87403  1.0000
  C   C734      1.0  0.21382  0.70081  0.88310  1.0000
  C   C735      1.0  0.22165  0.72295  0.87930  1.0000
  C   C736      1.0  0.24681  0.72729  0.86631  1.0000
  C   C737      1.0  0.46198  0.52143  0.77722  1.0000
  H   H598      1.0  0.25429  0.79731  0.95682  1.0000
  C   C738      1.0  0.09222  0.93626  0.74611  1.0000
  H   H599      1.0  0.32864  0.74515  0.86705  1.0000
  H   H600      1.0  0.22533  0.66575  0.87695  1.0000
  H   H601      1.0  0.19389  0.69749  0.89293  1.0000
  H   H602      1.0  0.20754  0.73685  0.88605  1.0000
  H   H603      1.0  0.25223  0.74457  0.86349  1.0000
  C   C739      1.0  0.41796  0.76238  0.92053  1.0000
  C   C740      1.0  0.41818  0.78544  0.91678  1.0000
  C   C741      1.0  0.38706  0.79869  0.91602  1.0000
  C   C742      1.0  0.35577  0.78893  0.91911  1.0000
  C   C743      1.0  0.35527  0.76574  0.92274  1.0000
  C   C744      1.0  0.38663  0.75255  0.92357  1.0000
  P   P21       1.0  0.31492  0.75379  0.92832  1.0000
  C   C745      1.0  0.30547  0.75839  0.95218  1.0000
  C   C746      1.0  0.28063  0.76628  0.91402  1.0000
  C   C747      1.0  0.28805  0.77408  0.89641  1.0000
  C   C748      1.0  0.26161  0.78355  0.88526  1.0000
  C   C749      1.0  0.22748  0.78497  0.89145  1.0000
  C   C750      1.0  0.21977  0.77707  0.90885  1.0000
  C   C751      1.0  0.24620  0.76775  0.92012  1.0000
  C   C752      1.0  0.28242  0.74483  0.96122  1.0000
  C   C753      1.0  0.27729  0.74674  0.98001  1.0000
  H   H604      1.0  0.26709  0.57422  0.72159  1.0000
  C   C754      1.0  0.31754  0.77603  0.98099  1.0000
  C   C755      1.0  0.32278  0.77418  0.96222  1.0000
  C   C756      1.0  0.31821  0.72363  0.92505  1.0000
  C   C757      1.0  0.33330  0.70949  0.93869  1.0000
  C   C758      1.0  0.33255  0.68614  0.93738  1.0000
  C   C759      1.0  0.31743  0.67663  0.92228  1.0000
  C   C760      1.0  0.30354  0.69051  0.90830  1.0000
  C   C761      1.0  0.30377  0.71396  0.90967  1.0000
  H   H605      1.0  0.44216  0.75224  0.92163  1.0000
  H   H606      1.0  0.44248  0.79317  0.91490  1.0000
  H   H607      1.0  0.38714  0.81669  0.91362  1.0000
  H   H608      1.0  0.33202  0.79963  0.91912  1.0000
  H   H609      1.0  0.38711  0.73481  0.92692  1.0000
  H   H610      1.0  0.31429  0.77312  0.89133  1.0000
  H   H611      1.0  0.26749  0.79007  0.87185  1.0000
  H   H612      1.0  0.20703  0.79246  0.88283  1.0000
  H   H613      1.0  0.19324  0.77836  0.91359  1.0000
  H   H614      1.0  0.23964  0.76181  0.93354  1.0000
  H   H615      1.0  0.26919  0.73226  0.95386  1.0000
  C   C762      1.0  0.32653  0.98071  0.72810  1.0000
  H   H616      1.0  0.45756  0.49117  0.87243  1.0000
  C   C763      1.0  0.32746  0.48819  0.77455  1.0000
  H   H617      1.0  0.34085  0.78488  0.95581  1.0000
  H   H618      1.0  0.34503  0.71645  0.95062  1.0000
  H   H619      1.0  0.34351  0.67547  0.94824  1.0000
  H   H620      1.0  0.31661  0.65849  0.92146  1.0000
  H   H621      1.0  0.29195  0.68304  0.89661  1.0000
  H   H622      1.0  0.29208  0.72441  0.89893  1.0000
  C   C764      1.0  0.18075  0.56679  0.72298  1.0000
  C   C765      1.0  0.21335  0.57257  0.72876  1.0000
  C   C766      1.0  0.24170  0.57009  0.71702  1.0000
  C   C767      1.0  0.09761  0.58296  0.71923  1.0000
  C   C768      1.0  0.37483  0.72789  0.87765  1.0000
  H   H623      1.0  0.02574  0.97478  0.68090  1.0000
  H   H624      1.0  0.08778  0.58853  0.68312  1.0000
  H   H625      1.0  0.05518  0.64010  0.79042  1.0000
  H   H626      1.0  0.44354  0.50381  0.95074  1.0000
  H   H627      1.0  0.15971  0.56793  0.73264  1.0000
  H   H628      1.0  0.43710  0.95327  0.95208  1.0000
  C   C769      1.0  0.27635  0.95395  0.76780  1.0000
  H   H629      1.0  0.27847  0.82126  0.97996  1.0000
  C   C770      1.0  0.39648  0.70815  0.87743  1.0000
  C   C771      1.0  0.46537  0.51241  0.98533  1.0000
  C   C772      1.0  0.33139  0.55666  0.88742  1.0000
  C   C773      1.0  0.33187  0.55398  0.90635  1.0000
  C   C774      1.0  0.35361  0.56643  0.91686  1.0000
  C   C775      1.0  0.37447  0.58181  0.90852  1.0000
  C   C776      1.0  0.37402  0.58469  0.88956  1.0000
  C   C777      1.0  0.35272  0.57173  0.87902  1.0000
  P   P22       1.0  0.40122  0.60430  0.87868  1.0000
  C   C778      1.0  0.37715  0.61714  0.85975  1.0000
  C   C779      1.0  0.41251  0.62526  0.89497  1.0000
  C   C780      1.0  0.44160  0.62094  0.90618  1.0000
  C   C781      1.0  0.45093  0.63693  0.91878  1.0000
  C   C782      1.0  0.43134  0.65737  0.92031  1.0000
  C   C783      1.0  0.40218  0.66174  0.90936  1.0000
  C   C784      1.0  0.39250  0.64568  0.89687  1.0000
  C   C785      1.0  0.34224  0.62444  0.86205  1.0000
  C   C786      1.0  0.32233  0.63223  0.84718  1.0000
  C   C787      1.0  0.33697  0.63273  0.82982  1.0000
  C   C788      1.0  0.37183  0.62587  0.82739  1.0000
  C   C789      1.0  0.39192  0.61815  0.84230  1.0000
  C   C790      1.0  0.44080  0.58972  0.87086  1.0000
  C   C791      1.0  0.44416  0.56610  0.86998  1.0000
  C   C792      1.0  0.22165  0.57660  0.94323  1.0000
  H   H630      1.0  0.36173  0.97919  0.70539  1.0000
  C   C793      1.0  0.04679  0.66963  0.80698  1.0000
  C   C794      1.0  0.46901  0.60213  0.86593  1.0000
  C   C795      1.0  0.08129  0.90966  0.68283  1.0000
  H   H631      1.0  0.31520  0.54248  0.91291  1.0000
  H   H632      1.0  0.35408  0.56452  0.93156  1.0000
  H   H633      1.0  0.39063  0.59156  0.91695  1.0000
  H   H634      1.0  0.35218  0.57356  0.86436  1.0000
  H   H635      1.0  0.45693  0.60507  0.90539  1.0000
  H   H636      1.0  0.25779  0.49497  0.98441  1.0000
  H   H637      1.0  0.43833  0.66961  0.93030  1.0000
  H   H638      1.0  0.38686  0.67751  0.91084  1.0000
  H   H639      1.0  0.36942  0.64930  0.88887  1.0000
  H   H640      1.0  0.32999  0.62352  0.87526  1.0000
  H   H641      1.0  0.29508  0.63691  0.84905  1.0000
  H   H642      1.0  0.32104  0.63794  0.81824  1.0000
  H   H643      1.0  0.38305  0.62596  0.81387  1.0000
  H   H644      1.0  0.41860  0.61246  0.84002  1.0000
  H   H645      1.0  0.42327  0.55603  0.87409  1.0000
  H   H646      1.0  0.24745  0.66626  0.79607  1.0000
  C   C796      1.0  0.36378  0.52309  0.96987  1.0000
  C   C797      1.0  0.40791  0.95212  0.79222  1.0000
  H   H647      1.0  0.46726  0.62031  0.86690  1.0000
  H   H648      1.0  0.26218  0.85972  0.96900  1.0000
  C   C798      1.0  0.22454  0.91108  0.71855  1.0000
  H   H649      1.0  0.46039  0.58574  0.82004  1.0000
  C   C799      1.0  0.17591  0.55917  0.70515  1.0000
  H   H650      1.0  0.31396  0.61591  0.71467  1.0000
  H   H651      1.0  0.07301  0.52958  0.71264  1.0000
  H   H652      1.0  0.40163  0.60697  0.67923  1.0000
  H   H653      1.0  0.19974  0.88807  0.75838  1.0000
  C   C800      1.0  0.13748  0.97417  0.67579  1.0000
  C   C801      1.0  0.46060  0.55233  0.99172  1.0000
  H   H654      1.0  0.39121  0.55238  0.66327  1.0000
  C   C802      1.0  0.40746  0.57811  0.78400  1.0000
  C   C803      1.0  0.32065  0.56990  0.82980  1.0000
  C   C804      1.0  0.29002  0.57925  0.83752  1.0000
  C   C805      1.0  0.26662  0.56540  0.84563  1.0000
  H   H655      1.0  0.36650  0.55570  0.78342  1.0000
  H   H656      1.0  0.17591  0.51575  0.71775  1.0000
  C   C806      1.0  0.00894  0.96264  0.68644  1.0000
  H   H657      1.0  0.46361  0.85948  0.92201  1.0000
  H   H658      1.0  0.07525  0.53469  0.76098  1.0000
  C   C807      1.0  0.02857  0.91810  0.74024  1.0000
  C   C808      1.0  0.24092  0.55604  0.94153  1.0000
  H   H659      1.0  0.25459  0.53136  0.85151  1.0000
  S   S119      1.0  0.08738  0.88027  0.82853  1.0000
  C   C809      1.0  0.02501  0.53263  0.81934  1.0000
  C   C810      1.0  0.25534  0.54519  0.95699  1.0000
  C   C811      1.0  0.48933  0.55527  0.98066  1.0000
  S   S120      1.0  0.31763  0.93774  0.69695  1.0000
  C   C812      1.0  0.04556  0.55472  0.72872  1.0000
  H   H660      1.0  0.21676  0.57865  0.74248  1.0000
  C   C813      1.0  0.26422  0.50656  0.67950  1.0000
  C   C814      1.0  0.26011  0.75022  0.82503  1.0000
  H   H661      1.0  0.14864  0.55886  0.81149  1.0000
  H   H662      1.0  0.22998  0.77676  0.81091  1.0000
  C   C815      1.0  0.04457  0.78402  0.82064  1.0000
  H   H663      1.0  0.01385  0.93155  0.76641  1.0000
  C   C816      1.0  0.35887  0.69210  0.85539  1.0000
  C   C817      1.0  0.38653  0.56229  0.79170  1.0000
  C   C818      1.0  0.24280  0.91353  0.66362  1.0000
  S   S121      1.0  0.43082  0.61715  0.98376  1.0000
  H   H664      1.0  0.27975  0.79972  0.80530  1.0000
  C   C819      1.0  0.25540  0.77083  0.81577  1.0000
  H   H665      1.0  0.23823  0.74013  0.82712  1.0000
  C   C820      1.0  0.26806  0.91273  0.78566  1.0000
  S   S122      1.0  0.46157  0.95382  0.74720  1.0000
  C   C821      1.0  0.45780  0.49854  0.77449  1.0000
  H   H666      1.0  0.42323  0.55852  0.83389  1.0000
  C   C822      1.0  0.43384  0.58673  0.79423  1.0000
  C   C823      1.0  0.27330  0.54207  0.84566  1.0000
  H   H667      1.0  0.28886  0.58875  0.99349  1.0000
  C   C824      1.0  0.41312  0.91702  0.86103  1.0000
  H   H668      1.0  0.38001  0.52973  0.95930  1.0000
  H   H669      1.0  0.35503  0.67704  0.78828  1.0000
  C   C825      1.0  0.48151  0.96029  0.76824  1.0000
  C   C826      1.0  0.32109  0.52211  0.79252  1.0000
  H   H670      1.0  0.47314  0.63334  0.92754  1.0000
  H   H671      1.0  0.33084  0.94712  0.77378  1.0000
  H   H672      1.0  0.30669  0.53792  0.79542  1.0000
  H   H673      1.0  0.10419  0.65497  0.77337  1.0000
  H   H674      1.0  0.09662  0.51879  0.67630  1.0000
  P   P23       1.0  0.27090  0.54135  0.99405  1.0000
  H   H675      1.0  0.20185  0.60228  0.96164  1.0000
  H   H676      1.0  0.25971  0.55904  0.69065  1.0000
  C   C827      1.0  0.04854  0.60115  0.82260  1.0000
  C   C828      1.0  0.28354  0.78379  0.81257  1.0000
  H   H677      1.0  0.46178  0.58726  0.69544  1.0000
  C   C829      1.0  0.17997  0.83802  0.71449  1.0000
  H   H678      1.0  0.05288  0.73203  0.86245  1.0000
  C   C830      1.0  0.19738  0.89687  0.74545  1.0000
  C   C831      1.0  0.05023  0.87524  0.81542  1.0000
  C   C832      1.0  0.21457  0.97528  0.71516  1.0000
  C   C833      1.0  0.49479  0.51506  0.97448  1.0000
  C   C834      1.0  0.09934  0.56071  0.71281  1.0000
  H   H679      1.0  0.28343  0.89218  0.95325  1.0000
  C   C835      1.0  0.03432  0.92953  0.75634  1.0000
  H   H680      1.0  0.02618  0.66246  0.81461  1.0000
  C   C836      1.0  0.06329  0.65678  0.79328  1.0000
  C   C837      1.0  0.04746  0.49684  0.77114  1.0000
  H   H681      1.0  0.00354  0.91155  0.73782  1.0000
  C   C838      1.0  0.08536  0.69935  0.80145  1.0000
  C   C839      1.0  0.23746  0.56177  0.69951  1.0000
  C   C840      1.0  0.10586  0.78278  0.78420  1.0000
  C   C841      1.0  0.26096  0.95477  0.67691  1.0000
  H   H682      1.0  0.03645  0.76558  0.76120  1.0000
  H   H683      1.0  0.19106  0.92558  0.69802  1.0000
  C   C842      1.0  0.39202  0.55495  0.80976  1.0000
  C   C843      1.0  0.19209  0.91820  0.71149  1.0000
  H   H684      1.0  0.35954  0.52525  0.85958  1.0000
  H   H685      1.0  0.30163  0.65988  0.77825  1.0000
  C   C844      1.0  0.15933  0.80075  0.71166  1.0000
  C   C845      1.0  0.48989  0.56170  0.67981  1.0000
  C   C846      1.0  0.17980  0.81432  0.97872  1.0000
  C   C847      1.0  0.25088  0.81926  0.97991  1.0000
  P   P24       1.0  0.03625  0.70747  0.82904  1.0000
  H   H686      1.0  0.09568  0.67894  0.89707  1.0000
  C   C848      1.0  0.12560  0.56192  0.67494  1.0000
  H   H687      1.0  0.42551  0.84957  0.79472  1.0000
  S   S123      1.0  0.41344  0.68373  0.96636  1.0000
  C   C849      1.0  0.13656  0.52044  0.69683  1.0000
  H   H688      1.0  0.46181  0.93109  0.85428  1.0000
  H   H689      1.0  0.40611  0.95006  0.77759  1.0000
  C   C850      1.0  0.27806  0.89317  0.96773  1.0000
  H   H690      1.0  0.04860  0.90770  0.71443  1.0000
  C   C851      1.0  0.46752  0.85186  0.81378  1.0000
  C   C852      1.0  0.36002  0.61262  0.69821  1.0000
  H   H691      1.0  0.48658  0.81242  0.72517  1.0000
  H   H692      1.0  0.06400  0.84024  0.81050  1.0000
  C   C853      1.0  0.49273  0.78923  0.70290  1.0000
  C   C854      1.0  0.07292  0.54667  0.71758  1.0000
  C   C855      1.0  0.23064  0.57533  0.97589  1.0000
  P   P25       1.0  0.36650  0.53370  0.81973  1.0000
  C   C856      1.0  0.43934  0.57960  0.81221  1.0000
  C   C857      1.0  0.35160  0.51561  0.80210  1.0000
  C   C858      1.0  0.31651  0.77604  0.81846  1.0000
  C   C859      1.0  0.16182  0.91532  0.72161  1.0000
  C   C860      1.0  0.11950  0.95109  0.70110  1.0000
  C   C861      1.0  0.21625  0.58611  0.96040  1.0000
  C   C862      1.0  0.34534  0.72982  0.86666  1.0000
  H   H693      1.0  0.09524  0.71537  0.80474  1.0000
  H   H694      1.0  0.04768  0.54210  0.82065  1.0000
  C   C863      1.0  0.41832  0.56395  0.82001  1.0000
  C   C864      1.0  0.30071  0.69581  0.82233  1.0000
  C   C865      1.0  0.16482  0.90433  0.73863  1.0000
  C   C866      1.0  0.30154  0.66977  0.79058  1.0000
  C   C867      1.0  0.24026  0.97081  0.72829  1.0000
  C   C868      1.0  0.04494  0.85406  0.80820  1.0000
  C   C869      1.0  0.44859  0.53091  0.99403  1.0000
  C   C870      1.0  0.26449  0.70944  0.85708  1.0000
  C   C871      1.0  0.30097  0.92067  0.78370  1.0000
  C   C872      1.0  0.45646  0.49396  0.94015  1.0000
  H   H695      1.0  0.22621  0.58309  0.98903  1.0000
  C   C873      1.0  0.05744  0.69116  0.81106  1.0000
  C   C874      1.0  0.10181  0.68643  0.78775  1.0000
  H   H696      1.0  0.42444  0.76590  0.96284  1.0000
  C   C875      1.0  0.25688  0.68723  0.86121  1.0000
  H   H697      1.0  0.41057  0.49427  0.92365  1.0000
  C   C876      1.0  0.41591  0.75231  0.97122  1.0000
  C   C877      1.0  0.09975  0.96987  0.70792  1.0000
  C   C878      1.0  0.02547  0.89317  0.81203  1.0000
  H   H698      1.0  0.42946  0.72654  0.95139  1.0000
  C   C879      1.0  0.06611  0.93867  0.75927  1.0000
  C   C880      1.0  0.00918  0.58220  0.79469  1.0000
  H   H699      1.0  0.07584  0.75377  0.78664  1.0000
  C   C881      1.0  0.49152  0.48658  0.94174  1.0000
  H   H700      1.0  0.48762  0.59472  0.94407  1.0000
  C   C882      1.0  0.40688  0.50773  0.86790  1.0000
  C   C883      1.0  0.05651  0.69877  0.85037  1.0000
  P   P26       1.0  0.29899  0.71476  0.84141  1.0000
  C   C884      1.0  0.41859  0.72991  0.96471  1.0000
  C   C885      1.0  0.07925  0.76934  0.77931  1.0000
  H   H701      1.0  0.12321  0.77756  0.79524  1.0000
  C   C886      1.0  0.02436  0.84594  0.74463  1.0000
  H   H702      1.0  0.31410  0.54733  0.87928  1.0000
  H   H703      1.0  0.39803  0.91787  0.79787  1.0000
  C   C887      1.0  0.45398  0.92986  0.88315  1.0000
  C   C888      1.0  0.45974  0.88149  0.83617  1.0000
  C   C889      1.0  0.08665  0.92478  0.72983  1.0000
  C   C890      1.0  0.49132  0.58118  0.93438  1.0000
  C   C891      1.0  0.48284  0.52830  0.79157  1.0000
  P   P27       1.0  0.11950  0.92379  0.71219  1.0000
  H   H704      1.0  0.37858  0.94936  0.97530  1.0000
  C   C892      1.0  0.48972  0.98262  0.77058  1.0000
  P   P28       1.0  0.13404  0.55083  0.69770  1.0000
  C   C893      1.0  0.29296  0.74249  0.83130  1.0000
  H   H705      1.0  0.44113  0.92497  0.91138  1.0000
  C   C894      1.0  0.26617  0.87451  0.97688  1.0000
  H   H706      1.0  0.39974  0.50758  0.88217  1.0000
  C   C895      1.0  0.99637  0.53844  0.83036  1.0000
  C   C896      1.0  0.18321  0.81645  0.70707  1.0000
  H   H707      1.0  0.03002  0.87146  0.69602  1.0000
  H   H708      1.0  0.21122  0.58531  0.93120  1.0000
  C   C897      1.0  0.48574  0.88792  0.93422  1.0000
  C   C898      1.0  0.02369  0.51526  0.80658  1.0000
  H   H709      1.0  0.12401  0.69258  0.78078  1.0000
  H   H710      1.0  0.14210  0.90093  0.74649  1.0000
  H   H711      1.0  0.38988  0.88082  0.80808  1.0000
  C   C899      1.0  0.46164  0.96068  0.95018  1.0000
  C   C900      1.0  0.09395  0.87509  0.66626  1.0000
  H   H712      1.0  0.29387  0.92698  0.97027  1.0000
  H   H713      1.0  0.47442  0.49245  0.84007  1.0000
  C   C901      1.0  0.34628  0.88440  0.84092  1.0000
  H   H714      1.0  0.27055  0.67321  0.85452  1.0000
  C   C902      1.0  0.99659  0.86423  0.71843  1.0000
  H   H715      1.0  0.33162  0.78790  0.98866  1.0000
  C   C903      1.0  0.07917  0.66876  0.87060  1.0000
  P   P29       1.0  0.28098  0.98149  0.75789  1.0000
  S   S124      1.0  0.42701  0.85161  0.99523  1.0000
  C   C904      1.0  0.13266  0.55330  0.80051  1.0000
  H   H716      1.0  0.28582  0.51374  0.77138  1.0000
  H   H717      1.0  0.25949  0.89272  0.83435  1.0000
  H   H718      1.0  0.30368  0.86307  0.84374  1.0000
  H   H719      1.0  0.09288  0.73710  0.83405  1.0000
  C   C905      1.0  0.33237  0.53464  0.97438  1.0000
  C   C906      1.0  0.41496  0.87620  0.81396  1.0000
  H   H720      1.0  0.36530  0.87122  0.84516  1.0000
  H   H721      1.0  0.11534  0.56426  0.75588  1.0000
  C   C907      1.0  0.29617  0.91805  0.83053  1.0000
  C   C908      1.0  0.01848  0.50763  0.76256  1.0000
  C   C909      1.0  0.13466  0.56330  0.78330  1.0000
  H   H722      1.0  0.20250  0.54943  0.68011  1.0000
  H   H723      1.0  0.41936  0.70667  0.88596  1.0000
  C   C910      1.0  0.33754  0.71213  0.85518  1.0000
  H   H724      1.0  0.27663  0.93105  0.82662  1.0000
  C   C911      1.0  0.28648  0.89645  0.83481  1.0000
  C   C912      1.0  0.31149  0.87968  0.84009  1.0000
  C   C913      1.0  0.26809  0.52117  0.66470  1.0000
  C   C914      1.0  0.11649  0.48583  0.68461  1.0000
  C   C915      1.0  0.46766  0.97316  0.93441  1.0000
  C   C916      1.0  0.22906  0.83117  0.99228  1.0000
  H   H725      1.0  0.35264  0.67788  0.84722  1.0000
  H   H726      1.0  0.44769  0.97561  0.92414  1.0000
  H   H727      1.0  0.47007  0.89010  0.84764  1.0000
  H   H728      1.0  0.36785  0.90295  0.87294  1.0000
  H   H729      1.0  0.01591  0.51445  0.67926  1.0000
  H   H730      1.0  0.04628  0.80207  0.81923  1.0000
  C   C917      1.0  0.35629  0.90602  0.83649  1.0000
  C   C918      1.0  0.40748  0.93596  0.82276  1.0000
  C   C919      1.0  0.99966  0.94470  0.67566  1.0000
  H   H731      1.0  0.33788  0.93975  0.82811  1.0000
  C   C920      1.0  0.33094  0.92288  0.83139  1.0000
  H   H732      1.0  0.25551  0.95485  0.72799  1.0000
  C   C921      1.0  0.20171  0.80300  0.96619  1.0000
  H   H733      1.0  0.09648  0.77821  0.83078  1.0000
  C   C922      1.0  0.47965  0.87344  0.91983  1.0000
  P   P30       1.0  0.40129  0.91209  0.83758  1.0000
  C   C923      1.0  0.42705  0.88804  0.82886  1.0000
  C   C924      1.0  0.27107  0.67325  0.80064  1.0000
  C   C925      1.0  0.11412  0.55631  0.76911  1.0000
  C   C926      1.0  0.23937  0.50056  0.99480  1.0000
  C   C927      1.0  0.39352  0.51850  0.83649  1.0000
  C   C928      1.0  0.47508  0.55518  0.86394  1.0000
  H   H734      1.0  0.33834  0.78601  0.81568  1.0000
  H   H735      1.0  0.30837  0.51444  0.83767  1.0000
  H   H736      1.0  0.21017  0.96295  0.70482  1.0000
  H   H737      1.0  0.39846  0.49408  0.97543  1.0000
  P   P31       1.0  0.06123  0.50646  0.79307  1.0000
  H   H738      1.0  0.40526  0.67495  0.86619  1.0000
  C   C929      1.0  0.01463  0.85074  0.79822  1.0000
  H   H739      1.0  0.43482  0.51072  0.81736  1.0000
  C   C930      1.0  0.32135  0.75531  0.82759  1.0000
  C   C931      1.0  0.27061  0.68632  0.81638  1.0000
  H   H740      1.0  0.02234  0.83972  0.75848  1.0000
  H   H741      1.0  0.11440  0.79405  0.72733  1.0000
  C   C932      1.0  0.39735  0.94963  0.98619  1.0000
  C   C933      1.0  0.11484  0.50934  0.68511  1.0000
  C   C934      1.0  0.38850  0.69027  0.86630  1.0000
  C   C935      1.0  0.28381  0.91274  0.97729  1.0000
  C   C936      1.0  0.07071  0.74728  0.82902  1.0000
  H   H742      1.0  0.21365  0.91944  0.78079  1.0000
  C   C937      1.0  0.24325  0.94598  0.77007  1.0000
  C   C938      1.0  0.33160  0.67940  0.79628  1.0000
  C   C939      1.0  0.10944  0.90437  0.69446  1.0000
  H   H743      1.0  0.39372  0.48976  0.80440  1.0000
  H   H744      1.0  0.06565  0.92530  0.68437  1.0000
  C   C940      1.0  0.11001  0.53633  0.80356  1.0000
  H   H745      1.0  0.47849  0.93678  0.88612  1.0000
  H   H746      1.0  0.09045  0.59868  0.80341  1.0000
  C   C941      1.0  0.04444  0.57670  0.73530  1.0000
  H   H747      1.0  0.08413  0.96862  0.72003  1.0000
  C   C942      1.0  0.08458  0.68448  0.88413  1.0000
  H   H748      1.0  0.38586  0.90807  0.90460  1.0000
  H   H749      1.0  0.34727  0.74925  0.83146  1.0000
  C   C943      1.0  0.13243  0.80651  0.72383  1.0000
  C   C944      1.0  0.31150  0.52645  0.98826  1.0000
  C   C945      1.0  0.99941  0.50203  0.68463  1.0000
  C   C946      1.0  0.39190  0.91059  0.87546  1.0000
  C   C947      1.0  0.28154  0.93521  0.68183  1.0000
  H   H750      1.0  0.47797  0.53699  0.86333  1.0000
  C   C948      1.0  0.03985  0.73732  0.82493  1.0000
  C   C949      1.0  0.01404  0.77422  0.81606  1.0000
  C   C950      1.0  0.04394  0.58661  0.79189  1.0000
  H   H751      1.0  0.26020  0.73582  0.98696  1.0000
  C   C951      1.0  0.06538  0.67585  0.85377  1.0000
  C   C952      1.0  0.10163  0.58039  0.67196  1.0000
  C   C953      1.0  0.06359  0.59580  0.80576  1.0000
  C   C954      1.0  0.23919  0.92547  0.77899  1.0000
  C   C955      1.0  0.09124  0.53949  0.77213  1.0000
  C   C956      1.0  0.07534  0.70729  0.88100  1.0000
  H   H752      1.0  0.37687  0.61655  0.70935  1.0000
  H   H753      1.0  0.05581  0.58274  0.77890  1.0000
  H   H754      1.0  0.35425  0.70058  0.81589  1.0000
  H   H755      1.0  0.38095  0.74174  0.88628  1.0000
  C   C957      1.0  0.07289  0.77055  0.82710  1.0000
  H   H756      1.0  0.32454  0.55003  0.96710  1.0000
  H   H757      1.0  0.27529  0.60536  0.68971  1.0000
  H   H758      1.0  0.27002  0.52921  0.95542  1.0000
  C   C958      1.0  0.35454  0.49545  0.99344  1.0000
  H   H759      1.0  0.46817  0.79485  0.69676  1.0000
  H   H760      1.0  0.15281  0.88042  0.69982  1.0000
  C   C959      1.0  0.33114  0.69255  0.81201  1.0000
  H   H761      1.0  0.24493  0.54870  0.92819  1.0000
  C   C960      1.0  0.23723  0.80552  0.96679  1.0000
  C   C961      1.0  0.41414  0.95709  0.82988  1.0000
  H   H762      1.0  0.19117  0.79252  0.95587  1.0000
  H   H763      1.0  0.30480  0.97799  0.71942  1.0000
  C   C962      1.0  0.29509  0.76220  0.98991  1.0000
  C   C963      1.0  0.47969  0.86336  0.82873  1.0000
  C   C964      1.0  0.41593  0.97280  0.79939  1.0000
  C   C965      1.0  0.23546  0.49326  0.67965  1.0000
  S   S125      1.0  0.29501  0.50345  0.69771  1.0000
  C   C966      1.0  0.40368  0.96987  0.99471  1.0000
  H   H764      1.0  0.10890  0.52868  0.81697  1.0000
  C   C967      1.0  0.00807  0.50061  0.74544  1.0000
  H   H765      1.0  0.02509  0.54396  0.73231  1.0000
  H   H766      1.0  0.48624  0.61348  0.76277  1.0000
  C   C968      1.0  0.19334  0.82843  0.99168  1.0000
  H   H767      1.0  0.15221  0.81248  0.97817  1.0000
  H   H768      1.0  0.48312  0.83796  0.80792  1.0000
  C   C969      1.0  0.23168  0.95377  0.66545  1.0000
  H   H769      1.0  0.40961  0.91376  0.98561  1.0000
  C   C970      1.0  0.01158  0.75099  0.81825  1.0000
  H   H770      1.0  0.28961  0.53181  0.66447  1.0000
  H   H771      1.0  0.49062  0.86533  0.89169  1.0000
  H   H772      1.0  0.00134  0.60166  0.83821  1.0000
  C   C971      1.0  0.35211  0.60155  0.66677  1.0000
  H   H773      1.0  0.13455  0.49079  0.79217  1.0000
  H   H774      1.0  0.99742  0.55211  0.83995  1.0000
  S   S126      1.0  0.34879  0.83807  0.98941  1.0000
  C   C972      1.0  0.21136  0.49414  0.66513  1.0000
  H   H775      1.0  0.00120  0.97985  0.71213  1.0000
  C   C973      1.0  0.39514  0.71643  0.99286  1.0000
  C   C974      1.0  0.49512  0.87674  0.90269  1.0000
  S   S127      1.0  0.35337  0.64036  0.99279  1.0000
  C   C975      1.0  0.41468  0.92953  0.99200  1.0000
  H   H776      1.0  0.48273  0.94667  0.97505  1.0000
  C   C976      1.0  0.41898  0.97529  0.81819  1.0000
  C   C977      1.0  0.48775  0.95692  0.96320  1.0000
  C   C978      1.0  0.49128  0.58529  0.74460  1.0000
  C   C979      1.0  0.35901  0.98164  0.71995  1.0000
  H   H777      1.0  0.25202  0.98146  0.79514  1.0000
  C   C980      1.0  0.32282  0.98275  0.74707  1.0000
  Fe  Fe65      1.0  0.78772  0.33818  0.12502  1.0000
  S   S128      1.0  0.74238  0.33464  0.14341  1.0000
  S   S129      1.0  0.78063  0.34241  0.09428  1.0000
  Fe  Fe66      1.0  0.83964  0.33374  0.15721  1.0000
  S   S130      1.0  0.79728  0.32921  0.17766  1.0000
  S   S131      1.0  0.89518  0.33226  0.16775  1.0000
  Fe  Fe67      1.0  0.77520  0.30677  0.15681  1.0000
  S   S132      1.0  0.74828  0.27485  0.16201  1.0000
  Fe  Fe68      1.0  0.76873  0.35727  0.16227  1.0000
  S   S133      1.0  0.74273  0.38764  0.17574  1.0000
  S   S134      1.0  0.81958  0.30879  0.13738  1.0000
  S   S135      1.0  0.81219  0.36315  0.14303  1.0000
  Fe  Fe69      1.0  0.53321  0.35590  0.01533  1.0000
  S   S136      1.0  0.57554  0.37921  0.01805  1.0000
  H   H778      1.0  0.78657  0.05855  0.20960  1.0000
  H   H779      1.0  0.64445  0.39175  0.16906  1.0000
  H   H780      1.0  0.88377  0.38059  0.15964  1.0000
  Fe  Fe70      1.0  0.60657  0.34995  0.03070  1.0000
  S   S137      1.0  0.62978  0.35334  0.05912  1.0000
  S   S138      1.0  0.56230  0.32730  0.02990  1.0000
  Fe  Fe71      1.0  0.60229  0.39806  0.24863  1.0000
  S   S139      1.0  0.61408  0.43389  0.24324  1.0000
  S   S140      1.0  0.62311  0.36870  0.23153  1.0000
  Fe  Fe72      1.0  0.55528  0.41065  0.28062  1.0000
  S   S141      1.0  0.56513  0.44736  0.27759  1.0000
  H   H781      1.0  0.77106  0.35625  0.24575  1.0000
  Fe  Fe73      1.0  0.55707  0.44166  0.24751  1.0000
  C   C981      1.0  0.62170  0.41438  0.14840  1.0000
  Fe  Fe74      1.0  0.62160  0.43589  0.27371  1.0000
  S   S142      1.0  0.66822  0.45492  0.28381  1.0000
  S   S143      1.0  0.54475  0.40562  0.25095  1.0000
  S   S144      1.0  0.61209  0.39944  0.27877  1.0000
  Fe  Fe75      1.0  0.54484  0.07277  0.27534  1.0000
  H   H782      1.0  0.75441  0.05763  0.28094  1.0000
  Fe  Fe76      1.0  0.58707  0.08319  0.24190  1.0000
  S   S145      1.0  0.59940  0.10901  0.22061  1.0000
  S   S146      1.0  0.53186  0.07466  0.24552  1.0000
  S   S147      1.0  0.59872  0.08476  0.27185  1.0000
  Fe  Fe77      1.0  0.55805  0.09444  0.02396  1.0000
  S   S148      1.0  0.60523  0.07926  0.00956  1.0000
  H   H783      1.0  0.60501  0.43371  0.12438  1.0000
  Fe  Fe78      1.0  0.56891  0.14211  0.00813  1.0000
  H   H784      1.0  0.76129  0.27933  0.04051  1.0000
  Fe  Fe79      1.0  0.63050  0.11024  0.01854  1.0000
  S   S149      1.0  0.68481  0.10665  0.03043  1.0000
  H   H785      1.0  0.50823  0.08293  0.09788  1.0000
  S   S150      1.0  0.58474  0.12420  0.03444  1.0000
  Fe  Fe80      1.0  0.76512  0.12582  0.12967  1.0000
  S   S151      1.0  0.75780  0.14631  0.15528  1.0000
  S   S152      1.0  0.71783  0.13439  0.11189  1.0000
  Fe  Fe81      1.0  0.83415  0.10319  0.14361  1.0000
  S   S153      1.0  0.83000  0.12206  0.16975  1.0000
  S   S154      1.0  0.88151  0.07873  0.13949  1.0000
  Fe  Fe82      1.0  0.77449  0.11432  0.16983  1.0000
  S   S155      1.0  0.75628  0.10167  0.19690  1.0000
  Fe  Fe83      1.0  0.81394  0.15203  0.15252  1.0000
  S   S156      1.0  0.84104  0.18356  0.15817  1.0000
  S   S157      1.0  0.77888  0.09317  0.14473  1.0000
  S   S158      1.0  0.82088  0.13389  0.12600  1.0000
  C   C982      1.0  0.91480  0.09366  0.16987  1.0000
  C   C983      1.0  0.91386  0.07704  0.15661  1.0000
  H   H786      1.0  0.89698  0.10823  0.16925  1.0000
  C   C984      1.0  0.56889  0.40330  0.17396  1.0000
  C   C985      1.0  0.69367  0.11422  0.05317  1.0000
  C   C986      1.0  0.66914  0.12653  0.06371  1.0000
  C   C987      1.0  0.67710  0.13251  0.08164  1.0000
  C   C988      1.0  0.70961  0.12628  0.08925  1.0000
  C   C989      1.0  0.73435  0.11418  0.07868  1.0000
  C   C990      1.0  0.72642  0.10829  0.06067  1.0000
  H   H787      1.0  0.64409  0.13156  0.05804  1.0000
  H   H788      1.0  0.65787  0.14194  0.08969  1.0000
  H   H789      1.0  0.75952  0.10936  0.08436  1.0000
  H   H790      1.0  0.74565  0.09893  0.05256  1.0000
  C   C991      1.0  0.68282  0.26464  0.02609  1.0000
  H   H791      1.0  0.78436  0.09178  0.23198  1.0000
  H   H792      1.0  0.79244  0.18573  0.11528  1.0000
  C   C992      1.0  0.74080  0.24695  0.04524  1.0000
  H   H793      1.0  0.82861  0.06348  0.18489  1.0000
  C   C993      1.0  0.64219  0.10495  0.21270  1.0000
  C   C994      1.0  0.65243  0.11594  0.19681  1.0000
  C   C995      1.0  0.68727  0.11439  0.19131  1.0000
  C   C996      1.0  0.71181  0.10163  0.20166  1.0000
  C   C997      1.0  0.70111  0.08960  0.21691  1.0000
  C   C998      1.0  0.66652  0.09144  0.22256  1.0000
  H   H794      1.0  0.63349  0.12593  0.18895  1.0000
  H   H795      1.0  0.69523  0.12335  0.17931  1.0000
  H   H796      1.0  0.71958  0.07892  0.22451  1.0000
  H   H797      1.0  0.65892  0.08277  0.23476  1.0000
  C   C999      1.0  0.79715  0.42040  0.13902  1.0000
  C   C1000     1.0  0.67221  0.39416  0.12524  1.0000
  C   C1001     1.0  0.73372  0.11131  0.26685  1.0000
  C   C1002     1.0  0.60727  0.26923  0.04791  1.0000
  C   C1003     1.0  0.91000  0.38879  0.31155  1.0000
  C   C1004     1.0  0.57827  0.01803  0.01285  1.0000
  H   H798      1.0  0.50615  0.38074  0.08691  1.0000
  C   C1005     1.0  0.55688  0.04082  0.16421  1.0000
  H   H799      1.0  0.67464  0.05775  0.31342  1.0000
  H   H800      1.0  0.68113  0.39782  0.26110  1.0000
  C   C1006     1.0  0.72771  0.03199  0.24263  1.0000
  C   C1007     1.0  0.70368  0.44919  0.29936  1.0000
  C   C1008     1.0  0.98038  0.22417  0.15541  1.0000
  Fe  Fe84      1.0  0.58290  0.31661  0.00239  1.0000
  H   H801      1.0  0.68935  0.37465  0.14876  1.0000
  H   H802      1.0  0.98680  0.05692  0.24250  1.0000
  C   C1009     1.0  0.53939  0.22581  0.01013  1.0000
  C   C1010     1.0  0.61432  0.47552  0.01824  1.0000
  H   H803      1.0  0.49972  0.27789  0.29177  1.0000
  C   C1011     1.0  0.70781  0.39619  0.25665  1.0000
  C   C1012     1.0  0.87118  0.38571  0.27973  1.0000
  C   C1013     1.0  0.85487  0.38573  0.29674  1.0000
  H   H804      1.0  0.59904  0.30623  0.09802  1.0000
  C   C1014     1.0  0.96210  0.47078  0.29237  1.0000
  S   S159      1.0  0.52919  0.01148  0.22798  1.0000
  C   C1015     1.0  0.66066  0.19421  0.07330  1.0000
  H   H805      1.0  0.91150  0.04132  0.28316  1.0000
  C   C1016     1.0  0.77481  0.24990  0.15972  1.0000
  C   C1017     1.0  0.76030  0.23019  0.15402  1.0000
  C   C1018     1.0  0.78057  0.20980  0.15315  1.0000
  C   C1019     1.0  0.81555  0.20910  0.15788  1.0000
  C   C1020     1.0  0.83040  0.22898  0.16290  1.0000
  C   C1021     1.0  0.81008  0.24940  0.16375  1.0000
  H   H806      1.0  0.73345  0.23070  0.15013  1.0000
  H   H807      1.0  0.76906  0.19462  0.14902  1.0000
  H   H808      1.0  0.85754  0.22853  0.16640  1.0000
  H   H809      1.0  0.82152  0.26462  0.16794  1.0000
  C   C1022     1.0  0.73866  0.34467  0.08441  1.0000
  C   C1023     1.0  0.73488  0.34440  0.06535  1.0000
  C   C1024     1.0  0.70177  0.34661  0.05722  1.0000
  C   C1025     1.0  0.67223  0.34957  0.06815  1.0000
  C   C1026     1.0  0.67611  0.34972  0.08716  1.0000
  C   C1027     1.0  0.70900  0.34700  0.09523  1.0000
  H   H810      1.0  0.75764  0.34257  0.05681  1.0000
  H   H811      1.0  0.69913  0.34646  0.04256  1.0000
  H   H812      1.0  0.65347  0.35195  0.09572  1.0000
  H   H813      1.0  0.71131  0.34703  0.10984  1.0000
  C   C1028     1.0  0.71034  0.38170  0.19146  1.0000
  C   C1029     1.0  0.69631  0.36065  0.19207  1.0000
  C   C1030     1.0  0.66944  0.35678  0.20438  1.0000
  C   C1031     1.0  0.65669  0.37389  0.21613  1.0000
  C   C1032     1.0  0.67108  0.39479  0.21549  1.0000
  C   C1033     1.0  0.69782  0.39865  0.20325  1.0000
  H   H814      1.0  0.70599  0.34742  0.18304  1.0000
  H   H815      1.0  0.65857  0.34052  0.20484  1.0000
  H   H816      1.0  0.66215  0.40792  0.22462  1.0000
  H   H817      1.0  0.70899  0.41479  0.20302  1.0000
  C   C1034     1.0  0.60635  0.18105  0.06288  1.0000
  C   C1035     1.0  0.59499  0.43811  0.01428  1.0000
  C   C1036     1.0  0.79856  0.41900  0.20801  1.0000
  C   C1037     1.0  0.49581  0.32458  0.28717  1.0000
  C   C1038     1.0  0.56722  0.46553  0.14438  1.0000
  C   C1039     1.0  0.92967  0.39572  0.16906  1.0000
  C   C1040     1.0  0.90858  0.37766  0.16626  1.0000
  C   C1041     1.0  0.91993  0.35584  0.17179  1.0000
  H   H818      1.0  0.92120  0.41240  0.16427  1.0000
  C   C1042     1.0  0.56453  0.04407  0.18258  1.0000
  C   C1043     1.0  0.95544  0.15044  0.16239  1.0000
  H   H819      1.0  0.59416  0.26815  0.03498  1.0000
  H   H820      1.0  0.59444  0.42299  0.00616  1.0000
  H   H821      1.0  0.85609  0.46778  0.30329  1.0000
  C   C1044     1.0  0.65642  0.25817  0.17044  1.0000
  C   C1045     1.0  0.62882  0.26968  0.17936  1.0000
  C   C1046     1.0  0.61135  0.25895  0.19329  1.0000
  C   C1047     1.0  0.62200  0.23691  0.19860  1.0000
  C   C1048     1.0  0.65058  0.22559  0.19013  1.0000
  C   C1049     1.0  0.66671  0.23607  0.17555  1.0000
  P   P32       1.0  0.66530  0.19728  0.19681  1.0000
  C   C1050     1.0  0.71191  0.19398  0.19807  1.0000
  C   C1051     1.0  0.65115  0.19033  0.21947  1.0000
  C   C1052     1.0  0.65441  0.20568  0.23369  1.0000
  C   C1053     1.0  0.64497  0.20004  0.25147  1.0000
  C   C1054     1.0  0.63274  0.17891  0.25522  1.0000
  C   C1055     1.0  0.63020  0.16336  0.24122  1.0000
  C   C1056     1.0  0.63957  0.16898  0.22345  1.0000
  C   C1057     1.0  0.72850  0.17227  0.19881  1.0000
  C   C1058     1.0  0.76459  0.16940  0.19905  1.0000
  C   C1059     1.0  0.78434  0.18821  0.19885  1.0000
  C   C1060     1.0  0.76802  0.20985  0.19901  1.0000
  C   C1061     1.0  0.73196  0.21278  0.19879  1.0000
  C   C1062     1.0  0.64883  0.17901  0.17983  1.0000
  C   C1063     1.0  0.61393  0.17403  0.18010  1.0000
  C   C1064     1.0  0.60116  0.15982  0.16697  1.0000
  C   C1065     1.0  0.62309  0.15066  0.15341  1.0000
  C   C1066     1.0  0.65757  0.15609  0.15275  1.0000
  C   C1067     1.0  0.67028  0.17047  0.16574  1.0000
  H   H822      1.0  0.67012  0.26641  0.15965  1.0000
  H   H823      1.0  0.62104  0.28689  0.17546  1.0000
  H   H824      1.0  0.58974  0.26784  0.20008  1.0000
  H   H825      1.0  0.60803  0.22883  0.20931  1.0000
  H   H826      1.0  0.68772  0.22722  0.16836  1.0000
  H   H827      1.0  0.66459  0.22192  0.23103  1.0000
  H   H828      1.0  0.64749  0.21197  0.26237  1.0000
  H   H829      1.0  0.62560  0.17443  0.26899  1.0000
  H   H830      1.0  0.62124  0.14679  0.24408  1.0000
  H   H831      1.0  0.63816  0.15645  0.21299  1.0000
  H   H832      1.0  0.71358  0.15750  0.19880  1.0000
  H   H833      1.0  0.77711  0.15255  0.19891  1.0000
  H   H834      1.0  0.81227  0.18615  0.19820  1.0000
  H   H835      1.0  0.78337  0.22443  0.19870  1.0000
  H   H836      1.0  0.72011  0.22976  0.19891  1.0000
  H   H837      1.0  0.59673  0.18083  0.19063  1.0000
  H   H838      1.0  0.57445  0.15555  0.16752  1.0000
  H   H839      1.0  0.61348  0.13933  0.14341  1.0000
  H   H840      1.0  0.67456  0.14909  0.14218  1.0000
  H   H841      1.0  0.69681  0.17491  0.16470  1.0000
  H   H842      1.0  0.70979  0.36003  0.25593  1.0000
  C   C1068     1.0  0.57144  0.06625  0.11364  1.0000
  C   C1069     1.0  0.59879  0.07824  0.12030  1.0000
  C   C1070     1.0  0.62359  0.08604  0.10833  1.0000
  C   C1071     1.0  0.62145  0.08183  0.08969  1.0000
  C   C1072     1.0  0.59468  0.06966  0.08299  1.0000
  C   C1073     1.0  0.57001  0.06171  0.09490  1.0000
  H   H843      1.0  0.50917  0.23661  0.29015  1.0000
  H   H844      1.0  0.59070  0.02039  0.11716  1.0000
  H   H845      1.0  0.60150  0.08139  0.13467  1.0000
  H   H846      1.0  0.64472  0.09527  0.11346  1.0000
  H   H847      1.0  0.64065  0.08785  0.08041  1.0000
  H   H848      1.0  0.59300  0.06645  0.06850  1.0000
  H   H849      1.0  0.54960  0.05218  0.08943  1.0000
  C   C1074     1.0  0.75726  0.28804  0.08349  1.0000
  C   C1075     1.0  0.77918  0.28108  0.09779  1.0000
  C   C1076     1.0  0.76558  0.27168  0.11346  1.0000
  C   C1077     1.0  0.72170  0.28573  0.08486  1.0000
  H   H850      1.0  0.76765  0.29629  0.07169  1.0000
  H   H851      1.0  0.80653  0.28369  0.09696  1.0000
  H   H852      1.0  0.78255  0.26672  0.12470  1.0000
  H   H853      1.0  0.70552  0.29199  0.07376  1.0000
  C   C1078     1.0  0.87477  0.36555  0.21195  1.0000
  C   C1079     1.0  0.86470  0.34452  0.21761  1.0000
  C   C1080     1.0  0.87349  0.33638  0.23501  1.0000
  C   C1081     1.0  0.89257  0.34923  0.24670  1.0000
  C   C1082     1.0  0.90304  0.37035  0.24105  1.0000
  C   C1083     1.0  0.89409  0.37837  0.22352  1.0000
  P   P33       1.0  0.92800  0.38652  0.25639  1.0000
  S   S160      1.0  0.62847  0.33881  0.00362  1.0000
  C   C1084     1.0  0.93037  0.41499  0.24804  1.0000
  C   C1085     1.0  0.95109  0.41908  0.23281  1.0000
  C   C1086     1.0  0.95434  0.44107  0.22654  1.0000
  C   C1087     1.0  0.91320  0.43326  0.25702  1.0000
  H   H854      1.0  0.93211  0.46039  0.13419  1.0000
  C   C1088     1.0  0.58481  0.04653  0.32149  1.0000
  C   C1089     1.0  0.56552  0.48484  0.07579  1.0000
  C   C1090     1.0  0.58306  0.25129  0.00045  1.0000
  C   C1091     1.0  0.77059  0.18353  0.00515  1.0000
  C   C1092     1.0  0.90724  0.38680  0.27851  1.0000
  C   C1093     1.0  0.92649  0.38854  0.29459  1.0000
  H   H855      1.0  0.86805  0.37169  0.19840  1.0000
  H   H856      1.0  0.85049  0.33446  0.20836  1.0000
  H   H857      1.0  0.86574  0.32002  0.23933  1.0000
  H   H858      1.0  0.89936  0.34267  0.26012  1.0000
  H   H859      1.0  0.90203  0.39437  0.21859  1.0000
  H   H860      1.0  0.96495  0.40528  0.22579  1.0000
  C   C1094     1.0  0.72323  0.04598  0.32602  1.0000
  H   H861      1.0  0.89777  0.43076  0.26907  1.0000
  H   H862      1.0  0.51258  0.35256  0.31707  1.0000
  S   S161      1.0  0.53555  0.06744  0.04186  1.0000
  H   H863      1.0  0.77301  0.41265  0.20849  1.0000
  C   C1095     1.0  0.72547  0.41549  0.25324  1.0000
  C   C1096     1.0  0.73954  0.26910  0.03858  1.0000
  H   H864      1.0  0.95407  0.39006  0.29419  1.0000
  C   C1097     1.0  0.55600  0.43794  0.07602  1.0000
  C   C1098     1.0  0.57660  0.45985  0.04088  1.0000
  C   C1099     1.0  0.80689  0.44715  0.26105  1.0000
  C   C1100     1.0  0.74001  0.15187  0.01586  1.0000
  C   C1101     1.0  0.87110  0.15492  0.20729  1.0000
  C   C1102     1.0  0.53445  0.43629  0.09131  1.0000
  C   C1103     1.0  0.53885  0.41785  0.10318  1.0000
  C   C1104     1.0  0.56490  0.40097  0.10000  1.0000
  C   C1105     1.0  0.58683  0.40266  0.08504  1.0000
  C   C1106     1.0  0.58275  0.42118  0.07321  1.0000
  C   C1107     1.0  0.82801  0.44116  0.29197  1.0000
  H   H865      1.0  0.51359  0.22360  0.01516  1.0000
  C   C1108     1.0  0.96764  0.02404  0.24122  1.0000
  C   C1109     1.0  0.90608  0.41166  0.05197  1.0000
  C   C1110     1.0  0.84252  0.46200  0.29149  1.0000
  H   H866      1.0  0.56774  0.38641  0.10894  1.0000
  H   H867      1.0  0.60688  0.38947  0.08249  1.0000
  H   H868      1.0  0.60060  0.42217  0.06196  1.0000
  C   C1111     1.0  0.87313  0.05610  0.20201  1.0000
  H   H869      1.0  0.88471  0.44402  0.11739  1.0000
  S   S162      1.0  0.52394  0.46745  0.23059  1.0000
  H   H870      1.0  0.85553  0.38509  0.26757  1.0000
  C   C1112     1.0  0.92998  0.15903  0.15012  1.0000
  C   C1113     1.0  0.77132  0.09170  0.24497  1.0000
  C   C1114     1.0  0.87933  0.36843  0.10279  1.0000
  H   H871      1.0  0.67759  0.19658  0.12590  1.0000
  C   C1115     1.0  0.59855  0.47287  0.20375  1.0000
  C   C1116     1.0  0.83851  0.99750  0.28219  1.0000
  H   H872      1.0  0.57754  0.41327  0.20192  1.0000
  C   C1117     1.0  0.91666  0.45524  0.25073  1.0000
  S   S163      1.0  0.60821  0.04747  0.23905  1.0000
  Fe  Fe85      1.0  0.61693  0.04812  0.26953  1.0000
  C   C1118     1.0  0.69753  0.04642  0.31229  1.0000
  H   H873      1.0  0.89146  0.05764  0.19102  1.0000
  H   H874      1.0  0.69479  0.22980  0.10872  1.0000
  H   H875      1.0  0.91537  0.17483  0.15279  1.0000
  P   P34       1.0  0.55135  0.46268  0.06155  1.0000
  H   H876      1.0  0.58351  0.03207  0.02154  1.0000
  C   C1119     1.0  0.96804  0.40714  0.12922  1.0000
  C   C1120     1.0  0.56641  0.01274  0.11926  1.0000
  Fe  Fe86      1.0  0.55365  0.03879  0.24448  1.0000
  H   H877      1.0  0.76848  0.22454  0.10888  1.0000
  C   C1121     1.0  0.61449  0.45559  0.00831  1.0000
  S   S164      1.0  0.59780  0.27889  0.99595  1.0000
  S   S165      1.0  0.56365  0.03600  0.27482  1.0000
  C   C1122     1.0  0.75754  0.01738  0.30982  1.0000
  C   C1123     1.0  0.64852  0.41090  0.11851  1.0000
  H   H878      1.0  0.81187  0.99827  0.25663  1.0000
  H   H879      1.0  0.54118  0.99019  0.32757  1.0000
  C   C1124     1.0  0.93713  0.45915  0.23550  1.0000
  C   C1125     1.0  0.57597  0.44020  0.03046  1.0000
  C   C1126     1.0  0.73001  0.26942  0.11494  1.0000
  H   H880      1.0  0.77311  0.47545  0.31641  1.0000
  C   C1127     1.0  0.96461  0.42966  0.13451  1.0000
  C   C1128     1.0  0.74136  0.19911  0.07037  1.0000
  C   C1129     1.0  0.93998  0.09209  0.18356  1.0000
  H   H881      1.0  0.94017  0.10518  0.19362  1.0000
  H   H882      1.0  0.79461  0.42761  0.15250  1.0000
  C   C1130     1.0  0.70770  0.27626  0.10061  1.0000
  C   C1131     1.0  0.66167  0.21228  0.12647  1.0000
  H   H883      1.0  0.62947  0.02657  0.31230  1.0000
  H   H884      1.0  0.50896  0.03533  0.06629  1.0000
  H   H885      1.0  0.60402  0.99315  0.03041  1.0000
  C   C1132     1.0  0.76297  0.02860  0.23837  1.0000
  H   H886      1.0  0.75010  0.12581  0.24151  1.0000
  C   C1133     1.0  0.95211  0.35250  0.18060  1.0000
  P   P35       1.0  0.94900  0.08040  0.27186  1.0000
  C   C1134     1.0  0.77312  0.17236  0.09040  1.0000
  C   C1135     1.0  0.96194  0.39236  0.17774  1.0000
  C   C1136     1.0  0.55757  0.44472  0.15118  1.0000
  H   H887      1.0  0.98431  0.04363  0.17103  1.0000
  C   C1137     1.0  0.93935  0.05902  0.15695  1.0000
  C   C1138     1.0  0.67153  0.23119  0.11685  1.0000
  C   C1139     1.0  0.70913  0.42873  0.30883  1.0000
  C   C1140     1.0  0.98796  0.00747  0.31209  1.0000
  C   C1141     1.0  0.84540  0.03355  0.29621  1.0000
  H   H888      1.0  0.56060  0.42653  0.03476  1.0000
  H   H889      1.0  0.49592  0.43650  0.20279  1.0000
  C   C1142     1.0  0.75345  0.03144  0.32499  1.0000
  H   H890      1.0  0.80064  0.00881  0.22232  1.0000
  C   C1143     1.0  0.53660  0.02591  0.12440  1.0000
  H   H891      1.0  0.71990  0.26282  0.12748  1.0000
  C   C1144     1.0  0.70137  0.03210  0.29729  1.0000
  C   C1145     1.0  0.50036  0.01626  0.20923  1.0000
  C   C1146     1.0  0.62782  0.18694  0.07709  1.0000
  H   H892      1.0  0.94844  0.06677  0.10176  1.0000
  P   P36       1.0  0.53925  0.05561  0.12883  1.0000
  C   C1147     1.0  0.67071  0.38744  0.14347  1.0000
  C   C1148     1.0  0.84383  0.43979  0.22123  1.0000
  C   C1149     1.0  0.72555  0.16498  0.03000  1.0000
  H   H893      1.0  0.96109  0.33573  0.18500  1.0000
  S   S166      1.0  0.66952  0.03148  0.27957  1.0000
  H   H894      1.0  0.66198  0.23270  0.03020  1.0000
  C   C1150     1.0  0.94150  0.23416  0.18028  1.0000
  H   H895      1.0  0.82981  0.43110  0.30434  1.0000
  C   C1151     1.0  0.96526  0.07417  0.18402  1.0000
  H   H896      1.0  0.93892  0.04605  0.14674  1.0000
  C   C1152     1.0  0.81398  0.05658  0.21262  1.0000
  C   C1153     1.0  0.49725  0.07002  0.12493  1.0000
  H   H897      1.0  0.70934  0.29515  0.02393  1.0000
  C   C1154     1.0  0.50486  0.99202  0.12559  1.0000
  C   C1155     1.0  0.75194  0.11116  0.25041  1.0000
  C   C1156     1.0  0.87423  0.38741  0.31263  1.0000
  C   C1157     1.0  0.58959  0.99609  0.01789  1.0000
  C   C1158     1.0  0.92215  0.14685  0.13463  1.0000
  H   H898      1.0  0.52292  0.32000  0.28967  1.0000
  C   C1159     1.0  0.54998  0.05943  0.15253  1.0000
  C   C1160     1.0  0.55016  0.08127  0.15964  1.0000
  H   H899      1.0  0.50902  0.99909  0.02526  1.0000
  H   H900      1.0  0.54422  0.09581  0.15095  1.0000
  C   C1161     1.0  0.59481  0.20997  0.99985  1.0000
  C   C1162     1.0  0.71259  0.23361  0.04278  1.0000
  H   H901      1.0  0.90873  0.00346  0.27015  1.0000
  C   C1163     1.0  0.97981  0.45133  0.29940  1.0000
  H   H902      1.0  0.80545  0.39135  0.09199  1.0000
  H   H903      1.0  0.74819  0.39891  0.10578  1.0000
  C   C1164     1.0  0.94125  0.39769  0.11983  1.0000
  H   H904      1.0  0.61929  0.18542  0.09107  1.0000
  C   C1165     1.0  0.63352  0.47028  0.20830  1.0000
  H   H905      1.0  0.56715  0.36781  0.32631  1.0000
  C   C1166     1.0  0.65549  0.45482  0.19891  1.0000
  C   C1167     1.0  0.83773  0.05920  0.19854  1.0000
  C   C1168     1.0  0.55823  0.08443  0.17798  1.0000
  H   H906      1.0  0.85396  0.44958  0.23202  1.0000
  C   C1169     1.0  0.63826  0.29087  0.06942  1.0000
  H   H907      1.0  0.60990  0.35481  0.14001  1.0000
  H   H908      1.0  0.55897  0.10126  0.18344  1.0000
  C   C1170     1.0  0.73165  0.01762  0.29618  1.0000
  H   H909      1.0  0.99246  0.12246  0.16805  1.0000
  H   H910      1.0  0.85665  0.15932  0.23542  1.0000
  C   C1171     1.0  0.77363  0.01165  0.22597  1.0000
  C   C1172     1.0  0.88164  0.42845  0.04601  1.0000
  C   C1173     1.0  0.59523  0.47774  0.03440  1.0000
  C   C1174     1.0  0.85530  0.43650  0.05774  1.0000
  C   C1175     1.0  0.60978  0.25074  0.05978  1.0000
  C   C1176     1.0  0.56727  0.40095  0.19298  1.0000
  C   C1177     1.0  0.98225  0.35373  0.25025  1.0000
  H   H911      1.0  0.87074  0.04470  0.24735  1.0000
  C   C1178     1.0  0.86826  0.35747  0.08719  1.0000
  C   C1179     1.0  0.75437  0.07257  0.27243  1.0000
  H   H912      1.0  0.83279  0.43431  0.08431  1.0000
  H   H913      1.0  0.62814  0.23776  0.08544  1.0000
  C   C1180     1.0  0.81561  0.03192  0.26720  1.0000
  C   C1181     1.0  0.80347  0.39996  0.10494  1.0000
  C   C1182     1.0  0.49800  0.47125  0.21054  1.0000
  C   C1183     1.0  0.77082  0.40423  0.11276  1.0000
  C   C1184     1.0  0.99355  0.11257  0.25949  1.0000
  C   C1185     1.0  0.96507  0.05760  0.17063  1.0000
  H   H914      1.0  0.71841  0.04496  0.25197  1.0000
  H   H915      1.0  0.62297  0.19886  0.14376  1.0000
  H   H916      1.0  0.55791  0.46158  0.18712  1.0000
  H   H917      1.0  0.50565  0.33842  0.26059  1.0000
  C   C1186     1.0  0.91008  0.16567  0.23089  1.0000
  C   C1187     1.0  0.90404  0.40279  0.06961  1.0000
  H   H918      1.0  0.88226  0.30297  0.10122  1.0000
  H   H919      1.0  0.80310  0.39012  0.24034  1.0000
  C   C1188     1.0  0.82105  0.00834  0.26756  1.0000
  H   H920      1.0  0.98511  0.43672  0.14221  1.0000
  H   H921      1.0  0.91237  0.04879  0.22224  1.0000
  P   P37       1.0  0.66140  0.27526  0.10342  1.0000
  C   C1189     1.0  0.73512  0.09205  0.27791  1.0000
  C   C1190     1.0  0.65095  0.25152  0.11738  1.0000
  C   C1191     1.0  0.63100  0.21353  0.13654  1.0000
  P   P38       1.0  0.87517  0.39883  0.10405  1.0000
  C   C1192     1.0  0.50878  0.47464  0.13385  1.0000
  H   H922      1.0  0.81013  0.40398  0.18194  1.0000
  C   C1193     1.0  0.83329  0.40595  0.11406  1.0000
  C   C1194     1.0  0.71437  0.00193  0.22230  1.0000
  C   C1195     1.0  0.93031  0.16216  0.19961  1.0000
  H   H923      1.0  0.89020  0.44121  0.20508  1.0000
  H   H924      1.0  0.74243  0.41705  0.13616  1.0000
  C   C1196     1.0  0.93458  0.44290  0.13015  1.0000
  H   H925      1.0  0.87683  0.09461  0.28057  1.0000
  H   H926      1.0  0.86814  0.41880  0.17988  1.0000
  C   C1197     1.0  0.76763  0.41445  0.12980  1.0000
  C   C1198     1.0  0.86451  0.43511  0.20592  1.0000
  H   H927      1.0  0.72061  0.09192  0.29054  1.0000
  C   C1199     1.0  0.82549  0.05127  0.23037  1.0000
  C   C1200     1.0  0.88485  0.05091  0.21963  1.0000
  C   C1201     1.0  0.77233  0.07215  0.25579  1.0000
  H   H928      1.0  0.58110  0.17504  0.06573  1.0000
  C   C1202     1.0  0.71043  0.27800  0.02913  1.0000
  C   C1203     1.0  0.55007  0.24790  0.00734  1.0000
  C   C1204     1.0  0.82994  0.41598  0.13130  1.0000
  C   C1205     1.0  0.95058  0.06544  0.30804  1.0000
  P   P39       1.0  0.79440  0.04622  0.24805  1.0000
  H   H929      1.0  0.51162  0.40946  0.00357  1.0000
  C   C1206     1.0  0.86116  0.04865  0.23382  1.0000
  C   C1207     1.0  0.61038  0.23367  0.13715  1.0000
  H   H930      1.0  0.99077  0.06364  0.12680  1.0000
  C   C1208     1.0  0.54290  0.48041  0.13577  1.0000
  P   P40       1.0  0.96380  0.16572  0.18291  1.0000
  C   C1209     1.0  0.75986  0.41361  0.24709  1.0000
  H   H931      1.0  0.90143  0.15316  0.12567  1.0000
  H   H932      1.0  0.53250  0.26233  0.01023  1.0000
  H   H933      1.0  0.73372  0.13448  0.01455  1.0000
  H   H934      1.0  0.65849  0.19094  0.02693  1.0000
  C   C1210     1.0  0.64515  0.30075  0.11471  1.0000
  C   C1211     1.0  0.61387  0.31217  0.10927  1.0000
  C   C1212     1.0  0.62022  0.25259  0.12756  1.0000
  C   C1213     1.0  0.62668  0.25229  0.07651  1.0000
  C   C1214     1.0  0.89019  0.35544  0.11804  1.0000
  H   H935      1.0  0.85245  0.41956  0.13916  1.0000
  P   P41       1.0  0.71504  0.20443  0.05025  1.0000
  H   H936      1.0  0.92542  0.24676  0.18751  1.0000
  C   C1215     1.0  0.89034  0.10434  0.22890  1.0000
  C   C1216     1.0  0.54160  0.36794  0.17073  1.0000
  C   C1217     1.0  0.74818  0.46958  0.21790  1.0000
  H   H937      1.0  0.95880  0.25790  0.16053  1.0000
  H   H938      1.0  0.82541  0.06266  0.28135  1.0000
  H   H939      1.0  0.98124  0.01324  0.32565  1.0000
  C   C1218     1.0  0.76479  0.21141  0.09909  1.0000
  C   C1219     1.0  0.67214  0.19585  0.05520  1.0000
  C   C1220     1.0  0.64084  0.27250  0.08153  1.0000
  H   H940      1.0  0.73470  0.23312  0.08083  1.0000
  C   C1221     1.0  0.85319  0.42767  0.07540  1.0000
  C   C1222     1.0  0.94027  0.12628  0.13103  1.0000
  C   C1223     1.0  0.75468  0.17708  0.07433  1.0000
  C   C1224     1.0  0.77833  0.18951  0.10275  1.0000
  H   H941      1.0  0.92479  0.39058  0.32393  1.0000
  H   H942      1.0  0.60352  0.26792  0.12785  1.0000
  H   H943      1.0  0.71801  0.12620  0.27084  1.0000
  C   C1225     1.0  0.66298  0.30876  0.12972  1.0000
  C   C1226     1.0  0.60131  0.33165  0.11832  1.0000
  H   H944      1.0  0.50515  0.21311  0.31802  1.0000
  H   H945      1.0  0.68683  0.30012  0.13443  1.0000
  H   H946      1.0  0.58660  0.23457  0.14495  1.0000
  C   C1227     1.0  0.65012  0.32809  0.13887  1.0000
  H   H947      1.0  0.71186  0.43171  0.25529  1.0000
  H   H948      1.0  0.57758  0.34059  0.11372  1.0000
  C   C1228     1.0  0.62210  0.28910  0.05261  1.0000
  S   S167      1.0  0.52121  0.39789  0.30330  1.0000
  C   C1229     1.0  0.61948  0.33965  0.13308  1.0000
  H   H949      1.0  0.97976  0.10173  0.14039  1.0000
  C   C1230     1.0  0.64537  0.39731  0.15497  1.0000
  C   C1231     1.0  0.92760  0.03662  0.27160  1.0000
  H   H950      1.0  0.96330  0.05010  0.07162  1.0000
  C   C1232     1.0  0.82857  0.04445  0.28147  1.0000
  H   H951      1.0  0.66410  0.33417  0.15041  1.0000
  C   C1233     1.0  0.94171  0.08334  0.29603  1.0000
  C   C1234     1.0  0.50768  0.44575  0.00462  1.0000
  C   C1235     1.0  0.76067  0.44200  0.32408  1.0000
  H   H952      1.0  0.64850  0.30670  0.07300  1.0000
  H   H953      1.0  0.67710  0.19821  0.08453  1.0000
  H   H954      1.0  0.59865  0.23523  0.05593  1.0000
  H   H955      1.0  0.64959  0.41592  0.10431  1.0000
  C   C1236     1.0  0.92535  0.01531  0.26400  1.0000
  C   C1237     1.0  0.82092  0.46833  0.26084  1.0000
  C   C1238     1.0  0.89204  0.33193  0.11729  1.0000
  H   H956      1.0  0.83587  0.11397  0.22816  1.0000
  C   C1239     1.0  0.94522  0.00906  0.24875  1.0000
  C   C1240     1.0  0.91440  0.09408  0.25862  1.0000
  H   H957      1.0  0.51384  0.44908  0.09394  1.0000
  C   C1241     1.0  0.97220  0.37476  0.25783  1.0000
  C   C1242     1.0  0.61764  0.18257  0.04489  1.0000
  C   C1243     1.0  0.64248  0.44180  0.18505  1.0000
  H   H958      1.0  0.89336  0.10599  0.21430  1.0000
  C   C1244     1.0  0.50585  0.01529  0.12770  1.0000
  H   H959      1.0  0.62126  0.30322  0.04320  1.0000
  C   C1245     1.0  0.77648  0.39206  0.24488  1.0000
  C   C1246     1.0  0.95017  0.05171  0.26415  1.0000
  C   C1247     1.0  0.85776  0.10871  0.23673  1.0000
  C   C1248     1.0  0.60353  0.02621  0.31768  1.0000
  H   H960      1.0  0.94331  0.09271  0.23328  1.0000
  H   H961      1.0  0.97258  0.44478  0.31255  1.0000
  H   H962      1.0  0.57140  0.06832  0.20364  1.0000
  H   H963      1.0  0.76231  0.46133  0.20685  1.0000
  C   C1249     1.0  0.62332  0.42102  0.13002  1.0000
  C   C1250     1.0  0.91858  0.09700  0.23975  1.0000
  H   H964      1.0  0.92759  0.20724  0.19765  1.0000
  C   C1251     1.0  0.52315  0.43911  0.14927  1.0000
  H   H965      1.0  0.50749  0.48156  0.00208  1.0000
  C   C1252     1.0  0.49775  0.26797  0.30408  1.0000
  H   H966      1.0  0.83644  0.44959  0.05313  1.0000
  H   H967      1.0  0.69550  0.99184  0.21601  1.0000
  C   C1253     1.0  0.94295  0.21164  0.18602  1.0000
  C   C1254     1.0  0.97005  0.04531  0.24885  1.0000
  H   H968      1.0  0.96162  0.17171  0.22233  1.0000
  H   H969      1.0  0.78259  0.15519  0.09344  1.0000
  C   C1255     1.0  0.88138  0.09808  0.26631  1.0000
  C   C1256     1.0  0.85338  0.10581  0.25547  1.0000
  C   C1257     1.0  0.56539  0.06584  0.18942  1.0000
  C   C1258     1.0  0.90769  0.43349  0.12081  1.0000
  H   H970      1.0  0.60123  0.17770  0.03390  1.0000
  C   C1259     1.0  0.65027  0.19003  0.04101  1.0000
  C   C1260     1.0  0.60533  0.23208  0.99683  1.0000
  H   H971      1.0  0.98501  0.12545  0.20431  1.0000
  C   C1261     1.0  0.87726  0.16000  0.22549  1.0000
  C   C1262     1.0  0.89744  0.15605  0.19437  1.0000
  H   H972      1.0  0.84584  0.15019  0.20308  1.0000
  C   C1263     1.0  0.98204  0.04876  0.08260  1.0000
  H   H973      1.0  0.55258  0.38018  0.21544  1.0000
  C   C1264     1.0  0.68374  0.24261  0.03293  1.0000
  H   H974      1.0  0.76410  0.24014  0.05196  1.0000
  H   H975      1.0  0.55747  0.38806  0.14819  1.0000
  H   H976      1.0  0.92495  0.11872  0.29418  1.0000
  H   H977      1.0  0.68248  0.45258  0.20267  1.0000
  C   C1265     1.0  0.60716  0.44401  0.18065  1.0000
  H   H978      1.0  0.69171  0.38637  0.11633  1.0000
  C   C1266     1.0  0.81943  0.41418  0.19283  1.0000
  H   H979      1.0  0.89693  0.36339  0.13059  1.0000
  C   C1267     1.0  0.58851  0.00563  0.32035  1.0000
  C   C1268     1.0  0.55620  0.38658  0.16289  1.0000
  H   H980      1.0  0.96064  0.04937  0.30292  1.0000
  H   H981      1.0  0.90060  0.32207  0.12912  1.0000
  S   S168      1.0  0.98770  0.41571  0.18044  1.0000
  H   H982      1.0  0.66056  0.27138  0.01835  1.0000
  H   H983      1.0  0.56934  0.02970  0.19162  1.0000
  C   C1269     1.0  0.96024  0.24044  0.16501  1.0000
  H   H984      1.0  0.66004  0.42988  0.17813  1.0000
  H   H985      1.0  0.52927  0.35113  0.19581  1.0000
  C   C1270     1.0  0.99039  0.09191  0.26853  1.0000
  P   P42       1.0  0.58896  0.42667  0.16352  1.0000
  H   H986      1.0  0.99066  0.40417  0.27080  1.0000
  C   C1271     1.0  0.54007  0.36571  0.18968  1.0000
  C   C1272     1.0  0.56150  0.20661  0.00635  1.0000
  C   C1273     1.0  0.85060  0.01009  0.29653  1.0000
  S   S169      1.0  0.54565  0.17906  0.00949  1.0000
  C   C1274     1.0  0.75851  0.37279  0.24804  1.0000
  C   C1275     1.0  0.74606  0.21621  0.08305  1.0000
  C   C1276     1.0  0.93055  0.10442  0.30316  1.0000
  C   C1277     1.0  0.70360  0.01868  0.23465  1.0000
  H   H987      1.0  0.75014  0.16330  0.06531  1.0000
  H   H988      1.0  0.93336  0.11647  0.11937  1.0000
  H   H989      1.0  0.99127  0.39689  0.13280  1.0000
  H   H990      1.0  0.82809  0.10897  0.26156  1.0000
  C   C1278     1.0  0.91033  0.41061  0.11609  1.0000
  H   H991      1.0  0.92660  0.40549  0.04290  1.0000
  C   C1279     1.0  0.55293  0.38218  0.20076  1.0000
  H   H992      1.0  0.88315  0.43526  0.03231  1.0000
  C   C1280     1.0  0.73324  0.18759  0.03175  1.0000
  H   H993      1.0  0.86022  0.32567  0.07466  1.0000
  H   H994      1.0  0.61224  0.19554  0.99681  1.0000
  C   C1281     1.0  0.58533  0.45971  0.19008  1.0000
  C   C1282     1.0  0.72409  0.37487  0.25382  1.0000
  H   H995      1.0  0.52116  0.41626  0.11448  1.0000
  H   H996      1.0  0.82703  0.38506  0.29764  1.0000
  H   H997      1.0  0.85441  0.04333  0.30740  1.0000
  H   H998      1.0  0.70830  0.15738  0.03951  1.0000
  H   H999      1.0  0.51921  0.36707  0.05571  1.0000
  H   H1000     1.0  0.69144  0.41566  0.30688  1.0000
  H   H1001     1.0  0.90442  0.46932  0.25809  1.0000
  H   H1002     1.0  0.89170  0.15245  0.18033  1.0000
  H   H1003     1.0  0.94496  0.38035  0.11562  1.0000
  H   H1004     1.0  0.97125  0.12171  0.25353  1.0000
  H   H1005     1.0  0.67649  0.02154  0.23806  1.0000
  H   H1006     1.0  0.51438  0.42364  0.15485  1.0000
  H   H1007     1.0  0.55600  0.02376  0.15934  1.0000
  C   C1283     1.0  0.85223  0.42239  0.19172  1.0000
  C   C1284     1.0  0.75557  0.46232  0.31436  1.0000
  C   C1285     1.0  0.96638  0.11797  0.14287  1.0000
  C   C1286     1.0  0.86968  0.33395  0.08656  1.0000
  C   C1287     1.0  0.50727  0.46937  0.05442  1.0000
  H   H1008     1.0  0.61965  0.47369  0.07373  1.0000
  C   C1288     1.0  0.72727  0.46589  0.30223  1.0000
  H   H1009     1.0  0.76307  0.21394  0.02040  1.0000
  C   C1289     1.0  0.81014  0.43374  0.27685  1.0000
  S   S170      1.0  0.51021  0.08690  0.29834  1.0000
  H   H1010     1.0  0.59636  0.06238  0.31911  1.0000
  C   C1290     1.0  0.75256  0.46191  0.23596  1.0000
  C   C1291     1.0  0.74940  0.99840  0.21797  1.0000
  H   H1011     1.0  0.99453  0.22904  0.14343  1.0000
  C   C1292     1.0  0.75626  0.19668  0.01932  1.0000
  C   C1293     1.0  0.97227  0.47920  0.27538  1.0000
  P   P43       1.0  0.78261  0.43837  0.24165  1.0000
  H   H1012     1.0  0.59344  0.47041  0.14609  1.0000
  H   H1013     1.0  0.79821  0.41786  0.27777  1.0000
  C   C1294     1.0  0.93653  0.16678  0.21801  1.0000
  H   H1014     1.0  0.91491  0.16945  0.24503  1.0000
  H   H1015     1.0  0.78026  0.00593  0.30879  1.0000
  C   C1295     1.0  0.81055  0.43188  0.22236  1.0000
  C   C1296     1.0  0.97292  0.37067  0.18368  1.0000
  C   C1297     1.0  0.53112  0.34189  0.32473  1.0000
  C   C1298     1.0  0.96328  0.19517  0.17650  1.0000
  H   H1016     1.0  0.92321  0.38982  0.07409  1.0000
  H   H1017     1.0  0.97834  0.99117  0.15724  1.0000
  C   C1299     1.0  0.97371  0.05822  0.09952  1.0000
  H   H1018     1.0  0.98314  0.01924  0.22943  1.0000
  C   C1300     1.0  0.76240  0.16114  0.00340  1.0000
  H   H1019     1.0  0.49585  0.05236  0.21136  1.0000
  H   H1020     1.0  0.97071  0.44403  0.21488  1.0000
  C   C1301     1.0  0.88177  0.32117  0.10156  1.0000
  H   H1021     1.0  0.96375  0.34389  0.24347  1.0000
  H   H1022     1.0  0.85749  0.36699  0.07567  1.0000
  C   C1302     1.0  0.87730  0.41051  0.08135  1.0000
  H   H1023     1.0  0.73516  0.00649  0.28466  1.0000
  H   H1024     1.0  0.53165  0.35518  0.16212  1.0000
  C   C1303     1.0  0.73722  0.42525  0.32112  1.0000
  H   H1025     1.0  0.94043  0.47623  0.23093  1.0000
  C   C1304     1.0  0.50317  0.24452  0.30311  1.0000
  H   H1026     1.0  0.50194  0.44612  0.01904  1.0000
  H   H1027     1.0  0.73635  0.46730  0.26387  1.0000
  C   C1305     1.0  0.73359  0.47304  0.24988  1.0000
  C   C1306     1.0  0.98177  0.20161  0.16106  1.0000
  H   H1028     1.0  0.86139  0.38818  0.32578  1.0000
  C   C1307     1.0  0.97367  0.12987  0.15859  1.0000
  S   S171      1.0  0.53791  0.11304  0.99889  1.0000
  H   H1029     1.0  0.64329  0.47983  0.21942  1.0000
  C   C1308     1.0  0.50093  0.23127  0.31881  1.0000
  C   C1309     1.0  0.49829  0.99357  0.03802  1.0000
  H   H1030     1.0  0.98972  0.39038  0.32842  1.0000
  C   C1310     1.0  0.92681  0.10721  0.32198  1.0000
  C   C1311     1.0  0.94716  0.06831  0.32684  1.0000
  C   C1312     1.0  0.83884  0.47563  0.27597  1.0000
  H   H1031     1.0  0.81776  0.47929  0.24902  1.0000
  C   C1313     1.0  0.96983  0.99044  0.30425  1.0000
  C   C1314     1.0  0.49900  0.45395  0.14047  1.0000
  H   H1032     1.0  0.91774  0.12338  0.32746  1.0000
  H   H1033     1.0  0.50338  0.48047  0.27774  1.0000
  H   H1034     1.0  0.49741  0.13507  0.28297  1.0000
  H   H1035     1.0  0.86403  0.00165  0.30788  1.0000
  H   H1036     1.0  0.58137  0.48464  0.21119  1.0000
  H   H1037     1.0  0.54758  0.99224  0.05163  1.0000
  H   H1038     1.0  0.94383  0.99243  0.24304  1.0000
  H   H1039     1.0  0.72343  0.48188  0.29518  1.0000
  H   H1040     1.0  0.75775  0.98554  0.20826  1.0000
  C   C1315     1.0  0.56525  0.98947  0.11705  1.0000
  C   C1316     1.0  0.52037  0.98947  0.05290  1.0000
  H   H1041     1.0  0.65054  0.98525  0.25004  1.0000
  C   C1317     1.0  0.55080  0.04645  0.32778  1.0000
  H   H1042     1.0  0.74065  0.40947  0.32852  1.0000
  C   C1318     1.0  0.55400  0.00572  0.32624  1.0000
  H   H1043     1.0  0.99502  0.01976  0.13529  1.0000
  H   H1044     1.0  0.62931  0.45366  0.99582  1.0000
  C   C1319     1.0  0.56064  0.02196  0.99645  1.0000
  C   C1320     1.0  0.51314  0.42505  0.99592  1.0000
  S   S172      1.0  0.87065  0.44901  0.37652  1.0000
  H   H1045     1.0  0.88693  0.00057  0.49749  1.0000
  Fe  Fe87      1.0  0.84526  0.45330  0.34851  1.0000
  S   S173      1.0  0.79519  0.43668  0.34027  1.0000
  Fe  Fe88      1.0  0.91932  0.43758  0.36145  1.0000
  S   S174      1.0  0.96029  0.40881  0.36628  1.0000
  C   C1321     1.0  0.92754  0.98551  0.48063  1.0000
  S   S175      1.0  0.93994  0.05795  0.37722  1.0000
  C   C1322     1.0  0.95731  0.34117  0.49527  1.0000
  C   C1323     1.0  0.94591  0.41585  0.57927  1.0000
  C   C1324     1.0  0.90793  0.46900  0.49366  1.0000
  C   C1325     1.0  0.95396  0.06389  0.39952  1.0000
  C   C1326     1.0  0.94285  0.05210  0.41477  1.0000
  C   C1327     1.0  0.95441  0.05749  0.43228  1.0000
  H   H1046     1.0  0.92512  0.03898  0.41308  1.0000
  H   H1047     1.0  0.94549  0.04842  0.44402  1.0000
  H   H1048     1.0  0.86322  0.99581  0.44047  1.0000
  C   C1328     1.0  0.97247  0.40032  0.38862  1.0000
  C   C1329     1.0  0.95283  0.40763  0.40365  1.0000
  C   C1330     1.0  0.86045  0.47877  0.57335  1.0000
  H   H1049     1.0  0.92995  0.41883  0.40171  1.0000
  C   C1331     1.0  0.98826  0.02133  0.52554  1.0000
  C   C1332     1.0  0.99186  0.46735  0.57067  1.0000
  C   C1333     1.0  0.92267  0.47460  0.43700  1.0000
  C   C1334     1.0  0.99188  0.38551  0.42408  1.0000
  H   H1050     1.0  0.92873  0.45969  0.65164  1.0000
  S   S176      1.0  0.88819  0.02832  0.34107  1.0000
  S   S177      1.0  0.93778  0.47232  0.35857  1.0000
  H   H1051     1.0  0.97642  0.47827  0.63657  1.0000
  C   C1335     1.0  0.92237  0.42288  0.54901  1.0000
  H   H1052     1.0  0.93215  0.09120  0.34841  1.0000
  C   C1336     1.0  0.97297  0.99675  0.59532  1.0000
  S   S178      1.0  0.89294  0.43881  0.33422  1.0000
  C   C1337     1.0  0.98118  0.40711  0.55271  1.0000
  C   C1338     1.0  0.91739  0.18673  0.37566  1.0000
  C   C1339     1.0  0.93500  0.08912  0.33381  1.0000
  H   H1053     1.0  0.96735  0.33045  0.52292  1.0000
  C   C1340     1.0  0.92005  0.98685  0.54140  1.0000
  C   C1341     1.0  0.89168  0.46418  0.43514  1.0000
  H   H1054     1.0  0.97915  0.01338  0.46894  1.0000
  H   H1055     1.0  0.96513  0.43653  0.46539  1.0000
  H   H1056     1.0  0.88591  0.19180  0.39967  1.0000
  H   H1057     1.0  0.64937  0.00477  0.34171  1.0000
  C   C1342     1.0  0.97695  0.08092  0.40193  1.0000
  Fe  Fe89      1.0  0.90755  0.02875  0.36997  1.0000
  C   C1343     1.0  0.97285  0.17841  0.39986  1.0000
  C   C1344     1.0  0.93358  0.45460  0.50173  1.0000
  H   H1058     1.0  0.71041  0.00296  0.35121  1.0000
  C   C1345     1.0  0.53533  0.02608  0.33006  1.0000
  H   H1059     1.0  0.98005  0.47045  0.41081  1.0000
  C   C1346     1.0  0.92708  0.43222  0.50592  1.0000
  C   C1347     1.0  0.97616  0.13884  0.46845  1.0000
  C   C1348     1.0  0.94489  0.44436  0.45685  1.0000
  H   H1060     1.0  0.78231  0.00662  0.37933  1.0000
  H   H1061     1.0  0.89419  0.42969  0.57392  1.0000
  H   H1062     1.0  0.98588  0.08996  0.39019  1.0000
  C   C1349     1.0  0.99510  0.16060  0.43628  1.0000
  H   H1063     1.0  0.95821  0.32417  0.49000  1.0000
  H   H1064     1.0  0.82321  0.45365  0.57624  1.0000
  H   H1065     1.0  0.71956  0.05695  0.33764  1.0000
  C   C1350     1.0  0.98660  0.00528  0.56375  1.0000
  C   C1351     1.0  0.95385  0.41467  0.54125  1.0000
  C   C1352     1.0  0.87523  0.46144  0.49027  1.0000
  H   H1066     1.0  0.94124  0.12156  0.45161  1.0000
  H   H1067     1.0  0.95519  0.18117  0.35436  1.0000
  C   C1353     1.0  0.86825  0.43934  0.49482  1.0000
  C   C1354     1.0  0.95820  0.47705  0.57270  1.0000
  C   C1355     1.0  0.95766  0.04833  0.50525  1.0000
  H   H1068     1.0  0.84289  0.43347  0.49214  1.0000
  H   H1069     1.0  0.82236  0.45523  0.61000  1.0000
  C   C1356     1.0  0.83939  0.46493  0.58329  1.0000
  H   H1070     1.0  0.94002  0.46816  0.58072  1.0000
  H   H1071     1.0  0.86048  0.47788  0.55862  1.0000
  H   H1072     1.0  0.84589  0.00755  0.47177  1.0000
  C   C1357     1.0  0.95177  0.35954  0.48343  1.0000
  H   H1073     1.0  0.93466  0.18508  0.42103  1.0000
  C   C1358     1.0  0.54875  0.30643  0.33947  1.0000
  H   H1074     1.0  0.76893  0.00966  0.41225  1.0000
  H   H1075     1.0  0.85917  0.48109  0.62609  1.0000
  C   C1359     1.0  0.58646  0.33732  0.34001  1.0000
  C   C1360     1.0  0.87148  0.99969  0.46934  1.0000
  C   C1361     1.0  0.96981  0.14480  0.43592  1.0000
  H   H1076     1.0  0.94862  0.35678  0.46896  1.0000
  C   C1362     1.0  0.96261  0.34474  0.51380  1.0000
  H   H1077     1.0  0.96950  0.12992  0.48075  1.0000
  C   C1363     1.0  0.95804  0.02890  0.51615  1.0000
  S   S179      1.0  0.78403  0.03097  0.34344  1.0000
  C   C1364     1.0  0.66751  0.99272  0.33527  1.0000
  C   C1365     1.0  0.77791  0.99161  0.38725  1.0000
  C   C1366     1.0  0.70202  0.99151  0.34094  1.0000
  H   H1078     1.0  0.96736  0.36892  0.53485  1.0000
  C   C1367     1.0  0.83888  0.46581  0.60229  1.0000
  Fe  Fe90      1.0  0.90846  0.99220  0.34149  1.0000
  C   C1368     1.0  0.57977  0.31524  0.34477  1.0000
  C   C1369     1.0  0.98576  0.01703  0.60073  1.0000
  H   H1079     1.0  0.89589  0.18976  0.36633  1.0000
  H   H1080     1.0  0.87132  0.47191  0.42656  1.0000
  H   H1081     1.0  0.94640  0.40515  0.43264  1.0000
  C   C1370     1.0  0.88122  0.99319  0.45172  1.0000
  H   H1082     1.0  0.95813  0.14020  0.42322  1.0000
  H   H1083     1.0  0.61046  0.34419  0.34407  1.0000
  H   H1084     1.0  0.90082  0.42887  0.54054  1.0000
  H   H1085     1.0  0.88831  0.40765  0.50605  1.0000
  C   C1371     1.0  0.89409  0.42474  0.50259  1.0000
  C   C1372     1.0  0.96011  0.13419  0.45200  1.0000
  P   P44       1.0  0.95979  0.41374  0.51684  1.0000
  H   H1086     1.0  0.54417  0.28935  0.34339  1.0000
  C   C1373     1.0  0.91847  0.42339  0.56796  1.0000
  H   H1087     1.0  0.95846  0.46095  0.50447  1.0000
  H   H1088     1.0  0.91011  0.41818  0.46192  1.0000
  C   C1374     1.0  0.95734  0.38528  0.50866  1.0000
  C   C1375     1.0  0.95180  0.38149  0.49007  1.0000
  H   H1089     1.0  0.91567  0.00240  0.54888  1.0000
  H   H1090     1.0  0.86335  0.43556  0.44242  1.0000
  C   C1376     1.0  0.88723  0.44379  0.44408  1.0000
  H   H1091     1.0  0.85545  0.47265  0.48392  1.0000
  C   C1377     1.0  0.96263  0.36669  0.52051  1.0000
  S   S180      1.0  0.99146  0.08063  0.45691  1.0000
  C   C1378     1.0  0.91366  0.43402  0.45507  1.0000
  C   C1379     1.0  0.94982  0.46456  0.44749  1.0000
  C   C1380     1.0  0.95077  0.18185  0.36892  1.0000
  H   H1092     1.0  0.99050  0.99267  0.42727  1.0000
  P   P45       1.0  0.98932  0.99670  0.54018  1.0000
  S   S181      1.0  0.93082  0.99311  0.36983  1.0000
  H   H1093     1.0  0.53614  0.06225  0.33044  1.0000
  C   C1381     1.0  0.96227  0.39996  0.42121  1.0000
  C   C1382     1.0  0.93941  0.18388  0.40651  1.0000
  C   C1383     1.0  0.97351  0.99083  0.57692  1.0000
  H   H1094     1.0  0.95400  0.05441  0.33610  1.0000
  C   C1384     1.0  0.98725  0.06039  0.50377  1.0000
  H   H1095     1.0  0.94303  0.41641  0.59395  1.0000
  H   H1096     1.0  0.94901  0.39543  0.48053  1.0000
  C   C1385     1.0  0.98902  0.08602  0.41941  1.0000
  C   C1386     1.0  0.91174  0.18785  0.39444  1.0000
  Fe  Fe91      1.0  0.83854  0.01597  0.35203  1.0000
  H   H1097     1.0  0.59865  0.30498  0.35259  1.0000
  C   C1387     1.0  0.97771  0.07435  0.43467  1.0000
  H   H1098     1.0  0.98658  0.02125  0.61504  1.0000
  C   C1388     1.0  0.89461  0.99580  0.48380  1.0000
  H   H1099     1.0  0.93477  0.01999  0.51720  1.0000
  S   S182      1.0  0.85642  0.01966  0.38118  1.0000
  H   H1100     1.0  0.93446  0.05413  0.49791  1.0000
  Fe  Fe92      1.0  0.90853  0.47410  0.33221  1.0000
  H   H1101     1.0  0.96369  0.98535  0.60551  1.0000
  H   H1102     1.0  0.99008  0.20870  0.44236  1.0000
  H   H1103     1.0  0.98694  0.07552  0.49545  1.0000
  H   H1104     1.0  0.50865  0.02617  0.33448  1.0000
  P   P46       1.0  0.98963  0.47842  0.44968  1.0000
  C   C1389     1.0  0.85964  0.48040  0.61137  1.0000
  C   C1390     1.0  0.97727  0.40771  0.57163  1.0000
  C   C1391     1.0  0.77014  0.99334  0.40577  1.0000
  C   C1392     1.0  0.92686  0.47781  0.64978  1.0000
  C   C1393     1.0  0.97849  0.17787  0.38097  1.0000
  C   C1394     1.0  0.56211  0.35062  0.33001  1.0000
  Fe  Fe93      1.0  0.88785  0.48444  0.37260  1.0000
  C   C1395     1.0  0.52421  0.31968  0.32930  1.0000
  H   H1105     1.0  0.79712  0.48339  0.82456  1.0000
  H   H1106     1.0  0.55197  0.20942  0.96544  1.0000
  H   H1107     1.0  0.73595  0.04549  0.85527  1.0000
  H   H1108     1.0  0.77147  0.47778  0.68000  1.0000
  S   S183      1.0  0.54957  0.34384  0.98727  1.0000
  H   H1109     1.0  0.77593  0.01978  0.82026  1.0000
  C   C1396     1.0  0.69115  0.99663  0.89731  1.0000
  S   S184      1.0  0.57830  0.44523  0.89338  1.0000
  C   C1397     1.0  0.52247  0.44443  0.96740  1.0000
  H   H1110     1.0  0.50593  0.10157  0.96100  1.0000
  C   C1398     1.0  0.58117  0.17890  0.95781  1.0000
  S   S185      1.0  0.60932  0.39609  0.97151  1.0000
  H   H1111     1.0  0.55327  0.40550  0.91047  1.0000
  H   H1112     1.0  0.64277  0.47958  0.96589  1.0000
  H   H1113     1.0  0.50150  0.46870  0.74599  1.0000
  H   H1114     1.0  0.65046  0.00791  0.81943  1.0000
  C   C1399     1.0  0.55351  0.00393  0.98525  1.0000
  C   C1400     1.0  0.69806  0.00263  0.83444  1.0000
  C   C1401     1.0  0.81131  0.06137  0.87309  1.0000
  C   C1402     1.0  0.51704  0.15960  0.95609  1.0000
  H   H1115     1.0  0.54032  0.00749  0.97248  1.0000
  C   C1403     1.0  0.71470  0.00392  0.88444  1.0000
  S   S186      1.0  0.58210  0.08525  0.95562  1.0000
  C   C1404     1.0  0.59334  0.01820  0.92299  1.0000
  C   C1405     1.0  0.60125  0.01840  0.94175  1.0000
  C   C1406     1.0  0.59803  0.03855  0.95196  1.0000
  C   C1407     1.0  0.58701  0.05902  0.94356  1.0000
  C   C1408     1.0  0.57918  0.05881  0.92479  1.0000
  C   C1409     1.0  0.58215  0.03863  0.91461  1.0000
  H   H1116     1.0  0.61013  0.00282  0.94846  1.0000
  H   H1117     1.0  0.60454  0.03829  0.96628  1.0000
  Fe  Fe94      1.0  0.58946  0.47759  0.87684  1.0000
  H   H1118     1.0  0.57601  0.03895  0.90024  1.0000
  H   H1119     1.0  0.54755  0.12914  0.94865  1.0000
  H   H1120     1.0  0.52676  0.40831  0.97082  1.0000
  H   H1121     1.0  0.63093  0.23432  0.99153  1.0000
  H   H1122     1.0  0.52891  0.44335  0.95309  1.0000
  S   S187      1.0  0.61629  0.12931  0.99257  1.0000
  Fe  Fe95      1.0  0.59341  0.36672  0.99044  1.0000
  C   C1410     1.0  0.55074  0.19197  0.96148  1.0000
  C   C1411     1.0  0.57967  0.15628  0.95312  1.0000
  H   H1123     1.0  0.50930  0.47714  0.80938  1.0000
  H   H1124     1.0  0.68562  0.99429  0.84557  1.0000
  C   C1412     1.0  0.67796  0.01022  0.81952  1.0000
  C   C1413     1.0  0.50776  0.47468  0.92728  1.0000
  C   C1414     1.0  0.51590  0.46538  0.97589  1.0000
  H   H1125     1.0  0.77336  0.15093  0.99242  1.0000
  C   C1415     1.0  0.51883  0.18239  0.96070  1.0000
  H   H1126     1.0  0.50176  0.45990  0.90097  1.0000
  H   H1127     1.0  0.60592  0.18624  0.95886  1.0000
  S   S188      1.0  0.59785  0.99200  0.91087  1.0000
  H   H1128     1.0  0.98424  0.44671  0.68067  1.0000
  C   C1416     1.0  0.69328  0.02065  0.80475  1.0000
  C   C1417     1.0  0.54779  0.14667  0.95224  1.0000
  H   H1129     1.0  0.78909  0.47536  0.71252  1.0000
  S   S189      1.0  0.60176  0.48017  0.84627  1.0000
  H   H1130     1.0  0.91192  0.98985  0.69799  1.0000
  H   H1131     1.0  0.57076  0.07444  0.91803  1.0000
  C   C1418     1.0  0.58631  0.43248  0.91556  1.0000
  C   C1419     1.0  0.60819  0.44127  0.92852  1.0000
  C   C1420     1.0  0.61459  0.43003  0.94545  1.0000
  C   C1421     1.0  0.59903  0.40991  0.94998  1.0000
  C   C1422     1.0  0.57641  0.40147  0.93723  1.0000
  C   C1423     1.0  0.57029  0.41259  0.92022  1.0000
  H   H1132     1.0  0.62079  0.45649  0.92533  1.0000
  H   H1133     1.0  0.63216  0.43683  0.95505  1.0000
  H   H1134     1.0  0.56414  0.38609  0.94029  1.0000
  H   H1135     1.0  0.58333  0.47374  0.97607  1.0000
  H   H1136     1.0  0.60326  0.14601  0.95044  1.0000
  C   C1424     1.0  0.72864  0.02390  0.80503  1.0000
  H   H1137     1.0  0.53495  0.46910  0.92793  1.0000
  Fe  Fe96      1.0  0.58668  0.09900  0.98495  1.0000
  H   H1138     1.0  0.94064  0.45723  0.70396  1.0000
  C   C1425     1.0  0.95688  0.46989  0.69870  1.0000
  H   H1139     1.0  0.71934  0.02161  0.88379  1.0000
  C   C1426     1.0  0.76210  0.04382  0.86054  1.0000
  H   H1140     1.0  0.76360  0.07945  0.86518  1.0000
  C   C1427     1.0  0.74867  0.01676  0.82009  1.0000
  H   H1141     1.0  0.82335  0.07634  0.87745  1.0000
  C   C1428     1.0  0.52124  0.42440  0.97741  1.0000
  H   H1142     1.0  0.67769  0.00859  0.90636  1.0000
  C   C1429     1.0  0.98169  0.46390  0.68542  1.0000
  C   C1430     1.0  0.77768  0.06312  0.86616  1.0000
  C   C1431     1.0  0.82940  0.04030  0.87440  1.0000
  H   H1143     1.0  0.67770  0.02628  0.79313  1.0000
  C   C1432     1.0  0.51015  0.48179  0.73706  1.0000
  H   H1144     1.0  0.59175  0.99156  0.79086  1.0000
  H   H1145     1.0  0.74054  0.03204  0.79360  1.0000
  H   H1146     1.0  0.51018  0.00704  0.78828  1.0000
  H   H1147     1.0  0.50493  0.99129  0.91932  1.0000
  C   C1433     1.0  0.51016  0.46584  0.99481  1.0000
  H   H1148     1.0  0.93522  0.99280  0.66665  1.0000
  C   C1434     1.0  0.50475  0.98955  0.78676  1.0000
  H   H1149     1.0  0.87816  0.48221  0.66343  1.0000
  C   C1435     1.0  0.73120  0.98848  0.87234  1.0000
  H   H1150     1.0  0.55301  0.03910  0.99233  1.0000
  H   H1151     1.0  0.49567  0.19273  0.96401  1.0000
  C   C1436     1.0  0.78006  0.02255  0.86186  1.0000
  P   P47       1.0  0.75948  0.99776  0.85462  1.0000
  H   H1152     1.0  0.51094  0.06790  0.94164  1.0000
  H   H1153     1.0  0.78799  0.19071  0.99549  1.0000
  C   C1437     1.0  0.73366  0.00577  0.83481  1.0000
  H   H1154     1.0  0.85551  0.03895  0.87975  1.0000
  C   C1438     1.0  0.81388  0.02095  0.86882  1.0000
  C   C1439     1.0  0.49735  0.08320  0.93659  1.0000
  C   C1440     1.0  0.49758  0.48382  0.71927  1.0000
  S   S190      1.0  0.53142  0.98528  0.82095  1.0000
  H   H1155     1.0  0.82846  0.00487  0.86995  1.0000
  H   H1156     1.0  0.73432  0.94969  0.31328  1.0000
  C   C1441     1.0  0.55292  0.51727  0.09519  1.0000
  C   C1442     1.0  0.71560  0.96160  0.31948  1.0000
  H   H1157     1.0  0.51797  0.50221  0.04367  1.0000
  H   H1158     1.0  0.53427  0.52933  0.10133  1.0000
  H   H1159     1.0  0.53359  0.96106  0.11870  1.0000
  H   H1160     1.0  0.67324  0.95117  0.30352  1.0000
  C   C1443     1.0  0.52500  0.89597  0.00845  1.0000
  H   H1161     1.0  0.84273  0.97932  0.28246  1.0000
  H   H1162     1.0  0.59607  0.93478  0.30126  1.0000
  H   H1163     1.0  0.62883  0.48929  0.01333  1.0000
  H   H1164     1.0  0.95898  0.49432  0.26988  1.0000
  H   H1165     1.0  0.59699  0.53175  0.10711  1.0000
  H   H1166     1.0  0.51322  0.91889  0.03044  1.0000
  C   C1444     1.0  0.71049  0.49143  0.24587  1.0000
  H   H1167     1.0  0.52862  0.95241  0.01315  1.0000
  H   H1168     1.0  0.51666  0.88140  0.01578  1.0000
  C   C1445     1.0  0.65692  0.97867  0.32134  1.0000
  C   C1446     1.0  0.70663  0.49919  0.22794  1.0000
  C   C1447     1.0  0.50723  0.98224  0.06952  1.0000
  H   H1169     1.0  0.51398  0.49928  0.08212  1.0000
  H   H1170     1.0  0.99462  0.49529  0.32725  1.0000
  C   C1448     1.0  0.58823  0.51859  0.09848  1.0000
  H   H1171     1.0  0.52426  0.97924  0.08107  1.0000
  S   S191      1.0  0.92881  0.48597  0.30479  1.0000
  C   C1449     1.0  0.54152  0.50030  0.08407  1.0000
  C   C1450     1.0  0.59645  0.97940  0.25195  1.0000
  H   H1172     1.0  0.72223  0.49418  0.20003  1.0000
  C   C1451     1.0  0.68105  0.96266  0.31386  1.0000
  H   H1173     1.0  0.59489  0.49348  0.04168  1.0000
  C   C1452     1.0  0.52305  0.91711  0.01666  1.0000
  C   C1453     1.0  0.53235  0.93606  0.00687  1.0000
  H   H1174     1.0  0.59227  0.96117  0.01064  1.0000
  C   C1454     1.0  0.56878  0.97618  0.26368  1.0000
  C   C1455     1.0  0.60693  0.97822  0.28980  1.0000
  H   H1175     1.0  0.68879  0.51353  0.22489  1.0000
  H   H1176     1.0  0.55027  0.49663  0.13096  1.0000
  H   H1177     1.0  0.54312  0.97488  0.25808  1.0000
  H   H1178     1.0  0.69546  0.49950  0.25677  1.0000
  H   H1179     1.0  0.58835  0.97944  0.11308  1.0000
  H   H1180     1.0  0.63952  0.50371  0.09346  1.0000
  S   S192      1.0  0.93501  0.97815  0.31574  1.0000
  H   H1181     1.0  0.96631  0.96939  0.28068  1.0000
  C   C1456     1.0  0.57392  0.97567  0.28253  1.0000
  C   C1457     1.0  0.58965  0.93604  0.31559  1.0000
  C   C1458     1.0  0.61217  0.50282  0.09076  1.0000
  C   C1459     1.0  0.53449  0.97911  0.12025  1.0000
  C   C1460     1.0  0.58270  0.97803  0.00669  1.0000
  H   H1182     1.0  0.55195  0.97392  0.29142  1.0000
  C   C1461     1.0  0.49851  0.49025  0.04595  1.0000
  C   C1462     1.0  0.97968  0.98280  0.28678  1.0000
  H   H1183     1.0  0.84975  0.49194  0.27583  1.0000
  C   C1463     1.0  0.62931  0.98204  0.25908  1.0000
  C   C1464     1.0  0.63455  0.98152  0.27792  1.0000
  H   H1184     1.0  0.83552  0.93495  0.31864  1.0000
  C   C1465     1.0  0.72545  0.48826  0.21396  1.0000
  H   H1185     1.0  0.59211  0.98050  0.23737  1.0000
  P   P48       1.0  0.61222  0.97965  0.31419  1.0000
  H   H1186     1.0  0.57289  0.90224  0.31697  1.0000
  C   C1466     1.0  0.57679  0.91746  0.32449  1.0000
  C   C1467     1.0  0.59416  0.95593  0.32520  1.0000
  C   C1468     1.0  0.60087  0.48592  0.07953  1.0000
  H   H1187     1.0  0.65987  0.98465  0.28306  1.0000
  H   H1188     1.0  0.49913  0.98091  0.20326  1.0000
  C   C1469     1.0  0.91471  0.93827  0.58680  1.0000
  S   S193      1.0  0.89824  0.50964  0.39590  1.0000
  C   C1470     1.0  0.98177  0.58081  0.55556  1.0000
  C   C1471     1.0  0.81972  0.93007  0.65129  1.0000
  H   H1189     1.0  0.85760  0.87801  0.64223  1.0000
  Fe  Fe97      1.0  0.93159  0.60004  0.51444  1.0000
  S   S194      1.0  0.88866  0.57691  0.51614  1.0000
  H   H1190     1.0  0.78623  0.54652  0.66190  1.0000
  Fe  Fe98      1.0  0.88225  0.64084  0.50350  1.0000
  S   S195      1.0  0.83635  0.61905  0.50375  1.0000
  S   S196      1.0  0.86844  0.67841  0.49627  1.0000
  Fe  Fe99      1.0  0.85837  0.60535  0.53025  1.0000
  S   S197      1.0  0.83472  0.59961  0.55837  1.0000
  Fe  Fe100     1.0  0.87070  0.59214  0.48934  1.0000
  S   S198      1.0  0.85138  0.56817  0.46703  1.0000
  S   S199      1.0  0.90318  0.62759  0.53044  1.0000
  S   S200      1.0  0.91471  0.61495  0.48720  1.0000
  C   C1472     1.0  0.89748  0.95357  0.52838  1.0000
  S   S201      1.0  0.65587  0.58851  0.64260  1.0000
  H   H1191     1.0  0.76482  0.93754  0.65428  1.0000
  S   S202      1.0  0.63789  0.64273  0.63884  1.0000
  C   C1473     1.0  0.98687  0.93112  0.41076  1.0000
  C   C1474     1.0  0.99099  0.94851  0.39821  1.0000
  H   H1192     1.0  0.65479  0.94604  0.36228  1.0000
  Fe  Fe101     1.0  0.67677  0.61723  0.62644  1.0000
  S   S203      1.0  0.68668  0.61807  0.59573  1.0000
  S   S204      1.0  0.71912  0.62356  0.64620  1.0000
  C   C1475     1.0  0.98117  0.88195  0.60117  1.0000
  H   H1193     1.0  0.75001  0.89833  0.64824  1.0000
  C   C1476     1.0  0.68092  0.70512  0.65767  1.0000
  S   S205      1.0  0.65977  0.83372  0.62010  1.0000
  C   C1477     1.0  0.87923  0.52145  0.51545  1.0000
  Fe  Fe102     1.0  0.71482  0.83932  0.62744  1.0000
  S   S206      1.0  0.76095  0.84774  0.60998  1.0000
  Fe  Fe103     1.0  0.64517  0.84907  0.64739  1.0000
  C   C1478     1.0  0.82937  0.53286  0.53376  1.0000
  C   C1479     1.0  0.69001  0.73382  0.57287  1.0000
  C   C1480     1.0  0.77676  0.90260  0.64811  1.0000
  C   C1481     1.0  0.89164  0.82793  0.65632  1.0000
  S   S207      1.0  0.86686  0.96368  0.40627  1.0000
  C   C1482     1.0  0.76609  0.95293  0.40757  1.0000
  C   C1483     1.0  0.77806  0.72908  0.65605  1.0000
  P   P49       1.0  0.89084  0.92043  0.64683  1.0000
  C   C1484     1.0  0.56895  0.91850  0.34306  1.0000
  C   C1485     1.0  0.96044  0.63754  0.40629  1.0000
  Fe  Fe104     1.0  0.91265  0.86266  0.52028  1.0000
  S   S208      1.0  0.86754  0.87835  0.50430  1.0000
  S   S209      1.0  0.93563  0.88978  0.53748  1.0000
  Fe  Fe105     1.0  0.90026  0.81470  0.50599  1.0000
  S   S210      1.0  0.85528  0.82800  0.48863  1.0000
  S   S211      1.0  0.91958  0.77756  0.51171  1.0000
  Fe  Fe106     1.0  0.88757  0.85729  0.48092  1.0000
  S   S212      1.0  0.89692  0.87140  0.45187  1.0000
  Fe  Fe107     1.0  0.83935  0.84839  0.51346  1.0000
  S   S213      1.0  0.78407  0.85206  0.52423  1.0000
  S   S214      1.0  0.93418  0.84245  0.49660  1.0000
  S   S215      1.0  0.88282  0.83422  0.53096  1.0000
  H   H1194     1.0  0.85106  0.91199  0.38331  1.0000
  C   C1486     1.0  0.97601  0.89193  0.54842  1.0000
  C   C1487     1.0  0.97398  0.50980  0.55558  1.0000
  H   H1195     1.0  0.73497  0.75890  0.53020  1.0000
  C   C1488     1.0  0.76199  0.76196  0.53193  1.0000
  H   H1196     1.0  0.75811  0.97535  0.43029  1.0000
  C   C1489     1.0  0.98260  0.91251  0.55653  1.0000
  C   C1490     1.0  0.91406  0.98283  0.44852  1.0000
  C   C1491     1.0  0.72154  0.73358  0.56356  1.0000
  H   H1197     1.0  0.64333  0.71689  0.57731  1.0000
  H   H1198     1.0  0.96372  0.92656  0.55538  1.0000
  C   C1492     1.0  0.77778  0.78190  0.57812  1.0000
  C   C1493     1.0  0.87815  0.93857  0.41926  1.0000
  C   C1494     1.0  0.89930  0.92060  0.41240  1.0000
  C   C1495     1.0  0.90524  0.90048  0.42271  1.0000
  C   C1496     1.0  0.89066  0.89801  0.44017  1.0000
  C   C1497     1.0  0.87022  0.91622  0.44723  1.0000
  C   C1498     1.0  0.86389  0.93621  0.43681  1.0000
  H   H1199     1.0  0.91054  0.92201  0.39899  1.0000
  H   H1200     1.0  0.92099  0.88656  0.41701  1.0000
  H   H1201     1.0  0.85857  0.91469  0.46054  1.0000
  H   H1202     1.0  0.84732  0.94985  0.44231  1.0000
  C   C1499     1.0  0.76405  0.84576  0.58589  1.0000
  C   C1500     1.0  0.73817  0.85524  0.57434  1.0000
  C   C1501     1.0  0.74412  0.85660  0.55538  1.0000
  C   C1502     1.0  0.77601  0.84867  0.54786  1.0000
  C   C1503     1.0  0.80105  0.83828  0.55932  1.0000
  C   C1504     1.0  0.79508  0.83680  0.57811  1.0000
  H   H1203     1.0  0.71417  0.86233  0.58007  1.0000
  H   H1204     1.0  0.72436  0.86447  0.54659  1.0000
  H   H1205     1.0  0.82533  0.83160  0.55381  1.0000
  H   H1206     1.0  0.81511  0.82894  0.58653  1.0000
  C   C1505     1.0  0.87142  0.92283  0.33935  1.0000
  H   H1207     1.0  0.98924  0.49347  0.38348  1.0000
  C   C1506     1.0  0.85699  0.82338  0.65837  1.0000
  H   H1208     1.0  0.75801  0.89565  0.34743  1.0000
  H   H1209     1.0  0.97449  0.51970  0.63411  1.0000
  C   C1507     1.0  0.97132  0.87236  0.65432  1.0000
  H   H1210     1.0  0.98406  0.95336  0.52155  1.0000
  H   H1211     1.0  0.90099  0.86115  0.56464  1.0000
  H   H1212     1.0  0.73378  0.80537  0.57366  1.0000
  C   C1508     1.0  0.70785  0.93656  0.36897  1.0000
  C   C1509     1.0  0.88291  0.70580  0.50110  1.0000
  C   C1510     1.0  0.91242  0.70897  0.51151  1.0000
  C   C1511     1.0  0.92297  0.73096  0.51464  1.0000
  C   C1512     1.0  0.90422  0.75021  0.50754  1.0000
  C   C1513     1.0  0.87427  0.74706  0.49747  1.0000
  C   C1514     1.0  0.86382  0.72506  0.49427  1.0000
  H   H1213     1.0  0.92745  0.69447  0.51694  1.0000
  H   H1214     1.0  0.94615  0.73304  0.52246  1.0000
  H   H1215     1.0  0.85933  0.76156  0.49198  1.0000
  H   H1216     1.0  0.84084  0.72297  0.48630  1.0000
  C   C1515     1.0  0.79371  0.60681  0.56837  1.0000
  C   C1516     1.0  0.76450  0.61369  0.55806  1.0000
  C   C1517     1.0  0.73200  0.61741  0.56664  1.0000
  C   C1518     1.0  0.72842  0.61454  0.58559  1.0000
  C   C1519     1.0  0.75791  0.60850  0.59594  1.0000
  C   C1520     1.0  0.79026  0.60451  0.58736  1.0000
  H   H1217     1.0  0.76675  0.61554  0.54345  1.0000
  H   H1218     1.0  0.70938  0.62218  0.55851  1.0000
  H   H1219     1.0  0.75566  0.60635  0.61052  1.0000
  H   H1220     1.0  0.81269  0.59932  0.59549  1.0000
  C   C1521     1.0  0.86503  0.55201  0.44724  1.0000
  C   C1522     1.0  0.89926  0.55042  0.44097  1.0000
  C   C1523     1.0  0.90869  0.53759  0.42534  1.0000
  C   C1524     1.0  0.88423  0.52598  0.41552  1.0000
  C   C1525     1.0  0.85003  0.52738  0.42187  1.0000
  C   C1526     1.0  0.84059  0.54028  0.43751  1.0000
  H   H1221     1.0  0.91860  0.55885  0.44830  1.0000
  H   H1222     1.0  0.93532  0.53647  0.42088  1.0000
  H   H1223     1.0  0.83072  0.51859  0.41469  1.0000
  H   H1224     1.0  0.81400  0.54121  0.44208  1.0000
  S   S216      1.0  0.85766  0.97944  0.35127  1.0000
  C   C1527     1.0  0.79208  0.76658  0.64682  1.0000
  C   C1528     1.0  0.96099  0.51506  0.46903  1.0000
  C   C1529     1.0  0.99366  0.57350  0.57285  1.0000
  H   H1225     1.0  0.87459  0.76471  0.58095  1.0000
  C   C1530     1.0  0.70761  0.69975  0.54784  1.0000
  C   C1531     1.0  0.88503  0.79798  0.58997  1.0000
  H   H1226     1.0  0.87416  0.61550  0.39990  1.0000
  H   H1227     1.0  0.78487  0.93580  0.33897  1.0000
  C   C1532     1.0  0.82560  0.89257  0.57022  1.0000
  C   C1533     1.0  0.88219  0.65914  0.45120  1.0000
  C   C1534     1.0  0.85478  0.64643  0.45640  1.0000
  C   C1535     1.0  0.85322  0.62446  0.45007  1.0000
  C   C1536     1.0  0.87913  0.61516  0.43860  1.0000
  C   C1537     1.0  0.90656  0.62794  0.43307  1.0000
  C   C1538     1.0  0.90805  0.64996  0.43965  1.0000
  P   P50       1.0  0.94086  0.61547  0.41888  1.0000
  C   C1539     1.0  0.65677  0.72335  0.63036  1.0000
  C   C1540     1.0  0.92332  0.59620  0.40298  1.0000
  C   C1541     1.0  0.88977  0.60055  0.39599  1.0000
  C   C1542     1.0  0.87581  0.58536  0.38407  1.0000
  C   C1543     1.0  0.89541  0.56595  0.37880  1.0000
  C   C1544     1.0  0.92911  0.56184  0.38529  1.0000
  C   C1545     1.0  0.94306  0.57685  0.39736  1.0000
  C   C1546     1.0  0.83543  0.82381  0.64317  1.0000
  C   C1547     1.0  0.81369  0.92309  0.36263  1.0000
  H   H1228     1.0  0.76530  0.71800  0.47201  1.0000
  H   H1229     1.0  0.87612  0.94314  0.52584  1.0000
  C   C1548     1.0  0.87119  0.86239  0.58964  1.0000
  H   H1230     1.0  0.81593  0.80438  0.52668  1.0000
  C   C1549     1.0  0.73740  0.92261  0.36474  1.0000
  C   C1550     1.0  0.98532  0.65012  0.41467  1.0000
  H   H1231     1.0  0.92053  0.97751  0.43480  1.0000
  H   H1232     1.0  0.88375  0.67599  0.45655  1.0000
  H   H1233     1.0  0.83529  0.65344  0.46573  1.0000
  H   H1234     1.0  0.83236  0.61440  0.45442  1.0000
  H   H1235     1.0  0.87788  0.59787  0.43431  1.0000
  C   C1551     1.0  0.58697  0.95667  0.34393  1.0000
  C   C1552     1.0  0.92726  0.81672  0.57205  1.0000
  H   H1236     1.0  0.89381  0.92322  0.33051  1.0000
  H   H1237     1.0  0.88428  0.55378  0.37002  1.0000
  H   H1238     1.0  0.94375  0.54644  0.38148  1.0000
  C   C1553     1.0  0.97063  0.83653  0.60715  1.0000
  C   C1554     1.0  0.91384  0.53720  0.58247  1.0000
  H   H1239     1.0  0.65911  0.68646  0.55529  1.0000
  C   C1555     1.0  0.77270  0.78356  0.52839  1.0000
  C   C1556     1.0  0.81922  0.88773  0.58850  1.0000
  H   H1240     1.0  0.98065  0.92197  0.43868  1.0000
  C   C1557     1.0  0.88315  0.51927  0.54849  1.0000
  H   H1241     1.0  0.59119  0.97168  0.35167  1.0000
  C   C1558     1.0  0.56836  0.77513  0.62986  1.0000
  H   H1242     1.0  0.96798  0.52673  0.55037  1.0000
  H   H1243     1.0  0.93131  0.83741  0.63811  1.0000
  H   H1244     1.0  0.68822  0.76197  0.65863  1.0000
  S   S217      1.0  0.98518  0.58241  0.51795  1.0000
  C   C1559     1.0  0.84853  0.82874  0.62598  1.0000
  C   C1560     1.0  0.91444  0.96214  0.65757  1.0000
  S   S218      1.0  0.60108  0.87554  0.65283  1.0000
  H   H1245     1.0  0.96700  0.81880  0.60919  1.0000
  H   H1246     1.0  0.92338  0.54290  0.64535  1.0000
  C   C1561     1.0  0.84691  0.91657  0.36919  1.0000
  H   H1247     1.0  0.94825  0.79829  0.54892  1.0000
  C   C1562     1.0  0.88312  0.83396  0.62372  1.0000
  C   C1563     1.0  0.73569  0.90687  0.35067  1.0000
  C   C1564     1.0  0.85541  0.88314  0.56183  1.0000
  H   H1248     1.0  0.58030  0.72563  0.65292  1.0000
  H   H1249     1.0  0.86055  0.88693  0.54766  1.0000
  H   H1250     1.0  0.92569  0.58908  0.61328  1.0000
  S   S219      1.0  0.85971  0.48938  0.34543  1.0000
  C   C1565     1.0  0.78100  0.90087  0.39406  1.0000
  C   C1566     1.0  0.76151  0.88193  0.39214  1.0000
  C   C1567     1.0  0.76522  0.86403  0.40464  1.0000
  C   C1568     1.0  0.78832  0.86488  0.41915  1.0000
  C   C1569     1.0  0.80763  0.88363  0.42123  1.0000
  C   C1570     1.0  0.80406  0.90154  0.40877  1.0000
  H   H1251     1.0  0.74341  0.88078  0.38109  1.0000
  H   H1252     1.0  0.75022  0.84945  0.40308  1.0000
  H   H1253     1.0  0.79137  0.85102  0.42884  1.0000
  H   H1254     1.0  0.82548  0.88419  0.43254  1.0000
  H   H1255     1.0  0.95670  0.52138  0.59794  1.0000
  C   C1571     1.0  0.85705  0.67460  0.55236  1.0000
  C   C1572     1.0  0.84563  0.66184  0.56695  1.0000
  C   C1573     1.0  0.81250  0.66649  0.57403  1.0000
  C   C1574     1.0  0.79081  0.68397  0.56663  1.0000
  C   C1575     1.0  0.80197  0.69669  0.55175  1.0000
  C   C1576     1.0  0.83507  0.69153  0.54454  1.0000
  P   P51       1.0  0.77205  0.71590  0.53946  1.0000
  C   C1577     1.0  0.76872  0.70362  0.51709  1.0000
  C   C1578     1.0  0.76675  0.71722  0.50133  1.0000
  C   C1579     1.0  0.76616  0.70742  0.48409  1.0000
  C   C1580     1.0  0.76759  0.68401  0.48242  1.0000
  C   C1581     1.0  0.76946  0.67035  0.49798  1.0000
  C   C1582     1.0  0.77012  0.68006  0.51524  1.0000
  C   C1583     1.0  0.78612  0.74431  0.53708  1.0000
  C   C1584     1.0  0.82105  0.74891  0.53896  1.0000
  C   C1585     1.0  0.83164  0.77051  0.53524  1.0000
  H   H1256     1.0  0.76646  0.73534  0.50216  1.0000
  H   H1257     1.0  0.88238  0.67075  0.54650  1.0000
  H   H1258     1.0  0.86196  0.64782  0.57232  1.0000
  H   H1259     1.0  0.80318  0.65597  0.58484  1.0000
  H   H1260     1.0  0.76502  0.68678  0.57215  1.0000
  H   H1261     1.0  0.84336  0.69983  0.53227  1.0000
  H   H1262     1.0  0.92007  0.94224  0.57272  1.0000
  H   H1263     1.0  0.88164  0.59136  0.58876  1.0000
  H   H1264     1.0  0.76774  0.67644  0.46905  1.0000
  H   H1265     1.0  0.77116  0.65219  0.49669  1.0000
  H   H1266     1.0  0.77239  0.66907  0.52708  1.0000
  H   H1267     1.0  0.84050  0.73597  0.54285  1.0000
  H   H1268     1.0  0.85872  0.77385  0.53610  1.0000
  C   C1586     1.0  0.94347  0.55492  0.60717  1.0000
  C   C1587     1.0  0.97510  0.52367  0.50020  1.0000
  C   C1588     1.0  0.78514  0.92465  0.65150  1.0000
  C   C1589     1.0  0.87471  0.92674  0.60985  1.0000
  H   H1269     1.0  0.64416  0.72219  0.61730  1.0000
  H   H1270     1.0  0.86652  0.97909  0.54271  1.0000
  H   H1271     1.0  0.95788  0.89750  0.63436  1.0000
  H   H1272     1.0  0.93400  0.92821  0.46240  1.0000
  H   H1273     1.0  0.75413  0.79712  0.52430  1.0000
  C   C1590     1.0  0.83852  0.92945  0.33268  1.0000
  C   C1591     1.0  0.73043  0.71674  0.55077  1.0000
  C   C1592     1.0  0.91201  0.77939  0.56380  1.0000
  C   C1593     1.0  0.88917  0.77928  0.57852  1.0000
  H   H1274     1.0  0.85678  0.75157  0.63482  1.0000
  C   C1594     1.0  0.90463  0.83343  0.63915  1.0000
  C   C1595     1.0  0.93102  0.79809  0.56058  1.0000
  C   C1596     1.0  0.95386  0.48829  0.64135  1.0000
  S   S220      1.0  0.65413  0.76877  0.62378  1.0000
  H   H1275     1.0  0.83582  0.86911  0.61210  1.0000
  C   C1597     1.0  0.95672  0.52901  0.48421  1.0000
  C   C1598     1.0  0.89218  0.97374  0.53791  1.0000
  H   H1276     1.0  0.56667  0.78156  0.61602  1.0000
  C   C1599     1.0  0.68144  0.74580  0.65366  1.0000
  C   C1600     1.0  0.94769  0.87457  0.60038  1.0000
  P   P52       1.0  0.89951  0.84147  0.60137  1.0000
  H   H1277     1.0  0.79575  0.89462  0.59498  1.0000
  C   C1601     1.0  0.57273  0.75194  0.63309  1.0000
  H   H1278     1.0  0.69339  0.94327  0.63717  1.0000
  H   H1279     1.0  0.83120  0.82896  0.61455  1.0000
  C   C1602     1.0  0.87817  0.86824  0.57150  1.0000
  H   H1280     1.0  0.92642  0.88667  0.59721  1.0000
  C   C1603     1.0  0.66487  0.70373  0.64071  1.0000
  C   C1604     1.0  0.89829  0.49072  0.65654  1.0000
  H   H1281     1.0  0.68323  0.74694  0.58269  1.0000
  H   H1282     1.0  0.95360  0.93504  0.62821  1.0000
  C   C1605     1.0  0.95854  0.95951  0.52591  1.0000
  H   H1283     1.0  0.94649  0.51930  0.45676  1.0000
  C   C1606     1.0  0.57419  0.93806  0.35280  1.0000
  H   H1284     1.0  0.56827  0.93881  0.36722  1.0000
  C   C1607     1.0  0.90410  0.81693  0.58684  1.0000
  C   C1608     1.0  0.95344  0.97983  0.53537  1.0000
  H   H1285     1.0  0.77367  0.71173  0.65304  1.0000
  H   H1286     1.0  0.79627  0.86888  0.64192  1.0000
  C   C1609     1.0  0.89347  0.55736  0.57977  1.0000
  C   C1610     1.0  0.80757  0.78775  0.52981  1.0000
  C   C1611     1.0  0.66491  0.74442  0.63686  1.0000
  C   C1612     1.0  0.96565  0.65998  0.37871  1.0000
  H   H1287     1.0  0.79203  0.78809  0.56667  1.0000
  H   H1288     1.0  0.65874  0.68759  0.63552  1.0000
  H   H1289     1.0  0.98279  0.57655  0.47524  1.0000
  S   S221      1.0  0.72421  0.80619  0.64198  1.0000
  C   C1613     1.0  0.88193  0.93202  0.59172  1.0000
  H   H1290     1.0  0.89686  0.50521  0.60884  1.0000
  H   H1291     1.0  0.86216  0.93106  0.58139  1.0000
  C   C1614     1.0  0.89743  0.57586  0.59101  1.0000
  H   H1292     1.0  0.67180  0.90551  0.64283  1.0000
  H   H1293     1.0  0.80830  0.82071  0.64467  1.0000
  C   C1615     1.0  0.84625  0.91330  0.64810  1.0000
  C   C1616     1.0  0.94043  0.93918  0.60002  1.0000
  C   C1617     1.0  0.77509  0.95096  0.38907  1.0000
  H   H1294     1.0  0.80721  0.90329  0.56246  1.0000
  H   H1295     1.0  0.93465  0.93070  0.51528  1.0000
  H   H1296     1.0  0.92488  0.50952  0.52983  1.0000
  C   C1618     1.0  0.80295  0.88594  0.64460  1.0000
  H   H1297     1.0  0.84908  0.92182  0.61313  1.0000
  C   C1619     1.0  0.88090  0.49381  0.58236  1.0000
  H   H1298     1.0  0.92920  0.66010  0.43616  1.0000
  H   H1299     1.0  0.80293  0.53995  0.53476  1.0000
  H   H1300     1.0  0.73900  0.74646  0.56647  1.0000
  C   C1620     1.0  0.74502  0.79178  0.58213  1.0000
  C   C1621     1.0  0.72700  0.78438  0.59724  1.0000
  C   C1622     1.0  0.74175  0.76715  0.60839  1.0000
  C   C1623     1.0  0.77439  0.75687  0.60430  1.0000
  C   C1624     1.0  0.79219  0.76425  0.58892  1.0000
  P   P53       1.0  0.79317  0.73482  0.61902  1.0000
  C   C1625     1.0  0.78770  0.74404  0.64233  1.0000
  C   C1626     1.0  0.77239  0.70880  0.61589  1.0000
  C   C1627     1.0  0.73832  0.70893  0.60943  1.0000
  C   C1628     1.0  0.72232  0.68874  0.60740  1.0000
  C   C1629     1.0  0.73986  0.66833  0.61219  1.0000
  C   C1630     1.0  0.77355  0.66801  0.61895  1.0000
  C   C1631     1.0  0.78986  0.68815  0.62073  1.0000
  H   H1301     1.0  0.98173  0.88606  0.50419  1.0000
  H   H1302     1.0  0.57443  0.74045  0.62172  1.0000
  C   C1632     1.0  0.94896  0.49838  0.56511  1.0000
  H   H1303     1.0  0.96474  0.97468  0.57302  1.0000
  H   H1304     1.0  0.92544  0.49044  0.43007  1.0000
  C   C1633     1.0  0.83856  0.73033  0.61350  1.0000
  C   C1634     1.0  0.84869  0.71699  0.59847  1.0000
  C   C1635     1.0  0.88346  0.71427  0.59338  1.0000
  C   C1636     1.0  0.90843  0.72491  0.60323  1.0000
  C   C1637     1.0  0.89859  0.73829  0.61816  1.0000
  C   C1638     1.0  0.86379  0.74103  0.62329  1.0000
  H   H1305     1.0  0.70176  0.79226  0.60050  1.0000
  H   H1306     1.0  0.72776  0.76190  0.62029  1.0000
  H   H1307     1.0  0.81717  0.75664  0.58521  1.0000
  H   H1308     1.0  0.72364  0.72452  0.60631  1.0000
  H   H1309     1.0  0.69591  0.68892  0.60255  1.0000
  H   H1310     1.0  0.72707  0.65279  0.61094  1.0000
  H   H1311     1.0  0.78681  0.65211  0.62292  1.0000
  H   H1312     1.0  0.81582  0.68762  0.62621  1.0000
  H   H1313     1.0  0.83583  0.52991  0.56268  1.0000
  P   P54       1.0  0.90683  0.51231  0.56930  1.0000
  C   C1639     1.0  0.93057  0.94656  0.52234  1.0000
  C   C1640     1.0  0.95476  0.92499  0.47214  1.0000
  H   H1314     1.0  0.79888  0.77852  0.63641  1.0000
  H   H1315     1.0  0.82960  0.70898  0.59052  1.0000
  H   H1316     1.0  0.89100  0.70397  0.58174  1.0000
  H   H1317     1.0  0.93539  0.72283  0.59924  1.0000
  C   C1641     1.0  0.88079  0.49424  0.60148  1.0000
  C   C1642     1.0  0.98969  0.48702  0.41235  1.0000
  C   C1643     1.0  0.84207  0.87291  0.59821  1.0000
  C   C1644     1.0  0.89836  0.51602  0.53124  1.0000
  C   C1645     1.0  0.72610  0.97613  0.33293  1.0000
  C   C1646     1.0  0.70508  0.90539  0.34080  1.0000
  C   C1647     1.0  0.95265  0.51172  0.63993  1.0000
  H   H1318     1.0  0.99287  0.64673  0.42869  1.0000
  H   H1319     1.0  0.51288  0.60728  0.63796  1.0000
  C   C1648     1.0  0.83133  0.54104  0.64471  1.0000
  C   C1649     1.0  0.84395  0.54289  0.62685  1.0000
  C   C1650     1.0  0.82164  0.55019  0.61269  1.0000
  C   C1651     1.0  0.78678  0.55596  0.61628  1.0000
  C   C1652     1.0  0.77425  0.55471  0.63406  1.0000
  C   C1653     1.0  0.79639  0.54727  0.64819  1.0000
  H   H1320     1.0  0.71407  0.68621  0.53846  1.0000
  H   H1321     1.0  0.65223  0.91834  0.33736  1.0000
  H   H1322     1.0  0.91359  0.48594  0.48977  1.0000
  C   C1654     1.0  0.92213  0.57456  0.60485  1.0000
  H   H1323     1.0  0.98126  0.58060  0.58483  1.0000
  Fe  Fe108     1.0  0.87851  0.98347  0.37985  1.0000
  H   H1324     1.0  0.87090  0.53894  0.62377  1.0000
  H   H1325     1.0  0.83132  0.55168  0.59892  1.0000
  H   H1326     1.0  0.76954  0.56170  0.60533  1.0000
  H   H1327     1.0  0.74737  0.55969  0.63699  1.0000
  H   H1328     1.0  0.93922  0.54404  0.48359  1.0000
  H   H1329     1.0  0.94234  0.83103  0.56918  1.0000
  C   C1655     1.0  0.67350  0.91728  0.65394  1.0000
  C   C1656     1.0  0.94218  0.85176  0.60338  1.0000
  H   H1330     1.0  0.87458  0.55914  0.56901  1.0000
  H   H1331     1.0  0.76061  0.93830  0.41563  1.0000
  C   C1657     1.0  0.66749  0.71688  0.56985  1.0000
  H   H1332     1.0  0.91482  0.76512  0.55468  1.0000
  P   P55       1.0  0.77673  0.92402  0.37781  1.0000
  H   H1333     1.0  0.81923  0.91595  0.41068  1.0000
  C   C1658     1.0  0.80982  0.92981  0.34428  1.0000
  C   C1659     1.0  0.93755  0.97905  0.46295  1.0000
  C   C1660     1.0  0.76411  0.97402  0.41592  1.0000
  Fe  Fe109     1.0  0.66865  0.80145  0.63614  1.0000
  C   C1661     1.0  0.93948  0.53632  0.59603  1.0000
  H   H1334     1.0  0.83054  0.53487  0.50444  1.0000
  C   C1662     1.0  0.67636  0.69980  0.55741  1.0000
  H   H1335     1.0  0.93810  0.59451  0.45507  1.0000
  H   H1336     1.0  0.84957  0.58840  0.37913  1.0000
  H   H1337     1.0  0.94522  0.98248  0.49192  1.0000
  C   C1663     1.0  0.57636  0.74361  0.65090  1.0000
  H   H1338     1.0  0.56807  0.56825  0.65921  1.0000
  H   H1339     1.0  0.80188  0.50169  0.65853  1.0000
  C   C1664     1.0  0.78060  0.97052  0.37895  1.0000
  C   C1665     1.0  0.68544  0.93858  0.65076  1.0000
  C   C1666     1.0  0.98985  0.97536  0.42285  1.0000
  H   H1340     1.0  0.93133  0.63343  0.38145  1.0000
  C   C1667     1.0  0.84483  0.52991  0.51670  1.0000
  C   C1668     1.0  0.98971  0.58209  0.46167  1.0000
  Fe  Fe110     1.0  0.62134  0.61468  0.65707  1.0000
  H   H1341     1.0  0.86690  0.79748  0.60110  1.0000
  C   C1669     1.0  0.96447  0.59260  0.45030  1.0000
  H   H1342     1.0  0.96620  0.94350  0.59621  1.0000
  C   C1670     1.0  0.90030  0.92773  0.62334  1.0000
  C   C1671     1.0  0.93323  0.93413  0.61821  1.0000
  C   C1672     1.0  0.98403  0.49584  0.46962  1.0000
  H   H1343     1.0  0.98524  0.91400  0.40608  1.0000
  H   H1344     1.0  0.91796  0.74660  0.62575  1.0000
  H   H1345     1.0  0.89127  0.52001  0.50218  1.0000
  C   C1673     1.0  0.56770  0.79006  0.64443  1.0000
  H   H1346     1.0  0.70824  0.94865  0.37989  1.0000
  C   C1674     1.0  0.84829  0.52739  0.54957  1.0000
  H   H1347     1.0  0.93520  0.89382  0.48138  1.0000
  H   H1348     1.0  0.56497  0.80806  0.64187  1.0000
  C   C1675     1.0  0.95530  0.90549  0.48291  1.0000
  C   C1676     1.0  0.98100  0.94002  0.47372  1.0000
  C   C1677     1.0  0.67592  0.91948  0.34500  1.0000
  S   S222      1.0  0.69988  0.85772  0.65332  1.0000
  H   H1349     1.0  0.95990  0.59302  0.55440  1.0000
  C   C1678     1.0  0.83761  0.89119  0.64478  1.0000
  C   C1679     1.0  0.87559  0.91645  0.35761  1.0000
  H   H1350     1.0  0.92534  0.96388  0.64419  1.0000
  H   H1351     1.0  0.55888  0.90411  0.34993  1.0000
  H   H1352     1.0  0.96886  0.57301  0.40253  1.0000
  P   P56       1.0  0.97962  0.96493  0.45933  1.0000
  C   C1680     1.0  0.89629  0.51429  0.65465  1.0000
  C   C1681     1.0  0.98527  0.95801  0.43554  1.0000
  H   H1353     1.0  0.90117  0.91178  0.36291  1.0000
  C   C1682     1.0  0.95064  0.64265  0.38823  1.0000
  H   H1354     1.0  0.78702  0.96956  0.36466  1.0000
  H   H1355     1.0  0.75302  0.97591  0.33690  1.0000
  C   C1683     1.0  0.97328  0.60069  0.43305  1.0000
  H   H1356     1.0  0.97215  0.53471  0.51188  1.0000
  C   C1684     1.0  0.92389  0.52472  0.64645  1.0000
  C   C1685     1.0  0.67733  0.93506  0.35905  1.0000
  H   H1357     1.0  0.96417  0.55445  0.61710  1.0000
  C   C1686     1.0  0.94952  0.88958  0.64663  1.0000
  H   H1358     1.0  0.95792  0.66389  0.36480  1.0000
  C   C1687     1.0  0.99270  0.97059  0.40427  1.0000
  C   C1688     1.0  0.91832  0.89674  0.65521  1.0000
  C   C1689     1.0  0.98408  0.93579  0.42936  1.0000
  H   H1359     1.0  0.98556  0.89946  0.59865  1.0000
  H   H1360     1.0  0.82570  0.94733  0.65361  1.0000
  C   C1690     1.0  0.98160  0.90106  0.49569  1.0000
  H   H1361     1.0  0.99257  0.94492  0.38378  1.0000
  Fe  Fe111     1.0  0.67926  0.64733  0.65942  1.0000
  C   C1691     1.0  0.99041  0.67238  0.38715  1.0000
  C   C1692     1.0  0.99514  0.49997  0.39678  1.0000
  H   H1362     1.0  0.99561  0.86733  0.64773  1.0000
  C   C1693     1.0  0.57113  0.78180  0.66226  1.0000
  H   H1363     1.0  0.70395  0.89322  0.32996  1.0000
  S   S223      1.0  0.56699  0.55785  0.89954  1.0000
  S   S224      1.0  0.59310  0.53435  0.85180  1.0000
  Fe  Fe112     1.0  0.90686  0.52360  0.74431  1.0000
  S   S225      1.0  0.92004  0.55942  0.74220  1.0000
  Fe  Fe113     1.0  0.86651  0.53197  0.78077  1.0000
  S   S226      1.0  0.87898  0.56859  0.78105  1.0000
  Fe  Fe114     1.0  0.58041  0.52809  0.88097  1.0000
  Fe  Fe115     1.0  0.86547  0.56786  0.75115  1.0000
  S   S227      1.0  0.83280  0.59599  0.73729  1.0000
  Fe  Fe116     1.0  0.93298  0.55679  0.77212  1.0000
  C   C1694     1.0  0.86231  0.59239  0.68797  1.0000
  S   S228      1.0  0.85079  0.53207  0.75134  1.0000
  S   S229      1.0  0.92196  0.52004  0.77384  1.0000
  S   S230      1.0  0.72586  0.56820  0.67758  1.0000
  C   C1695     1.0  0.79188  0.51582  0.81119  1.0000
  C   C1696     1.0  0.52034  0.55636  0.66986  1.0000
  C   C1697     1.0  0.65192  0.50948  0.77182  1.0000
  Fe  Fe117     1.0  0.86783  0.89424  0.73650  1.0000
  S   S231      1.0  0.85710  0.93140  0.73977  1.0000
  S   S232      1.0  0.85361  0.87919  0.70973  1.0000
  Fe  Fe118     1.0  0.91377  0.89047  0.77035  1.0000
  S   S233      1.0  0.90532  0.92764  0.77615  1.0000
  S   S234      1.0  0.95121  0.86346  0.78310  1.0000
  Fe  Fe119     1.0  0.84864  0.92325  0.76958  1.0000
  S   S235      1.0  0.61521  0.93846  0.88267  1.0000
  Fe  Fe120     1.0  0.91383  0.93226  0.74582  1.0000
  H   H1364     1.0  0.86857  0.92790  0.68456  1.0000
  S   S236      1.0  0.85682  0.88560  0.76565  1.0000
  S   S237      1.0  0.92469  0.89572  0.74073  1.0000
  H   H1365     1.0  0.73235  0.62295  0.74719  1.0000
  S   S238      1.0  0.69081  0.68095  0.67123  1.0000
  S   S239      1.0  0.58324  0.93248  0.84219  1.0000
  Fe  Fe121     1.0  0.56468  0.92914  0.87109  1.0000
  S   S240      1.0  0.68549  0.92899  0.84408  1.0000
  H   H1366     1.0  0.76492  0.72500  0.68433  1.0000
  C   C1698     1.0  0.53962  0.59394  0.67455  1.0000
  C   C1699     1.0  0.76266  0.59335  0.77099  1.0000
  H   H1367     1.0  0.81661  0.59728  0.77565  1.0000
  P   P57       1.0  0.69297  0.58760  0.76470  1.0000
  H   H1368     1.0  0.72168  0.92131  0.71329  1.0000
  C   C1700     1.0  0.97431  0.69945  0.84675  1.0000
  H   H1369     1.0  0.80900  0.60603  0.80839  1.0000
  H   H1370     1.0  0.69982  0.60063  0.80340  1.0000
  H   H1371     1.0  0.61784  0.92508  0.92263  1.0000
  C   C1701     1.0  0.76710  0.93732  0.79837  1.0000
  C   C1702     1.0  0.71589  0.93240  0.82596  1.0000
  C   C1703     1.0  0.74427  0.91649  0.82405  1.0000
  C   C1704     1.0  0.76950  0.91879  0.81030  1.0000
  H   H1372     1.0  0.74691  0.90229  0.83335  1.0000
  H   H1373     1.0  0.79115  0.90643  0.80917  1.0000
  H   H1374     1.0  0.61392  0.59279  0.69894  1.0000
  C   C1705     1.0  0.96413  0.93183  0.70088  1.0000
  H   H1375     1.0  0.68094  0.95729  0.96128  1.0000
  H   H1376     1.0  0.94639  0.92006  0.70609  1.0000
  S   S241      1.0  0.52282  0.52258  0.82223  1.0000
  C   C1706     1.0  0.76316  0.83571  0.69920  1.0000
  C   C1707     1.0  0.77409  0.83884  0.71718  1.0000
  C   C1708     1.0  0.80115  0.85279  0.72083  1.0000
  C   C1709     1.0  0.81793  0.86300  0.70641  1.0000
  C   C1710     1.0  0.80727  0.85956  0.68850  1.0000
  C   C1711     1.0  0.77963  0.84626  0.68488  1.0000
  H   H1377     1.0  0.76175  0.83041  0.72828  1.0000
  H   H1378     1.0  0.80962  0.85515  0.73467  1.0000
  H   H1379     1.0  0.82070  0.86715  0.67742  1.0000
  H   H1380     1.0  0.77159  0.84378  0.67098  1.0000
  C   C1712     1.0  0.68895  0.72622  0.66414  1.0000
  C   C1713     1.0  0.80273  0.58804  0.72091  1.0000
  C   C1714     1.0  0.80187  0.56567  0.71538  1.0000
  C   C1715     1.0  0.77805  0.55975  0.70217  1.0000
  C   C1716     1.0  0.75510  0.57620  0.69426  1.0000
  C   C1717     1.0  0.75595  0.59863  0.69969  1.0000
  C   C1718     1.0  0.77966  0.60451  0.71303  1.0000
  H   H1381     1.0  0.81997  0.55296  0.72097  1.0000
  H   H1382     1.0  0.77756  0.54240  0.69802  1.0000
  H   H1383     1.0  0.73835  0.61145  0.69363  1.0000
  H   H1384     1.0  0.78030  0.62188  0.71716  1.0000
  C   C1719     1.0  0.99122  0.70143  0.82995  1.0000
  H   H1385     1.0  0.61417  0.62889  0.72100  1.0000
  C   C1720     1.0  0.83589  0.51416  0.67897  1.0000
  C   C1721     1.0  0.53669  0.89372  0.99053  1.0000
  C   C1722     1.0  0.63164  0.73562  0.71264  1.0000
  C   C1723     1.0  0.50978  0.59898  0.68509  1.0000
  H   H1386     1.0  0.64908  0.56474  0.68091  1.0000
  H   H1387     1.0  0.65784  0.65493  0.71078  1.0000
  H   H1388     1.0  0.65204  0.49850  0.79993  1.0000
  C   C1724     1.0  0.54708  0.91248  0.98091  1.0000
  H   H1389     1.0  0.53736  0.95731  0.68541  1.0000
  H   H1390     1.0  0.83690  0.49738  0.72348  1.0000
  C   C1725     1.0  0.96213  0.86207  0.67064  1.0000
  C   C1726     1.0  0.74640  0.49951  0.82967  1.0000
  C   C1727     1.0  0.78005  0.49821  0.82202  1.0000
  C   C1728     1.0  0.99563  0.89000  0.80166  1.0000
  C   C1729     1.0  0.60864  0.59946  0.79775  1.0000
  C   C1730     1.0  0.93094  0.86887  0.67913  1.0000
  C   C1731     1.0  0.65705  0.58347  0.77984  1.0000
  C   C1732     1.0  0.53586  0.87118  0.74800  1.0000
  C   C1733     1.0  0.51142  0.56600  0.73951  1.0000
  H   H1391     1.0  0.65279  0.50508  0.93976  1.0000
  H   H1392     1.0  0.75033  0.60765  0.82211  1.0000
  C   C1734     1.0  0.59656  0.52467  0.75981  1.0000
  H   H1393     1.0  0.60302  0.52485  0.92391  1.0000
  S   S242      1.0  0.83523  0.51318  0.80226  1.0000
  H   H1394     1.0  0.52188  0.82867  0.68660  1.0000
  H   H1395     1.0  0.92397  0.69133  0.80187  1.0000
  C   C1735     1.0  0.60730  0.57916  0.80735  1.0000
  C   C1736     1.0  0.90913  0.88595  0.67136  1.0000
  C   C1737     1.0  0.63969  0.62775  0.72709  1.0000
  C   C1738     1.0  0.63211  0.51906  0.75745  1.0000
  H   H1396     1.0  0.49788  0.50293  0.69425  1.0000
  P   P58       1.0  0.51522  0.49116  0.96244  1.0000
  C   C1739     1.0  0.51456  0.77286  0.69435  1.0000
  C   C1740     1.0  0.65636  0.84216  0.71537  1.0000
  Fe  Fe122     1.0  0.63675  0.50769  0.85389  1.0000
  C   C1741     1.0  0.66425  0.64242  0.72131  1.0000
  H   H1397     1.0  0.63534  0.61792  0.77757  1.0000
  C   C1742     1.0  0.59585  0.54532  0.72247  1.0000
  C   C1743     1.0  0.54717  0.76639  0.70177  1.0000
  H   H1398     1.0  0.98788  0.70162  0.85942  1.0000
  P   P59       1.0  0.64730  0.91947  0.70807  1.0000
  H   H1399     1.0  0.69196  0.77931  0.69314  1.0000
  H   H1400     1.0  0.71888  0.55128  0.81376  1.0000
  C   C1744     1.0  0.98977  0.86868  0.79494  1.0000
  H   H1401     1.0  0.54019  0.60224  0.77967  1.0000
  C   C1745     1.0  0.99372  0.58805  0.81138  1.0000
  C   C1746     1.0  0.82840  0.95327  0.82860  1.0000
  H   H1402     1.0  0.69659  0.88815  0.72859  1.0000
  H   H1403     1.0  0.62847  0.94945  0.73904  1.0000
  H   H1404     1.0  0.67537  0.93622  0.93253  1.0000
  C   C1747     1.0  0.59868  0.51391  0.93546  1.0000
  C   C1748     1.0  0.50171  0.59840  0.75901  1.0000
  C   C1749     1.0  0.56447  0.87065  0.66658  1.0000
  C   C1750     1.0  0.63111  0.56122  0.80348  1.0000
  C   C1751     1.0  0.62668  0.95755  0.96780  1.0000
  C   C1752     1.0  0.49978  0.98200  0.93169  1.0000
  H   H1405     1.0  0.79966  0.96610  0.87821  1.0000
  C   C1753     1.0  0.49984  0.51247  0.80338  1.0000
  S   S243      1.0  0.56691  0.61591  0.66930  1.0000
  H   H1406     1.0  0.84456  0.93570  0.87208  1.0000
  C   C1754     1.0  0.52595  0.97818  0.94463  1.0000
  H   H1407     1.0  0.84496  0.60724  0.68988  1.0000
  C   C1755     1.0  0.61874  0.96212  0.80259  1.0000
  C   C1756     1.0  0.50797  0.50109  0.70796  1.0000
  C   C1757     1.0  0.58536  0.87395  0.83530  1.0000
  C   C1758     1.0  0.56496  0.51062  0.94112  1.0000
  H   H1408     1.0  0.75687  0.51346  0.75883  1.0000
  C   C1759     1.0  0.87377  0.55498  0.67540  1.0000
  C   C1760     1.0  0.54527  0.57233  0.66736  1.0000
  C   C1761     1.0  0.59399  0.95124  0.96230  1.0000
  C   C1762     1.0  0.80929  0.50126  0.67273  1.0000
  H   H1409     1.0  0.71195  0.75435  0.71871  1.0000
  C   C1763     1.0  0.61502  0.52944  0.71183  1.0000
  C   C1764     1.0  0.65632  0.94724  0.73816  1.0000
  H   H1410     1.0  0.77193  0.76510  0.69192  1.0000
  S   S244      1.0  0.64976  0.81630  0.66267  1.0000
  H   H1411     1.0  0.54485  0.65618  0.68911  1.0000
  H   H1412     1.0  0.58949  0.50839  0.80432  1.0000
  C   C1765     1.0  0.78670  0.77403  0.66470  1.0000
  H   H1413     1.0  0.53779  0.92343  0.91182  1.0000
  H   H1414     1.0  0.64485  0.52212  0.74467  1.0000
  C   C1766     1.0  0.63431  0.53645  0.69696  1.0000
  C   C1767     1.0  0.67747  0.87863  0.72202  1.0000
  H   H1415     1.0  0.67583  0.96018  0.69328  1.0000
  C   C1768     1.0  0.96463  0.50974  0.81610  1.0000
  P   P60       1.0  0.56983  0.53595  0.74117  1.0000
  C   C1769     1.0  0.63656  0.50555  0.78867  1.0000
  S   S245      1.0  0.98723  0.56886  0.77691  1.0000
  C   C1770     1.0  0.63422  0.55930  0.69247  1.0000
  H   H1416     1.0  0.50654  0.76592  0.68155  1.0000
  C   C1771     1.0  0.70869  0.93159  0.72369  1.0000
  C   C1772     1.0  0.61474  0.57515  0.70277  1.0000
  Fe  Fe123     1.0  0.70506  0.82398  0.66705  1.0000
  H   H1417     1.0  0.67343  0.72616  0.73111  1.0000
  H   H1418     1.0  0.94360  0.53212  0.83679  1.0000
  H   H1419     1.0  0.98533  0.50884  0.73909  1.0000
  C   C1773     1.0  0.56682  0.71903  0.68945  1.0000
  C   C1774     1.0  0.55723  0.77621  0.71811  1.0000
  C   C1775     1.0  0.51308  0.97423  0.80090  1.0000
  C   C1776     1.0  0.52757  0.84558  0.68272  1.0000
  C   C1777     1.0  0.55716  0.84895  0.67213  1.0000
  H   H1420     1.0  0.65366  0.89464  0.67345  1.0000
  C   C1778     1.0  0.58738  0.88560  0.77137  1.0000
  C   C1779     1.0  0.55233  0.89224  0.77432  1.0000
  P   P61       1.0  0.62014  0.89659  0.78587  1.0000
  C   C1780     1.0  0.61818  0.88580  0.80902  1.0000
  C   C1781     1.0  0.66356  0.88915  0.77779  1.0000
  C   C1782     1.0  0.67527  0.86636  0.77644  1.0000
  C   C1783     1.0  0.70928  0.86035  0.77109  1.0000
  C   C1784     1.0  0.73214  0.87702  0.76749  1.0000
  C   C1785     1.0  0.72106  0.89968  0.76937  1.0000
  C   C1786     1.0  0.68695  0.90577  0.77449  1.0000
  C   C1787     1.0  0.64812  0.88468  0.81990  1.0000
  C   C1788     1.0  0.64657  0.87835  0.83825  1.0000
  C   C1789     1.0  0.80193  0.48621  0.70316  1.0000
  C   C1790     1.0  0.72365  0.96577  0.87331  1.0000
  C   C1791     1.0  0.50578  0.95154  0.79861  1.0000
  C   C1792     1.0  0.61269  0.92692  0.78677  1.0000
  C   C1793     1.0  0.62600  0.93889  0.80125  1.0000
  C   C1794     1.0  0.65589  0.95216  0.95708  1.0000
  H   H1421     1.0  0.61119  0.84256  0.69831  1.0000
  C   C1795     1.0  0.54547  0.93380  0.98906  1.0000
  H   H1422     1.0  0.65816  0.85325  0.77973  1.0000
  H   H1423     1.0  0.71815  0.84275  0.77000  1.0000
  H   H1424     1.0  0.75868  0.87242  0.76361  1.0000
  H   H1425     1.0  0.73925  0.91253  0.76726  1.0000
  H   H1426     1.0  0.67941  0.92340  0.77636  1.0000
  H   H1427     1.0  0.67255  0.88965  0.81454  1.0000
  H   H1428     1.0  0.66954  0.87845  0.84664  1.0000
  C   C1796     1.0  0.57531  0.75849  0.66567  1.0000
  H   H1429     1.0  0.97670  0.90391  0.79930  1.0000
  C   C1797     1.0  0.53055  0.94041  0.71105  1.0000
  H   H1430     1.0  0.64134  0.93026  0.81178  1.0000
  C   C1798     1.0  0.83295  0.94546  0.86089  1.0000
  C   C1799     1.0  0.84346  0.94079  0.84304  1.0000
  H   H1431     1.0  0.68264  0.57235  0.72677  1.0000
  H   H1432     1.0  0.54472  0.90372  0.78522  1.0000
  S   S246      1.0  0.54287  0.50252  0.87424  1.0000
  C   C1800     1.0  0.80738  0.96264  0.86427  1.0000
  H   H1433     1.0  0.50049  0.68578  0.69859  1.0000
  C   C1801     1.0  0.72930  0.59456  0.77850  1.0000
  H   H1434     1.0  0.92339  0.86103  0.69179  1.0000
  H   H1435     1.0  0.54200  0.59028  0.92599  1.0000
  S   S247      1.0  0.79904  0.94202  0.78126  1.0000
  H   H1436     1.0  0.59099  0.61365  0.80122  1.0000
  C   C1802     1.0  0.65584  0.56331  0.78980  1.0000
  C   C1803     1.0  0.52752  0.56082  0.91176  1.0000
  H   H1437     1.0  0.67481  0.54944  0.78764  1.0000
  C   C1804     1.0  0.68164  0.60952  0.74805  1.0000
  C   C1805     1.0  0.78671  0.60305  0.80008  1.0000
  C   C1806     1.0  0.58149  0.52087  0.77688  1.0000
  C   C1807     1.0  0.52178  0.90944  0.91400  1.0000
  H   H1438     1.0  0.72802  0.96463  0.75930  1.0000
  C   C1808     1.0  0.68017  0.85517  0.72391  1.0000
  C   C1809     1.0  0.67504  0.76725  0.69874  1.0000
  S   S248      1.0  0.53569  0.89814  0.87805  1.0000
  H   H1439     1.0  0.57061  0.79366  0.67337  1.0000
  H   H1440     1.0  0.52692  0.55903  0.85463  1.0000
  H   H1441     1.0  0.86313  0.92740  0.84034  1.0000
  C   C1810     1.0  0.69784  0.55943  0.73419  1.0000
  H   H1442     1.0  0.75660  0.94086  0.73556  1.0000
  H   H1443     1.0  0.70146  0.84698  0.73149  1.0000
  H   H1444     1.0  0.76682  0.58874  0.75686  1.0000
  C   C1811     1.0  0.72693  0.54505  0.76149  1.0000
  C   C1812     1.0  0.50168  0.54576  0.90955  1.0000
  H   H1445     1.0  0.65941  0.82394  0.71626  1.0000
  C   C1813     1.0  0.65077  0.88926  0.71150  1.0000
  H   H1446     1.0  0.88510  0.89092  0.67808  1.0000
  C   C1814     1.0  0.70624  0.62420  0.74198  1.0000
  C   C1815     1.0  0.88267  0.94211  0.68023  1.0000
  H   H1447     1.0  0.89459  0.68751  0.83166  1.0000
  C   C1816     1.0  0.62043  0.93404  0.93529  1.0000
  C   C1817     1.0  0.50316  0.79918  0.71895  1.0000
  C   C1818     1.0  0.76932  0.53492  0.80823  1.0000
  H   H1448     1.0  0.49992  0.89031  0.76518  1.0000
  C   C1819     1.0  0.89403  0.59047  0.69703  1.0000
  C   C1820     1.0  0.91580  0.57095  0.69521  1.0000
  C   C1821     1.0  0.90558  0.55318  0.68460  1.0000
  C   C1822     1.0  0.59118  0.93955  0.94589  1.0000
  C   C1823     1.0  0.53524  0.79253  0.72665  1.0000
  P   P62       1.0  0.55573  0.95830  0.97583  1.0000
  H   H1449     1.0  0.74269  0.50938  0.72606  1.0000
  C   C1824     1.0  0.67557  0.94792  0.68248  1.0000
  H   H1450     1.0  0.90119  0.60385  0.70592  1.0000
  H   H1451     1.0  0.94009  0.56926  0.70253  1.0000
  H   H1452     1.0  0.92203  0.53778  0.68406  1.0000
  C   C1825     1.0  0.58194  0.92107  0.72388  1.0000
  H   H1453     1.0  0.49794  0.57202  0.97840  1.0000
  H   H1454     1.0  0.61745  0.70634  0.67997  1.0000
  H   H1455     1.0  0.99171  0.48997  0.79573  1.0000
  C   C1826     1.0  0.62039  0.74960  0.69800  1.0000
  H   H1456     1.0  0.94098  0.50115  0.81464  1.0000
  H   H1457     1.0  0.69156  0.96292  0.81489  1.0000
  H   H1458     1.0  0.62779  0.97096  0.81427  1.0000
  H   H1459     1.0  0.87852  0.95753  0.70666  1.0000
  C   C1827     1.0  0.52030  0.96544  0.96040  1.0000
  C   C1828     1.0  0.59861  0.97371  0.78935  1.0000
  C   C1829     1.0  0.91984  0.97891  0.67029  1.0000
  C   C1830     1.0  0.90665  0.97732  0.68792  1.0000
  S   S249      1.0  0.61211  0.98130  0.85460  1.0000
  C   C1831     1.0  0.71240  0.95618  0.74960  1.0000
  H   H1460     1.0  0.56093  0.87065  0.84160  1.0000
  H   H1461     1.0  0.50546  0.53201  0.90012  1.0000
  H   H1462     1.0  0.55538  0.91026  0.96695  1.0000
  C   C1832     1.0  0.52603  0.69038  0.69467  1.0000
  C   C1833     1.0  0.88785  0.95903  0.69283  1.0000
  C   C1834     1.0  0.57059  0.86465  0.74479  1.0000
  H   H1463     1.0  0.52423  0.54001  0.66358  1.0000
  H   H1464     1.0  0.53120  0.92179  0.73622  1.0000
  C   C1835     1.0  0.66294  0.91117  0.67140  1.0000
  H   H1465     1.0  0.50460  0.85825  0.83461  1.0000
  Fe  Fe124     1.0  0.63234  0.94481  0.85367  1.0000
  C   C1836     1.0  0.73568  0.53626  0.81595  1.0000
  H   H1466     1.0  0.63419  0.77632  0.67997  1.0000
  C   C1837     1.0  0.50289  0.56764  0.85901  1.0000
  C   C1838     1.0  0.54223  0.88900  0.67212  1.0000
  H   H1467     1.0  0.70099  0.72741  0.67732  1.0000
  C   C1839     1.0  0.97272  0.69869  0.81376  1.0000
  H   H1468     1.0  0.97000  0.85528  0.74304  1.0000
  C   C1840     1.0  0.51644  0.89464  0.89974  1.0000
  H   H1469     1.0  0.52205  0.60058  0.85678  1.0000
  C   C1841     1.0  0.54288  0.51482  0.73247  1.0000
  C   C1842     1.0  0.62672  0.50282  0.94444  1.0000
  C   C1843     1.0  0.77692  0.75909  0.67821  1.0000
  H   H1470     1.0  0.56633  0.93480  0.94112  1.0000
  H   H1471     1.0  0.59392  0.91050  0.73444  1.0000
  H   H1472     1.0  0.51183  0.93952  0.80945  1.0000
  C   C1844     1.0  0.53384  0.71302  0.69471  1.0000
  H   H1473     1.0  0.73655  0.96782  0.79144  1.0000
  H   H1474     1.0  0.71684  0.65148  0.72374  1.0000
  Fe  Fe125     1.0  0.56198  0.96815  0.84433  1.0000
  C   C1845     1.0  0.72384  0.51859  0.82675  1.0000
  C   C1846     1.0  0.66462  0.73725  0.72005  1.0000
  C   C1847     1.0  0.97790  0.92911  0.68322  1.0000
  C   C1848     1.0  0.60134  0.51123  0.79118  1.0000
  H   H1475     1.0  0.58215  0.93019  0.76205  1.0000
  C   C1849     1.0  0.72856  0.94276  0.73616  1.0000
  C   C1850     1.0  0.58548  0.94146  0.69533  1.0000
  H   H1476     1.0  0.62937  0.59966  0.74434  1.0000
  H   H1477     1.0  0.73418  0.54679  0.77560  1.0000
  C   C1851     1.0  0.62941  0.85261  0.70517  1.0000
  C   C1852     1.0  0.70037  0.95853  0.88627  1.0000
  H   H1478     1.0  0.86631  0.52210  0.70255  1.0000
  C   C1853     1.0  0.92145  0.69152  0.83118  1.0000
  C   C1854     1.0  0.59187  0.70210  0.68425  1.0000
  C   C1855     1.0  0.73987  0.52606  0.75197  1.0000
  C   C1856     1.0  0.53055  0.51650  0.71448  1.0000
  C   C1857     1.0  0.84552  0.51270  0.69738  1.0000
  C   C1858     1.0  0.64838  0.61127  0.74033  1.0000
  C   C1859     1.0  0.72501  0.59996  0.79702  1.0000
  H   H1479     1.0  0.63111  0.54586  0.81155  1.0000
  H   H1480     1.0  0.51602  0.86597  0.73879  1.0000
  H   H1481     1.0  0.92672  0.69277  0.86034  1.0000
  P   P63       1.0  0.57732  0.74816  0.68893  1.0000
  H   H1482     1.0  0.56310  0.88105  0.80919  1.0000
  H   H1483     1.0  0.83640  0.94950  0.81474  1.0000
  S   S250      1.0  0.95130  0.95594  0.73277  1.0000
  C   C1860     1.0  0.52677  0.88491  0.76281  1.0000
  C   C1861     1.0  0.99337  0.50364  0.80526  1.0000
  C   C1862     1.0  0.64220  0.76554  0.69126  1.0000
  C   C1863     1.0  0.58678  0.88013  0.81689  1.0000
  H   H1484     1.0  0.57754  0.85435  0.73308  1.0000
  C   C1864     1.0  0.77292  0.73658  0.67392  1.0000
  Fe  Fe126     1.0  0.55810  0.50724  0.84487  1.0000
  C   C1865     1.0  0.54653  0.92727  0.72487  1.0000
  H   H1485     1.0  0.64931  0.52422  0.68884  1.0000
  H   H1486     1.0  0.97088  0.91510  0.67519  1.0000
  C   C1866     1.0  0.68632  0.75309  0.71310  1.0000
  C   C1867     1.0  0.75368  0.60403  0.80776  1.0000
  H   H1487     1.0  0.54075  0.49565  0.75772  1.0000
  C   C1868     1.0  0.70597  0.56198  0.75269  1.0000
  S   S251      1.0  0.53999  0.96429  0.87258  1.0000
  C   C1869     1.0  0.96609  0.52719  0.82860  1.0000
  S   S252      1.0  0.68089  0.52128  0.83620  1.0000
  H   H1488     1.0  0.96689  0.58493  0.81369  1.0000
  C   C1870     1.0  0.97493  0.50794  0.69857  1.0000
  C   C1871     1.0  0.97170  0.95043  0.71131  1.0000
  C   C1872     1.0  0.71310  0.95061  0.81376  1.0000
  C   C1873     1.0  0.79109  0.59792  0.78167  1.0000
  C   C1874     1.0  0.69753  0.64053  0.72865  1.0000
  H   H1489     1.0  0.70555  0.53900  0.71030  1.0000
  C   C1875     1.0  0.73864  0.95319  0.80027  1.0000
  C   C1876     1.0  0.59295  0.93880  0.77333  1.0000
  C   C1877     1.0  0.63360  0.60171  0.78418  1.0000
  H   H1490     1.0  0.58850  0.57739  0.81813  1.0000
  S   S253      1.0  0.72975  0.81800  0.69467  1.0000
  C   C1878     1.0  0.50663  0.90599  0.93115  1.0000
  C   C1879     1.0  0.60176  0.92825  0.70921  1.0000
  C   C1880     1.0  0.52211  0.57859  0.92416  1.0000
  H   H1491     1.0  0.58054  0.58093  0.72530  1.0000
  H   H1492     1.0  0.50308  0.55637  0.72808  1.0000
  C   C1881     1.0  0.53249  0.49727  0.74371  1.0000
  C   C1882     1.0  0.59630  0.87183  0.75636  1.0000
  C   C1883     1.0  0.59571  0.56827  0.71775  1.0000
  H   H1493     1.0  0.97912  0.84890  0.67671  1.0000
  C   C1884     1.0  0.80253  0.97028  0.83190  1.0000
  H   H1494     1.0  0.84677  0.81974  0.67176  1.0000
  C   C1885     1.0  0.73186  0.52375  0.73358  1.0000
  C   C1886     1.0  0.58392  0.67953  0.68416  1.0000
  C   C1887     1.0  0.62103  0.48854  0.95920  1.0000
  H   H1495     1.0  0.60558  0.88386  0.69523  1.0000
  C   C1888     1.0  0.55102  0.67367  0.68936  1.0000
  C   C1889     1.0  0.50501  0.86387  0.68805  1.0000
  S   S254      1.0  0.66070  0.62108  0.67841  1.0000
  H   H1496     1.0  0.55429  0.52528  0.77918  1.0000
  C   C1890     1.0  0.79178  0.97515  0.84979  1.0000
  H   H1497     1.0  0.61493  0.51163  0.71502  1.0000
  H   H1498     1.0  0.79086  0.97916  0.82035  1.0000
  C   C1891     1.0  0.53218  0.59213  0.76846  1.0000
  C   C1892     1.0  0.62642  0.87606  0.70338  1.0000
  C   C1893     1.0  0.49997  0.59108  0.86010  1.0000
  C   C1894     1.0  0.71073  0.54037  0.72473  1.0000
  C   C1895     1.0  0.79215  0.48754  0.68484  1.0000
  C   C1896     1.0  0.61516  0.87316  0.84598  1.0000
  C   C1897     1.0  0.67630  0.95847  0.75058  1.0000
  C   C1898     1.0  0.54219  0.55963  0.74887  1.0000
  H   H1499     1.0  0.57644  0.56859  0.77054  1.0000
  C   C1899     1.0  0.55251  0.57291  0.76334  1.0000
  H   H1500     1.0  0.73802  0.48577  0.83794  1.0000
  C   C1900     1.0  0.85208  0.57470  0.67726  1.0000
  H   H1501     1.0  0.54337  0.80046  0.73901  1.0000
  H   H1502     1.0  0.62294  0.86715  0.75306  1.0000
  C   C1901     1.0  0.93800  0.69368  0.81440  1.0000
  C   C1902     1.0  0.67240  0.93357  0.72469  1.0000
  C   C1903     1.0  0.93956  0.69447  0.84733  1.0000
  C   C1904     1.0  0.66369  0.92646  0.68580  1.0000
  C   C1905     1.0  0.65278  0.94034  0.94087  1.0000
  H   H1503     1.0  0.61365  0.86915  0.86039  1.0000
  C   C1906     1.0  0.58592  0.96207  0.77464  1.0000
  H   H1504     1.0  0.78906  0.79157  0.66807  1.0000
  S   S255      1.0  0.62698  0.50360  0.88440  1.0000
  H   H1505     1.0  0.53748  0.53012  0.70558  1.0000
  C   C1907     1.0  0.95335  0.49177  0.70557  1.0000
  H   H1506     1.0  0.57407  0.83476  0.66801  1.0000
  C   C1908     1.0  0.82869  0.49871  0.70938  1.0000
  H   H1507     1.0  0.51409  0.72570  0.69874  1.0000
  H   H1508     1.0  0.52792  0.53971  0.96320  1.0000
  H   H1509     1.0  0.82678  0.57630  0.67102  1.0000
  H   H1510     1.0  0.98519  0.70031  0.80064  1.0000
  H   H1511     1.0  0.77803  0.54882  0.80026  1.0000
  H   H1512     1.0  0.50513  0.61568  0.69065  1.0000
  H   H1513     1.0  0.66382  0.96879  0.76110  1.0000
  H   H1514     1.0  0.67934  0.50530  0.77001  1.0000
  H   H1515     1.0  0.62984  0.96684  0.98019  1.0000
  H   H1516     1.0  0.58234  0.77184  0.72403  1.0000
  H   H1517     1.0  0.99210  0.78476  0.81106  1.0000
  H   H1518     1.0  0.59979  0.94683  0.68360  1.0000
  H   H1519     1.0  0.54355  0.51905  0.93378  1.0000
  Fe  Fe127     1.0  0.59161  0.97439  0.88297  1.0000
  H   H1520     1.0  0.90829  0.82747  0.66815  1.0000
  S   S256      1.0  0.92163  0.49690  0.72293  1.0000
  H   H1521     1.0  0.61505  0.72337  0.71825  1.0000
  H   H1522     1.0  0.49575  0.89991  0.68691  1.0000
  C   C1909     1.0  0.50629  0.53678  0.97201  1.0000
  H   H1523     1.0  0.97356  0.87198  0.71200  1.0000
  H   H1524     1.0  0.97275  0.52488  0.70385  1.0000
  H   H1525     1.0  0.53688  0.87751  0.98387  1.0000
  H   H1526     1.0  0.69428  0.94101  0.88662  1.0000
  C   C1910     1.0  0.54997  0.94744  0.69627  1.0000
  P   P64       1.0  0.85926  0.53109  0.66326  1.0000
  C   C1911     1.0  0.68662  0.95388  0.66505  1.0000
  Fe  Fe128     1.0  0.69599  0.59681  0.66316  1.0000
  C   C1912     1.0  0.51277  0.88567  0.68289  1.0000
  H   H1527     1.0  0.73510  0.95365  0.86375  1.0000
  C   C1913     1.0  0.56407  0.98175  0.99040  1.0000
  C   C1914     1.0  0.68406  0.97395  0.89824  1.0000
  H   H1528     1.0  0.54770  0.90588  0.66799  1.0000
  H   H1529     1.0  0.60320  0.66660  0.67981  1.0000
  H   H1530     1.0  0.98742  0.74392  0.81493  1.0000
  H   H1531     1.0  0.50299  0.94496  0.71177  1.0000
  H   H1532     1.0  0.51109  0.91737  0.94214  1.0000
  H   H1533     1.0  0.66529  0.96846  0.90797  1.0000
  C   C1915     1.0  0.89604  0.94342  0.66245  1.0000
  C   C1916     1.0  0.55898  0.49631  0.95594  1.0000
  H   H1534     1.0  0.56947  0.97094  0.76463  1.0000
  H   H1535     1.0  0.55101  0.98456  0.94203  1.0000
  C   C1917     1.0  0.58728  0.48527  0.96494  1.0000
  C   C1918     1.0  0.49638  0.48953  0.80042  1.0000
  C   C1919     1.0  0.99489  0.96551  0.70415  1.0000
  C   C1920     1.0  0.99456  0.85501  0.73593  1.0000
  H   H1536     1.0  0.69557  0.97049  0.66256  1.0000
