data_image0
_chemical_formula_structural       FeS2FeSFeHC8FeS2FeS2FeS2FeSFeS3HCH2SHFeS2CSHCS2C6H4CSCH2C6H4C3H2C7H4CHC9H2C4H4SCH4C2H4SC2HC2H3CHC4HCHC2HCH2CHC2HCHC4H2C4H2C3HCFeHPH3C7PC18H7C2H3CH7C6H10SHCHCH3C5HC2H2CHC2PH9C2HC2HCPCHC2HFeCH2CHCSC2HC3HC3HC3HFeH3C2H2CHPCHCHCSHC2H2S2C3PCFeH2CFeSHFeS2FeSCFeSFeS3FeS2FeS2FeSHFeSFeS3C3HC7H4C6H4CHC3H2C7H4SC2HCH4C7PC4H2C12H2SH4PCH11C3HCH6C2H4CHC2HC2HC2HC4HCH3CFeC2HCH3C2HC2H3CHCH2CH4CSH4C3HC4H3C3HC10H2CPHC3HCH2SC4H3C2FeS2HSFeSFeSHSHSH2SFeS2Fe3S3HSHC8H3C2HC6H4C6H4C4H2CHCHCHC2SC2H3CH2CHCSC2HFeCH2C2PC18HC2H9C2H7C2HCHCH3CH3PC2H2C2HCHPCH2C11H2CHC3HC2FeH2C2H4PH3CHC3HCHPCH2C7H3C4H2C2HCH6C2HC9HC2HC3HC2H2C3H4SCFeS2HCH3CFeSC2HFeS2FeS2FeS2FeSFeS3FeSHFeSFeS2HS2CH3C7H4C4HCPFeCHC6H4C2H3C6H4C3FeC2SCPHC2HC3HC3SHC5H2C5H2C3HC4H2C6PC18H20CH2C2HCHC2HCHC3HCH4CHCHCH2CHC2HSHCHCH4CHC2HPC3H2C5H3CHCH2SCHC2H2CHPC8HC2HC3HCPH2CHFeHCH4CH2C2H2C4H3C4H2CSHCHCHFeCH3C5HCH4CHCHC2HC2HCHCH2SH3SHC2HC2HC2FeCH2CHSFeCSCPHFeCSC10H5C2H3CH5CH2C4HCH2CH6C2H2C2SC3SCHCH2C2HCH7C2HCHCH2PC2HC2HC4HCHC7HCH2C3HCHCHC3HC2H2C2H3C2HC3HPC6H2C2HC3H2C2H2C4H3CH4C2H4C3H2CHFeSHFeS2FeSFeS3PHSFeS2FeS2FeSFeS2FeSCS2C2HC3H2C7H4C6H5C7H4C6H4C6HCH5CH2C10PC2H2C2HCHC5H2C2H6C2HCH7CH3C2PC12H2PH6C6PC3FeC5HC6H5CHCH3CH3C2HCH5C7H2C3HCHC4HCHCH3CH3CHC6PC6HC2H5CH2CH2CH3SC2SH3SH4C3HC4HCHC2HCHCHC3H2C3H2CHCHC3HC2H2C4HC2HCHC6HC3HCHCH2C3HCH3C2H2CPHC2HCHCH2CHSHCH2CHCHCHC2H2CH3C3HCHCHC3H2C2H3C2HCH2CH5CH3C2H2CH2CHS2FeS2C2FeC2SFeCFeHSFeSFeS2H3SCHCHC2HC4SC7H3C3HCHC2HSC3HC2HC6H4C4H4C6HSH2CHC3HCHC4HC2H2FeH2C2HC2HCPFeCHCHSCHC6PC18H16SH4CH3C3HCHC2HC3H2C3SC2HC7SCHCH2CPHC2H2FeHCH5CHCHC3SCH2CH3CH2SC2H6SC2HC2HPC2H2SC2SH4CH2C2H2CHCH2C2SCH3PHC2FeHC2HCHFeC4SC2FeS2FeSFeSCHCS2HSCHC2H2FeS2FeS2FeS2H2C8HC3H2CFeCH5CH2C6H4C3HC7H4CH2C4HC15H8FeCH2C2H3CHCH3C2HC2PHCH3PHCHC2HSH2CHCH2CHC2H2C2H2CHCHCH4PH3C2H2C5H2C2HCHC6PC13H3CHCHC5H3PC2HC5HC3H3C4HC2HCHCH2SFeCSCH2SC2H2CHCHCHC8H7C2HSFeCH2SH2CHCHCFeH2C2HFeS3FeS2FeS2FeSFeS3FeS2C2FeS2FeS2FeSFeS3C2HCPC6H4C6H4C3HC2H4C4H3C8H4C2H2C3HCHC5H2C2PC4HC6H5CSH5C6PC18H20CHC5SCHCH2C3H3C2H2CHC2HC4SH2C3PHC2PCH3CHC2HFeCH2C3HCHSCHCH4C2HCHC2H2C3HCH2C14HC4H6CHCHCH2C3PC18HCH12CHC3H4CHCHCH2C2SC2PCHCH3CH3C5H2C2HCHCHCHCH3CH6C7H5PHC2H3C3H5CH2C2HCH3C5HCHCHC3HC2HCHCHCH2C3H3CH2CHC2HC6H4CHCH2CHC2HCHC2H2C2HPH2C3H2CHC6FeS2HFeHCS2FeS2FeH2CHC2HC2SHCHCHC6H7CHCH2CHCHC4H2C2PC2HCH3C6SC4HFeC2HPC2HC2HCH2CH2CH2CH4CHCSC2HSHC2HCHCH2C4H3CHC4HCFeS2FeS2FeS2HC2HFeS2FeS2FeSFeS3C5HFeS2H2SC2H2C6H4C3H2C6H4C14H5CHC8HC2H3C2H3CFeHCH3C2HCH4C9H8CHCHC2H4CHC3HC2SCHC5PHCFeC3HCH3CH8C2HCHSC6PC11HC3H6C2H4PH3CH2FeC4PC3HC3HC2HC2H6CHC2HCHCH3C3H4CH4C2H2C4HPHCHC2HCH3C3HC2H2SH2CHSCHC3H3C3HC3FeS2HCFeS2FeS2FeCFeS3FeS2FeS2FeS2FePFeS3H4CH2C7H7C6H4CHC4H3PC7H3SC4SH4C2HCHCH3CH2CHCHC2H5C2H2CH3CHCHCPC2HC2HSHC3HC5H2CH4CH4C6HC2HC2FeC4H2CFeSC2H2CHC2H2CHSH2C3HFeC3HC2HC5H2CH2CHC2H2CHC3HC2HCH2C5HC5H6SCHC2H3CH3C6H2CH2C3HCHC4H2CH2SCH5C2H3CHPCSC3HC6HC4H2CHCHFeS2HSCFeSFeS3H2SFeSCFeS2FeSFeHS2CHSC2HC2FeC2HC6H4C6H3C5H2C3FeHCHC2H2FeC5HC2HCHCHC2HCHC3HCH4CHC2HCH2CPSC2H4CH2CHPCHCHC3HCH4C3HC4HC4HCH3C2H3C2HC2HC2HC4PH3CSCHC2H2C2HPC3HCHCH2C3H2CHCPC2H2CH2C2H7CHC2HPC3H3C3HC3HC2HC3HCH4C3HSH5C3HCHCH2CHC3H2C2H2CHC3HFeS2FeS2FeS2FeSFeS3FeS2FeSFeHS3FeSHSCFeHCSCPC3HCH3C7H4C6H4CSH3C6H5CH2SCH3C5PC18H9CH7C6H5C4HCHCHCSC5HC2H3C2PH4C2H2CHC3H2C3HCSPCH2SH2CH3CH2C3H4C5H4CH2C2H2C2HC3HC2HC2HCHCFeH2C3SC2HCH4CH2C2H2CHCHC3H3CH5C3HC6HCH2C4HPHPCH3C5HCHC4SFeHCHCH
_chemical_formula_sum              "Fe144 S288 H1728 C2160 P72"
_cell_length_a       53.4135
_cell_length_b       53.3457
_cell_length_c       74.3146
_cell_angle_alpha    90.7181
_cell_angle_beta     91.7115
_cell_angle_gamma    116.392

_space_group_name_H-M_alt    "P 1"
_space_group_IT_number       1

loop_
  _space_group_symop_operation_xyz
  'x, y, z'

loop_
  _atom_site_type_symbol
  _atom_site_label
  _atom_site_symmetry_multiplicity
  _atom_site_fract_x
  _atom_site_fract_y
  _atom_site_fract_z
  _atom_site_occupancy
  Fe  Fe1       1.0  0.19960  0.02709  0.09220  1.0000
  S   S1        1.0  0.23899  0.04114  0.07694  1.0000
  S   S2        1.0  0.19106  0.05904  0.10783  1.0000
  Fe  Fe2       1.0  0.24672  0.01063  0.09453  1.0000
  S   S3        1.0  0.28887  0.02277  0.11018  1.0000
  Fe  Fe3       1.0  0.21375  0.00477  0.05752  1.0000
  H   H1        1.0  0.03954  0.28670  0.07046  1.0000
  C   C1        1.0  0.20015  0.14502  0.99820  1.0000
  C   C2        1.0  0.14810  0.28575  0.00428  1.0000
  C   C3        1.0  0.13488  0.19629  0.21258  1.0000
  C   C4        1.0  0.19321  0.14965  0.01554  1.0000
  C   C5        1.0  0.22176  0.29144  0.13851  1.0000
  C   C6        1.0  0.05386  0.26833  0.02245  1.0000
  C   C7        1.0  0.15562  0.15589  0.13081  1.0000
  C   C8        1.0  0.13763  0.18928  0.13811  1.0000
  Fe  Fe4       1.0  0.36914  0.07393  0.21184  1.0000
  S   S4        1.0  0.32768  0.05376  0.19428  1.0000
  S   S5        1.0  0.41157  0.09923  0.20069  1.0000
  Fe  Fe5       1.0  0.19337  0.20040  0.07797  1.0000
  S   S6        1.0  0.23972  0.22642  0.07670  1.0000
  S   S7        1.0  0.17132  0.15446  0.06983  1.0000
  Fe  Fe6       1.0  0.18200  0.25089  0.08458  1.0000
  S   S8        1.0  0.22818  0.28069  0.08382  1.0000
  S   S9        1.0  0.15094  0.26973  0.08671  1.0000
  Fe  Fe7       1.0  0.22821  0.25463  0.05938  1.0000
  S   S10       1.0  0.24858  0.27274  0.03256  1.0000
  Fe  Fe8       1.0  0.23590  0.25004  0.10136  1.0000
  S   S11       1.0  0.26321  0.25459  0.12766  1.0000
  S   S12       1.0  0.18220  0.22725  0.05949  1.0000
  S   S13       1.0  0.18942  0.22168  0.10328  1.0000
  H   H2        1.0  0.36546  0.00747  0.00832  1.0000
  C   C9        1.0  0.17226  0.26271  0.13233  1.0000
  H   H3        1.0  0.38740  0.14938  0.14977  1.0000
  H   H4        1.0  0.30086  0.16787  0.22595  1.0000
  S   S14       1.0  0.17354  0.99318  0.07190  1.0000
  H   H5        1.0  0.21765  0.14019  0.99667  1.0000
  Fe  Fe9       1.0  0.37045  0.32844  0.21979  1.0000
  S   S15       1.0  0.34698  0.33072  0.19322  1.0000
  S   S16       1.0  0.40586  0.31625  0.21882  1.0000
  C   C10       1.0  0.06268  0.23551  0.14212  1.0000
  S   S17       1.0  0.02031  0.21369  0.10259  1.0000
  H   H6        1.0  0.31834  0.08663  0.02327  1.0000
  C   C11       1.0  0.40200  0.44056  0.16217  1.0000
  S   S18       1.0  0.20784  0.99740  0.10987  1.0000
  S   S19       1.0  0.43171  0.17765  0.21328  1.0000
  C   C12       1.0  0.11419  0.25340  0.08989  1.0000
  C   C13       1.0  0.10015  0.27022  0.09144  1.0000
  C   C14       1.0  0.07129  0.25835  0.09471  1.0000
  C   C15       1.0  0.05609  0.22944  0.09662  1.0000
  C   C16       1.0  0.07007  0.21257  0.09482  1.0000
  C   C17       1.0  0.09883  0.22442  0.09121  1.0000
  H   H7        1.0  0.11176  0.29267  0.09038  1.0000
  H   H8        1.0  0.06101  0.27167  0.09633  1.0000
  H   H9        1.0  0.05858  0.19019  0.09627  1.0000
  H   H10       1.0  0.10918  0.21120  0.08952  1.0000
  C   C18       1.0  0.23539  0.26344  0.00969  1.0000
  S   S20       1.0  0.39634  0.36767  0.23724  1.0000
  C   C19       1.0  0.25134  0.27973  0.99563  1.0000
  H   H11       1.0  0.19697  0.22782  0.01567  1.0000
  H   H12       1.0  0.27140  0.29728  0.99888  1.0000
  C   C20       1.0  0.28678  0.27652  0.14557  1.0000
  C   C21       1.0  0.29405  0.26382  0.16002  1.0000
  C   C22       1.0  0.31235  0.27986  0.17453  1.0000
  C   C23       1.0  0.32376  0.30914  0.17503  1.0000
  C   C24       1.0  0.31642  0.32190  0.16059  1.0000
  C   C25       1.0  0.29822  0.30585  0.14603  1.0000
  H   H13       1.0  0.28535  0.24129  0.15993  1.0000
  H   H14       1.0  0.31760  0.26965  0.18542  1.0000
  H   H15       1.0  0.32494  0.34447  0.16064  1.0000
  H   H16       1.0  0.29316  0.31624  0.13512  1.0000
  C   C26       1.0  0.39064  0.46766  0.18403  1.0000
  C   C27       1.0  0.44489  0.43136  0.19057  1.0000
  C   C28       1.0  0.08201  0.20238  0.14542  1.0000
  H   H17       1.0  0.33396  0.24272  0.22956  1.0000
  H   H18       1.0  0.02843  0.18955  0.06448  1.0000
  C   C29       1.0  0.15497  0.17649  0.14238  1.0000
  C   C30       1.0  0.18917  0.08685  0.09631  1.0000
  C   C31       1.0  0.19711  0.11268  0.10540  1.0000
  C   C32       1.0  0.19342  0.13436  0.09698  1.0000
  C   C33       1.0  0.18072  0.12983  0.07972  1.0000
  C   C34       1.0  0.17318  0.10415  0.07058  1.0000
  C   C35       1.0  0.17782  0.08287  0.07873  1.0000
  H   H19       1.0  0.20590  0.11584  0.11901  1.0000
  H   H20       1.0  0.19934  0.15415  0.10406  1.0000
  H   H21       1.0  0.16333  0.10055  0.05724  1.0000
  H   H22       1.0  0.17151  0.06298  0.07168  1.0000
  C   C36       1.0  0.21670  0.00577  0.00532  1.0000
  H   H23       1.0  0.14084  0.01567  0.12515  1.0000
  C   C37       1.0  0.22073  0.27554  0.15353  1.0000
  C   C38       1.0  0.31076  0.18930  0.12077  1.0000
  C   C39       1.0  0.29922  0.03223  0.13360  1.0000
  C   C40       1.0  0.28011  0.02971  0.14684  1.0000
  C   C41       1.0  0.28923  0.03655  0.16516  1.0000
  C   C42       1.0  0.31766  0.04643  0.17067  1.0000
  C   C43       1.0  0.33682  0.04948  0.15738  1.0000
  C   C44       1.0  0.32764  0.04229  0.13909  1.0000
  C   C45       1.0  0.11224  0.25217  0.14874  1.0000
  H   H24       1.0  0.35870  0.05692  0.16123  1.0000
  H   H25       1.0  0.34274  0.04443  0.12912  1.0000
  C   C46       1.0  0.33161  0.21959  0.18627  1.0000
  C   C47       1.0  0.43722  0.29979  0.17509  1.0000
  C   C48       1.0  0.42543  0.38061  0.19079  1.0000
  C   C49       1.0  0.45237  0.38252  0.19157  1.0000
  H   H26       1.0  0.30197  0.00363  0.05955  1.0000
  H   H27       1.0  0.36166  0.02115  0.04301  1.0000
  H   H28       1.0  0.14563  0.01953  0.18259  1.0000
  H   H29       1.0  0.13380  0.19143  0.22674  1.0000
  S   S21       1.0  0.37263  0.10825  0.23141  1.0000
  C   C50       1.0  0.24553  0.01889  0.00300  1.0000
  H   H30       1.0  0.45657  0.31893  0.17651  1.0000
  H   H31       1.0  0.41501  0.42669  0.22222  1.0000
  H   H32       1.0  0.30249  0.04566  0.07401  1.0000
  H   H33       1.0  0.15385  0.25749  0.12368  1.0000
  C   C51       1.0  0.35973  0.44629  0.15789  1.0000
  C   C52       1.0  0.41696  0.19744  0.22385  1.0000
  H   H34       1.0  0.45776  0.27307  0.17375  1.0000
  H   H35       1.0  0.40052  0.40280  0.19029  1.0000
  H   H36       1.0  0.40736  0.36038  0.19098  1.0000
  H   H37       1.0  0.45535  0.36379  0.19267  1.0000
  S   S22       1.0  0.47749  0.38063  0.23502  1.0000
  C   C53       1.0  0.31509  0.04487  0.02286  1.0000
  C   C54       1.0  0.35113  0.00568  0.99724  1.0000
  H   H38       1.0  0.12320  0.18759  0.04764  1.0000
  C   C55       1.0  0.05625  0.30277  0.04480  1.0000
  C   C56       1.0  0.05904  0.20791  0.14218  1.0000
  H   H39       1.0  0.03842  0.19091  0.13926  1.0000
  H   H40       1.0  0.41091  0.32076  0.17658  1.0000
  H   H41       1.0  0.03803  0.15941  0.02861  1.0000
  C   C57       1.0  0.17170  0.15736  0.01784  1.0000
  H   H42       1.0  0.20485  0.14785  0.02726  1.0000
  C   C58       1.0  0.04393  0.28160  0.05714  1.0000
  C   C59       1.0  0.37474  0.14360  0.17719  1.0000
  C   C60       1.0  0.30585  0.02169  0.05147  1.0000
  C   C61       1.0  0.42359  0.22457  0.21810  1.0000
  H   H43       1.0  0.07761  0.14920  0.03719  1.0000
  C   C62       1.0  0.13926  0.14824  0.11480  1.0000
  H   H44       1.0  0.24149  0.30826  0.13482  1.0000
  C   C63       1.0  0.42263  0.44828  0.22668  1.0000
  C   C64       1.0  0.03394  0.19344  0.99273  1.0000
  H   H45       1.0  0.09169  0.17915  0.99830  1.0000
  C   C65       1.0  0.41239  0.24085  0.22658  1.0000
  H   H46       1.0  0.04796  0.18544  0.99787  1.0000
  H   H47       1.0  0.34074  0.44211  0.15009  1.0000
  C   C66       1.0  0.30606  0.04547  0.05973  1.0000
  H   H48       1.0  0.04494  0.23974  0.13912  1.0000
  C   C67       1.0  0.12585  0.18093  0.18120  1.0000
  C   C68       1.0  0.04088  0.24684  0.03467  1.0000
  H   H49       1.0  0.31020  0.08707  0.05596  1.0000
  C   C69       1.0  0.08033  0.17057  0.03770  1.0000
  H   H50       1.0  0.13581  0.30729  0.04521  1.0000
  C   C70       1.0  0.12240  0.16127  0.11030  1.0000
  C   C71       1.0  0.16784  0.29429  0.04043  1.0000
  C   C72       1.0  0.17968  0.28360  0.02782  1.0000
  C   C73       1.0  0.16957  0.27895  0.00992  1.0000
  H   H51       1.0  0.10920  0.19225  0.11785  1.0000
  H   H52       1.0  0.36289  0.14426  0.20447  1.0000
  C   C74       1.0  0.28570  0.21275  0.19530  1.0000
  C   C75       1.0  0.35831  0.17594  0.18902  1.0000
  C   C76       1.0  0.10947  0.21972  0.04462  1.0000
  C   C77       1.0  0.12464  0.17468  0.19948  1.0000
  H   H53       1.0  0.41565  0.43195  0.15744  1.0000
  H   H54       1.0  0.16930  0.14632  0.13395  1.0000
  C   C78       1.0  0.10896  0.22452  0.14812  1.0000
  C   C79       1.0  0.14554  0.29989  0.03521  1.0000
  C   C80       1.0  0.02280  0.20663  0.00425  1.0000
  H   H55       1.0  0.29391  0.20104  0.16923  1.0000
  C   C81       1.0  0.38699  0.25016  0.17155  1.0000
  Fe  Fe10      1.0  0.98686  0.22906  0.09741  1.0000
  H   H56       1.0  0.09035  0.24710  0.04112  1.0000
  P   P1        1.0  0.03187  0.21105  0.02813  1.0000
  H   H57       1.0  0.06127  0.32419  0.04862  1.0000
  H   H58       1.0  0.17565  0.29774  0.05433  1.0000
  H   H59       1.0  0.19661  0.27872  0.03197  1.0000
  C   C82       1.0  0.00275  0.18724  0.04078  1.0000
  C   C83       1.0  0.26460  0.07894  0.12424  1.0000
  C   C84       1.0  0.29369  0.09001  0.12415  1.0000
  C   C85       1.0  0.31005  0.10742  0.13843  1.0000
  C   C86       1.0  0.29733  0.11397  0.15271  1.0000
  C   C87       1.0  0.26801  0.10246  0.15302  1.0000
  C   C88       1.0  0.25180  0.08515  0.13857  1.0000
  P   P2        1.0  0.25134  0.11182  0.17090  1.0000
  C   C89       1.0  0.21797  0.08231  0.17468  1.0000
  C   C90       1.0  0.27367  0.11984  0.19114  1.0000
  C   C91       1.0  0.28683  0.10291  0.19563  1.0000
  C   C92       1.0  0.30437  0.10904  0.21106  1.0000
  C   C93       1.0  0.30942  0.13243  0.22199  1.0000
  C   C94       1.0  0.29663  0.14952  0.21758  1.0000
  C   C95       1.0  0.27866  0.14314  0.20230  1.0000
  C   C96       1.0  0.19393  0.07926  0.16470  1.0000
  C   C97       1.0  0.16793  0.05689  0.16772  1.0000
  C   C98       1.0  0.16574  0.03708  0.18048  1.0000
  C   C99       1.0  0.18958  0.03962  0.19022  1.0000
  C   C100      1.0  0.21559  0.06213  0.18736  1.0000
  C   C101      1.0  0.24422  0.14059  0.16404  1.0000
  C   C102      1.0  0.25339  0.15356  0.14756  1.0000
  C   C103      1.0  0.24677  0.17496  0.14200  1.0000
  C   C104      1.0  0.23063  0.18333  0.15268  1.0000
  C   C105      1.0  0.22067  0.16999  0.16883  1.0000
  C   C106      1.0  0.22741  0.14869  0.17450  1.0000
  H   H60       1.0  0.25185  0.06524  0.11329  1.0000
  H   H61       1.0  0.30346  0.08454  0.11320  1.0000
  H   H62       1.0  0.33256  0.11544  0.13851  1.0000
  H   H63       1.0  0.31045  0.12781  0.16351  1.0000
  H   H64       1.0  0.22926  0.07647  0.13825  1.0000
  H   H65       1.0  0.28379  0.08499  0.18717  1.0000
  H   H66       1.0  0.31445  0.09584  0.21432  1.0000
  C   C107      1.0  0.31513  0.06857  0.03117  1.0000
  C   C108      1.0  0.00465  0.21689  0.99699  1.0000
  H   H67       1.0  0.26896  0.15655  0.19925  1.0000
  H   H68       1.0  0.19525  0.09390  0.15435  1.0000
  H   H69       1.0  0.14960  0.05460  0.15982  1.0000
  C   C109      1.0  0.31006  0.02109  0.03292  1.0000
  H   H70       1.0  0.18799  0.02413  0.19999  1.0000
  H   H71       1.0  0.23366  0.06352  0.19506  1.0000
  H   H72       1.0  0.26532  0.14699  0.13882  1.0000
  H   H73       1.0  0.25400  0.18510  0.12932  1.0000
  H   H74       1.0  0.22583  0.20012  0.14828  1.0000
  H   H75       1.0  0.21933  0.13835  0.18697  1.0000
  H   H76       1.0  0.27406  0.03395  0.17517  1.0000
  C   C110      1.0  0.32275  0.23854  0.12353  1.0000
  C   C111      1.0  0.30994  0.21314  0.11382  1.0000
  C   C112      1.0  0.33677  0.24029  0.14004  1.0000
  C   C113      1.0  0.38659  0.27617  0.17380  1.0000
  C   C114      1.0  0.41157  0.30085  0.17515  1.0000
  C   C115      1.0  0.33800  0.21654  0.14713  1.0000
  H   H77       1.0  0.32129  0.25683  0.11841  1.0000
  H   H78       1.0  0.29888  0.21189  0.10110  1.0000
  H   H79       1.0  0.34595  0.26017  0.14729  1.0000
  H   H80       1.0  0.36703  0.27752  0.17471  1.0000
  H   H81       1.0  0.17836  0.26977  0.00050  1.0000
  H   H82       1.0  0.16840  0.18287  0.15444  1.0000
  H   H83       1.0  0.20786  0.17628  0.17700  1.0000
  H   H84       1.0  0.25820  0.02206  0.14301  1.0000
  H   H85       1.0  0.41417  0.22962  0.17058  1.0000
  H   H86       1.0  0.09198  0.27899  0.14532  1.0000
  S   S23       1.0  0.46051  0.06500  0.22002  1.0000
  H   H87       1.0  0.23973  0.28016  0.16144  1.0000
  C   C116      1.0  0.32417  0.19083  0.13751  1.0000
  H   H88       1.0  0.14018  0.13275  0.10560  1.0000
  C   C117      1.0  0.00756  0.18021  0.05827  1.0000
  H   H89       1.0  0.18564  0.02832  0.14203  1.0000
  H   H90       1.0  0.36475  0.23881  0.20681  1.0000
  H   H91       1.0  0.19540  0.24052  0.16922  1.0000
  C   C118      1.0  0.47558  0.40872  0.19173  1.0000
  C   C119      1.0  0.41292  0.24926  0.17164  1.0000
  C   C120      1.0  0.08724  0.22569  0.03975  1.0000
  C   C121      1.0  0.19751  0.28503  0.12793  1.0000
  C   C122      1.0  0.10605  0.19220  0.04358  1.0000
  H   H92       1.0  0.16680  0.16150  0.03128  1.0000
  C   C123      1.0  0.03629  0.25373  0.05214  1.0000
  C   C124      1.0  0.20953  0.24071  0.00514  1.0000
  H   H93       1.0  0.30041  0.16949  0.11334  1.0000
  H   H94       1.0  0.11547  0.15306  0.20349  1.0000
  C   C125      1.0  0.36180  0.18873  0.17228  1.0000
  H   H95       1.0  0.19833  0.29692  0.11604  1.0000
  C   C126      1.0  0.05802  0.17644  0.03283  1.0000
  C   C127      1.0  0.13559  0.29555  0.01724  1.0000
  P   P3        1.0  0.35443  0.21842  0.16919  1.0000
  H   H96       1.0  0.37667  0.18950  0.14537  1.0000
  H   H97       1.0  0.32334  0.17182  0.14294  1.0000
  H   H98       1.0  0.15373  0.24093  0.21757  1.0000
  H   H99       1.0  0.26385  0.20647  0.19200  1.0000
  H   H100      1.0  0.25951  0.02625  0.01472  1.0000
  H   H101      1.0  0.11785  0.29936  0.01377  1.0000
  H   H102      1.0  0.05805  0.26361  0.00899  1.0000
  H   H103      1.0  0.11053  0.15601  0.09757  1.0000
  H   H104      1.0  0.12920  0.23641  0.04965  1.0000
  C   C128      1.0  0.31051  0.06884  0.04957  1.0000
  C   C129      1.0  0.17095  0.24690  0.14752  1.0000
  H   H105      1.0  0.39064  0.00656  0.06257  1.0000
  C   C130      1.0  0.19550  0.25314  0.15793  1.0000
  C   C131      1.0  0.32267  0.99726  0.00007  1.0000
  H   H106      1.0  0.28370  0.22700  0.22227  1.0000
  C   C132      1.0  0.14732  0.23048  0.18916  1.0000
  P   P4        1.0  0.13853  0.21725  0.15247  1.0000
  C   C133      1.0  0.36476  0.15349  0.19140  1.0000
  H   H107      1.0  0.43749  0.23303  0.20710  1.0000
  C   C134      1.0  0.14613  0.22417  0.20742  1.0000
  C   C135      1.0  0.37890  0.15659  0.16061  1.0000
  H   H108      1.0  0.07877  0.18086  0.14548  1.0000
  Fe  Fe11      1.0  0.41545  0.13244  0.22109  1.0000
  C   C136      1.0  0.13765  0.20891  0.17593  1.0000
  H   H109      1.0  0.02670  0.23775  0.06195  1.0000
  H   H110      1.0  0.11725  0.16395  0.17124  1.0000
  C   C137      1.0  0.42166  0.40487  0.19036  1.0000
  H   H111      1.0  0.13254  0.26963  0.15155  1.0000
  C   C138      1.0  0.29688  0.22445  0.21232  1.0000
  S   S24       1.0  0.99119  0.27308  0.09649  1.0000
  C   C139      1.0  0.34266  0.23119  0.20345  1.0000
  C   C140      1.0  0.30289  0.20992  0.18239  1.0000
  H   H112      1.0  0.07066  0.31254  0.01788  1.0000
  C   C141      1.0  0.16981  0.00674  0.14137  1.0000
  C   C142      1.0  0.06136  0.29616  0.02748  1.0000
  C   C143      1.0  0.12166  0.18179  0.12186  1.0000
  H   H113      1.0  0.15567  0.25217  0.18535  1.0000
  C   C144      1.0  0.06133  0.20407  0.03372  1.0000
  C   C145      1.0  0.15696  0.16030  0.00283  1.0000
  C   C146      1.0  0.08923  0.25761  0.14549  1.0000
  H   H114      1.0  0.35130  0.18356  0.20042  1.0000
  C   C147      1.0  0.43788  0.27398  0.17348  1.0000
  C   C148      1.0  0.32528  0.23346  0.21641  1.0000
  C   C149      1.0  0.37265  0.17919  0.15817  1.0000
  H   H115      1.0  0.37988  0.12631  0.17922  1.0000
  Fe  Fe12      1.0  0.42882  0.08279  0.22331  1.0000
  H   H116      1.0  0.31833  0.04503  0.00855  1.0000
  H   H117      1.0  0.14078  0.16697  0.00465  1.0000
  H   H118      1.0  0.98917  0.15731  0.08191  1.0000
  C   C150      1.0  0.35508  0.99904  0.04494  1.0000
  C   C151      1.0  0.40858  0.45656  0.17832  1.0000
  H   H119      1.0  0.32355  0.13749  0.23373  1.0000
  H   H120      1.0  0.10352  0.22927  0.00250  1.0000
  C   C152      1.0  0.37161  0.99085  0.05601  1.0000
  H   H121      1.0  0.01062  0.29938  0.01065  1.0000
  P   P5        1.0  0.43979  0.46265  0.19155  1.0000
  C   C153      1.0  0.19866  0.99706  0.98986  1.0000
  H   H122      1.0  0.41761  0.26175  0.22209  1.0000
  C   C154      1.0  0.98990  0.28293  0.00739  1.0000
  H   H123      1.0  0.37246  0.42271  0.13972  1.0000
  C   C155      1.0  0.37761  0.43538  0.15205  1.0000
  S   S25       1.0  0.38587  0.05491  0.23364  1.0000
  H   H124      1.0  0.44397  0.99351  0.22636  1.0000
  C   C156      1.0  0.98532  0.16173  0.06818  1.0000
  C   C157      1.0  0.36629  0.46250  0.17384  1.0000
  H   H125      1.0  0.99599  0.22744  0.00558  1.0000
  H   H126      1.0  0.35239  0.47093  0.17837  1.0000
  S   S26       1.0  0.20204  0.99936  0.02706  1.0000
  S   S27       1.0  0.98246  0.28297  0.04403  1.0000
  C   C158      1.0  0.43558  0.47018  0.21476  1.0000
  C   C159      1.0  0.47192  0.43308  0.19136  1.0000
  C   C160      1.0  0.10930  0.22214  0.99032  1.0000
  P   P6        1.0  0.30905  0.98992  0.02237  1.0000
  C   C161      1.0  0.14460  0.99956  0.13175  1.0000
  Fe  Fe13      1.0  0.43040  0.35381  0.23740  1.0000
  H   H127      1.0  0.19523  0.99200  0.15641  1.0000
  H   H128      1.0  0.39529  0.48018  0.19636  1.0000
  C   C162      1.0  0.98117  0.27530  0.98916  1.0000
  Fe  Fe14      1.0  0.39316  0.09186  0.25215  1.0000
  S   S28       1.0  0.38592  0.09814  0.28220  1.0000
  H   H129      1.0  0.40848  0.99733  0.43197  1.0000
  Fe  Fe15      1.0  0.38721  0.11392  0.41530  1.0000
  S   S29       1.0  0.36077  0.06967  0.40432  1.0000
  S   S30       1.0  0.36901  0.14532  0.41140  1.0000
  Fe  Fe16      1.0  0.43537  0.10037  0.42551  1.0000
  S   S31       1.0  0.41272  0.05627  0.41461  1.0000
  C   C163      1.0  0.47231  0.38985  0.36612  1.0000
  Fe  Fe17      1.0  0.39987  0.07476  0.39075  1.0000
  S   S32       1.0  0.40212  0.05908  0.36186  1.0000
  Fe  Fe18      1.0  0.37570  0.05487  0.42917  1.0000
  S   S33       1.0  0.34911  0.01489  0.44498  1.0000
  S   S34       1.0  0.42573  0.11925  0.40089  1.0000
  S   S35       1.0  0.39886  0.09856  0.44090  1.0000
  Fe  Fe19      1.0  0.38131  0.34079  0.26179  1.0000
  S   S36       1.0  0.36913  0.35454  0.28830  1.0000
  S   S37       1.0  0.41653  0.32900  0.26254  1.0000
  Fe  Fe20      1.0  0.40235  0.30804  0.43336  1.0000
  S   S38       1.0  0.36669  0.31358  0.41985  1.0000
  S   S39       1.0  0.40635  0.26941  0.44355  1.0000
  Fe  Fe21      1.0  0.44127  0.37137  0.43275  1.0000
  S   S40       1.0  0.40907  0.38082  0.41844  1.0000
  H   H130      1.0  0.44790  0.11780  0.29552  1.0000
  Fe  Fe22      1.0  0.37962  0.35200  0.43870  1.0000
  S   S41       1.0  0.35314  0.36922  0.45427  1.0000
  Fe  Fe23      1.0  0.39922  0.34223  0.40089  1.0000
  S   S42       1.0  0.40110  0.33691  0.36995  1.0000
  S   S43       1.0  0.41249  0.34398  0.45327  1.0000
  S   S44       1.0  0.43414  0.33525  0.41417  1.0000
  C   C164      1.0  0.35168  0.37818  0.47755  1.0000
  C   C165      1.0  0.45868  0.19235  0.26707  1.0000
  C   C166      1.0  0.43845  0.01682  0.38425  1.0000
  H   H131      1.0  0.32764  0.40062  0.47124  1.0000
  C   C167      1.0  0.44895  0.03028  0.33683  1.0000
  C   C168      1.0  0.37887  0.35017  0.31095  1.0000
  C   C169      1.0  0.36758  0.35840  0.32550  1.0000
  C   C170      1.0  0.37430  0.35486  0.34357  1.0000
  C   C171      1.0  0.39242  0.34289  0.34741  1.0000
  C   C172      1.0  0.40414  0.33519  0.33285  1.0000
  C   C173      1.0  0.39743  0.33874  0.31481  1.0000
  H   H132      1.0  0.35329  0.36735  0.32278  1.0000
  H   H133      1.0  0.36515  0.36103  0.35452  1.0000
  H   H134      1.0  0.41838  0.32618  0.33550  1.0000
  H   H135      1.0  0.40611  0.33206  0.30387  1.0000
  C   C174      1.0  0.38057  0.18027  0.41991  1.0000
  C   C175      1.0  0.40385  0.19328  0.43176  1.0000
  C   C176      1.0  0.41166  0.22068  0.43861  1.0000
  C   C177      1.0  0.39674  0.23572  0.43342  1.0000
  C   C178      1.0  0.37369  0.22285  0.42135  1.0000
  C   C179      1.0  0.36562  0.19528  0.41472  1.0000
  H   H136      1.0  0.41577  0.18220  0.43568  1.0000
  H   H137      1.0  0.42940  0.23031  0.44803  1.0000
  H   H138      1.0  0.36180  0.23396  0.41735  1.0000
  H   H139      1.0  0.34760  0.18547  0.40554  1.0000
  C   C180      1.0  0.34445  0.00361  0.46793  1.0000
  H   H140      1.0  0.46736  0.23868  0.30131  1.0000
  C   C181      1.0  0.42226  0.01972  0.46740  1.0000
  C   C182      1.0  0.46618  0.01665  0.46764  1.0000
  C   C183      1.0  0.39910  0.18668  0.23812  1.0000
  H   H141      1.0  0.45830  0.36766  0.36545  1.0000
  H   H142      1.0  0.41922  0.48429  0.41587  1.0000
  C   C184      1.0  0.32450  0.08626  0.43902  1.0000
  C   C185      1.0  0.38991  0.08644  0.30421  1.0000
  C   C186      1.0  0.38784  0.10114  0.31957  1.0000
  C   C187      1.0  0.39102  0.09293  0.33722  1.0000
  C   C188      1.0  0.39637  0.06978  0.33987  1.0000
  C   C189      1.0  0.39765  0.05464  0.32451  1.0000
  C   C190      1.0  0.39472  0.06297  0.30687  1.0000
  H   H143      1.0  0.38357  0.11898  0.31784  1.0000
  H   H144      1.0  0.38919  0.10445  0.34877  1.0000
  H   H145      1.0  0.40053  0.03602  0.32621  1.0000
  H   H146      1.0  0.39551  0.05080  0.29537  1.0000
  S   S45       1.0  0.37982  0.24929  0.25193  1.0000
  C   C191      1.0  0.46833  0.22137  0.29410  1.0000
  C   C192      1.0  0.45672  0.21409  0.27657  1.0000
  H   H147      1.0  0.42539  0.06118  0.47082  1.0000
  C   C193      1.0  0.46594  0.06159  0.47205  1.0000
  H   H148      1.0  0.42594  0.01033  0.25167  1.0000
  H   H149      1.0  0.41271  0.46061  0.34676  1.0000
  H   H150      1.0  0.30933  0.31255  0.47739  1.0000
  H   H151      1.0  0.39430  0.16608  0.24292  1.0000
  C   C194      1.0  0.00006  0.47263  0.48547  1.0000
  C   C195      1.0  0.34441  0.16879  0.29398  1.0000
  C   C196      1.0  0.36303  0.15713  0.29189  1.0000
  C   C197      1.0  0.39040  0.17119  0.29902  1.0000
  C   C198      1.0  0.39914  0.19686  0.30829  1.0000
  C   C199      1.0  0.38069  0.20889  0.31029  1.0000
  C   C200      1.0  0.35317  0.19460  0.30313  1.0000
  P   P7        1.0  0.39317  0.24305  0.32121  1.0000
  C   C201      1.0  0.40007  0.24184  0.34516  1.0000
  C   C202      1.0  0.42467  0.26583  0.31006  1.0000
  C   C203      1.0  0.42634  0.26249  0.29142  1.0000
  C   C204      1.0  0.44985  0.28063  0.28237  1.0000
  H   H152      1.0  0.28382  0.34098  0.47276  1.0000
  H   H153      1.0  0.44641  0.22538  0.27020  1.0000
  C   C205      1.0  0.44741  0.28723  0.31959  1.0000
  C   C206      1.0  0.40587  0.26531  0.35644  1.0000
  C   C207      1.0  0.41163  0.26482  0.37486  1.0000
  C   C208      1.0  0.41148  0.24083  0.38226  1.0000
  C   C209      1.0  0.40492  0.21707  0.37132  1.0000
  C   C210      1.0  0.39923  0.21751  0.35284  1.0000
  C   C211      1.0  0.36797  0.25681  0.31757  1.0000
  C   C212      1.0  0.35083  0.25718  0.33147  1.0000
  C   C213      1.0  0.33258  0.26929  0.32887  1.0000
  C   C214      1.0  0.33069  0.28041  0.31225  1.0000
  C   C215      1.0  0.34679  0.27910  0.29815  1.0000
  C   C216      1.0  0.36538  0.26742  0.30077  1.0000
  H   H154      1.0  0.32322  0.15787  0.28840  1.0000
  H   H155      1.0  0.35635  0.13718  0.28475  1.0000
  S   S46       1.0  0.35219  0.30334  0.24449  1.0000
  H   H156      1.0  0.42030  0.20742  0.31390  1.0000
  H   H157      1.0  0.33852  0.20339  0.30442  1.0000
  H   H158      1.0  0.40919  0.24610  0.28374  1.0000
  H   H159      1.0  0.41260  0.16422  0.46526  1.0000
  P   P8        1.0  0.46835  0.46279  0.35410  1.0000
  C   C217      1.0  0.39446  0.22995  0.24082  1.0000
  H   H160      1.0  0.44694  0.29046  0.33392  1.0000
  H   H161      1.0  0.40566  0.28399  0.35107  1.0000
  H   H162      1.0  0.41588  0.28298  0.38346  1.0000
  H   H163      1.0  0.32090  0.18814  0.45969  1.0000
  H   H164      1.0  0.40390  0.19818  0.37729  1.0000
  H   H165      1.0  0.39385  0.19870  0.34477  1.0000
  H   H166      1.0  0.35170  0.24855  0.34444  1.0000
  H   H167      1.0  0.32025  0.27051  0.33986  1.0000
  H   H168      1.0  0.31714  0.29048  0.31035  1.0000
  H   H169      1.0  0.34556  0.28803  0.28533  1.0000
  H   H170      1.0  0.37781  0.26708  0.28966  1.0000
  C   C218      1.0  0.43688  0.00356  0.46574  1.0000
  C   C219      1.0  0.47187  0.17762  0.27512  1.0000
  C   C220      1.0  0.31528  0.05242  0.46237  1.0000
  H   H171      1.0  0.45036  0.27831  0.26787  1.0000
  C   C221      1.0  0.06285  0.43592  0.48051  1.0000
  H   H172      1.0  0.43351  0.07607  0.27562  1.0000
  H   H173      1.0  0.34968  0.12921  0.44696  1.0000
  H   H174      1.0  0.42694  0.02922  0.38414  1.0000
  H   H175      1.0  0.46779  0.37436  0.32769  1.0000
  H   H176      1.0  0.45238  0.02455  0.28068  1.0000
  H   H177      1.0  0.30175  0.04160  0.43456  1.0000
  C   C222      1.0  0.38502  0.21351  0.48089  1.0000
  C   C223      1.0  0.36182  0.21344  0.47167  1.0000
  H   H178      1.0  0.44538  0.43280  0.44166  1.0000
  H   H179      1.0  0.45120  0.15766  0.32279  1.0000
  H   H180      1.0  0.42168  0.41402  0.47863  1.0000
  H   H181      1.0  0.41607  0.24052  0.39653  1.0000
  C   C224      1.0  0.33945  0.10794  0.45157  1.0000
  H   H182      1.0  0.37771  0.43913  0.32182  1.0000
  C   C225      1.0  0.39743  0.43793  0.32164  1.0000
  C   C226      1.0  0.45194  0.46940  0.37336  1.0000
  H   H183      1.0  0.44235  0.40117  0.35353  1.0000
  C   C227      1.0  0.28242  0.33068  0.48544  1.0000
  C   C228      1.0  0.46376  0.11418  0.28876  1.0000
  H   H184      1.0  0.41566  0.43705  0.41006  1.0000
  C   C229      1.0  0.44342  0.15015  0.47212  1.0000
  C   C230      1.0  0.46165  0.05293  0.32557  1.0000
  H   H185      1.0  0.46948  0.13077  0.48033  1.0000
  C   C231      1.0  0.33871  0.18809  0.46702  1.0000
  C   C232      1.0  0.46519  0.15319  0.33156  1.0000
  C   C233      1.0  0.31248  0.05849  0.44440  1.0000
  C   C234      1.0  0.43804  0.44810  0.38551  1.0000
  H   H186      1.0  0.47717  0.08409  0.47412  1.0000
  C   C235      1.0  0.45551  0.09044  0.27752  1.0000
  H   H187      1.0  0.40984  0.43695  0.25379  1.0000
  H   H188      1.0  0.36201  0.23307  0.46782  1.0000
  H   H189      1.0  0.46877  0.06891  0.25820  1.0000
  C   C236      1.0  0.47534  0.08632  0.26775  1.0000
  Fe  Fe24      1.0  0.38880  0.29317  0.24410  1.0000
  C   C237      1.0  0.42773  0.42153  0.30731  1.0000
  C   C238      1.0  0.44767  0.43361  0.32141  1.0000
  H   H190      1.0  0.45025  0.18705  0.25333  1.0000
  C   C239      1.0  0.44256  0.44776  0.33582  1.0000
  H   H191      1.0  0.47529  0.47628  0.27377  1.0000
  H   H192      1.0  0.37121  0.04357  0.48053  1.0000
  H   H193      1.0  0.39965  0.01001  0.46608  1.0000
  C   C240      1.0  0.44538  0.00870  0.25351  1.0000
  C   C241      1.0  0.46350  0.40902  0.35921  1.0000
  H   H194      1.0  0.32064  0.14338  0.46787  1.0000
  C   C242      1.0  0.34177  0.10209  0.46973  1.0000
  C   C243      1.0  0.41741  0.15025  0.47351  1.0000
  H   H195      1.0  0.43716  0.14226  0.35359  1.0000
  H   H196      1.0  0.45506  0.34826  0.29842  1.0000
  H   H197      1.0  0.43642  0.42729  0.38342  1.0000
  C   C244      1.0  0.41731  0.44995  0.33581  1.0000
  H   H198      1.0  0.43129  0.40980  0.29648  1.0000
  C   C245      1.0  0.45695  0.14413  0.34894  1.0000
  H   H199      1.0  0.45723  0.07086  0.32687  1.0000
  H   H200      1.0  0.39016  0.46340  0.46305  1.0000
  C   C246      1.0  0.33886  0.16276  0.47147  1.0000
  H   H201      1.0  0.39743  0.42546  0.44823  1.0000
  H   H202      1.0  0.47395  0.16153  0.26724  1.0000
  H   H203      1.0  0.40476  0.16208  0.29728  1.0000
  H   H204      1.0  0.06744  0.43143  0.46708  1.0000
  C   C247      1.0  0.42625  0.45354  0.40072  1.0000
  S   S47       1.0  0.43644  0.11845  0.24253  1.0000
  H   H205      1.0  0.04447  0.46220  0.47126  1.0000
  H   H206      1.0  0.45851  0.16410  0.46299  1.0000
  H   H207      1.0  0.47793  0.00465  0.46677  1.0000
  H   H208      1.0  0.37424  0.19447  0.25769  1.0000
  C   C248      1.0  0.98262  0.44430  0.48118  1.0000
  C   C249      1.0  0.41106  0.46709  0.45955  1.0000
  C   C250      1.0  0.46762  0.03004  0.38368  1.0000
  H   H209      1.0  0.47833  0.05272  0.38376  1.0000
  C   C251      1.0  0.04974  0.45326  0.48293  1.0000
  C   C252      1.0  0.36251  0.16261  0.48017  1.0000
  C   C253      1.0  0.46499  0.47562  0.45151  1.0000
  C   C254      1.0  0.33690  0.39359  0.48197  1.0000
  H   H210      1.0  0.38692  0.41382  0.29667  1.0000
  H   H211      1.0  0.42695  0.48619  0.26483  1.0000
  H   H212      1.0  0.32300  0.09104  0.42501  1.0000
  C   C255      1.0  0.41511  0.44564  0.45124  1.0000
  C   C256      1.0  0.44210  0.44981  0.44745  1.0000
  C   C257      1.0  0.43677  0.04868  0.47032  1.0000
  H   H213      1.0  0.43480  0.03080  0.34686  1.0000
  C   C258      1.0  0.38790  0.20289  0.24657  1.0000
  C   C259      1.0  0.45553  0.99915  0.23921  1.0000
  C   C260      1.0  0.40264  0.42375  0.30742  1.0000
  C   C261      1.0  0.44954  0.13118  0.48185  1.0000
  C   C262      1.0  0.47118  0.30503  0.31055  1.0000
  C   C263      1.0  0.42814  0.48017  0.40395  1.0000
  C   C264      1.0  0.35763  0.02175  0.48276  1.0000
  C   C265      1.0  0.46068  0.01702  0.26992  1.0000
  C   C266      1.0  0.47391  0.13695  0.36029  1.0000
  C   C267      1.0  0.38529  0.18821  0.48531  1.0000
  H   H214      1.0  0.30673  0.03080  0.46637  1.0000
  H   H215      1.0  0.98913  0.36173  0.48421  1.0000
  C   C268      1.0  0.47233  0.00629  0.32200  1.0000
  P   P9        1.0  0.36301  0.12988  0.48557  1.0000
  H   H216      1.0  0.46994  0.42779  0.41272  1.0000
  C   C269      1.0  0.33014  0.07408  0.47496  1.0000
  C   C270      1.0  0.39745  0.13156  0.48485  1.0000
  C   C271      1.0  0.47232  0.30187  0.29193  1.0000
  H   H217      1.0  0.46695  0.43172  0.32118  1.0000
  C   C272      1.0  0.45432  0.00702  0.33509  1.0000
  H   H218      1.0  0.46731  0.12963  0.37367  1.0000
  H   H219      1.0  0.40303  0.23328  0.48418  1.0000
  S   S48       1.0  0.47550  0.11372  0.44241  1.0000
  C   C273      1.0  0.47350  0.36823  0.29976  1.0000
  C   C274      1.0  0.41962  0.45406  0.24468  1.0000
  C   C275      1.0  0.47954  0.05223  0.31244  1.0000
  C   C276      1.0  0.42926  0.48175  0.25088  1.0000
  H   H220      1.0  0.45907  0.40078  0.48723  1.0000
  H   H221      1.0  0.45973  0.42505  0.23874  1.0000
  H   H222      1.0  0.44424  0.98946  0.34380  1.0000
  C   C277      1.0  0.29675  0.31451  0.48802  1.0000
  C   C278      1.0  0.43239  0.47522  0.56874  1.0000
  Fe  Fe25      1.0  0.28524  0.44428  0.57059  1.0000
  S   S49       1.0  0.28000  0.40000  0.57143  1.0000
  S   S50       1.0  0.25279  0.46037  0.56425  1.0000
  H   H223      1.0  0.00246  0.43838  0.66339  1.0000
  S   S51       1.0  0.34520  0.42609  0.58517  1.0000
  Fe  Fe26      1.0  0.32200  0.41649  0.55803  1.0000
  S   S52       1.0  0.33884  0.39463  0.53765  1.0000
  Fe  Fe27      1.0  0.30420  0.41365  0.59821  1.0000
  S   S53       1.0  0.28958  0.38911  0.62405  1.0000
  H   H224      1.0  0.14583  0.34624  0.68420  1.0000
  S   S54       1.0  0.30729  0.45663  0.59774  1.0000
  H   H225      1.0  0.40991  0.02787  0.60313  1.0000
  S   S55       1.0  0.33423  0.43311  0.70462  1.0000
  H   H226      1.0  0.36314  0.02609  0.51181  1.0000
  H   H227      1.0  0.01201  0.38058  0.51425  1.0000
  S   S56       1.0  0.02795  0.43940  0.59154  1.0000
  Fe  Fe28      1.0  0.08955  0.42258  0.58110  1.0000
  S   S57       1.0  0.04494  0.38947  0.58394  1.0000
  S   S58       1.0  0.12178  0.40531  0.57847  1.0000
  Fe  Fe29      1.0  0.03193  0.41668  0.56662  1.0000
  Fe  Fe30      1.0  0.07298  0.46949  0.58830  1.0000
  Fe  Fe31      1.0  0.04468  0.41502  0.60841  1.0000
  S   S59       1.0  0.02638  0.39571  0.63542  1.0000
  S   S60       1.0  0.07675  0.44872  0.56253  1.0000
  S   S61       1.0  0.08944  0.44611  0.60636  1.0000
  H   H228      1.0  0.34201  0.45916  0.51764  1.0000
  S   S62       1.0  0.07392  0.43520  0.71674  1.0000
  H   H229      1.0  0.24709  0.48683  0.60264  1.0000
  C   C279      1.0  0.03955  0.40762  0.65796  1.0000
  C   C280      1.0  0.02510  0.39147  0.67250  1.0000
  C   C281      1.0  0.03491  0.39974  0.69053  1.0000
  C   C282      1.0  0.05955  0.42425  0.69433  1.0000
  C   C283      1.0  0.07389  0.44053  0.67979  1.0000
  C   C284      1.0  0.06390  0.43244  0.66177  1.0000
  C   C285      1.0  0.29511  0.30120  0.50432  1.0000
  C   C286      1.0  0.44703  0.45500  0.51687  1.0000
  H   H230      1.0  0.09298  0.45951  0.68248  1.0000
  H   H231      1.0  0.07521  0.44527  0.65083  1.0000
  H   H232      1.0  0.44367  0.99416  0.64411  1.0000
  C   C287      1.0  0.47156  0.42668  0.51156  1.0000
  C   C288      1.0  0.14280  0.44530  0.70466  1.0000
  H   H233      1.0  0.21343  0.48355  0.56543  1.0000
  C   C289      1.0  0.21687  0.44528  0.56971  1.0000
  C   C290      1.0  0.20221  0.41712  0.57404  1.0000
  C   C291      1.0  0.17329  0.40547  0.57701  1.0000
  C   C292      1.0  0.15864  0.42181  0.57582  1.0000
  C   C293      1.0  0.17345  0.45018  0.57197  1.0000
  C   C294      1.0  0.20235  0.46176  0.56882  1.0000
  H   H234      1.0  0.21297  0.40412  0.57453  1.0000
  H   H235      1.0  0.16206  0.38351  0.57996  1.0000
  H   H236      1.0  0.16253  0.46303  0.57101  1.0000
  H   H237      1.0  0.18530  0.42779  0.62574  1.0000
  C   C295      1.0  0.30011  0.40392  0.64628  1.0000
  C   C296      1.0  0.32478  0.42851  0.64977  1.0000
  C   C297      1.0  0.33440  0.43768  0.66769  1.0000
  C   C298      1.0  0.31907  0.42295  0.68239  1.0000
  C   C299      1.0  0.29358  0.39924  0.67890  1.0000
  C   C300      1.0  0.28437  0.38961  0.66097  1.0000
  H   H238      1.0  0.33704  0.43980  0.63865  1.0000
  H   H239      1.0  0.35417  0.45599  0.67015  1.0000
  H   H240      1.0  0.28174  0.38747  0.69002  1.0000
  H   H241      1.0  0.26530  0.37055  0.65847  1.0000
  C   C301      1.0  0.39368  0.42975  0.72314  1.0000
  C   C302      1.0  0.34416  0.38963  0.51430  1.0000
  C   C303      1.0  0.35953  0.37482  0.50988  1.0000
  C   C304      1.0  0.99002  0.46860  0.55960  1.0000
  H   H242      1.0  0.36822  0.36719  0.52059  1.0000
  H   H243      1.0  0.41196  0.01244  0.51027  1.0000
  C   C305      1.0  0.26585  0.47971  0.69996  1.0000
  H   H244      1.0  0.23855  0.41998  0.70540  1.0000
  C   C306      1.0  0.35296  0.01173  0.50055  1.0000
  H   H245      1.0  0.20006  0.43255  0.69902  1.0000
  C   C307      1.0  0.43068  0.44337  0.50099  1.0000
  H   H246      1.0  0.98174  0.46471  0.57296  1.0000
  C   C308      1.0  0.40925  0.43165  0.58429  1.0000
  C   C309      1.0  0.40403  0.41677  0.56789  1.0000
  S   S63       1.0  0.99433  0.40287  0.54561  1.0000
  C   C310      1.0  0.40355  0.11218  0.49432  1.0000
  C   C311      1.0  0.16605  0.45472  0.62081  1.0000
  H   H247      1.0  0.43411  0.09703  0.50012  1.0000
  H   H248      1.0  0.40157  0.42060  0.59660  1.0000
  H   H249      1.0  0.39210  0.39418  0.56743  1.0000
  C   C312      1.0  0.11017  0.38105  0.62647  1.0000
  H   H250      1.0  0.40344  0.18871  0.49250  1.0000
  H   H251      1.0  0.38624  0.46878  0.62402  1.0000
  C   C313      1.0  0.01280  0.45878  0.65746  1.0000
  H   H252      1.0  0.13112  0.43145  0.71510  1.0000
  C   C314      1.0  0.19660  0.41119  0.69651  1.0000
  S   S64       1.0  0.32562  0.46013  0.55557  1.0000
  C   C315      1.0  0.21289  0.38185  0.53589  1.0000
  C   C316      1.0  0.01819  0.46063  0.63914  1.0000
  H   H253      1.0  0.41407  0.44868  0.49689  1.0000
  Fe  Fe32      1.0  0.31433  0.43031  0.73200  1.0000
  C   C317      1.0  0.13189  0.37501  0.63244  1.0000
  H   H254      1.0  0.21329  0.35044  0.62166  1.0000
  H   H255      1.0  0.01677  0.48122  0.68231  1.0000
  C   C318      1.0  0.26618  0.32181  0.51601  1.0000
  C   C319      1.0  0.10523  0.36486  0.73343  1.0000
  P   P10       1.0  0.24542  0.32532  0.53376  1.0000
  C   C320      1.0  0.21226  0.29457  0.53170  1.0000
  C   C321      1.0  0.26160  0.32888  0.55596  1.0000
  C   C322      1.0  0.24588  0.32652  0.57123  1.0000
  C   C323      1.0  0.25871  0.33166  0.58848  1.0000
  C   C324      1.0  0.28731  0.33943  0.59059  1.0000
  C   C325      1.0  0.30310  0.34202  0.57548  1.0000
  C   C326      1.0  0.29033  0.33679  0.55824  1.0000
  C   C327      1.0  0.20622  0.27197  0.54310  1.0000
  C   C328      1.0  0.18060  0.24800  0.54114  1.0000
  C   C329      1.0  0.16104  0.24630  0.52766  1.0000
  C   C330      1.0  0.17079  0.48221  0.67761  1.0000
  C   C331      1.0  0.19276  0.29251  0.51797  1.0000
  C   C332      1.0  0.24078  0.35670  0.53165  1.0000
  C   C333      1.0  0.21571  0.35703  0.53654  1.0000
  C   C334      1.0  0.12456  0.37706  0.72008  1.0000
  C   C335      1.0  0.23515  0.40655  0.53061  1.0000
  C   C336      1.0  0.26030  0.40650  0.52602  1.0000
  C   C337      1.0  0.26318  0.38171  0.52665  1.0000
  H   H256      1.0  0.27973  0.45073  0.66294  1.0000
  C   C338      1.0  0.38473  0.46793  0.52386  1.0000
  C   C339      1.0  0.40442  0.45535  0.64588  1.0000
  H   H257      1.0  0.27810  0.29364  0.53061  1.0000
  H   H258      1.0  0.07881  0.37062  0.68522  1.0000
  H   H259      1.0  0.22393  0.32157  0.56979  1.0000
  H   H260      1.0  0.24682  0.33070  0.60024  1.0000
  H   H261      1.0  0.29737  0.34429  0.60394  1.0000
  H   H262      1.0  0.32546  0.34899  0.57704  1.0000
  H   H263      1.0  0.30323  0.33995  0.54675  1.0000
  H   H264      1.0  0.22132  0.27270  0.55340  1.0000
  H   H265      1.0  0.17597  0.23065  0.55001  1.0000
  C   C340      1.0  0.40307  0.45300  0.73492  1.0000
  C   C341      1.0  0.46689  0.44578  0.52234  1.0000
  H   H266      1.0  0.04526  0.34938  0.70875  1.0000
  H   H267      1.0  0.19368  0.38221  0.53987  1.0000
  H   H268      1.0  0.03645  0.48821  0.61730  1.0000
  H   H269      1.0  0.23313  0.42591  0.53055  1.0000
  H   H270      1.0  0.27782  0.42585  0.52247  1.0000
  H   H271      1.0  0.28311  0.38220  0.52370  1.0000
  H   H272      1.0  0.14178  0.36706  0.62291  1.0000
  C   C342      1.0  0.26701  0.33418  0.49931  1.0000
  C   C343      1.0  0.24716  0.48858  0.69216  1.0000
  H   H273      1.0  0.08153  0.39743  0.63382  1.0000
  C   C344      1.0  0.15103  0.43530  0.68947  1.0000
  H   H274      1.0  0.07991  0.41069  0.49354  1.0000
  C   C345      1.0  0.21454  0.37667  0.69763  1.0000
  H   H275      1.0  0.23260  0.38615  0.59840  1.0000
  H   H276      1.0  0.27059  0.48264  0.71435  1.0000
  H   H277      1.0  0.25597  0.34668  0.49694  1.0000
  C   C346      1.0  0.09806  0.39229  0.63852  1.0000
  H   H278      1.0  0.47852  0.45310  0.53508  1.0000
  H   H279      1.0  0.44671  0.03433  0.62650  1.0000
  H   H280      1.0  0.09836  0.40678  0.66558  1.0000
  P   P11       1.0  0.24350  0.46479  0.63896  1.0000
  C   C347      1.0  0.27787  0.46651  0.68931  1.0000
  C   C348      1.0  0.16524  0.45404  0.67600  1.0000
  H   H281      1.0  0.04532  0.45037  0.52862  1.0000
  H   H282      1.0  0.39821  0.43470  0.63990  1.0000
  C   C349      1.0  0.45178  0.01293  0.51713  1.0000
  C   C350      1.0  0.42305  0.46087  0.58467  1.0000
  H   H283      1.0  0.21809  0.34831  0.73312  1.0000
  C   C351      1.0  0.06988  0.42424  0.49539  1.0000
  H   H284      1.0  0.38797  0.09671  0.50248  1.0000
  P   P12       1.0  0.14120  0.39842  0.68618  1.0000
  C   C352      1.0  0.41327  0.43104  0.55193  1.0000
  H   H285      1.0  0.15839  0.37548  0.65463  1.0000
  H   H286      1.0  0.46085  0.02260  0.50475  1.0000
  C   C353      1.0  0.24058  0.48446  0.67366  1.0000
  C   C354      1.0  0.21855  0.40419  0.70012  1.0000
  C   C355      1.0  0.42404  0.00716  0.52019  1.0000
  C   C356      1.0  0.08666  0.36890  0.69846  1.0000
  C   C357      1.0  0.34957  0.12214  0.50783  1.0000
  C   C358      1.0  0.36783  0.13161  0.52307  1.0000
  C   C359      1.0  0.35734  0.12562  0.54035  1.0000
  C   C360      1.0  0.32857  0.11049  0.54250  1.0000
  C   C361      1.0  0.31022  0.10160  0.52739  1.0000
  C   C362      1.0  0.32064  0.10760  0.51011  1.0000
  C   C363      1.0  0.14110  0.37967  0.65056  1.0000
  H   H287      1.0  0.10301  0.37749  0.61244  1.0000
  H   H288      1.0  0.30613  0.10084  0.49854  1.0000
  C   C364      1.0  0.18832  0.35584  0.69185  1.0000
  H   H289      1.0  0.14121  0.22769  0.52613  1.0000
  C   C365      1.0  0.18824  0.44919  0.62653  1.0000
  C   C366      1.0  0.36376  0.47318  0.51560  1.0000
  C   C367      1.0  0.17036  0.39048  0.69033  1.0000
  H   H290      1.0  0.23168  0.37150  0.70054  1.0000
  C   C368      1.0  0.05043  0.44697  0.51513  1.0000
  C   C369      1.0  0.16622  0.36265  0.68839  1.0000
  Fe  Fe33      1.0  0.34682  0.46867  0.58304  1.0000
  H   H291      1.0  0.17135  0.44670  0.66405  1.0000
  H   H292      1.0  0.21971  0.41381  0.66005  1.0000
  C   C370      1.0  0.41153  0.99394  0.53587  1.0000
  C   C371      1.0  0.41903  0.46279  0.66254  1.0000
  H   H293      1.0  0.39014  0.14365  0.52163  1.0000
  H   H294      1.0  0.37153  0.13276  0.55207  1.0000
  H   H295      1.0  0.32047  0.10576  0.55589  1.0000
  H   H296      1.0  0.28790  0.09005  0.52907  1.0000
  P   P13       1.0  0.44008  0.47849  0.53142  1.0000
  H   H297      1.0  0.30614  0.28856  0.50623  1.0000
  H   H298      1.0  0.32136  0.41074  0.50309  1.0000
  H   H299      1.0  0.17351  0.43520  0.73522  1.0000
  C   C372      1.0  0.10738  0.39721  0.65658  1.0000
  H   H300      1.0  0.24567  0.43569  0.60562  1.0000
  C   C373      1.0  0.12844  0.39025  0.66292  1.0000
  C   C374      1.0  0.42961  0.11217  0.49293  1.0000
  C   C375      1.0  0.42813  0.46041  0.55225  1.0000
  H   H301      1.0  0.02356  0.38698  0.70148  1.0000
  C   C376      1.0  0.39755  0.47448  0.63697  1.0000
  H   H302      1.0  0.20689  0.36446  0.65250  1.0000
  P   P14       1.0  0.02690  0.48174  0.50316  1.0000
  C   C377      1.0  0.27281  0.48787  0.62609  1.0000
  H   H303      1.0  0.14667  0.38558  0.72370  1.0000
  H   H304      1.0  0.40824  0.41905  0.53934  1.0000
  C   C378      1.0  0.33323  0.39935  0.50012  1.0000
  C   C379      1.0  0.23440  0.42862  0.63353  1.0000
  C   C380      1.0  0.23732  0.42042  0.61602  1.0000
  C   C381      1.0  0.22945  0.39224  0.61176  1.0000
  C   C382      1.0  0.21852  0.37209  0.62489  1.0000
  C   C383      1.0  0.21507  0.38002  0.64227  1.0000
  C   C384      1.0  0.22277  0.40814  0.64656  1.0000
  H   H305      1.0  0.19853  0.33836  0.54122  1.0000
  H   H306      1.0  0.18504  0.33437  0.69025  1.0000
  H   H307      1.0  0.14167  0.48077  0.71796  1.0000
  C   C385      1.0  0.21388  0.47119  0.63263  1.0000
  C   C386      1.0  0.14869  0.47352  0.70633  1.0000
  C   C387      1.0  0.11547  0.37939  0.70248  1.0000
  C   C388      1.0  0.27949  0.30443  0.51816  1.0000
  H   H308      1.0  0.37884  0.44994  0.53226  1.0000
  H   H309      1.0  0.29225  0.45943  0.69540  1.0000
  C   C389      1.0  0.06374  0.42983  0.51268  1.0000
  C   C390      1.0  0.04331  0.45882  0.50027  1.0000
  H   H310      1.0  0.14655  0.43778  0.61569  1.0000
  C   C391      1.0  0.06739  0.35666  0.71185  1.0000
  H   H311      1.0  0.01182  0.44171  0.63091  1.0000
  H   H312      1.0  0.42426  0.44789  0.66947  1.0000
  H   H313      1.0  0.06883  0.42048  0.52423  1.0000
  H   H314      1.0  0.37965  0.38528  0.72068  1.0000
  H   H315      1.0  0.00619  0.37232  0.66978  1.0000
  H   H316      1.0  0.39102  0.43218  0.70885  1.0000
  C   C392      1.0  0.01196  0.47700  0.52510  1.0000
  C   C393      1.0  0.99205  0.38018  0.51075  1.0000
  H   H317      1.0  0.19740  0.30945  0.50874  1.0000
  C   C394      1.0  0.42945  0.01381  0.62387  1.0000
  C   C395      1.0  0.38705  0.40329  0.72985  1.0000
  C   C396      1.0  0.25225  0.47090  0.66286  1.0000
  C   C397      1.0  0.45570  0.41580  0.49557  1.0000
  C   C398      1.0  0.27079  0.46172  0.67089  1.0000
  C   C399      1.0  0.16919  0.48214  0.62112  1.0000
  C   C400      1.0  0.03210  0.48682  0.63149  1.0000
  C   C401      1.0  0.01857  0.48525  0.55756  1.0000
  C   C402      1.0  0.40878  0.01019  0.61070  1.0000
  H   H318      1.0  0.42591  0.47254  0.59724  1.0000
  C   C403      1.0  0.07664  0.35471  0.72933  1.0000
  C   C404      1.0  0.45432  0.99168  0.54530  1.0000
  H   H319      1.0  0.40798  0.47348  0.72969  1.0000
  C   C405      1.0  0.43490  0.42369  0.49052  1.0000
  C   C406      1.0  0.42768  0.99100  0.63381  1.0000
  C   C407      1.0  0.02122  0.48314  0.66813  1.0000
  H   H320      1.0  0.33299  0.06884  0.48865  1.0000
  C   C408      1.0  0.41297  0.48576  0.52126  1.0000
  C   C409      1.0  0.98330  0.46038  0.52727  1.0000
  H   H321      1.0  0.15213  0.26709  0.50546  1.0000
  H   H322      1.0  0.15203  0.48634  0.61643  1.0000
  C   C410      1.0  0.36340  0.36927  0.49172  1.0000
  C   C411      1.0  0.16717  0.26851  0.51603  1.0000
  C   C412      1.0  0.46740  0.00586  0.52985  1.0000
  H   H323      1.0  0.38988  0.98913  0.53811  1.0000
  H   H324      1.0  0.37481  0.35739  0.48872  1.0000
  H   H325      1.0  0.98074  0.30229  0.51607  1.0000
  H   H326      1.0  0.98494  0.42805  0.48860  1.0000
  S   S65       1.0  0.25266  0.01562  0.94844  1.0000
  C   C413      1.0  0.99891  0.30724  0.84308  1.0000
  Fe  Fe34      1.0  0.19463  0.01895  0.89356  1.0000
  S   S66       1.0  0.24001  0.02827  0.89641  1.0000
  S   S67       1.0  0.17731  0.05081  0.88873  1.0000
  H   H327      1.0  0.12183  0.30863  0.78075  1.0000
  C   C414      1.0  0.38575  0.44025  0.79601  1.0000
  H   H328      1.0  0.42349  0.47893  0.79315  1.0000
  H   H329      1.0  0.39034  0.17784  0.83381  1.0000
  H   H330      1.0  0.01664  0.36989  0.86410  1.0000
  C   C415      1.0  0.16913  0.31177  0.93356  1.0000
  Fe  Fe35      1.0  0.32842  0.47002  0.76513  1.0000
  S   S68       1.0  0.33749  0.43363  0.75866  1.0000
  C   C416      1.0  0.20756  0.31880  0.95432  1.0000
  C   C417      1.0  0.37399  0.15767  0.83734  1.0000
  H   H331      1.0  0.27849  0.03322  0.98391  1.0000
  Fe  Fe36      1.0  0.29541  0.40638  0.77046  1.0000
  S   S69       1.0  0.28505  0.36703  0.78757  1.0000
  S   S70       1.0  0.28773  0.44317  0.77851  1.0000
  Fe  Fe37      1.0  0.23253  0.27916  0.88272  1.0000
  S   S71       1.0  0.20751  0.23873  0.86723  1.0000
  S   S72       1.0  0.25347  0.32182  0.86832  1.0000
  Fe  Fe38      1.0  0.21125  0.25043  0.92015  1.0000
  S   S73       1.0  0.18423  0.20930  0.90572  1.0000
  S   S74       1.0  0.20098  0.24376  0.95031  1.0000
  Fe  Fe39      1.0  0.22105  0.21746  0.88904  1.0000
  S   S75       1.0  0.23797  0.18481  0.88577  1.0000
  Fe  Fe40      1.0  0.17320  0.23416  0.88570  1.0000
  S   S76       1.0  0.13054  0.22545  0.87390  1.0000
  S   S77       1.0  0.24901  0.25856  0.90367  1.0000
  S   S78       1.0  0.19739  0.27465  0.90083  1.0000
  Fe  Fe41      1.0  0.10213  0.44221  0.78147  1.0000
  S   S79       1.0  0.07790  0.40230  0.76561  1.0000
  H   H332      1.0  0.31744  0.99895  0.80042  1.0000
  Fe  Fe42      1.0  0.05481  0.45967  0.77873  1.0000
  S   S80       1.0  0.02692  0.41980  0.76308  1.0000
  Fe  Fe43      1.0  0.04238  0.39750  0.78340  1.0000
  S   S81       1.0  0.01893  0.35535  0.79787  1.0000
  S   S82       1.0  0.06750  0.43671  0.79973  1.0000
  H   H333      1.0  0.20085  0.02531  0.84886  1.0000
  S   S83       1.0  0.00298  0.28050  0.92490  1.0000
  S   S84       1.0  0.04729  0.24095  0.92687  1.0000
  C   C418      1.0  0.01400  0.34506  0.82105  1.0000
  H   H334      1.0  0.12817  0.29224  0.94407  1.0000
  H   H335      1.0  0.02595  0.38610  0.83264  1.0000
  H   H336      1.0  0.14012  0.43967  0.75597  1.0000
  C   C419      1.0  0.30730  0.03775  0.87953  1.0000
  C   C420      1.0  0.10806  0.23108  0.88855  1.0000
  C   C421      1.0  0.08243  0.22915  0.88176  1.0000
  C   C422      1.0  0.06368  0.23245  0.89334  1.0000
  C   C423      1.0  0.07050  0.23766  0.91175  1.0000
  C   C424      1.0  0.09623  0.23990  0.91849  1.0000
  C   C425      1.0  0.11506  0.23677  0.90694  1.0000
  H   H337      1.0  0.07689  0.22467  0.86756  1.0000
  H   H338      1.0  0.04371  0.23032  0.88811  1.0000
  H   H339      1.0  0.10138  0.24359  0.93275  1.0000
  H   H340      1.0  0.13470  0.23814  0.91231  1.0000
  C   C426      1.0  0.32904  0.11812  0.83054  1.0000
  C   C427      1.0  0.21105  0.44475  0.77458  1.0000
  C   C428      1.0  0.19217  0.44738  0.78636  1.0000
  C   C429      1.0  0.16660  0.44570  0.77969  1.0000
  H   H341      1.0  0.47729  0.45382  0.82994  1.0000
  C   C430      1.0  0.02716  0.19065  0.97425  1.0000
  P   P15       1.0  0.13463  0.27820  0.98113  1.0000
  Fe  Fe44      1.0  0.06499  0.42811  0.74697  1.0000
  C   C431      1.0  0.12475  0.20321  0.95931  1.0000
  H   H342      1.0  0.20805  0.31975  0.78716  1.0000
  C   C432      1.0  0.27530  0.35485  0.81003  1.0000
  C   C433      1.0  0.27356  0.37187  0.82399  1.0000
  C   C434      1.0  0.26668  0.36136  0.84155  1.0000
  C   C435      1.0  0.26103  0.33356  0.84555  1.0000
  C   C436      1.0  0.26236  0.31645  0.83150  1.0000
  C   C437      1.0  0.26944  0.32701  0.81398  1.0000
  H   H343      1.0  0.27775  0.39322  0.82132  1.0000
  H   H344      1.0  0.26577  0.37495  0.85217  1.0000
  H   H345      1.0  0.25833  0.29513  0.83419  1.0000
  H   H346      1.0  0.27054  0.31345  0.80343  1.0000
  C   C438      1.0  0.23813  0.01273  0.97011  1.0000
  C   C439      1.0  0.21543  0.25144  0.97293  1.0000
  H   H347      1.0  0.03791  0.25999  0.96275  1.0000
  H   H348      1.0  0.03625  0.18099  0.96531  1.0000
  H   H349      1.0  0.25401  0.28672  0.96688  1.0000
  C   C440      1.0  0.19470  0.08823  0.88990  1.0000
  C   C441      1.0  0.17863  0.10316  0.88864  1.0000
  C   C442      1.0  0.19144  0.13272  0.88817  1.0000
  C   C443      1.0  0.22062  0.14779  0.88853  1.0000
  C   C444      1.0  0.23670  0.13290  0.89023  1.0000
  C   C445      1.0  0.22388  0.10337  0.89112  1.0000
  H   H350      1.0  0.15607  0.09177  0.88768  1.0000
  H   H351      1.0  0.17872  0.14376  0.88691  1.0000
  H   H352      1.0  0.25927  0.14427  0.89055  1.0000
  H   H353      1.0  0.23657  0.09227  0.89203  1.0000
  C   C446      1.0  0.21709  0.07009  0.84920  1.0000
  C   C447      1.0  0.01327  0.35487  0.85328  1.0000
  C   C448      1.0  0.40245  0.46930  0.79799  1.0000
  Fe  Fe45      1.0  0.26789  0.43781  0.75071  1.0000
  C   C449      1.0  0.31507  0.00199  0.96811  1.0000
  C   C450      1.0  0.20759  0.11718  0.95878  1.0000
  S   S85       1.0  0.98859  0.23838  0.88889  1.0000
  C   C451      1.0  0.01860  0.36416  0.83537  1.0000
  P   P16       1.0  0.19618  0.14443  0.96055  1.0000
  H   H354      1.0  0.24243  0.09380  0.93050  1.0000
  C   C452      1.0  0.05802  0.27510  0.96834  1.0000
  C   C453      1.0  0.15997  0.29766  0.96468  1.0000
  H   H355      1.0  0.15247  0.15863  0.97411  1.0000
  C   C454      1.0  0.25421  0.20953  0.93320  1.0000
  C   C455      1.0  0.26911  0.22918  0.94688  1.0000
  C   C456      1.0  0.06386  0.46420  0.84565  1.0000
  H   H356      1.0  0.04571  0.30835  0.96963  1.0000
  C   C457      1.0  0.22441  0.17790  0.95525  1.0000
  C   C458      1.0  0.23168  0.18421  0.93729  1.0000
  C   C459      1.0  0.16778  0.13634  0.94411  1.0000
  S   S86       1.0  0.99522  0.31592  0.88029  1.0000
  H   H357      1.0  0.40888  0.38049  0.80920  1.0000
  C   C460      1.0  0.15355  0.10931  0.93624  1.0000
  C   C461      1.0  0.13220  0.10336  0.92312  1.0000
  C   C462      1.0  0.12465  0.12420  0.91790  1.0000
  C   C463      1.0  0.13848  0.15103  0.92576  1.0000
  C   C464      1.0  0.16023  0.15725  0.93865  1.0000
  H   H358      1.0  0.27302  0.23871  0.97537  1.0000
  H   H359      1.0  0.28604  0.24910  0.94358  1.0000
  C   C465      1.0  0.36455  0.47463  0.81180  1.0000
  C   C466      1.0  0.13994  0.34626  0.79770  1.0000
  C   C467      1.0  0.11152  0.37119  0.79979  1.0000
  C   C468      1.0  0.20916  0.34719  0.74614  1.0000
  C   C469      1.0  0.35845  0.42860  0.80239  1.0000
  H   H360      1.0  0.12190  0.08269  0.91676  1.0000
  H   H361      1.0  0.10839  0.11972  0.90753  1.0000
  C   C470      1.0  0.11886  0.32584  0.78651  1.0000
  C   C471      1.0  0.43491  0.43008  0.79204  1.0000
  C   C472      1.0  0.35016  0.14415  0.82601  1.0000
  H   H362      1.0  0.31311  0.32886  0.78181  1.0000
  C   C473      1.0  0.33145  0.10561  0.84659  1.0000
  C   C474      1.0  0.37680  0.14507  0.85315  1.0000
  C   C475      1.0  0.35570  0.11904  0.85773  1.0000
  C   C476      1.0  0.25615  0.02267  0.98552  1.0000
  H   H363      1.0  0.39540  0.15543  0.86184  1.0000
  H   H364      1.0  0.35852  0.10942  0.86986  1.0000
  C   C477      1.0  0.06473  0.28493  0.82465  1.0000
  C   C478      1.0  0.04424  0.26127  0.83242  1.0000
  C   C479      1.0  0.04262  0.25993  0.85114  1.0000
  C   C480      1.0  0.06129  0.28232  0.86212  1.0000
  C   C481      1.0  0.08179  0.30627  0.85440  1.0000
  C   C482      1.0  0.08362  0.30726  0.83559  1.0000
  P   P17       1.0  0.10604  0.33541  0.86835  1.0000
  C   C483      1.0  0.09109  0.33430  0.89003  1.0000
  C   C484      1.0  0.13828  0.33299  0.87291  1.0000
  C   C485      1.0  0.14205  0.31014  0.86639  1.0000
  C   C486      1.0  0.16695  0.30841  0.87054  1.0000
  C   C487      1.0  0.18825  0.32950  0.88098  1.0000
  C   C488      1.0  0.18426  0.35176  0.88803  1.0000
  C   C489      1.0  0.15918  0.35327  0.88426  1.0000
  C   C490      1.0  0.09486  0.31809  0.90368  1.0000
  C   C491      1.0  0.08361  0.31707  0.92055  1.0000
  C   C492      1.0  0.06838  0.33206  0.92391  1.0000
  C   C493      1.0  0.06384  0.34756  0.91029  1.0000
  C   C494      1.0  0.07514  0.34872  0.89341  1.0000
  C   C495      1.0  0.11196  0.36725  0.85680  1.0000
  C   C496      1.0  0.08908  0.37049  0.84940  1.0000
  C   C497      1.0  0.09331  0.39478  0.84030  1.0000
  C   C498      1.0  0.12036  0.41583  0.83822  1.0000
  C   C499      1.0  0.14328  0.41242  0.84496  1.0000
  C   C500      1.0  0.13917  0.38823  0.85413  1.0000
  H   H365      1.0  0.06583  0.28603  0.81015  1.0000
  H   H366      1.0  0.02955  0.24398  0.82397  1.0000
  H   H367      1.0  0.02679  0.24155  0.85718  1.0000
  H   H368      1.0  0.05945  0.28084  0.87657  1.0000
  H   H369      1.0  0.09938  0.32544  0.82936  1.0000
  H   H370      1.0  0.12574  0.29333  0.85846  1.0000
  H   H371      1.0  0.16962  0.29043  0.86593  1.0000
  H   H372      1.0  0.20769  0.32829  0.88388  1.0000
  H   H373      1.0  0.20053  0.36764  0.89655  1.0000
  H   H374      1.0  0.15607  0.37031  0.89015  1.0000
  H   H375      1.0  0.10594  0.30565  0.90123  1.0000
  H   H376      1.0  0.08598  0.30394  0.93083  1.0000
  H   H377      1.0  0.05922  0.33082  0.93686  1.0000
  H   H378      1.0  0.05089  0.35809  0.91263  1.0000
  H   H379      1.0  0.07081  0.36043  0.88306  1.0000
  H   H380      1.0  0.06793  0.35410  0.85050  1.0000
  H   H381      1.0  0.07569  0.39710  0.83443  1.0000
  H   H382      1.0  0.12359  0.43439  0.83085  1.0000
  H   H383      1.0  0.16428  0.42838  0.84273  1.0000
  H   H384      1.0  0.15738  0.38600  0.85873  1.0000
  C   C501      1.0  0.99746  0.21355  0.97856  1.0000
  H   H385      1.0  0.30873  0.10178  0.88584  1.0000
  H   H386      1.0  0.37891  0.33218  0.81789  1.0000
  C   C502      1.0  0.13185  0.23161  0.96171  1.0000
  C   C503      1.0  0.09009  0.35004  0.78947  1.0000
  H   H387      1.0  0.10905  0.38936  0.80420  1.0000
  C   C504      1.0  0.22147  0.07252  0.95401  1.0000
  H   H388      1.0  0.13124  0.33085  0.98533  1.0000
  C   C505      1.0  0.21953  0.04508  0.84905  1.0000
  C   C506      1.0  0.33429  0.33994  0.78746  1.0000
  H   H389      1.0  0.11249  0.36402  0.74709  1.0000
  C   C507      1.0  0.30795  0.03082  0.89758  1.0000
  H   H390      1.0  0.32661  0.43662  0.81461  1.0000
  C   C508      1.0  0.31005  0.07531  0.90701  1.0000
  C   C509      1.0  0.10254  0.19374  0.98797  1.0000
  C   C510      1.0  0.15034  0.30021  0.94728  1.0000
  H   H391      1.0  0.19500  0.99270  0.96075  1.0000
  C   C511      1.0  0.15971  0.44082  0.76125  1.0000
  H   H392      1.0  0.07751  0.31154  0.77423  1.0000
  H   H393      1.0  0.33090  0.30623  0.80438  1.0000
  H   H394      1.0  0.42802  0.43788  0.81969  1.0000
  H   H395      1.0  0.01039  0.45557  0.81638  1.0000
  C   C512      1.0  0.30812  0.06359  0.87508  1.0000
  H   H396      1.0  0.00037  0.30139  0.81431  1.0000
  C   C513      1.0  0.37821  0.38246  0.79017  1.0000
  H   H397      1.0  0.41219  0.46800  0.76227  1.0000
  C   C514      1.0  0.19775  0.32102  0.93707  1.0000
  H   H398      1.0  0.31023  0.08946  0.91766  1.0000
  H   H399      1.0  0.23099  0.44671  0.77970  1.0000
  C   C515      1.0  0.35113  0.36737  0.78244  1.0000
  H   H400      1.0  0.34257  0.37712  0.77296  1.0000
  C   C516      1.0  0.15976  0.26422  0.83216  1.0000
  C   C517      1.0  0.30924  0.08223  0.88897  1.0000
  H   H401      1.0  0.31078  0.10773  0.82156  1.0000
  S   S87       1.0  0.14387  0.45054  0.79446  1.0000
  H   H402      1.0  0.28578  0.11645  0.85191  1.0000
  C   C518      1.0  0.06257  0.30256  0.97195  1.0000
  H   H403      1.0  0.07569  0.24603  0.96799  1.0000
  C   C519      1.0  0.44317  0.43843  0.81012  1.0000
  H   H404      1.0  0.34806  0.15379  0.81367  1.0000
  H   H405      1.0  0.30635  0.01043  0.90084  1.0000
  H   H406      1.0  0.98348  0.22154  0.97302  1.0000
  H   H407      1.0  0.15278  0.38624  0.81177  1.0000
  C   C520      1.0  0.17860  0.43828  0.74951  1.0000
  H   H408      1.0  0.23906  0.11505  0.85070  1.0000
  C   C521      1.0  0.34794  0.44575  0.81021  1.0000
  C   C522      1.0  0.26756  0.09636  0.85062  1.0000
  H   H409      1.0  0.17935  0.21769  0.98372  1.0000
  P   P18       1.0  0.30419  0.07180  0.85197  1.0000
  C   C523      1.0  0.20433  0.44039  0.75612  1.0000
  C   C524      1.0  0.24109  0.09571  0.84997  1.0000
  C   C525      1.0  0.27019  0.07129  0.85015  1.0000
  H   H410      1.0  0.19658  0.06962  0.84936  1.0000
  H   H411      1.0  0.11568  0.25085  0.82786  1.0000
  C   C526      1.0  0.07957  0.26731  0.97131  1.0000
  C   C527      1.0  0.00319  0.32632  0.85735  1.0000
  C   C528      1.0  0.19358  0.36182  0.74951  1.0000
  C   C529      1.0  0.21659  0.39768  0.80767  1.0000
  C   C530      1.0  0.14003  0.29121  0.81642  1.0000
  H   H412      1.0  0.99128  0.28524  0.84581  1.0000
  H   H413      1.0  0.15698  0.24569  0.83942  1.0000
  H   H414      1.0  0.34593  0.05087  0.84852  1.0000
  C   C531      1.0  0.20525  0.07270  0.96837  1.0000
  H   H415      1.0  0.44895  0.42409  0.76598  1.0000
  C   C532      1.0  0.24153  0.27379  0.97742  1.0000
  H   H416      1.0  0.20455  0.28366  0.83567  1.0000
  H   H417      1.0  0.19758  0.45118  0.80061  1.0000
  S   S88       1.0  0.18220  0.99494  0.91928  1.0000
  C   C533      1.0  0.24596  0.04563  0.84968  1.0000
  H   H418      1.0  0.30519  0.02246  0.86917  1.0000
  C   C534      1.0  0.30754  0.04777  0.83595  1.0000
  C   C535      1.0  0.18659  0.28562  0.82998  1.0000
  H   H419      1.0  0.27108  0.04141  0.81919  1.0000
  H   H420      1.0  0.24752  0.02605  0.85004  1.0000
  C   C536      1.0  0.08897  0.32260  0.97811  1.0000
  H   H421      1.0  0.10484  0.16227  0.97051  1.0000
  P   P19       1.0  0.39896  0.41867  0.78453  1.0000
  C   C537      1.0  0.33067  0.04191  0.83746  1.0000
  C   C538      1.0  0.23972  0.19772  0.96897  1.0000
  C   C539      1.0  0.28861  0.03663  0.82110  1.0000
  C   C540      1.0  0.20924  0.00023  0.97241  1.0000
  C   C541      1.0  0.33421  0.02433  0.82472  1.0000
  C   C542      1.0  0.45484  0.43061  0.77995  1.0000
  C   C543      1.0  0.34429  0.32727  0.80022  1.0000
  C   C544      1.0  0.00412  0.31653  0.82514  1.0000
  H   H422      1.0  0.21226  0.32923  0.92633  1.0000
  C   C545      1.0  0.29227  0.01912  0.80837  1.0000
  C   C546      1.0  0.31499  0.01292  0.81019  1.0000
  H   H423      1.0  0.21766  0.39909  0.79318  1.0000
  C   C547      1.0  0.37130  0.34197  0.80787  1.0000
  C   C548      1.0  0.38824  0.36946  0.80288  1.0000
  C   C549      1.0  0.23515  0.41878  0.83717  1.0000
  H   H424      1.0  0.35177  0.01940  0.82611  1.0000
  C   C550      1.0  0.23051  0.09435  0.94193  1.0000
  P   P20       1.0  0.17244  0.34415  0.80199  1.0000
  H   H425      1.0  0.22967  0.32519  0.95693  1.0000
  H   H426      1.0  0.34478  0.40642  0.80113  1.0000
  C   C551      1.0  0.11070  0.31503  0.98084  1.0000
  H   H427      1.0  0.08637  0.47617  0.84729  1.0000
  Fe  Fe46      1.0  0.00734  0.24196  0.91687  1.0000
  H   H428      1.0  0.21993  0.16971  0.92636  1.0000
  C   C552      1.0  0.19674  0.37363  0.81567  1.0000
  H   H429      1.0  0.23447  0.19402  0.98293  1.0000
  H   H430      1.0  0.13284  0.16725  0.92144  1.0000
  H   H431      1.0  0.25023  0.43608  0.84543  1.0000
  H   H432      1.0  0.23035  0.13277  0.93442  1.0000
  C   C553      1.0  0.19024  0.30972  0.82088  1.0000
  H   H433      1.0  0.21125  0.32625  0.81959  1.0000
  H   H434      1.0  0.18112  0.35410  0.84100  1.0000
  C   C554      1.0  0.09388  0.32753  0.78264  1.0000
  C   C555      1.0  0.16702  0.31253  0.81364  1.0000
  H   H435      1.0  0.16139  0.31265  0.92004  1.0000
  H   H436      1.0  0.30870  0.04373  0.92529  1.0000
  C   C556      1.0  0.18251  0.36084  0.76644  1.0000
  C   C557      1.0  0.26184  0.22328  0.96476  1.0000
  C   C558      1.0  0.11007  0.18424  0.97239  1.0000
  C   C559      1.0  0.13648  0.26716  0.82558  1.0000
  H   H437      1.0  0.19713  0.30517  0.98108  1.0000
  H   H438      1.0  0.06002  0.44047  0.86951  1.0000
  H   H439      1.0  0.25992  0.21401  0.91934  1.0000
  C   C560      1.0  0.23563  0.42021  0.81841  1.0000
  C   C561      1.0  0.21433  0.33220  0.75983  1.0000
  C   C562      1.0  0.39757  0.42303  0.76042  1.0000
  C   C563      1.0  0.18671  0.34492  0.78012  1.0000
  H   H440      1.0  0.25096  0.43866  0.81213  1.0000
  H   H441      1.0  0.21535  0.39360  0.85975  1.0000
  C   C564      1.0  0.30929  0.04956  0.91132  1.0000
  S   S89       1.0  0.09207  0.46875  0.76214  1.0000
  H   H442      1.0  0.14396  0.24579  0.95154  1.0000
  C   C565      1.0  0.21543  0.39492  0.84522  1.0000
  H   H443      1.0  0.22756  0.32197  0.75749  1.0000
  C   C566      1.0  0.20324  0.33109  0.77677  1.0000
  H   H444      1.0  0.12159  0.29300  0.81184  1.0000
  Fe  Fe47      1.0  0.22702  0.00286  0.92161  1.0000
  C   C567      1.0  0.19614  0.37249  0.83453  1.0000
  H   H445      1.0  0.98548  0.47351  0.83742  1.0000
  H   H446      1.0  0.13125  0.19620  0.94737  1.0000
  H   H447      1.0  0.17115  0.37300  0.76889  1.0000
  C   C568      1.0  0.00887  0.20060  0.96719  1.0000
  C   C569      1.0  0.19797  0.09470  0.97062  1.0000
  C   C570      1.0  0.10598  0.28718  0.97787  1.0000
  C   C571      1.0  0.13633  0.36933  0.80400  1.0000
  C   C572      1.0  0.30475  0.99539  0.98536  1.0000
  H   H448      1.0  0.30106  0.00092  0.95691  1.0000
  C   C573      1.0  0.22367  0.11659  0.94429  1.0000
  H   H449      1.0  0.17141  0.17847  0.94418  1.0000
  H   H450      1.0  0.07072  0.35140  0.78653  1.0000
  H   H451      1.0  0.06123  0.48383  0.82096  1.0000
  H   H452      1.0  0.38416  0.37925  0.75322  1.0000
  C   C574      1.0  0.04902  0.44410  0.85813  1.0000
  H   H453      1.0  0.22669  0.05525  0.95206  1.0000
  C   C575      1.0  0.18882  0.30719  0.96808  1.0000
  H   H454      1.0  0.15915  0.09282  0.93986  1.0000
  C   C576      1.0  0.04971  0.46851  0.83082  1.0000
  C   C577      1.0  0.12403  0.24131  0.97720  1.0000
  H   H455      1.0  0.27727  0.00997  0.79716  1.0000
  C   C578      1.0  0.40522  0.44972  0.75346  1.0000
  C   C579      1.0  0.47104  0.44741  0.81598  1.0000
  H   H456      1.0  0.99510  0.28589  0.97854  1.0000
  C   C580      1.0  0.36140  0.01208  0.97992  1.0000
  H   H457      1.0  0.35139  0.01548  0.95198  1.0000
  C   C581      1.0  0.34339  0.01030  0.96537  1.0000
  H   H458      1.0  0.38339  0.01861  0.97778  1.0000
  H   H459      1.0  0.00397  0.19868  0.95282  1.0000
  S   S90       1.0  0.27349  0.39989  0.74294  1.0000
  H   H460      1.0  0.19073  0.37460  0.73916  1.0000
  H   H461      1.0  0.09265  0.34403  0.98061  1.0000
  H   H462      1.0  0.00910  0.41303  0.86571  1.0000
  S   S91       1.0  0.22767  0.43806  0.74078  1.0000
  H   H463      1.0  0.06168  0.34588  0.73977  1.0000
  C   C582      1.0  0.18526  0.14765  0.98299  1.0000
  C   C583      1.0  0.16367  0.15546  0.98548  1.0000
  H   H464      1.0  0.18438  0.09375  0.98136  1.0000
  C   C584      1.0  0.19959  0.23495  0.98695  1.0000
  C   C585      1.0  0.38928  0.39994  0.74839  1.0000
  H   H465      1.0  0.19800  0.05551  0.97759  1.0000
  C   C586      1.0  0.02083  0.45239  0.82824  1.0000
  C   C587      1.0  0.02000  0.42845  0.85585  1.0000
  Fe  Fe48      1.0  0.98219  0.27583  0.89713  1.0000
  C   C588      1.0  0.00565  0.43243  0.84085  1.0000
  H   H466      1.0  0.99149  0.38939  0.81093  1.0000
  H   H467      1.0  0.35599  0.48806  0.81716  1.0000
  C   C589      1.0  0.39184  0.48637  0.80580  1.0000
  H   H468      1.0  0.28279  0.98914  0.98722  1.0000
  S   S92       1.0  0.30733  0.46781  0.73828  1.0000
  Fe  Fe49      1.0  0.99451  0.79698  0.10011  1.0000
  C   C590      1.0  0.16039  0.90883  0.19128  1.0000
  S   S93       1.0  0.03109  0.84026  0.10675  1.0000
  C   C591      1.0  0.20713  0.94354  0.13410  1.0000
  P   P21       1.0  0.16368  0.93131  0.15743  1.0000
  H   H469      1.0  0.08713  0.88591  0.05042  1.0000
  Fe  Fe50      1.0  0.18548  0.96465  0.08798  1.0000
  C   C592      1.0  0.15785  0.90831  0.20996  1.0000
  S   S94       1.0  0.15880  0.91721  0.08942  1.0000
  C   C593      1.0  0.13016  0.95070  0.13798  1.0000
  C   C594      1.0  0.13964  0.89679  0.14870  1.0000
  C   C595      1.0  0.16003  0.93103  0.18150  1.0000
  C   C596      1.0  0.12910  0.85500  0.13035  1.0000
  C   C597      1.0  0.06561  0.86135  0.09961  1.0000
  C   C598      1.0  0.07701  0.89063  0.10205  1.0000
  C   C599      1.0  0.10512  0.90816  0.09825  1.0000
  C   C600      1.0  0.12241  0.89656  0.09238  1.0000
  C   C601      1.0  0.11084  0.86738  0.08944  1.0000
  C   C602      1.0  0.08263  0.84987  0.09300  1.0000
  H   H470      1.0  0.06411  0.89979  0.10720  1.0000
  H   H471      1.0  0.11361  0.93058  0.10026  1.0000
  H   H472      1.0  0.12404  0.85814  0.08494  1.0000
  H   H473      1.0  0.07455  0.82743  0.09157  1.0000
  H   H474      1.0  0.21555  0.94677  0.17989  1.0000
  C   C603      1.0  0.19952  0.94061  0.15214  1.0000
  C   C604      1.0  0.21820  0.92023  0.01688  1.0000
  H   H475      1.0  0.06866  0.96854  0.04265  1.0000
  H   H476      1.0  0.19688  0.90391  0.01562  1.0000
  H   H477      1.0  0.26482  0.96416  0.17202  1.0000
  C   C605      1.0  0.15492  0.92992  0.21901  1.0000
  H   H478      1.0  0.37625  0.95616  0.06744  1.0000
  H   H479      1.0  0.11474  0.92916  0.13603  1.0000
  H   H480      1.0  0.04995  0.90880  0.00291  1.0000
  H   H481      1.0  0.10457  0.89616  0.16294  1.0000
  H   H482      1.0  0.15820  0.89113  0.21743  1.0000
  C   C606      1.0  0.12471  0.97157  0.13014  1.0000
  H   H483      1.0  0.24094  0.95614  0.11581  1.0000
  H   H484      1.0  0.02203  0.87763  0.06884  1.0000
  C   C607      1.0  0.10122  0.84360  0.13524  1.0000
  C   C608      1.0  0.11171  0.88483  0.15389  1.0000
  C   C609      1.0  0.10260  0.93012  0.05476  1.0000
  C   C610      1.0  0.26680  0.93902  0.00912  1.0000
  H   H485      1.0  0.15964  0.94259  0.03769  1.0000
  C   C611      1.0  0.44475  0.49795  0.22103  1.0000
  H   H486      1.0  0.07074  0.84982  0.15044  1.0000
  H   H487      1.0  0.19141  0.93884  0.12334  1.0000
  C   C612      1.0  0.23932  0.91783  0.00746  1.0000
  H   H488      1.0  0.15476  0.94423  0.00485  1.0000
  H   H489      1.0  0.20821  0.94628  0.03480  1.0000
  H   H490      1.0  0.14570  0.89714  0.05248  1.0000
  H   H491      1.0  0.11291  0.97389  0.05764  1.0000
  H   H492      1.0  0.02352  0.78042  0.00318  1.0000
  H   H493      1.0  0.19144  0.93900  0.98884  1.0000
  C   C613      1.0  0.22451  0.94401  0.02771  1.0000
  C   C614      1.0  0.25587  0.96048  0.14344  1.0000
  H   H494      1.0  0.28295  0.93691  0.00171  1.0000
  H   H495      1.0  0.00207  0.76911  0.03319  1.0000
  C   C615      1.0  0.00029  0.86119  0.04304  1.0000
  C   C616      1.0  0.33016  0.97886  0.03659  1.0000
  S   S95       1.0  0.98719  0.75207  0.09429  1.0000
  C   C617      1.0  0.15101  0.92326  0.02965  1.0000
  C   C618      1.0  0.14813  0.92409  0.01096  1.0000
  C   C619      1.0  0.09253  0.85851  0.14699  1.0000
  S   S96       1.0  0.22536  0.97550  0.07353  1.0000
  C   C620      1.0  0.15445  0.95205  0.20936  1.0000
  H   H496      1.0  0.16954  0.88985  0.13275  1.0000
  C   C621      1.0  0.14826  0.88150  0.13699  1.0000
  H   H497      1.0  0.45005  0.49002  0.15623  1.0000
  H   H498      1.0  0.15212  0.96875  0.21641  1.0000
  C   C622      1.0  0.12869  0.87356  0.00890  1.0000
  C   C623      1.0  0.08297  0.90375  0.04820  1.0000
  H   H499      1.0  0.08617  0.82346  0.12962  1.0000
  C   C624      1.0  0.15559  0.95775  0.14755  1.0000
  H   H500      1.0  0.13570  0.84361  0.12097  1.0000
  H   H501      1.0  0.03332  0.92191  0.03150  1.0000
  H   H502      1.0  0.30320  0.93428  0.03321  1.0000
  H   H503      1.0  0.16275  0.89198  0.18443  1.0000
  H   H504      1.0  0.02380  0.83192  0.06384  1.0000
  H   H505      1.0  0.06419  0.84278  0.01304  1.0000
  H   H506      1.0  0.45432  0.51522  0.21205  1.0000
  C   C625      1.0  0.23515  0.95331  0.12977  1.0000
  C   C626      1.0  0.09760  0.95349  0.05256  1.0000
  H   H507      1.0  0.15300  0.92950  0.23350  1.0000
  C   C627      1.0  0.03541  0.82644  0.05419  1.0000
  H   H508      1.0  0.15648  0.96992  0.18349  1.0000
  C   C628      1.0  0.00122  0.76790  0.00399  1.0000
  H   H509      1.0  0.03736  0.79491  0.07114  1.0000
  H   H510      1.0  0.12572  0.85307  0.03419  1.0000
  P   P22       1.0  0.03171  0.86652  0.03169  1.0000
  C   C629      1.0  0.04241  0.83986  0.03768  1.0000
  C   C630      1.0  0.15698  0.95264  0.19067  1.0000
  H   H511      1.0  0.23435  0.89960  0.99882  1.0000
  C   C631      1.0  0.05809  0.90061  0.03934  1.0000
  C   C632      1.0  0.36351  0.96248  0.05876  1.0000
  H   H512      1.0  0.06481  0.78179  0.04992  1.0000
  C   C633      1.0  0.05894  0.79823  0.04658  1.0000
  C   C634      1.0  0.04341  0.80555  0.05852  1.0000
  C   C635      1.0  0.24857  0.95782  0.16146  1.0000
  C   C636      1.0  0.13697  0.89926  0.00034  1.0000
  H   H513      1.0  0.12164  0.93241  0.06177  1.0000
  C   C637      1.0  0.22051  0.94792  0.16584  1.0000
  H   H514      1.0  0.11972  0.85398  0.00128  1.0000
  C   C638      1.0  0.14319  0.89770  0.03798  1.0000
  C   C639      1.0  0.06641  0.81179  0.03023  1.0000
  C   C640      1.0  0.05285  0.92408  0.03766  1.0000
  C   C641      1.0  0.07269  0.95046  0.04406  1.0000
  C   C642      1.0  0.05830  0.83261  0.02581  1.0000
  C   C643      1.0  0.46963  0.49159  0.18251  1.0000
  C   C644      1.0  0.13195  0.87286  0.02762  1.0000
  H   H515      1.0  0.10536  0.96594  0.12240  1.0000
  C   C645      1.0  0.02569  0.86446  0.00743  1.0000
  H   H516      1.0  0.07803  0.80578  0.02084  1.0000
  H   H517      1.0  0.33254  0.92024  0.05262  1.0000
  C   C646      1.0  0.46867  0.50033  0.16484  1.0000
  C   C647      1.0  0.98915  0.76160  0.02102  1.0000
  C   C648      1.0  0.33888  0.94225  0.05041  1.0000
  H   H518      1.0  0.27767  0.96892  0.14005  1.0000
  C   C649      1.0  0.27338  0.96278  0.02028  1.0000
  H   H519      1.0  0.10187  0.92537  0.99481  1.0000
  C   C650      1.0  0.03723  0.88835  0.99687  1.0000
  H   H520      1.0  0.00087  0.81945  0.00669  1.0000
  C   C651      1.0  0.00208  0.86883  0.06139  1.0000
  C   C652      1.0  0.17526  0.98601  0.14935  1.0000
  C   C653      1.0  0.25187  0.96527  0.02933  1.0000
  H   H521      1.0  0.25579  0.98364  0.03750  1.0000
  C   C654      1.0  0.32226  0.95035  0.03934  1.0000
  C   C655      1.0  0.00989  0.83820  0.99886  1.0000
  H   H522      1.0  0.17629  0.98763  0.99134  1.0000
  H   H523      1.0  0.08920  0.72393  0.43718  1.0000
  C   C656      1.0  0.38886  0.95812  0.44590  1.0000
  C   C657      1.0  0.06585  0.74637  0.44454  1.0000
  H   H524      1.0  0.44939  0.89314  0.45139  1.0000
  H   H525      1.0  0.00161  0.64462  0.48020  1.0000
  H   H526      1.0  0.42068  0.91273  0.46572  1.0000
  C   C658      1.0  0.05724  0.75782  0.45870  1.0000
  C   C659      1.0  0.45744  0.96643  0.43819  1.0000
  H   H527      1.0  0.10292  0.71943  0.46854  1.0000
  C   C660      1.0  0.46114  0.49765  0.45945  1.0000
  C   C661      1.0  0.46318  0.56271  0.47281  1.0000
  C   C662      1.0  0.43585  0.92508  0.45611  1.0000
  H   H528      1.0  0.01055  0.51527  0.47804  1.0000
  P   P23       1.0  0.41782  0.96624  0.46180  1.0000
  C   C663      1.0  0.45189  0.91375  0.44786  1.0000
  C   C664      1.0  0.99715  0.49329  0.47532  1.0000
  C   C665      1.0  0.39024  0.97732  0.43273  1.0000
  C   C666      1.0  0.06478  0.75516  0.47651  1.0000
  C   C667      1.0  0.43892  0.97173  0.38531  1.0000
  C   C668      1.0  0.32670  0.97533  0.47133  1.0000
  H   H529      1.0  0.47935  0.97228  0.38513  1.0000
  H   H530      1.0  0.32559  0.94156  0.41258  1.0000
  C   C669      1.0  0.43923  0.95194  0.45179  1.0000
  C   C670      1.0  0.36752  0.97123  0.42072  1.0000
  H   H531      1.0  0.46281  0.51252  0.36700  1.0000
  C   C671      1.0  0.36506  0.93217  0.44621  1.0000
  C   C672      1.0  0.40608  0.95206  0.48365  1.0000
  C   C673      1.0  0.47082  0.92881  0.43488  1.0000
  H   H532      1.0  0.32366  0.90648  0.43483  1.0000
  H   H533      1.0  0.31631  0.96100  0.46008  1.0000
  C   C674      1.0  0.44134  0.50132  0.39172  1.0000
  C   C675      1.0  0.08228  0.73253  0.44817  1.0000
  H   H534      1.0  0.43014  0.50871  0.47062  1.0000
  H   H535      1.0  0.40147  0.97763  0.38559  1.0000
  C   C676      1.0  0.43395  0.49292  0.46377  1.0000
  C   C677      1.0  0.34348  0.94580  0.42154  1.0000
  C   C678      1.0  0.08052  0.74053  0.48027  1.0000
  C   C679      1.0  0.08984  0.72984  0.46597  1.0000
  H   H536      1.0  0.44036  0.58615  0.47932  1.0000
  H   H537      1.0  0.36379  0.91677  0.45596  1.0000
  H   H538      1.0  0.04475  0.76880  0.45588  1.0000
  C   C680      1.0  0.34236  0.92615  0.43416  1.0000
  H   H539      1.0  0.42776  0.94919  0.38627  1.0000
  H   H540      1.0  0.05993  0.74837  0.43075  1.0000
  H   H541      1.0  0.47598  0.98799  0.32071  1.0000
  H   H542      1.0  0.44261  0.52193  0.39414  1.0000
  C   C681      1.0  0.45296  0.49592  0.37640  1.0000
  C   C682      1.0  0.47338  0.95501  0.42994  1.0000
  H   H543      1.0  0.45252  0.55560  0.45976  1.0000
  H   H544      1.0  0.36678  0.95448  0.48098  1.0000
  H   H545      1.0  0.36810  0.98678  0.41125  1.0000
  H   H546      1.0  0.45929  0.98653  0.43392  1.0000
  C   C683      1.0  0.46810  0.98487  0.38454  1.0000
  C   C684      1.0  0.42409  0.98771  0.38503  1.0000
  C   C685      1.0  0.45647  0.58025  0.48373  1.0000
  H   H547      1.0  0.05824  0.76443  0.48734  1.0000
  H   H548      1.0  0.44923  0.52517  0.24382  1.0000
  C   C686      1.0  0.44177  0.50368  0.23905  1.0000
  H   H549      1.0  0.98051  0.54940  0.25772  1.0000
  Fe  Fe51      1.0  0.02486  0.65803  0.56182  1.0000
  S   S97       1.0  0.06607  0.67516  0.54849  1.0000
  H   H550      1.0  0.10556  0.71634  0.61645  1.0000
  Fe  Fe52      1.0  0.05297  0.65800  0.59973  1.0000
  S   S98       1.0  0.09540  0.67360  0.58774  1.0000
  S   S99       1.0  0.05622  0.64858  0.62972  1.0000
  Fe  Fe53      1.0  0.08435  0.70396  0.57297  1.0000
  S   S100      1.0  0.11242  0.75128  0.57603  1.0000
  Fe  Fe54      1.0  0.07344  0.64344  0.56469  1.0000
  S   S101      1.0  0.08791  0.61438  0.55083  1.0000
  S   S102      1.0  0.04223  0.68930  0.58554  1.0000
  S   S103      1.0  0.03182  0.62535  0.57739  1.0000
  P   P24       1.0  0.09078  0.73778  0.50320  1.0000
  H   H551      1.0  0.09881  0.63518  0.72107  1.0000
  S   S104      1.0  0.02690  0.67768  0.70807  1.0000
  Fe  Fe55      1.0  0.26943  0.87174  0.55486  1.0000
  S   S105      1.0  0.27477  0.91530  0.56243  1.0000
  S   S106      1.0  0.23237  0.83014  0.54583  1.0000
  Fe  Fe56      1.0  0.33201  0.88974  0.55869  1.0000
  S   S107      1.0  0.34169  0.93366  0.56693  1.0000
  S   S108      1.0  0.36352  0.87290  0.55410  1.0000
  Fe  Fe57      1.0  0.30440  0.91403  0.58456  1.0000
  S   S109      1.0  0.31064  0.93258  0.61345  1.0000
  Fe  Fe58      1.0  0.31199  0.93194  0.54410  1.0000
  S   S110      1.0  0.29714  0.87008  0.57776  1.0000
  S   S111      1.0  0.30430  0.88858  0.53513  1.0000
  Fe  Fe59      1.0  0.28680  0.89353  0.72191  1.0000
  S   S112      1.0  0.27164  0.88421  0.69198  1.0000
  C   C687      1.0  0.09989  0.55344  0.49795  1.0000
  S   S113      1.0  0.45686  0.61547  0.55091  1.0000
  S   S114      1.0  0.08609  0.51456  0.59728  1.0000
  C   C688      1.0  0.30077  0.91799  0.63517  1.0000
  C   C689      1.0  0.27954  0.89092  0.63738  1.0000
  H   H552      1.0  0.18722  0.79972  0.60332  1.0000
  C   C690      1.0  0.28453  0.89760  0.67040  1.0000
  C   C691      1.0  0.30632  0.92436  0.66820  1.0000
  C   C692      1.0  0.31418  0.93453  0.65072  1.0000
  H   H553      1.0  0.31657  0.93753  0.67994  1.0000
  H   H554      1.0  0.33065  0.95549  0.64925  1.0000
  C   C693      1.0  0.17126  0.81855  0.51736  1.0000
  C   C694      1.0  0.39846  0.89494  0.56070  1.0000
  C   C695      1.0  0.40518  0.91791  0.57241  1.0000
  C   C696      1.0  0.43300  0.93421  0.57842  1.0000
  C   C697      1.0  0.45416  0.92744  0.57291  1.0000
  C   C698      1.0  0.44766  0.90508  0.56072  1.0000
  C   C699      1.0  0.41979  0.88876  0.55466  1.0000
  H   H555      1.0  0.38886  0.92266  0.57727  1.0000
  H   H556      1.0  0.43801  0.95181  0.58761  1.0000
  H   H557      1.0  0.43852  0.94054  0.73685  1.0000
  H   H558      1.0  0.41467  0.87107  0.54553  1.0000
  C   C700      1.0  0.43717  0.58461  0.56264  1.0000
  C   C701      1.0  0.44567  0.58118  0.58003  1.0000
  C   C702      1.0  0.42997  0.55661  0.58926  1.0000
  C   C703      1.0  0.40552  0.53532  0.58130  1.0000
  C   C704      1.0  0.39703  0.53852  0.56383  1.0000
  C   C705      1.0  0.41284  0.56316  0.55453  1.0000
  H   H559      1.0  0.46422  0.59756  0.58649  1.0000
  H   H560      1.0  0.43674  0.55414  0.60271  1.0000
  H   H561      1.0  0.37824  0.52214  0.55755  1.0000
  H   H562      1.0  0.40617  0.56561  0.54105  1.0000
  H   H563      1.0  0.34419  0.52254  0.62791  1.0000
  C   C706      1.0  0.32288  0.51573  0.62283  1.0000
  C   C707      1.0  0.08583  0.58579  0.56354  1.0000
  C   C708      1.0  0.09039  0.56439  0.55531  1.0000
  C   C709      1.0  0.08960  0.54187  0.56536  1.0000
  C   C710      1.0  0.08457  0.54083  0.58376  1.0000
  C   C711      1.0  0.08000  0.56221  0.59197  1.0000
  C   C712      1.0  0.08030  0.58444  0.58187  1.0000
  H   H564      1.0  0.09506  0.56545  0.54124  1.0000
  H   H565      1.0  0.09387  0.52587  0.55907  1.0000
  H   H566      1.0  0.07642  0.56169  0.60624  1.0000
  H   H567      1.0  0.07688  0.60085  0.58837  1.0000
  C   C713      1.0  0.14646  0.77250  0.56828  1.0000
  C   C714      1.0  0.15909  0.80145  0.57239  1.0000
  C   C715      1.0  0.18599  0.81923  0.56646  1.0000
  C   C716      1.0  0.20028  0.80833  0.55588  1.0000
  C   C717      1.0  0.18758  0.77937  0.55173  1.0000
  C   C718      1.0  0.16103  0.76149  0.55810  1.0000
  H   H568      1.0  0.14794  0.81018  0.58018  1.0000
  H   H569      1.0  0.19522  0.84147  0.56957  1.0000
  H   H570      1.0  0.19828  0.77075  0.54340  1.0000
  H   H571      1.0  0.15173  0.73928  0.55498  1.0000
  C   C719      1.0  0.04861  0.65801  0.65132  1.0000
  C   C720      1.0  0.05954  0.65094  0.66689  1.0000
  C   C721      1.0  0.05385  0.65749  0.68431  1.0000
  C   C722      1.0  0.03642  0.67053  0.68645  1.0000
  C   C723      1.0  0.02528  0.67738  0.67089  1.0000
  C   C724      1.0  0.03153  0.67144  0.65346  1.0000
  H   H572      1.0  0.19319  0.79746  0.50559  1.0000
  C   C725      1.0  0.04523  0.53911  0.50779  1.0000
  H   H573      1.0  0.38031  0.92145  0.53058  1.0000
  H   H574      1.0  0.02249  0.67656  0.64170  1.0000
  H   H575      1.0  0.01596  0.65357  0.51278  1.0000
  H   H576      1.0  0.36711  0.94072  0.61445  1.0000
  H   H577      1.0  0.13686  0.63027  0.64154  1.0000
  C   C726      1.0  0.99402  0.64411  0.50867  1.0000
  H   H578      1.0  0.13066  0.72540  0.52500  1.0000
  H   H579      1.0  0.14683  0.60521  0.66656  1.0000
  C   C727      1.0  0.19462  0.50415  0.62707  1.0000
  C   C728      1.0  0.13365  0.75837  0.62552  1.0000
  C   C729      1.0  0.44854  0.82445  0.61361  1.0000
  C   C730      1.0  0.03556  0.50962  0.66059  1.0000
  C   C731      1.0  0.33268  0.86821  0.62312  1.0000
  C   C732      1.0  0.34283  0.85786  0.60923  1.0000
  C   C733      1.0  0.37147  0.87000  0.60628  1.0000
  C   C734      1.0  0.39001  0.89262  0.61715  1.0000
  C   C735      1.0  0.38001  0.90312  0.63120  1.0000
  C   C736      1.0  0.35114  0.89080  0.63401  1.0000
  P   P25       1.0  0.40302  0.93500  0.64343  1.0000
  C   C737      1.0  0.38912  0.93540  0.66530  1.0000
  C   C738      1.0  0.43786  0.93746  0.64609  1.0000
  H   H580      1.0  0.38979  0.49329  0.69311  1.0000
  H   H581      1.0  0.10820  0.56666  0.68112  1.0000
  C   C739      1.0  0.07635  0.68129  0.49735  1.0000
  C   C740      1.0  0.45254  0.67860  0.61970  1.0000
  H   H582      1.0  0.43459  0.92568  0.67413  1.0000
  C   C741      1.0  0.43224  0.75157  0.73362  1.0000
  H   H583      1.0  0.17236  0.63591  0.69867  1.0000
  C   C742      1.0  0.36823  0.93581  0.69949  1.0000
  C   C743      1.0  0.36882  0.91155  0.69274  1.0000
  C   C744      1.0  0.37916  0.91128  0.67570  1.0000
  C   C745      1.0  0.41463  0.73896  0.71839  1.0000
  C   C746      1.0  0.32210  0.96529  0.48911  1.0000
  H   H584      1.0  0.08638  0.50951  0.49349  1.0000
  H   H585      1.0  0.44242  0.82538  0.71075  1.0000
  C   C747      1.0  0.07020  0.58418  0.65049  1.0000
  C   C748      1.0  0.39891  0.51447  0.50227  1.0000
  H   H586      1.0  0.31039  0.85946  0.62506  1.0000
  H   H587      1.0  0.32839  0.84103  0.60040  1.0000
  H   H588      1.0  0.37921  0.86260  0.59511  1.0000
  H   H589      1.0  0.41189  0.90235  0.61413  1.0000
  H   H590      1.0  0.34268  0.89926  0.64419  1.0000
  H   H591      1.0  0.00656  0.60635  0.68783  1.0000
  C   C749      1.0  0.37781  0.95979  0.68918  1.0000
  C   C750      1.0  0.45563  0.87932  0.61015  1.0000
  H   H592      1.0  0.36225  0.48982  0.71951  1.0000
  C   C751      1.0  0.20359  0.74041  0.71065  1.0000
  H   H593      1.0  0.46534  0.98467  0.55493  1.0000
  H   H594      1.0  0.23674  0.51607  0.63691  1.0000
  H   H595      1.0  0.05964  0.58323  0.51329  1.0000
  H   H596      1.0  0.36129  0.89305  0.70085  1.0000
  H   H597      1.0  0.37952  0.89231  0.67068  1.0000
  H   H598      1.0  0.41658  0.97514  0.56029  1.0000
  H   H599      1.0  0.14409  0.83426  0.52846  1.0000
  C   C752      1.0  0.40494  0.53826  0.69074  1.0000
  H   H600      1.0  0.43178  0.70478  0.61570  1.0000
  H   H601      1.0  0.44908  0.95092  0.61885  1.0000
  H   H602      1.0  0.35034  0.93430  0.51051  1.0000
  C   C753      1.0  0.43837  0.83188  0.59793  1.0000
  C   C754      1.0  0.44124  0.85919  0.59660  1.0000
  P   P26       1.0  0.41901  0.80611  0.58046  1.0000
  C   C755      1.0  0.38262  0.79627  0.58416  1.0000
  C   C756      1.0  0.42828  0.82013  0.55835  1.0000
  C   C757      1.0  0.40915  0.80872  0.54363  1.0000
  C   C758      1.0  0.19531  0.85389  0.66494  1.0000
  C   C759      1.0  0.36802  0.77581  0.59663  1.0000
  C   C760      1.0  0.33990  0.76857  0.59960  1.0000
  C   C761      1.0  0.32633  0.78201  0.59034  1.0000
  C   C762      1.0  0.34101  0.80302  0.57834  1.0000
  C   C763      1.0  0.36913  0.81043  0.57547  1.0000
  C   C764      1.0  0.42827  0.77741  0.58083  1.0000
  C   C765      1.0  0.40800  0.74972  0.57736  1.0000
  C   C766      1.0  0.11667  0.70660  0.51750  1.0000
  H   H603      1.0  0.07608  0.50798  0.68601  1.0000
  H   H604      1.0  0.38847  0.79195  0.54546  1.0000
  P   P27       1.0  0.42781  0.54205  0.67239  1.0000
  H   H605      1.0  0.37838  0.76555  0.60411  1.0000
  H   H606      1.0  0.32861  0.75259  0.60911  1.0000
  H   H607      1.0  0.30453  0.77637  0.59257  1.0000
  H   H608      1.0  0.33076  0.81389  0.57132  1.0000
  H   H609      1.0  0.38024  0.82739  0.56652  1.0000
  H   H610      1.0  0.38634  0.74500  0.57454  1.0000
  C   C767      1.0  0.13568  0.68752  0.63486  1.0000
  C   C768      1.0  0.15866  0.70511  0.62520  1.0000
  C   C769      1.0  0.18155  0.72682  0.63416  1.0000
  C   C770      1.0  0.18134  0.73119  0.65276  1.0000
  C   C771      1.0  0.15804  0.71391  0.66253  1.0000
  C   C772      1.0  0.13545  0.69175  0.65344  1.0000
  P   P28       1.0  0.15676  0.71889  0.68656  1.0000
  C   C773      1.0  0.47503  0.93490  0.66454  1.0000
  C   C774      1.0  0.18929  0.74580  0.69619  1.0000
  C   C775      1.0  0.01850  0.55023  0.67713  1.0000
  Fe  Fe60      1.0  0.04451  0.67772  0.73673  1.0000
  C   C776      1.0  0.98577  0.63894  0.49015  1.0000
  C   C777      1.0  0.22242  0.79520  0.69872  1.0000
  C   C778      1.0  0.19879  0.77338  0.69045  1.0000
  C   C779      1.0  0.10341  0.57756  0.67040  1.0000
  C   C780      1.0  0.22562  0.79715  0.60878  1.0000
  H   H611      1.0  0.10120  0.63755  0.51465  1.0000
  C   C781      1.0  0.13057  0.73023  0.69199  1.0000
  C   C782      1.0  0.10967  0.72822  0.67930  1.0000
  C   C783      1.0  0.08872  0.73558  0.68428  1.0000
  C   C784      1.0  0.08840  0.74493  0.70187  1.0000
  C   C785      1.0  0.10939  0.74750  0.71446  1.0000
  C   C786      1.0  0.13041  0.74022  0.70957  1.0000
  H   H612      1.0  0.11779  0.67076  0.62793  1.0000
  H   H613      1.0  0.15860  0.70195  0.61074  1.0000
  H   H614      1.0  0.19939  0.74036  0.62664  1.0000
  H   H615      1.0  0.19949  0.74785  0.65936  1.0000
  H   H616      1.0  0.11744  0.67791  0.66069  1.0000
  C   C787      1.0  0.22734  0.76226  0.71886  1.0000
  H   H617      1.0  0.19609  0.71968  0.71603  1.0000
  C   C788      1.0  0.13484  0.63259  0.71064  1.0000
  H   H618      1.0  0.22941  0.81661  0.69446  1.0000
  H   H619      1.0  0.18752  0.77794  0.67974  1.0000
  H   H620      1.0  0.06211  0.65157  0.69608  1.0000
  C   C789      1.0  0.17509  0.82650  0.66050  1.0000
  H   H621      1.0  0.45608  0.57221  0.70678  1.0000
  H   H622      1.0  0.10892  0.72047  0.66570  1.0000
  H   H623      1.0  0.07202  0.73296  0.67469  1.0000
  C   C790      1.0  0.47137  0.57097  0.69810  1.0000
  C   C791      1.0  0.09225  0.60582  0.64220  1.0000
  H   H624      1.0  0.14611  0.74175  0.71970  1.0000
  C   C792      1.0  0.06925  0.74117  0.53628  1.0000
  H   H625      1.0  0.13474  0.68172  0.52987  1.0000
  H   H626      1.0  0.07145  0.74946  0.70588  1.0000
  H   H627      1.0  0.09075  0.75166  0.54133  1.0000
  H   H628      1.0  0.05299  0.74173  0.56234  1.0000
  H   H629      1.0  0.28659  0.51760  0.58489  1.0000
  C   C793      1.0  0.41577  0.72786  0.57697  1.0000
  C   C794      1.0  0.42405  0.56475  0.65575  1.0000
  C   C795      1.0  0.12543  0.59943  0.66216  1.0000
  C   C796      1.0  0.41663  0.81881  0.52635  1.0000
  C   C797      1.0  0.16590  0.81863  0.69237  1.0000
  C   C798      1.0  0.12226  0.76951  0.50863  1.0000
  C   C799      1.0  0.29049  0.51290  0.59854  1.0000
  H   H630      1.0  0.19116  0.85310  0.71057  1.0000
  H   H631      1.0  0.15486  0.80486  0.70306  1.0000
  C   C800      1.0  0.06297  0.73261  0.51811  1.0000
  C   C801      1.0  0.45533  0.84089  0.55539  1.0000
  C   C802      1.0  0.24180  0.80318  0.64004  1.0000
  H   H632      1.0  0.04894  0.57849  0.64568  1.0000
  C   C803      1.0  0.99060  0.53003  0.67435  1.0000
  H   H633      1.0  0.39522  0.97839  0.66438  1.0000
  C   C804      1.0  0.41603  0.59409  0.62676  1.0000
  C   C805      1.0  0.11896  0.68183  0.52039  1.0000
  C   C806      1.0  0.46368  0.55705  0.68115  1.0000
  C   C807      1.0  0.45594  0.94616  0.63165  1.0000
  H   H634      1.0  0.39542  0.70212  0.70098  1.0000
  C   C808      1.0  0.46274  0.84457  0.62726  1.0000
  H   H635      1.0  0.47910  0.54477  0.65764  1.0000
  C   C809      1.0  0.46292  0.85052  0.53803  1.0000
  H   H636      1.0  0.21695  0.88439  0.68625  1.0000
  H   H637      1.0  0.22858  0.79414  0.59467  1.0000
  H   H638      1.0  0.33533  0.53568  0.59740  1.0000
  C   C810      1.0  0.41410  0.93452  0.51224  1.0000
  H   H639      1.0  0.43609  0.66041  0.61287  1.0000
  H   H640      1.0  0.18097  0.49636  0.66693  1.0000
  H   H641      1.0  0.45853  0.90061  0.60867  1.0000
  C   C811      1.0  0.38757  0.92999  0.51753  1.0000
  H   H642      1.0  0.00331  0.71497  0.55168  1.0000
  C   C812      1.0  0.10759  0.73495  0.62364  1.0000
  C   C813      1.0  0.08397  0.73564  0.63065  1.0000
  C   C814      1.0  0.08631  0.75985  0.63954  1.0000
  C   C815      1.0  0.11235  0.78329  0.64154  1.0000
  C   C816      1.0  0.13633  0.78268  0.63467  1.0000
  C   C817      1.0  0.18627  0.84580  0.69663  1.0000
  P   P29       1.0  0.16991  0.81322  0.63743  1.0000
  C   C818      1.0  0.17207  0.84010  0.62205  1.0000
  C   C819      1.0  0.14795  0.83948  0.61355  1.0000
  C   C820      1.0  0.15020  0.85973  0.60105  1.0000
  C   C821      1.0  0.17650  0.88065  0.59690  1.0000
  C   C822      1.0  0.20059  0.88141  0.60527  1.0000
  C   C823      1.0  0.19841  0.86125  0.61776  1.0000
  H   H643      1.0  0.26904  0.87788  0.62564  1.0000
  C   C824      1.0  0.31790  0.52309  0.60559  1.0000
  C   C825      1.0  0.20213  0.80034  0.61371  1.0000
  H   H644      1.0  0.06384  0.71744  0.62897  1.0000
  H   H645      1.0  0.06788  0.76040  0.64485  1.0000
  H   H646      1.0  0.11382  0.80194  0.64843  1.0000
  H   H647      1.0  0.12741  0.82315  0.61615  1.0000
  H   H648      1.0  0.13154  0.85893  0.59438  1.0000
  C   C826      1.0  0.46223  0.82450  0.71175  1.0000
  H   H649      1.0  0.22106  0.89749  0.60198  1.0000
  H   H650      1.0  0.21740  0.86202  0.62388  1.0000
  C   C827      1.0  0.12398  0.67160  0.70604  1.0000
  H   H651      1.0  0.20748  0.86782  0.65470  1.0000
  H   H652      1.0  0.44952  0.84723  0.51013  1.0000
  C   C828      1.0  0.09251  0.57432  0.50350  1.0000
  H   H653      1.0  0.41537  0.58239  0.69246  1.0000
  H   H654      1.0  0.36086  0.53194  0.73279  1.0000
  H   H655      1.0  0.40164  0.81017  0.51511  1.0000
  S   S115      1.0  0.30831  0.86811  0.73159  1.0000
  C   C829      1.0  0.20078  0.86344  0.68290  1.0000
  C   C830      1.0  0.27134  0.88102  0.65484  1.0000
  S   S116      1.0  0.98303  0.64491  0.54544  1.0000
  H   H656      1.0  0.30510  0.49253  0.64618  1.0000
  H   H657      1.0  0.98560  0.50862  0.67061  1.0000
  H   H658      1.0  0.01156  0.68723  0.67235  1.0000
  S   S117      1.0  0.38623  0.50549  0.59393  1.0000
  H   H659      1.0  0.03234  0.49443  0.56933  1.0000
  H   H660      1.0  0.25751  0.80500  0.65023  1.0000
  H   H661      1.0  0.14516  0.78755  0.67158  1.0000
  H   H662      1.0  0.12969  0.61235  0.71636  1.0000
  C   C831      1.0  0.19832  0.80517  0.63181  1.0000
  C   C832      1.0  0.07859  0.65653  0.50036  1.0000
  C   C833      1.0  0.44382  0.73355  0.57979  1.0000
  H   H663      1.0  0.44547  0.80319  0.61538  1.0000
  C   C834      1.0  0.16033  0.80899  0.67441  1.0000
  C   C835      1.0  0.21831  0.80645  0.64496  1.0000
  C   C836      1.0  0.45650  0.78301  0.58311  1.0000
  C   C837      1.0  0.15886  0.64590  0.70070  1.0000
  H   H664      1.0  0.47373  0.75615  0.70432  1.0000
  C   C838      1.0  0.07146  0.51985  0.73049  1.0000
  H   H665      1.0  0.02424  0.53381  0.51182  1.0000
  C   C839      1.0  0.47171  0.72717  0.62986  1.0000
  C   C840      1.0  0.00217  0.58505  0.68405  1.0000
  H   H666      1.0  0.46400  0.89996  0.55638  1.0000
  C   C841      1.0  0.09993  0.65683  0.51184  1.0000
  H   H667      1.0  0.15138  0.75731  0.61962  1.0000
  C   C842      1.0  0.24553  0.79868  0.62194  1.0000
  H   H668      1.0  0.44994  0.71671  0.57920  1.0000
  C   C843      1.0  0.23669  0.78961  0.71293  1.0000
  C   C844      1.0  0.01992  0.72048  0.54225  1.0000
  C   C845      1.0  0.07128  0.51662  0.69796  1.0000
  H   H669      1.0  0.07226  0.64000  0.66549  1.0000
  H   H670      1.0  0.26403  0.79679  0.61808  1.0000
  C   C846      1.0  0.04782  0.73539  0.54826  1.0000
  C   C847      1.0  0.26806  0.49528  0.60868  1.0000
  C   C848      1.0  0.06516  0.56715  0.50842  1.0000
  H   H671      1.0  0.21653  0.81111  0.65892  1.0000
  H   H672      1.0  0.25445  0.86045  0.65637  1.0000
  C   C849      1.0  0.39369  0.57831  0.63753  1.0000
  H   H673      1.0  0.40012  0.70654  0.57413  1.0000
  C   C850      1.0  0.46414  0.76111  0.58288  1.0000
  H   H674      1.0  0.30825  0.94354  0.49132  1.0000
  C   C851      1.0  0.12077  0.79258  0.51695  1.0000
  C   C852      1.0  0.07560  0.56988  0.66469  1.0000
  C   C853      1.0  0.14846  0.77176  0.50397  1.0000
  H   H675      1.0  0.41768  0.67647  0.71737  1.0000
  C   C854      1.0  0.05247  0.51797  0.50235  1.0000
  C   C855      1.0  0.16550  0.67211  0.69345  1.0000
  H   H676      1.0  0.42740  0.92953  0.52132  1.0000
  H   H677      1.0  0.47084  0.83889  0.63925  1.0000
  C   C856      1.0  0.39761  0.56354  0.65190  1.0000
  C   C857      1.0  0.07788  0.50945  0.71487  1.0000
  C   C858      1.0  0.41921  0.50842  0.66168  1.0000
  C   C859      1.0  0.42344  0.94576  0.49542  1.0000
  H   H678      1.0  0.40437  0.53270  0.49413  1.0000
  C   C860      1.0  0.46745  0.80840  0.72482  1.0000
  C   C861      1.0  0.38471  0.96092  0.61723  1.0000
  H   H679      1.0  0.02942  0.70932  0.49846  1.0000
  C   C862      1.0  0.01345  0.71164  0.52421  1.0000
  H   H680      1.0  0.12122  0.55900  0.49444  1.0000
  C   C863      1.0  0.21694  0.49874  0.63272  1.0000
  C   C864      1.0  0.40480  0.50087  0.64482  1.0000
  C   C865      1.0  0.02412  0.57782  0.68202  1.0000
  C   C866      1.0  0.05875  0.53773  0.72922  1.0000
  C   C867      1.0  0.07999  0.52533  0.49741  1.0000
  C   C868      1.0  0.42177  0.69742  0.72182  1.0000
  H   H681      1.0  0.19713  0.52545  0.62697  1.0000
  C   C869      1.0  0.09562  0.70660  0.50573  1.0000
  C   C870      1.0  0.14827  0.68531  0.69627  1.0000
  C   C871      1.0  0.47061  0.51160  0.53607  1.0000
  H   H682      1.0  0.10815  0.59597  0.50445  1.0000
  C   C872      1.0  0.99562  0.53951  0.54023  1.0000
  H   H683      1.0  0.47789  0.65754  0.62621  1.0000
  C   C873      1.0  0.47605  0.67693  0.62716  1.0000
  H   H684      1.0  0.36033  0.93599  0.71275  1.0000
  H   H685      1.0  0.39898  0.51509  0.63758  1.0000
  C   C874      1.0  0.11984  0.61354  0.64807  1.0000
  C   C875      1.0  0.45026  0.70366  0.62118  1.0000
  C   C876      1.0  0.17287  0.79609  0.50853  1.0000
  H   H686      1.0  0.35447  0.50076  0.49879  1.0000
  C   C877      1.0  0.37364  0.50995  0.71346  1.0000
  H   H687      1.0  0.10081  0.79180  0.52015  1.0000
  H   H688      1.0  0.99182  0.69925  0.51973  1.0000
  H   H689      1.0  0.44160  0.52292  0.50794  1.0000
  C   C878      1.0  0.38816  0.95963  0.67213  1.0000
  C   C879      1.0  0.44643  0.58095  0.64494  1.0000
  H   H690      1.0  0.43230  0.86488  0.58507  1.0000
  H   H691      1.0  0.37705  0.97846  0.69445  1.0000
  C   C880      1.0  0.05197  0.54484  0.71235  1.0000
  P   P30       1.0  0.04696  0.54097  0.67466  1.0000
  H   H692      1.0  0.18410  0.68219  0.68572  1.0000
  C   C881      1.0  0.40922  0.71188  0.71263  1.0000
  C   C882      1.0  0.05781  0.53400  0.69656  1.0000
  H   H693      1.0  0.05201  0.53118  0.63585  1.0000
  C   C883      1.0  0.38955  0.51212  0.69843  1.0000
  H   H694      1.0  0.22618  0.49160  0.66797  1.0000
  C   C884      1.0  0.40525  0.96437  0.63055  1.0000
  H   H695      1.0  0.04544  0.59377  0.68435  1.0000
  H   H696      1.0  0.46933  0.74621  0.63122  1.0000
  C   C885      1.0  0.03487  0.71745  0.51218  1.0000
  H   H697      1.0  0.00850  0.60681  0.53294  1.0000
  S   S118      1.0  0.32995  0.97212  0.52692  1.0000
  H   H698      1.0  0.15012  0.75460  0.49708  1.0000
  C   C886      1.0  0.37995  0.94847  0.48940  1.0000
  H   H699      1.0  0.23806  0.75834  0.73029  1.0000
  H   H700      1.0  0.25461  0.80662  0.71968  1.0000
  C   C887      1.0  0.37063  0.93718  0.50618  1.0000
  H   H701      1.0  0.45969  0.60724  0.62202  1.0000
  C   C888      1.0  0.44354  0.83972  0.52354  1.0000
  H   H702      1.0  0.08784  0.61644  0.63110  1.0000
  C   C889      1.0  0.16259  0.49196  0.69280  1.0000
  H   H703      1.0  0.04176  0.55837  0.71179  1.0000
  C   C890      1.0  0.11740  0.64543  0.71328  1.0000
  C   C891      1.0  0.04090  0.51125  0.64214  1.0000
  H   H704      1.0  0.46695  0.58200  0.64716  1.0000
  H   H705      1.0  0.16659  0.51369  0.69400  1.0000
  C   C892      1.0  0.44240  0.59554  0.63056  1.0000
  H   H706      1.0  0.41283  0.60468  0.61521  1.0000
  H   H707      1.0  0.17826  0.89616  0.58710  1.0000
  H   H708      1.0  0.02711  0.57928  0.55060  1.0000
  C   C893      1.0  0.37081  0.49654  0.50492  1.0000
  C   C894      1.0  0.99857  0.58416  0.53148  1.0000
  C   C895      1.0  0.44767  0.93190  0.66260  1.0000
  H   H709      1.0  0.38714  0.57814  0.71908  1.0000
  C   C896      1.0  0.30048  0.49829  0.63308  1.0000
  H   H710      1.0  0.05170  0.50219  0.53905  1.0000
  C   C897      1.0  0.37276  0.53370  0.72088  1.0000
  H   H711      1.0  0.10995  0.68093  0.70805  1.0000
  C   C898      1.0  0.38757  0.55970  0.71314  1.0000
  C   C899      1.0  0.40348  0.56198  0.69806  1.0000
  C   C900      1.0  0.44000  0.71017  0.73663  1.0000
  H   H712      1.0  0.40526  0.75016  0.71092  1.0000
  H   H713      1.0  0.44661  0.53136  0.54743  1.0000
  C   C901      1.0  0.41994  0.50896  0.51025  1.0000
  C   C902      1.0  0.00895  0.56868  0.54155  1.0000
  H   H714      1.0  0.00350  0.52767  0.54835  1.0000
  H   H715      1.0  0.37316  0.57690  0.63441  1.0000
  H   H716      1.0  0.19027  0.83712  0.52126  1.0000
  C   C903      1.0  0.02947  0.48959  0.54038  1.0000
  C   C904      1.0  0.14523  0.81686  0.52149  1.0000
  H   H717      1.0  0.37982  0.55048  0.65965  1.0000
  C   C905      1.0  0.42660  0.98606  0.54836  1.0000
  H   H718      1.0  0.23757  0.49841  0.70055  1.0000
  H   H719      1.0  0.47083  0.84922  0.56637  1.0000
  C   C906      1.0  0.46653  0.87207  0.62545  1.0000
  H   H720      1.0  0.08740  0.49527  0.71588  1.0000
  H   H721      1.0  0.44414  0.94950  0.49165  1.0000
  H   H722      1.0  0.43772  0.49471  0.68335  1.0000
  H   H723      1.0  0.06332  0.63696  0.49419  1.0000
  H   H724      1.0  0.10896  0.75447  0.72817  1.0000
  C   C907      1.0  0.46723  0.53375  0.54423  1.0000
  H   H725      1.0  0.47782  0.88774  0.63590  1.0000
  H   H726      1.0  0.47272  0.80438  0.58468  1.0000
  H   H727      1.0  0.46539  0.60374  0.50897  1.0000
  C   C908      1.0  0.47065  0.59032  0.50035  1.0000
  C   C909      1.0  0.38641  0.98377  0.60743  1.0000
  H   H728      1.0  0.44254  0.49779  0.56954  1.0000
  H   H729      1.0  0.37001  0.98090  0.59747  1.0000
  C   C910      1.0  0.33518  0.98340  0.50396  1.0000
  H   H730      1.0  0.05913  0.68054  0.48890  1.0000
  H   H731      1.0  0.47918  0.85318  0.69016  1.0000
  C   C911      1.0  0.42659  0.48929  0.67037  1.0000
  H   H732      1.0  0.39681  0.85129  0.74183  1.0000
  S   S119      1.0  0.01277  0.85330  0.90542  1.0000
  S   S120      1.0  0.01302  0.78133  0.91727  1.0000
  Fe  Fe61      1.0  0.03350  0.68333  0.77773  1.0000
  S   S121      1.0  0.07599  0.68783  0.78635  1.0000
  S   S122      1.0  0.00354  0.69062  0.79664  1.0000
  C   C912      1.0  0.03070  0.84210  0.85558  1.0000
  C   C913      1.0  0.11796  0.63813  0.86890  1.0000
  Fe  Fe62      1.0  0.06802  0.65308  0.76577  1.0000
  C   C914      1.0  0.13051  0.92373  0.83884  1.0000
  C   C915      1.0  0.17716  0.80243  0.76482  1.0000
  S   S123      1.0  0.02407  0.64633  0.75840  1.0000
  Fe  Fe63      1.0  0.33460  0.90485  0.74989  1.0000
  C   C916      1.0  0.12164  0.62031  0.81645  1.0000
  Fe  Fe64      1.0  0.27781  0.85443  0.75378  1.0000
  H   H733      1.0  0.45024  0.69926  0.74361  1.0000
  S   S124      1.0  0.25498  0.80820  0.75991  1.0000
  Fe  Fe65      1.0  0.28352  0.91285  0.76218  1.0000
  S   S125      1.0  0.30599  0.88882  0.77334  1.0000
  Fe  Fe66      1.0  0.17509  0.95729  0.90201  1.0000
  S   S126      1.0  0.21933  0.96362  0.90609  1.0000
  S   S127      1.0  0.14562  0.91146  0.90521  1.0000
  H   H734      1.0  0.06591  0.59118  0.87133  1.0000
  H   H735      1.0  0.16804  0.81672  0.76665  1.0000
  H   H736      1.0  0.10559  0.80164  0.95858  1.0000
  S   S128      1.0  0.35919  0.51335  0.77653  1.0000
  C   C917      1.0  0.21957  0.93190  0.95001  1.0000
  H   H737      1.0  0.10494  0.86390  0.81326  1.0000
  C   C918      1.0  0.11426  0.66172  0.81341  1.0000
  H   H738      1.0  0.07984  0.75007  0.81170  1.0000
  C   C919      1.0  0.45101  0.89796  0.76588  1.0000
  C   C920      1.0  0.45577  0.91762  0.75250  1.0000
  H   H739      1.0  0.08474  0.78021  0.83838  1.0000
  C   C921      1.0  0.40786  0.91248  0.75453  1.0000
  C   C922      1.0  0.40295  0.89250  0.76773  1.0000
  C   C923      1.0  0.42445  0.88541  0.77341  1.0000
  C   C924      1.0  0.10669  0.93432  0.98164  1.0000
  S   S129      1.0  0.26144  0.93349  0.77953  1.0000
  C   C925      1.0  0.45025  0.56722  0.76042  1.0000
  C   C926      1.0  0.06326  0.81340  0.80701  1.0000
  C   C927      1.0  0.40707  0.52312  0.75799  1.0000
  C   C928      1.0  0.39406  0.53378  0.76983  1.0000
  C   C929      1.0  0.40927  0.56130  0.77685  1.0000
  C   C930      1.0  0.43713  0.57802  0.77207  1.0000
  C   C931      1.0  0.07609  0.76831  0.81041  1.0000
  H   H740      1.0  0.09369  0.87594  0.86946  1.0000
  H   H741      1.0  0.39938  0.56977  0.78599  1.0000
  H   H742      1.0  0.09291  0.53329  0.77754  1.0000
  C   C932      1.0  0.17192  0.75514  0.76179  1.0000
  C   C933      1.0  0.20116  0.76586  0.76067  1.0000
  C   C934      1.0  0.21837  0.79490  0.76147  1.0000
  H   H743      1.0  0.12380  0.92634  0.86714  1.0000
  C   C935      1.0  0.10799  0.87716  0.82501  1.0000
  H   H744      1.0  0.15877  0.73278  0.76123  1.0000
  C   C936      1.0  0.44086  0.77462  0.77633  1.0000
  C   C937      1.0  0.07110  0.58467  0.77381  1.0000
  H   H745      1.0  0.04438  0.52479  0.81923  1.0000
  S   S130      1.0  0.04967  0.71352  0.75527  1.0000
  C   C938      1.0  0.05046  0.52656  0.78044  1.0000
  C   C939      1.0  0.03259  0.53961  0.78042  1.0000
  C   C940      1.0  0.04275  0.56843  0.77698  1.0000
  H   H746      1.0  0.04691  0.86097  0.86175  1.0000
  C   C941      1.0  0.04429  0.52940  0.84809  1.0000
  C   C942      1.0  0.06573  0.79595  0.87351  1.0000
  H   H747      1.0  0.02870  0.57806  0.77687  1.0000
  C   C943      1.0  0.04981  0.86977  0.90560  1.0000
  C   C944      1.0  0.06492  0.85420  0.90736  1.0000
  C   C945      1.0  0.09423  0.86751  0.90764  1.0000
  C   C946      1.0  0.10886  0.89652  0.90579  1.0000
  C   C947      1.0  0.09394  0.91231  0.90391  1.0000
  C   C948      1.0  0.06445  0.89893  0.90386  1.0000
  H   H748      1.0  0.05417  0.83185  0.90835  1.0000
  H   H749      1.0  0.10560  0.85514  0.90906  1.0000
  H   H750      1.0  0.10507  0.93472  0.90237  1.0000
  H   H751      1.0  0.05297  0.91119  0.90239  1.0000
  C   C949      1.0  0.00512  0.72079  0.85593  1.0000
  C   C950      1.0  0.00581  0.70373  0.81934  1.0000
  C   C951      1.0  0.02722  0.70651  0.83177  1.0000
  C   C952      1.0  0.02672  0.71476  0.84990  1.0000
  H   H752      1.0  0.04366  0.70144  0.82753  1.0000
  H   H753      1.0  0.04300  0.71607  0.85942  1.0000
  H   H754      1.0  0.10980  0.72706  0.83608  1.0000
  H   H755      1.0  0.44856  0.59913  0.77754  1.0000
  C   C953      1.0  0.06447  0.83484  0.95322  1.0000
  C   C954      1.0  0.07253  0.81327  0.95285  1.0000
  C   C955      1.0  0.13470  0.67167  0.80049  1.0000
  C   C956      1.0  0.10317  0.96580  0.95958  1.0000
  C   C957      1.0  0.11004  0.86675  0.96637  1.0000
  C   C958      1.0  0.08309  0.86149  0.95997  1.0000
  H   H756      1.0  0.22187  0.94882  0.79630  1.0000
  S   S131      1.0  0.08787  0.68299  0.74329  1.0000
  H   H757      1.0  0.99823  0.85184  0.86502  1.0000
  H   H758      1.0  0.12003  0.61925  0.86580  1.0000
  C   C959      1.0  0.04278  0.62684  0.81396  1.0000
  H   H759      1.0  0.04367  0.78576  0.86966  1.0000
  C   C960      1.0  0.13320  0.65518  0.88367  1.0000
  C   C961      1.0  0.06817  0.58723  0.84242  1.0000
  C   C962      1.0  0.11335  0.83004  0.86855  1.0000
  H   H760      1.0  0.37976  0.75196  0.73933  1.0000
  C   C963      1.0  0.07497  0.78728  0.88893  1.0000
  H   H761      1.0  0.11098  0.58404  0.77172  1.0000
  C   C964      1.0  0.10047  0.64562  0.85812  1.0000
  C   C965      1.0  0.16768  0.91156  0.96635  1.0000
  C   C966      1.0  0.00568  0.83585  0.98014  1.0000
  C   C967      1.0  0.11908  0.91274  0.85526  1.0000
  H   H762      1.0  0.43688  0.84015  0.74252  1.0000
  C   C968      1.0  0.06769  0.77404  0.79365  1.0000
  C   C969      1.0  0.16954  0.90253  0.94881  1.0000
  H   H763      1.0  0.04368  0.83074  0.94826  1.0000
  H   H764      1.0  0.05779  0.79253  0.94792  1.0000
  Fe  Fe67      1.0  0.22782  0.98747  0.88039  1.0000
  H   H765      1.0  0.01371  0.85780  0.95521  1.0000
  H   H766      1.0  0.07641  0.87786  0.96004  1.0000
  C   C970      1.0  0.09551  0.86606  0.84132  1.0000
  C   C971      1.0  0.43506  0.53966  0.75343  1.0000
  H   H767      1.0  0.05437  0.62276  0.80352  1.0000
  C   C972      1.0  0.00288  0.83701  0.85745  1.0000
  C   C973      1.0  0.03538  0.63317  0.84539  1.0000
  H   H768      1.0  0.14439  0.83189  0.88837  1.0000
  C   C974      1.0  0.20621  0.81305  0.76376  1.0000
  P   P31       1.0  0.07295  0.82895  0.84343  1.0000
  Fe  Fe68      1.0  0.98286  0.74826  0.89776  1.0000
  C   C975      1.0  0.47023  0.80733  0.79974  1.0000
  H   H769      1.0  0.10388  0.67425  0.81727  1.0000
  C   C976      1.0  0.08901  0.57170  0.77410  1.0000
  H   H770      1.0  0.15092  0.88860  0.94102  1.0000
  S   S132      1.0  0.08549  0.62114  0.76964  1.0000
  C   C977      1.0  0.12676  0.93748  0.95244  1.0000
  H   H771      1.0  0.08664  0.96102  0.98607  1.0000
  C   C978      1.0  0.18504  0.88034  0.77635  1.0000
  C   C979      1.0  0.15664  0.86832  0.77123  1.0000
  C   C980      1.0  0.13709  0.84793  0.78184  1.0000
  C   C981      1.0  0.14595  0.83949  0.79753  1.0000
  C   C982      1.0  0.17455  0.85099  0.80251  1.0000
  C   C983      1.0  0.19397  0.87181  0.79194  1.0000
  P   P32       1.0  0.18614  0.84043  0.82284  1.0000
  C   C984      1.0  0.18897  0.86379  0.84145  1.0000
  C   C985      1.0  0.16195  0.80450  0.82736  1.0000
  C   C986      1.0  0.15140  0.79656  0.84458  1.0000
  C   C987      1.0  0.13272  0.76872  0.84772  1.0000
  C   C988      1.0  0.12445  0.74856  0.83374  1.0000
  C   C989      1.0  0.13451  0.75634  0.81654  1.0000
  C   C990      1.0  0.15280  0.78420  0.81334  1.0000
  C   C991      1.0  0.20121  0.86168  0.85800  1.0000
  C   C992      1.0  0.20392  0.87986  0.87246  1.0000
  C   C993      1.0  0.19502  0.90065  0.87035  1.0000
  C   C994      1.0  0.18368  0.90346  0.85378  1.0000
  C   C995      1.0  0.18047  0.88504  0.83937  1.0000
  C   C996      1.0  0.22070  0.84338  0.81914  1.0000
  C   C997      1.0  0.24447  0.86858  0.82371  1.0000
  C   C998      1.0  0.27121  0.87166  0.82006  1.0000
  C   C999      1.0  0.14839  0.65581  0.79540  1.0000
  C   C1000     1.0  0.25102  0.82477  0.80700  1.0000
  C   C1001     1.0  0.22424  0.82156  0.81062  1.0000
  H   H772      1.0  0.20035  0.89619  0.76819  1.0000
  H   H773      1.0  0.14986  0.87467  0.75897  1.0000
  H   H774      1.0  0.11513  0.83831  0.77773  1.0000
  H   H775      1.0  0.13052  0.82366  0.80555  1.0000
  H   H776      1.0  0.21611  0.88145  0.79557  1.0000
  H   H777      1.0  0.15716  0.81169  0.85558  1.0000
  H   H778      1.0  0.12442  0.76286  0.86097  1.0000
  H   H779      1.0  0.12768  0.74103  0.80547  1.0000
  H   H780      1.0  0.15965  0.78996  0.79982  1.0000
  H   H781      1.0  0.20884  0.84609  0.85966  1.0000
  H   H782      1.0  0.21342  0.87828  0.88520  1.0000
  H   H783      1.0  0.19736  0.91498  0.88144  1.0000
  H   H784      1.0  0.17801  0.92041  0.85210  1.0000
  H   H785      1.0  0.17196  0.88789  0.82660  1.0000
  H   H786      1.0  0.24245  0.88625  0.82958  1.0000
  H   H787      1.0  0.01068  0.52731  0.78296  1.0000
  S   S133      1.0  0.00454  0.72896  0.87940  1.0000
  H   H788      1.0  0.25354  0.80814  0.79997  1.0000
  H   H789      1.0  0.20660  0.80231  0.80624  1.0000
  H   H790      1.0  0.03528  0.50711  0.85029  1.0000
  H   H791      1.0  0.23942  0.94061  0.94346  1.0000
  C   C1002     1.0  0.14199  0.63023  0.80346  1.0000
  H   H792      1.0  0.29081  0.95581  0.84442  1.0000
  H   H793      1.0  0.44495  0.53112  0.74435  1.0000
  H   H794      1.0  0.38277  0.88286  0.77377  1.0000
  C   C1003     1.0  0.01880  0.62987  0.80909  1.0000
  C   C1004     1.0  0.21796  0.94080  0.96749  1.0000
  C   C1005     1.0  0.08479  0.81767  0.86335  1.0000
  H   H795      1.0  0.43946  0.76528  0.80451  1.0000
  C   C1006     1.0  0.12178  0.92614  0.96968  1.0000
  H   H796      1.0  0.14400  0.94597  0.83793  1.0000
  C   C1007     1.0  0.04951  0.53936  0.83062  1.0000
  C   C1008     1.0  0.25846  0.94281  0.80255  1.0000
  H   H797      1.0  0.40433  0.50889  0.80653  1.0000
  C   C1009     1.0  0.09942  0.81842  0.95894  1.0000
  C   C1010     1.0  0.27448  0.84975  0.81174  1.0000
  C   C1011     1.0  0.44786  0.55899  0.85981  1.0000
  H   H798      1.0  0.14657  0.64923  0.89201  1.0000
  H   H799      1.0  0.13773  0.93115  0.94274  1.0000
  C   C1012     1.0  0.27542  0.95396  0.83404  1.0000
  C   C1013     1.0  0.43439  0.92493  0.74698  1.0000
  C   C1014     1.0  0.98422  0.71890  0.84337  1.0000
  S   S134      1.0  0.03674  0.49039  0.78552  1.0000
  C   C1015     1.0  0.06205  0.57701  0.85989  1.0000
  C   C1016     1.0  0.12249  0.82154  0.88410  1.0000
  H   H800      1.0  0.46066  0.74705  0.75340  1.0000
  C   C1017     1.0  0.06119  0.56815  0.82777  1.0000
  C   C1018     1.0  0.25411  0.96165  0.83822  1.0000
  C   C1019     1.0  0.10186  0.88407  0.85652  1.0000
  C   C1020     1.0  0.07879  0.78547  0.82547  1.0000
  C   C1021     1.0  0.45358  0.53591  0.86115  1.0000
  C   C1022     1.0  0.11817  0.84508  0.96561  1.0000
  C   C1023     1.0  0.23680  0.94998  0.80682  1.0000
  S   S135      1.0  0.00126  0.76556  0.96695  1.0000
  C   C1024     1.0  0.15992  0.77352  0.76389  1.0000
  H   H801      1.0  0.42399  0.75434  0.77256  1.0000
  C   C1025     1.0  0.07880  0.54285  0.77733  1.0000
  H   H802      1.0  0.13481  0.91434  0.81118  1.0000
  H   H803      1.0  0.01214  0.62845  0.79507  1.0000
  C   C1026     1.0  0.01493  0.79774  0.83929  1.0000
  P   P33       1.0  0.13388  0.90064  0.97603  1.0000
  H   H804      1.0  0.01895  0.78173  0.83270  1.0000
  C   C1027     1.0  0.12525  0.90590  0.82378  1.0000
  C   C1028     1.0  0.10328  0.80020  0.89432  1.0000
  H   H805      1.0  0.05704  0.83006  0.80564  1.0000
  H   H806      1.0  0.05387  0.80036  0.77900  1.0000
  Fe  Fe69      1.0  0.09168  0.71655  0.76316  1.0000
  H   H807      1.0  0.99975  0.64079  0.85057  1.0000
  C   C1029     1.0  0.23452  0.95914  0.82446  1.0000
  H   H808      1.0  0.21921  0.83531  0.76519  1.0000
  H   H809      1.0  0.05996  0.77063  0.89676  1.0000
  H   H810      1.0  0.29444  0.93938  0.81354  1.0000
  H   H811      1.0  0.11733  0.60066  0.82266  1.0000
  H   H812      1.0  0.04170  0.90438  0.96998  1.0000
  C   C1030     1.0  0.05041  0.54820  0.86271  1.0000
  H   H813      1.0  0.06576  0.76068  0.78205  1.0000
  C   C1031     1.0  0.27751  0.94449  0.81646  1.0000
  H   H814      1.0  0.14332  0.69328  0.89898  1.0000
  C   C1032     1.0  0.07274  0.80843  0.82382  1.0000
  C   C1033     1.0  0.03705  0.82273  0.84620  1.0000
  C   C1034     1.0  0.13146  0.68006  0.88756  1.0000
  S   S136      1.0  0.38220  0.92349  0.74739  1.0000
  C   C1035     1.0  0.44939  0.78083  0.79448  1.0000
  H   H815      1.0  0.08725  0.67801  0.85314  1.0000
  H   H816      1.0  0.44551  0.63283  0.80190  1.0000
  C   C1036     1.0  0.10707  0.63566  0.82114  1.0000
  H   H817      1.0  0.29515  0.85237  0.80850  1.0000
  H   H818      1.0  0.15249  0.61788  0.79941  1.0000
  H   H819      1.0  0.06463  0.57547  0.81410  1.0000
  C   C1037     1.0  0.00344  0.63504  0.82226  1.0000
  H   H820      1.0  0.12854  0.84665  0.86083  1.0000
  H   H821      1.0  0.42050  0.87018  0.78376  1.0000
  S   S137      1.0  0.12383  0.76167  0.76668  1.0000
  C   C1038     1.0  0.19538  0.91265  0.94071  1.0000
  C   C1039     1.0  0.06113  0.79649  0.79195  1.0000
  H   H822      1.0  0.28937  0.89133  0.82327  1.0000
  H   H823      1.0  0.11024  0.79380  0.90649  1.0000
  H   H824      1.0  0.11367  0.70754  0.87942  1.0000
  H   H825      1.0  0.98528  0.63811  0.81834  1.0000
  H   H826      1.0  0.19636  0.90639  0.92692  1.0000
  H   H827      1.0  0.09631  0.98135  0.95570  1.0000
  S   S138      1.0  0.25453  0.87751  0.74326  1.0000
  C   C1040     1.0  0.45374  0.79463  0.76322  1.0000
  C   C1041     1.0  0.47449  0.82124  0.76862  1.0000
  H   H828      1.0  0.13953  0.69138  0.79413  1.0000
  C   C1042     1.0  0.05153  0.62900  0.83215  1.0000
  C   C1043     1.0  0.09953  0.67109  0.86177  1.0000
  H   H829      1.0  0.05366  0.54569  0.74134  1.0000
  P   P34       1.0  0.08192  0.62426  0.83859  1.0000
  C   C1044     1.0  0.38383  0.77372  0.73932  1.0000
  C   C1045     1.0  0.11474  0.68807  0.87656  1.0000
  H   H830      1.0  0.13893  0.84876  0.97034  1.0000
  H   H831      1.0  0.16366  0.66316  0.78504  1.0000
  S   S139      1.0  0.18307  0.97984  0.87590  1.0000
  C   C1046     1.0  0.19215  0.93079  0.97562  1.0000
  C   C1047     1.0  0.01168  0.63664  0.84041  1.0000
  S   S140      1.0  0.25380  0.97519  0.86058  1.0000
  H   H832      1.0  0.47606  0.92756  0.74662  1.0000
  H   H833      1.0  0.07603  0.51378  0.74358  1.0000
  H   H834      1.0  0.23652  0.95640  0.97449  1.0000
  H   H835      1.0  0.04112  0.63388  0.85955  1.0000
  C   C1048     1.0  0.36584  0.80820  0.74021  1.0000
  H   H836      1.0  0.46712  0.68381  0.80909  1.0000
  H   H837      1.0  0.43858  0.51685  0.86704  1.0000
  C   C1049     1.0  0.98716  0.79284  0.84107  1.0000
  C   C1050     1.0  0.41584  0.82319  0.74113  1.0000
  H   H838      1.0  0.21799  0.96490  0.82726  1.0000
  H   H839      1.0  0.12153  0.96591  0.93413  1.0000
  C   C1051     1.0  0.01699  0.85972  0.96976  1.0000
  H   H840      1.0  0.42846  0.55781  0.86470  1.0000
  C   C1052     1.0  0.46414  0.64226  0.81066  1.0000
  H   H841      1.0  0.21045  0.75165  0.75918  1.0000
  H   H842      1.0  0.04594  0.54043  0.87622  1.0000
  C   C1053     1.0  0.03271  0.88595  0.97812  1.0000
  C   C1054     1.0  0.11748  0.95721  0.94745  1.0000
  S   S141      1.0  0.31398  0.93137  0.73960  1.0000
  C   C1055     1.0  0.09773  0.95433  0.97666  1.0000
  H   H843      1.0  0.46726  0.60379  0.81366  1.0000
  H   H844      1.0  0.46256  0.60142  0.85160  1.0000
  H   H845      1.0  0.39549  0.50214  0.75239  1.0000
  P   P35       1.0  0.44097  0.78735  0.74008  1.0000
  H   H846      1.0  0.99360  0.81545  0.97365  1.0000
  C   C1056     1.0  0.44561  0.73729  0.74232  1.0000
  C   C1057     1.0  0.36118  0.78025  0.73950  1.0000
  Fe  Fe70      1.0  0.99044  0.80651  0.90993  1.0000
  H   H847      1.0  0.34835  0.81334  0.74048  1.0000
  C   C1058     1.0  0.39316  0.82962  0.74101  1.0000
  C   C1059     1.0  0.41135  0.79520  0.73965  1.0000
  H   H848      1.0  0.33996  0.76368  0.73936  1.0000
  C   C1060     1.0  0.98449  0.71024  0.82531  1.0000
  H   H849      1.0  0.47640  0.81246  0.81383  1.0000
  Fe  Fe71      1.0  0.98163  0.76339  0.93881  1.0000
  C   C1061     1.0  0.46719  0.58364  0.85225  1.0000
  C   C1062     1.0  0.98116  0.81257  0.85003  1.0000
  C   C1063     1.0  0.47651  0.62587  0.81739  1.0000
  C   C1064     1.0  0.47877  0.53756  0.85508  1.0000
  S   S142      1.0  0.47747  0.88851  0.77373  1.0000
  C   C1065     1.0  0.47627  0.67098  0.81475  1.0000
  C   C1066     1.0  0.98470  0.75794  0.98799  1.0000
  Fe  Fe72      1.0  0.77493  0.02665  0.10660  1.0000
  S   S143      1.0  0.75191  0.04889  0.09468  1.0000
  S   S144      1.0  0.82008  0.05316  0.11608  1.0000
  Fe  Fe73      1.0  0.71625  0.02151  0.11181  1.0000
  S   S145      1.0  0.69447  0.04419  0.12724  1.0000
  Fe  Fe74      1.0  0.73637  0.01490  0.07298  1.0000
  S   S146      1.0  0.74761  0.02658  0.04348  1.0000
  C   C1067     1.0  0.88643  0.44499  0.23650  1.0000
  H   H850      1.0  0.91004  0.18772  0.18215  1.0000
  C   C1068     1.0  0.52479  0.43071  0.23282  1.0000
  S   S147      1.0  0.66632  0.12630  0.22353  1.0000
  S   S148      1.0  0.67159  0.05561  0.21127  1.0000
  H   H851      1.0  0.83933  0.14742  0.03842  1.0000
  S   S149      1.0  0.96420  0.21588  0.07045  1.0000
  C   C1069     1.0  0.85184  0.18601  0.00052  1.0000
  H   H852      1.0  0.87693  0.24405  0.21219  1.0000
  C   C1070     1.0  0.61588  0.05050  0.11485  1.0000
  C   C1071     1.0  0.88455  0.45360  0.18381  1.0000
  H   H853      1.0  0.85106  0.25598  0.14665  1.0000
  H   H854      1.0  0.85161  0.19339  0.05253  1.0000
  Fe  Fe75      1.0  0.94938  0.25619  0.11017  1.0000
  S   S150      1.0  0.94666  0.21278  0.11276  1.0000
  S   S151      1.0  0.93232  0.27826  0.13038  1.0000
  Fe  Fe76      1.0  0.92481  0.20345  0.08541  1.0000
  S   S152      1.0  0.88499  0.16649  0.07487  1.0000
  S   S153      1.0  0.92554  0.24570  0.08316  1.0000
  Fe  Fe77      1.0  0.89649  0.32404  0.22944  1.0000
  S   S154      1.0  0.87030  0.34087  0.21464  1.0000
  S   S155      1.0  0.92158  0.30504  0.21419  1.0000
  H   H855      1.0  0.71054  0.11758  0.20628  1.0000
  H   H856      1.0  0.63751  0.15858  0.19997  1.0000
  C   C1072     1.0  0.94153  0.27599  0.16782  1.0000
  C   C1073     1.0  0.82909  0.15445  0.17806  1.0000
  C   C1074     1.0  0.87304  0.19093  0.19002  1.0000
  C   C1075     1.0  0.73222  0.13264  0.20511  1.0000
  C   C1076     1.0  0.61279  0.05520  0.13300  1.0000
  C   C1077     1.0  0.73354  0.20938  0.23477  1.0000
  C   C1078     1.0  0.92839  0.28382  0.15390  1.0000
  C   C1079     1.0  0.70317  0.00669  0.01784  1.0000
  H   H857      1.0  0.86332  0.23751  0.11804  1.0000
  C   C1080     1.0  0.92267  0.29606  0.19086  1.0000
  C   C1081     1.0  0.90882  0.30308  0.17697  1.0000
  C   C1082     1.0  0.91189  0.29727  0.15871  1.0000
  H   H858      1.0  0.89642  0.31381  0.18028  1.0000
  H   H859      1.0  0.90165  0.30359  0.14819  1.0000
  C   C1083     1.0  0.81847  0.16876  0.12437  1.0000
  Fe  Fe78      1.0  0.65831  0.08237  0.23001  1.0000
  C   C1084     1.0  0.85615  0.21559  0.12102  1.0000
  H   H860      1.0  0.79415  0.13353  0.05899  1.0000
  H   H861      1.0  0.72280  0.16676  0.19859  1.0000
  H   H862      1.0  0.79059  0.18270  0.15475  1.0000
  H   H863      1.0  0.86316  0.44145  0.17884  1.0000
  H   H864      1.0  0.56953  0.07129  0.09612  1.0000
  C   C1085     1.0  0.89252  0.42984  0.11126  1.0000
  H   H865      1.0  0.81641  0.24491  0.20866  1.0000
  H   H866      1.0  0.86402  0.23510  0.03373  1.0000
  C   C1086     1.0  0.83825  0.08473  0.10467  1.0000
  C   C1087     1.0  0.86435  0.10492  0.11159  1.0000
  C   C1088     1.0  0.87904  0.13019  0.10264  1.0000
  C   C1089     1.0  0.86754  0.13544  0.08681  1.0000
  C   C1090     1.0  0.84161  0.11517  0.07988  1.0000
  C   C1091     1.0  0.82709  0.08993  0.08870  1.0000
  H   H867      1.0  0.87327  0.10093  0.12384  1.0000
  H   H868      1.0  0.89927  0.14549  0.10790  1.0000
  H   H869      1.0  0.83285  0.11879  0.06745  1.0000
  H   H870      1.0  0.80751  0.07429  0.08288  1.0000
  C   C1092     1.0  0.73185  0.01614  0.02139  1.0000
  C   C1093     1.0  0.74919  0.01973  0.00675  1.0000
  C   C1094     1.0  0.84555  0.45387  0.23429  1.0000
  H   H871      1.0  0.77134  0.02693  0.00931  1.0000
  C   C1095     1.0  0.88738  0.17815  0.18125  1.0000
  C   C1096     1.0  0.68899  0.04742  0.15079  1.0000
  C   C1097     1.0  0.68153  0.06839  0.15665  1.0000
  C   C1098     1.0  0.67621  0.07131  0.17497  1.0000
  C   C1099     1.0  0.67819  0.05322  0.18783  1.0000
  C   C1100     1.0  0.68593  0.03246  0.18200  1.0000
  C   C1101     1.0  0.69128  0.02956  0.16370  1.0000
  H   H872      1.0  0.68000  0.08256  0.14691  1.0000
  H   H873      1.0  0.67057  0.08751  0.17918  1.0000
  H   H874      1.0  0.55089  0.15055  0.22464  1.0000
  H   H875      1.0  0.69694  0.01329  0.15957  1.0000
  C   C1102     1.0  0.83195  0.06247  0.03054  1.0000
  H   H876      1.0  0.85405  0.06228  0.05527  1.0000
  H   H877      1.0  0.72759  0.21106  0.14651  1.0000
  C   C1103     1.0  0.59423  0.06599  0.13805  1.0000
  C   C1104     1.0  0.69217  0.00148  0.99990  1.0000
  C   C1105     1.0  0.58163  0.06686  0.10645  1.0000
  C   C1106     1.0  0.51198  0.08204  0.17524  1.0000
  H   H878      1.0  0.93742  0.44674  0.11359  1.0000
  C   C1107     1.0  0.94516  0.38238  0.19816  1.0000
  C   C1108     1.0  0.92784  0.39506  0.19397  1.0000
  C   C1109     1.0  0.91868  0.39526  0.17610  1.0000
  C   C1110     1.0  0.92636  0.38168  0.16255  1.0000
  C   C1111     1.0  0.59066  0.99853  0.19324  1.0000
  C   C1112     1.0  0.86072  0.38327  0.17811  1.0000
  C   C1113     1.0  0.57862  0.99413  0.17585  1.0000
  C   C1114     1.0  0.82408  0.36587  0.19983  1.0000
  C   C1115     1.0  0.80971  0.34137  0.18934  1.0000
  C   C1116     1.0  0.82087  0.33763  0.17333  1.0000
  C   C1117     1.0  0.84642  0.35838  0.16780  1.0000
  C   C1118     1.0  0.55735  0.10014  0.16190  1.0000
  C   C1119     1.0  0.55938  0.07543  0.16595  1.0000
  C   C1120     1.0  0.51350  0.05713  0.17889  1.0000
  C   C1121     1.0  0.55695  0.11323  0.22569  1.0000
  H   H879      1.0  0.91838  0.38003  0.14882  1.0000
  H   H880      1.0  0.81269  0.20528  0.11737  1.0000
  H   H881      1.0  0.71324  0.08015  0.07862  1.0000
  H   H882      1.0  0.61300  0.06874  0.19796  1.0000
  H   H883      1.0  0.81320  0.06896  0.00630  1.0000
  H   H884      1.0  0.80987  0.31843  0.16538  1.0000
  H   H885      1.0  0.85519  0.35494  0.15559  1.0000
  H   H886      1.0  0.84828  0.40132  0.14525  1.0000
  Fe  Fe79      1.0  0.96656  0.25865  0.06984  1.0000
  C   C1122     1.0  0.84367  0.17894  0.18876  1.0000
  H   H887      1.0  0.95435  0.26572  0.16452  1.0000
  H   H888      1.0  0.50376  0.04707  0.22304  1.0000
  C   C1123     1.0  0.78323  0.09899  0.00332  1.0000
  C   C1124     1.0  0.86622  0.23294  0.22388  1.0000
  H   H889      1.0  0.84139  0.29278  0.16090  1.0000
  H   H890      1.0  0.81584  0.36837  0.21251  1.0000
  H   H891      1.0  0.68744  0.14939  0.15846  1.0000
  C   C1125     1.0  0.84342  0.14133  0.16972  1.0000
  H   H892      1.0  0.73294  0.15246  0.10869  1.0000
  C   C1126     1.0  0.66792  0.14162  0.16534  1.0000
  H   H893      1.0  0.93192  0.14814  0.03765  1.0000
  H   H894      1.0  0.71006  0.18095  0.11879  1.0000
  H   H895      1.0  0.89788  0.21993  0.12524  1.0000
  C   C1127     1.0  0.85827  0.21477  0.02738  1.0000
  C   C1128     1.0  0.86783  0.41060  0.13842  1.0000
  H   H896      1.0  0.68201  0.17700  0.18396  1.0000
  C   C1129     1.0  0.87580  0.20570  0.12498  1.0000
  C   C1130     1.0  0.83727  0.27383  0.16802  1.0000
  P   P36       1.0  0.82500  0.19573  0.19980  1.0000
  H   H897      1.0  0.63047  0.04237  0.11116  1.0000
  C   C1131     1.0  0.95343  0.36974  0.18455  1.0000
  H   H898      1.0  0.81720  0.04055  0.03101  1.0000
  H   H899      1.0  0.56902  0.01273  0.15295  1.0000
  H   H900      1.0  0.74594  0.09573  0.05356  1.0000
  P   P37       1.0  0.89419  0.40938  0.17124  1.0000
  H   H901      1.0  0.89224  0.43488  0.09719  1.0000
  C   C1132     1.0  0.74805  0.23540  0.22661  1.0000
  H   H902      1.0  0.62508  0.05055  0.14311  1.0000
  C   C1133     1.0  0.75572  0.08424  0.99644  1.0000
  C   C1134     1.0  0.93881  0.28221  0.18608  1.0000
  H   H903      1.0  0.88286  0.14171  0.03015  1.0000
  S   S156      1.0  0.69821  0.98907  0.08879  1.0000
  H   H904      1.0  0.80995  0.15529  0.08915  1.0000
  H   H905      1.0  0.72875  0.10119  0.10911  1.0000
  C   C1135     1.0  0.57860  0.07174  0.12463  1.0000
  H   H906      1.0  0.82396  0.28702  0.19193  1.0000
  C   C1136     1.0  0.62054  0.10527  0.16896  1.0000
  H   H907      1.0  0.68765  0.01831  0.19171  1.0000
  H   H908      1.0  0.53269  0.12288  0.16400  1.0000
  C   C1137     1.0  0.77485  0.25449  0.23319  1.0000
  H   H909      1.0  0.78240  0.05671  0.14149  1.0000
  C   C1138     1.0  0.53380  0.10346  0.16663  1.0000
  C   C1139     1.0  0.84036  0.20899  0.22201  1.0000
  H   H910      1.0  0.88242  0.16975  0.13080  1.0000
  H   H911      1.0  0.83251  0.13700  0.12963  1.0000
  C   C1140     1.0  0.82758  0.19724  0.12070  1.0000
  C   C1141     1.0  0.91839  0.43013  0.13866  1.0000
  H   H912      1.0  0.75165  0.12863  0.15814  1.0000
  H   H913      1.0  0.75694  0.05269  0.16942  1.0000
  C   C1142     1.0  0.91797  0.43649  0.12049  1.0000
  H   H914      1.0  0.94074  0.13644  0.06865  1.0000
  C   C1143     1.0  0.89327  0.41659  0.14765  1.0000
  H   H915      1.0  0.79211  0.09604  0.12143  1.0000
  C   C1144     1.0  0.86702  0.17740  0.12820  1.0000
  H   H916      1.0  0.74141  0.08856  0.17744  1.0000
  H   H917      1.0  0.76820  0.21221  0.16426  1.0000
  H   H918      1.0  0.64850  0.10459  0.14860  1.0000
  H   H919      1.0  0.94970  0.27662  0.19658  1.0000
  P   P38       1.0  0.84096  0.12980  0.00062  1.0000
  H   H920      1.0  0.60268  0.05257  0.08749  1.0000
  H   H921      1.0  0.49405  0.08485  0.17937  1.0000
  H   H922      1.0  0.49647  0.41021  0.19298  1.0000
  C   C1145     1.0  0.90419  0.44289  0.18245  1.0000
  C   C1146     1.0  0.84698  0.10773  0.01675  1.0000
  H   H923      1.0  0.79026  0.32501  0.19387  1.0000
  H   H924      1.0  0.67004  0.99474  0.99733  1.0000
  C   C1147     1.0  0.49758  0.08426  0.22258  1.0000
  C   C1148     1.0  0.95806  0.15003  0.06072  1.0000
  C   C1149     1.0  0.75329  0.12447  0.20859  1.0000
  C   C1150     1.0  0.59140  0.04386  0.17407  1.0000
  C   C1151     1.0  0.83852  0.15890  0.12767  1.0000
  H   H925      1.0  0.80592  0.17852  0.23672  1.0000
  H   H926      1.0  0.61209  0.02864  0.21461  1.0000
  C   C1152     1.0  0.95309  0.15674  0.04329  1.0000
  C   C1153     1.0  0.78133  0.14365  0.20703  1.0000
  H   H927      1.0  0.48889  0.99051  0.23016  1.0000
  C   C1154     1.0  0.85272  0.07468  0.04416  1.0000
  H   H928      1.0  0.93830  0.43584  0.14573  1.0000
  C   C1155     1.0  0.77970  0.12708  0.06985  1.0000
  C   C1156     1.0  0.75250  0.10590  0.06676  1.0000
  C   C1157     1.0  0.73405  0.09716  0.08087  1.0000
  C   C1158     1.0  0.74294  0.10912  0.09815  1.0000
  C   C1159     1.0  0.77019  0.13049  0.10136  1.0000
  C   C1160     1.0  0.78856  0.13940  0.08706  1.0000
  P   P39       1.0  0.78139  0.14528  0.12386  1.0000
  C   C1161     1.0  0.76352  0.16540  0.13102  1.0000
  C   C1162     1.0  0.77399  0.11631  0.13863  1.0000
  C   C1163     1.0  0.75927  0.11370  0.15444  1.0000
  C   C1164     1.0  0.75351  0.09102  0.16560  1.0000
  C   C1165     1.0  0.76209  0.07065  0.16103  1.0000
  C   C1166     1.0  0.77626  0.07282  0.14521  1.0000
  C   C1167     1.0  0.78186  0.09531  0.13393  1.0000
  C   C1168     1.0  0.77311  0.18230  0.14678  1.0000
  C   C1169     1.0  0.76030  0.19881  0.15229  1.0000
  C   C1170     1.0  0.73751  0.19825  0.14225  1.0000
  C   C1171     1.0  0.72765  0.18131  0.12663  1.0000
  C   C1172     1.0  0.74067  0.16503  0.12096  1.0000
  C   C1173     1.0  0.97528  0.17527  0.03335  1.0000
  H   H929      1.0  0.80667  0.14539  0.17603  1.0000
  H   H930      1.0  0.88368  0.14326  0.16452  1.0000
  H   H931      1.0  0.93059  0.23902  0.02758  1.0000
  C   C1174     1.0  0.53986  0.46008  0.23187  1.0000
  H   H932      1.0  0.55558  0.07233  0.22609  1.0000
  C   C1175     1.0  0.83859  0.22909  0.16939  1.0000
  H   H933      1.0  0.68960  0.00436  0.02886  1.0000
  C   C1176     1.0  0.85817  0.21205  0.00865  1.0000
  C   C1177     1.0  0.86748  0.41703  0.12025  1.0000
  C   C1178     1.0  0.82339  0.24671  0.19496  1.0000
  C   C1179     1.0  0.82759  0.27065  0.18549  1.0000
  C   C1180     1.0  0.93592  0.24196  0.99875  1.0000
  H   H934      1.0  0.73836  0.24091  0.21535  1.0000
  H   H935      1.0  0.74773  0.10321  0.21259  1.0000
  H   H936      1.0  0.73905  0.07247  0.00537  1.0000
  P   P40       1.0  0.59126  0.07265  0.16160  1.0000
  C   C1181     1.0  0.82942  0.07881  0.01670  1.0000
  C   C1182     1.0  0.57872  0.01663  0.16635  1.0000
  H   H937      1.0  0.83193  0.12210  0.16182  1.0000
  C   C1183     1.0  0.78852  0.17115  0.20168  1.0000
  C   C1184     1.0  0.73917  0.16022  0.20054  1.0000
  C   C1185     1.0  0.84268  0.25304  0.15997  1.0000
  C   C1186     1.0  0.61794  0.12077  0.18358  1.0000
  C   C1187     1.0  0.87257  0.15320  0.17127  1.0000
  H   H938      1.0  0.91471  0.22663  0.99550  1.0000
  C   C1188     1.0  0.85126  0.19130  0.03797  1.0000
  C   C1189     1.0  0.84602  0.16259  0.01112  1.0000
  C   C1190     1.0  0.60315  0.04805  0.19164  1.0000
  H   H939      1.0  0.56410  0.07994  0.12813  1.0000
  H   H940      1.0  0.92118  0.40427  0.20472  1.0000
  H   H941      1.0  0.94766  0.45203  0.18740  1.0000
  C   C1191     1.0  0.82879  0.22569  0.18697  1.0000
  C   C1192     1.0  0.97175  0.27007  0.02144  1.0000
  C   C1193     1.0  0.84469  0.16521  0.02987  1.0000
  C   C1194     1.0  0.63986  0.14675  0.18871  1.0000
  H   H942      1.0  0.84368  0.21368  0.16299  1.0000
  C   C1195     1.0  0.60028  0.05629  0.10156  1.0000
  C   C1196     1.0  0.76722  0.17951  0.19897  1.0000
  H   H943      1.0  0.78741  0.09870  0.01766  1.0000
  C   C1197     1.0  0.66492  0.15710  0.17969  1.0000
  H   H944      1.0  0.57435  0.11720  0.15561  1.0000
  C   C1198     1.0  0.84960  0.38667  0.19432  1.0000
  H   H945      1.0  0.88510  0.21033  0.19748  1.0000
  H   H946      1.0  0.86098  0.40495  0.20300  1.0000
  S   S157      1.0  0.90277  0.42244  0.23464  1.0000
  Fe  Fe80      1.0  0.88424  0.37479  0.23652  1.0000
  C   C1199     1.0  0.73822  0.01456  0.98881  1.0000
  S   S158      1.0  0.74027  0.00047  0.12482  1.0000
  C   C1200     1.0  0.64572  0.11598  0.15985  1.0000
  H   H947      1.0  0.77209  0.20089  0.19593  1.0000
  H   H948      1.0  0.59892  0.11291  0.19102  1.0000
  S   S159      1.0  0.79234  0.28756  0.22337  1.0000
  C   C1201     1.0  0.94489  0.24898  0.01699  1.0000
  C   C1202     1.0  0.53707  0.05377  0.17429  1.0000
  H   H949      1.0  0.97068  0.18034  0.02003  1.0000
  H   H950      1.0  0.89706  0.17544  0.99475  1.0000
  C   C1203     1.0  0.60256  0.02536  0.20118  1.0000
  H   H951      1.0  0.95163  0.38175  0.21205  1.0000
  C   C1204     1.0  0.51114  0.11355  0.22312  1.0000
  H   H952      1.0  0.53798  0.03454  0.17771  1.0000
  C   C1205     1.0  0.87139  0.10308  0.04368  1.0000
  H   H953      1.0  0.49892  0.12515  0.22219  1.0000
  C   C1206     1.0  0.54065  0.12791  0.22451  1.0000
  C   C1207     1.0  0.52610  0.47696  0.23338  1.0000
  C   C1208     1.0  0.93193  0.45945  0.18863  1.0000
  C   C1209     1.0  0.49710  0.46406  0.23592  1.0000
  C   C1210     1.0  0.86874  0.11953  0.02994  1.0000
  C   C1211     1.0  0.94409  0.36945  0.16674  1.0000
  C   C1212     1.0  0.85741  0.43495  0.23476  1.0000
  C   C1213     1.0  0.51393  0.06964  0.22373  1.0000
  H   H954      1.0  0.71273  0.19494  0.22985  1.0000
  H   H955      1.0  0.82316  0.44596  0.23223  1.0000
  H   H956      1.0  0.94985  0.35879  0.15631  1.0000
  H   H957      1.0  0.88716  0.11269  0.05443  1.0000
  H   H958      1.0  0.79742  0.13702  0.21002  1.0000
  H   H959      1.0  0.96626  0.35926  0.18789  1.0000
  H   H960      1.0  0.84779  0.41231  0.11316  1.0000
  C   C1214     1.0  0.80519  0.11288  0.99168  1.0000
  C   C1215     1.0  0.54338  0.08395  0.22540  1.0000
  H   H961      1.0  0.49664  0.04074  0.18577  1.0000
  S   S160      1.0  0.59411  0.13231  0.22707  1.0000
  Fe  Fe81      1.0  0.83694  0.31487  0.23359  1.0000
  C   C1216     1.0  0.89233  0.48006  0.19172  1.0000
  H   H962      1.0  0.49030  0.45307  0.19220  1.0000
  H   H963      1.0  0.48622  0.47687  0.23706  1.0000
  S   S161      1.0  0.76140  0.99383  0.08442  1.0000
  H   H964      1.0  0.86371  0.23029  0.00045  1.0000
  H   H965      1.0  0.79264  0.98985  0.05154  1.0000
  C   C1217     1.0  0.86245  0.48297  0.23593  1.0000
  H   H966      1.0  0.84418  0.41271  0.23314  1.0000
  C   C1218     1.0  0.49575  0.41782  0.23515  1.0000
  H   H967      1.0  0.56199  0.46962  0.22946  1.0000
  C   C1219     1.0  0.93967  0.48598  0.19647  1.0000
  Fe  Fe82      1.0  0.62522  0.11603  0.23668  1.0000
  H   H968      1.0  0.53562  0.41787  0.23133  1.0000
  H   H969      1.0  0.83077  0.98936  0.03347  1.0000
  C   C1220     1.0  0.48203  0.43470  0.23694  1.0000
  C   C1221     1.0  0.82631  0.19637  0.23758  1.0000
  H   H970      1.0  0.87692  0.48793  0.19323  1.0000
  Fe  Fe83      1.0  0.63872  0.08791  0.26887  1.0000
  S   S162      1.0  0.64612  0.13194  0.26394  1.0000
  S   S163      1.0  0.61774  0.07253  0.29584  1.0000
  S   S164      1.0  0.67977  0.09421  0.25774  1.0000
  Fe  Fe84      1.0  0.64465  0.08211  0.40499  1.0000
  S   S165      1.0  0.65934  0.12823  0.40797  1.0000
  S   S166      1.0  0.65040  0.06412  0.37803  1.0000
  Fe  Fe85      1.0  0.62762  0.07231  0.44551  1.0000
  S   S167      1.0  0.64144  0.11876  0.45052  1.0000
  S   S168      1.0  0.60148  0.03663  0.46481  1.0000
  Fe  Fe86      1.0  0.62046  0.11729  0.42344  1.0000
  S   S169      1.0  0.59439  0.13846  0.41325  1.0000
  Fe  Fe87      1.0  0.67938  0.12599  0.43435  1.0000
  S   S170      1.0  0.72600  0.15492  0.44033  1.0000
  S   S171      1.0  0.60462  0.07102  0.41903  1.0000
  S   S172      1.0  0.66675  0.07959  0.43088  1.0000
  Fe  Fe88      1.0  0.87651  0.33420  0.26726  1.0000
  S   S173      1.0  0.84833  0.35023  0.25371  1.0000
  S   S174      1.0  0.87005  0.33757  0.29760  1.0000
  C   C1222     1.0  0.48262  0.01409  0.38330  1.0000
  C   C1223     1.0  0.54998  0.01374  0.30323  1.0000
  Fe  Fe89      1.0  0.87917  0.37818  0.42048  1.0000
  S   S175      1.0  0.91772  0.37147  0.41951  1.0000
  S   S176      1.0  0.88420  0.42020  0.41091  1.0000
  Fe  Fe90      1.0  0.84194  0.31669  0.42851  1.0000
  S   S177      1.0  0.87841  0.30634  0.42842  1.0000
  S   S178      1.0  0.79507  0.28663  0.42869  1.0000
  Fe  Fe91      1.0  0.90253  0.34701  0.44477  1.0000
  S   S179      1.0  0.93694  0.35352  0.46682  1.0000
  Fe  Fe92      1.0  0.89077  0.33211  0.40341  1.0000
  S   S180      1.0  0.90481  0.31829  0.37780  1.0000
  S   S181      1.0  0.86489  0.35581  0.44644  1.0000
  S   S182      1.0  0.85340  0.34049  0.40285  1.0000
  C   C1224     1.0  0.56651  0.44931  0.33830  1.0000
  C   C1225     1.0  0.57856  0.46570  0.27252  1.0000
  H   H971      1.0  0.52681  0.14849  0.33229  1.0000
  C   C1226     1.0  0.84671  0.45093  0.44583  1.0000
  P   P41       1.0  0.89134  0.25819  0.48058  1.0000
  C   C1227     1.0  0.88098  0.33241  0.31964  1.0000
  C   C1228     1.0  0.86822  0.33770  0.33453  1.0000
  C   C1229     1.0  0.87523  0.33333  0.35226  1.0000
  C   C1230     1.0  0.89540  0.32383  0.35548  1.0000
  C   C1231     1.0  0.90819  0.31836  0.34060  1.0000
  C   C1232     1.0  0.90111  0.32269  0.32278  1.0000
  H   H972      1.0  0.85293  0.34548  0.33241  1.0000
  H   H973      1.0  0.86521  0.33755  0.36350  1.0000
  H   H974      1.0  0.92382  0.31093  0.34289  1.0000
  H   H975      1.0  0.91121  0.31851  0.31153  1.0000
  C   C1233     1.0  0.74496  0.19112  0.43560  1.0000
  C   C1234     1.0  0.73154  0.20749  0.43072  1.0000
  C   C1235     1.0  0.74729  0.23652  0.42833  1.0000
  C   C1236     1.0  0.77665  0.24957  0.43059  1.0000
  C   C1237     1.0  0.79017  0.23302  0.43481  1.0000
  C   C1238     1.0  0.77438  0.20404  0.43745  1.0000
  H   H976      1.0  0.70895  0.19791  0.42931  1.0000
  H   H977      1.0  0.73656  0.24906  0.42509  1.0000
  H   H978      1.0  0.81271  0.24269  0.43663  1.0000
  H   H979      1.0  0.78500  0.19161  0.44122  1.0000
  C   C1239     1.0  0.56065  0.12904  0.42116  1.0000
  C   C1240     1.0  0.53921  0.12760  0.40911  1.0000
  C   C1241     1.0  0.51257  0.12179  0.41530  1.0000
  H   H980      1.0  0.57668  0.03501  0.38401  1.0000
  C   C1242     1.0  0.52907  0.12002  0.44572  1.0000
  C   C1243     1.0  0.55540  0.12494  0.43945  1.0000
  H   H981      1.0  0.54329  0.13126  0.39499  1.0000
  H   H982      1.0  0.50877  0.42070  0.33057  1.0000
  H   H983      1.0  0.57194  0.12651  0.44884  1.0000
  H   H984      1.0  0.93343  0.40183  0.35612  1.0000
  C   C1244     1.0  0.74092  0.47639  0.34736  1.0000
  C   C1245     1.0  0.83828  0.20715  0.25466  1.0000
  C   C1246     1.0  0.53266  0.09519  0.35006  1.0000
  C   C1247     1.0  0.50760  0.11843  0.43368  1.0000
  H   H985      1.0  0.78241  0.21611  0.26726  1.0000
  H   H986      1.0  0.52463  0.41437  0.27438  1.0000
  H   H987      1.0  0.59324  0.12738  0.37534  1.0000
  C   C1248     1.0  0.90325  0.47400  0.23890  1.0000
  C   C1249     1.0  0.93542  0.44471  0.29390  1.0000
  C   C1250     1.0  0.63028  0.07602  0.31876  1.0000
  C   C1251     1.0  0.65534  0.07505  0.32368  1.0000
  C   C1252     1.0  0.66196  0.07286  0.34199  1.0000
  C   C1253     1.0  0.64417  0.07259  0.35569  1.0000
  C   C1254     1.0  0.62002  0.07538  0.35086  1.0000
  C   C1255     1.0  0.61288  0.07650  0.33253  1.0000
  H   H988      1.0  0.66881  0.07430  0.31332  1.0000
  H   H989      1.0  0.68058  0.07049  0.34550  1.0000
  H   H990      1.0  0.60595  0.07492  0.36114  1.0000
  H   H991      1.0  0.59328  0.07682  0.32901  1.0000
  C   C1256     1.0  0.52701  0.05271  0.41872  1.0000
  C   C1257     1.0  0.50638  0.46817  0.28819  1.0000
  H   H992      1.0  0.93135  0.28201  0.40954  1.0000
  H   H993      1.0  0.88619  0.24101  0.41482  1.0000
  C   C1258     1.0  0.78712  0.24720  0.24777  1.0000
  C   C1259     1.0  0.85672  0.43332  0.43772  1.0000
  C   C1260     1.0  0.86997  0.44047  0.42132  1.0000
  H   H994      1.0  0.59919  0.13555  0.28752  1.0000
  C   C1261     1.0  0.93445  0.46915  0.30004  1.0000
  H   H995      1.0  0.85450  0.41446  0.44424  1.0000
  C   C1262     1.0  0.74585  0.20245  0.24955  1.0000
  C   C1263     1.0  0.50192  0.43519  0.43324  1.0000
  C   C1264     1.0  0.50414  0.40917  0.31784  1.0000
  C   C1265     1.0  0.68986  0.19557  0.38584  1.0000
  C   C1266     1.0  0.66455  0.17736  0.37716  1.0000
  H   H996      1.0  0.68620  0.13588  0.35399  1.0000
  H   H997      1.0  0.52228  0.46912  0.37015  1.0000
  C   C1267     1.0  0.71363  0.17189  0.37083  1.0000
  C   C1268     1.0  0.71422  0.19274  0.38280  1.0000
  P   P42       1.0  0.74465  0.16684  0.36754  1.0000
  C   C1269     1.0  0.74530  0.14278  0.38424  1.0000
  C   C1270     1.0  0.72096  0.11808  0.38688  1.0000
  C   C1271     1.0  0.72105  0.09887  0.39945  1.0000
  C   C1272     1.0  0.80772  0.23858  0.47852  1.0000
  H   H998      1.0  0.82709  0.19749  0.26654  1.0000
  C   C1273     1.0  0.77651  0.19955  0.36950  1.0000
  C   C1274     1.0  0.78584  0.21375  0.38627  1.0000
  C   C1275     1.0  0.81056  0.23880  0.38783  1.0000
  C   C1276     1.0  0.82632  0.24984  0.37271  1.0000
  C   C1277     1.0  0.81754  0.23564  0.35606  1.0000
  C   C1278     1.0  0.79285  0.21055  0.35446  1.0000
  H   H999      1.0  0.69041  0.21117  0.39555  1.0000
  H   H1000     1.0  0.64549  0.17882  0.38019  1.0000
  H   H1001     1.0  0.73309  0.20631  0.39031  1.0000
  H   H1002     1.0  0.72479  0.17712  0.33247  1.0000
  H   H1003     1.0  0.70186  0.11354  0.37920  1.0000
  C   C1279     1.0  0.51305  0.40559  0.28633  1.0000
  S   S183      1.0  0.72820  0.17116  0.26114  1.0000
  H   H1004     1.0  0.77423  0.20531  0.39824  1.0000
  H   H1005     1.0  0.81743  0.24986  0.40075  1.0000
  H   H1006     1.0  0.84540  0.26937  0.37391  1.0000
  H   H1007     1.0  0.83002  0.24415  0.34442  1.0000
  H   H1008     1.0  0.78679  0.19975  0.34151  1.0000
  C   C1280     1.0  0.80212  0.31162  0.36038  1.0000
  C   C1281     1.0  0.79031  0.29507  0.37512  1.0000
  C   C1282     1.0  0.77092  0.26714  0.37237  1.0000
  C   C1283     1.0  0.76338  0.25562  0.35488  1.0000
  C   C1284     1.0  0.77367  0.27261  0.33993  1.0000
  C   C1285     1.0  0.79370  0.30054  0.34284  1.0000
  P   P43       1.0  0.76423  0.25819  0.31718  1.0000
  C   C1286     1.0  0.76547  0.28485  0.30205  1.0000
  C   C1287     1.0  0.79006  0.24674  0.31099  1.0000
  C   C1288     1.0  0.78280  0.21840  0.30739  1.0000
  C   C1289     1.0  0.80325  0.20999  0.30299  1.0000
  C   C1290     1.0  0.83113  0.22987  0.30204  1.0000
  C   C1291     1.0  0.83849  0.25816  0.30535  1.0000
  C   C1292     1.0  0.81809  0.26654  0.30993  1.0000
  C   C1293     1.0  0.75379  0.30278  0.30690  1.0000
  C   C1294     1.0  0.75288  0.32216  0.29469  1.0000
  C   C1295     1.0  0.76324  0.32342  0.27749  1.0000
  C   C1296     1.0  0.77485  0.30559  0.27258  1.0000
  C   C1297     1.0  0.77593  0.28636  0.28478  1.0000
  C   C1298     1.0  0.72878  0.23085  0.31401  1.0000
  C   C1299     1.0  0.70861  0.22559  0.32705  1.0000
  C   C1300     1.0  0.68173  0.20351  0.32442  1.0000
  C   C1301     1.0  0.67440  0.18737  0.30844  1.0000
  C   C1302     1.0  0.69375  0.19376  0.29493  1.0000
  C   C1303     1.0  0.72069  0.21548  0.29762  1.0000
  H   H1009     1.0  0.81772  0.33311  0.36259  1.0000
  H   H1010     1.0  0.79648  0.30365  0.38874  1.0000
  H   H1011     1.0  0.76256  0.25433  0.38395  1.0000
  H   H1012     1.0  0.74981  0.23346  0.35312  1.0000
  H   H1013     1.0  0.80312  0.31369  0.33158  1.0000
  H   H1014     1.0  0.76148  0.20267  0.30795  1.0000
  H   H1015     1.0  0.79736  0.18805  0.30018  1.0000
  H   H1016     1.0  0.84703  0.22341  0.29869  1.0000
  H   H1017     1.0  0.86002  0.27371  0.30433  1.0000
  H   H1018     1.0  0.82419  0.28855  0.31249  1.0000
  H   H1019     1.0  0.74501  0.30143  0.31999  1.0000
  H   H1020     1.0  0.74384  0.33597  0.29844  1.0000
  H   H1021     1.0  0.76232  0.33818  0.26792  1.0000
  H   H1022     1.0  0.78276  0.30640  0.25921  1.0000
  H   H1023     1.0  0.78453  0.27241  0.28056  1.0000
  H   H1024     1.0  0.71324  0.23847  0.33917  1.0000
  H   H1025     1.0  0.66655  0.19897  0.33476  1.0000
  H   H1026     1.0  0.65370  0.17010  0.30637  1.0000
  H   H1027     1.0  0.68806  0.18180  0.28233  1.0000
  H   H1028     1.0  0.73533  0.22002  0.28691  1.0000
  C   C1304     1.0  0.57622  0.45690  0.29042  1.0000
  H   H1029     1.0  0.51646  0.00573  0.25889  1.0000
  C   C1305     1.0  0.85005  0.47571  0.43759  1.0000
  C   C1306     1.0  0.56214  0.99544  0.30476  1.0000
  C   C1307     1.0  0.49088  0.15569  0.32556  1.0000
  C   C1308     1.0  0.51205  0.12863  0.28138  1.0000
  C   C1309     1.0  0.72904  0.46245  0.40986  1.0000
  S   S184      1.0  0.91318  0.35994  0.25033  1.0000
  C   C1310     1.0  0.68787  0.15328  0.36246  1.0000
  H   H1030     1.0  0.54074  0.07097  0.31958  1.0000
  C   C1311     1.0  0.88780  0.45261  0.28654  1.0000
  H   H1031     1.0  0.93330  0.48377  0.36531  1.0000
  H   H1032     1.0  0.63070  0.43969  0.29201  1.0000
  C   C1312     1.0  0.72578  0.14662  0.31378  1.0000
  C   C1313     1.0  0.57722  0.45796  0.35591  1.0000
  C   C1314     1.0  0.53823  0.01372  0.41487  1.0000
  H   H1033     1.0  0.72873  0.11391  0.29812  1.0000
  H   H1034     1.0  0.78859  0.13304  0.41508  1.0000
  H   H1035     1.0  0.86886  0.23075  0.44567  1.0000
  C   C1315     1.0  0.57045  0.10555  0.30527  1.0000
  C   C1316     1.0  0.75117  0.48124  0.31568  1.0000
  H   H1036     1.0  0.71708  0.15340  0.30254  1.0000
  H   H1037     1.0  0.54583  0.03487  0.45893  1.0000
  C   C1317     1.0  0.53535  0.06252  0.29089  1.0000
  H   H1038     1.0  0.50320  0.05568  0.47198  1.0000
  C   C1318     1.0  0.55877  0.11606  0.35602  1.0000
  C   C1319     1.0  0.73240  0.12432  0.31125  1.0000
  H   H1039     1.0  0.83339  0.30764  0.46947  1.0000
  C   C1320     1.0  0.56943  0.09871  0.27302  1.0000
  C   C1321     1.0  0.52043  0.42070  0.30285  1.0000
  C   C1322     1.0  0.91251  0.42412  0.28426  1.0000
  C   C1323     1.0  0.50749  0.14777  0.33691  1.0000
  S   S185      1.0  0.61584  0.07136  0.24182  1.0000
  H   H1040     1.0  0.91329  0.40527  0.27930  1.0000
  H   H1041     1.0  0.56810  0.13588  0.34933  1.0000
  C   C1324     1.0  0.48974  0.37942  0.28486  1.0000
  C   C1325     1.0  0.77940  0.48629  0.40829  1.0000
  C   C1326     1.0  0.48256  0.18397  0.29296  1.0000
  P   P44       1.0  0.50715  0.02779  0.29293  1.0000
  H   H1042     1.0  0.51218  0.13320  0.36325  1.0000
  C   C1327     1.0  0.93074  0.28823  0.45519  1.0000
  C   C1328     1.0  0.56386  0.01932  0.37391  1.0000
  P   P45       1.0  0.54809  0.45610  0.30388  1.0000
  C   C1329     1.0  0.85856  0.26038  0.47880  1.0000
  H   H1043     1.0  0.71052  0.44693  0.41593  1.0000
  H   H1044     1.0  0.73408  0.44194  0.32918  1.0000
  H   H1045     1.0  0.59342  0.43944  0.31072  1.0000
  C   C1330     1.0  0.56104  0.46730  0.32691  1.0000
  H   H1046     1.0  0.48384  0.36813  0.27199  1.0000
  C   C1331     1.0  0.74779  0.12853  0.34266  1.0000
  C   C1332     1.0  0.74530  0.10441  0.40977  1.0000
  H   H1047     1.0  0.53408  0.14277  0.28273  1.0000
  Fe  Fe93      1.0  0.68586  0.13753  0.25146  1.0000
  C   C1333     1.0  0.77274  0.22134  0.25588  1.0000
  H   H1048     1.0  0.75764  0.45403  0.42701  1.0000
  H   H1049     1.0  0.51876  0.10219  0.26191  1.0000
  C   C1334     1.0  0.88883  0.42815  0.28052  1.0000
  C   C1335     1.0  0.50357  0.10521  0.26982  1.0000
  C   C1336     1.0  0.90510  0.26518  0.45830  1.0000
  H   H1050     1.0  0.48578  0.47828  0.44856  1.0000
  C   C1337     1.0  0.95941  0.45735  0.45720  1.0000
  H   H1051     1.0  0.53641  0.43533  0.38333  1.0000
  S   S186      1.0  0.86247  0.29694  0.24791  1.0000
  C   C1338     1.0  0.48659  0.01631  0.27203  1.0000
  H   H1052     1.0  0.90556  0.21511  0.46461  1.0000
  C   C1339     1.0  0.51650  0.42789  0.37595  1.0000
  H   H1053     1.0  0.87368  0.23904  0.26953  1.0000
  H   H1054     1.0  0.49163  0.44677  0.29053  1.0000
  H   H1055     1.0  0.88310  0.47056  0.40030  1.0000
  H   H1056     1.0  0.48951  0.48474  0.48677  1.0000
  C   C1340     1.0  0.76980  0.12875  0.40706  1.0000
  C   C1341     1.0  0.58117  0.11541  0.28851  1.0000
  H   H1057     1.0  0.49023  0.21228  0.31585  1.0000
  C   C1342     1.0  0.50605  0.46744  0.40953  1.0000
  H   H1058     1.0  0.52544  0.11775  0.45997  1.0000
  C   C1343     1.0  0.53330  0.48555  0.41577  1.0000
  C   C1344     1.0  0.51993  0.99346  0.35712  1.0000
  H   H1059     1.0  0.49044  0.31605  0.28485  1.0000
  H   H1060     1.0  0.86955  0.45553  0.28292  1.0000
  C   C1345     1.0  0.89883  0.25384  0.42615  1.0000
  C   C1346     1.0  0.85761  0.46201  0.36107  1.0000
  C   C1347     1.0  0.54784  0.07907  0.30647  1.0000
  H   H1061     1.0  0.83677  0.44557  0.45863  1.0000
  C   C1348     1.0  0.54082  0.03397  0.44462  1.0000
  H   H1062     1.0  0.94907  0.41473  0.46389  1.0000
  H   H1063     1.0  0.79010  0.47212  0.36246  1.0000
  C   C1349     1.0  0.85861  0.28603  0.47471  1.0000
  C   C1350     1.0  0.54371  0.01428  0.43343  1.0000
  C   C1351     1.0  0.48504  0.02890  0.31056  1.0000
  C   C1352     1.0  0.53782  0.19045  0.30137  1.0000
  C   C1353     1.0  0.55445  0.20400  0.31680  1.0000
  C   C1354     1.0  0.58260  0.22295  0.31525  1.0000
  C   C1355     1.0  0.59420  0.22893  0.29829  1.0000
  C   C1356     1.0  0.57751  0.21634  0.28283  1.0000
  C   C1357     1.0  0.54935  0.19749  0.28434  1.0000
  C   C1358     1.0  0.59500  0.44712  0.29725  1.0000
  C   C1359     1.0  0.54441  0.47906  0.43127  1.0000
  C   C1360     1.0  0.53450  0.06506  0.37380  1.0000
  C   C1361     1.0  0.57293  0.11132  0.37067  1.0000
  C   C1362     1.0  0.54666  0.07233  0.27415  1.0000
  H   H1064     1.0  0.53044  0.06849  0.44589  1.0000
  C   C1363     1.0  0.52865  0.45398  0.44005  1.0000
  C   C1364     1.0  0.49919  0.13882  0.35431  1.0000
  C   C1365     1.0  0.97696  0.48562  0.46121  1.0000
  C   C1366     1.0  0.53238  0.05307  0.43726  1.0000
  H   H1065     1.0  0.54573  0.20044  0.33001  1.0000
  H   H1066     1.0  0.59537  0.23324  0.32721  1.0000
  H   H1067     1.0  0.61600  0.24362  0.29708  1.0000
  H   H1068     1.0  0.58632  0.22128  0.26964  1.0000
  H   H1069     1.0  0.53656  0.18830  0.27218  1.0000
  H   H1070     1.0  0.74838  0.09786  0.32371  1.0000
  C   C1367     1.0  0.66357  0.15621  0.36547  1.0000
  H   H1071     1.0  0.78939  0.16599  0.39205  1.0000
  C   C1368     1.0  0.91045  0.47316  0.29662  1.0000
  H   H1072     1.0  0.50479  0.38445  0.38085  1.0000
  C   C1369     1.0  0.58186  0.48437  0.36251  1.0000
  H   H1073     1.0  0.92571  0.48196  0.24041  1.0000
  H   H1074     1.0  0.58422  0.00374  0.30857  1.0000
  C   C1370     1.0  0.80801  0.44487  0.35420  1.0000
  C   C1371     1.0  0.83239  0.44107  0.35367  1.0000
  C   C1372     1.0  0.52085  0.06961  0.35870  1.0000
  P   P46       1.0  0.83026  0.40843  0.34485  1.0000
  C   C1373     1.0  0.80293  0.38177  0.35727  1.0000
  C   C1374     1.0  0.82205  0.40392  0.32085  1.0000
  C   C1375     1.0  0.82375  0.38183  0.31134  1.0000
  C   C1376     1.0  0.82008  0.37944  0.29262  1.0000
  C   C1377     1.0  0.81420  0.39880  0.28316  1.0000
  C   C1378     1.0  0.81202  0.42061  0.29250  1.0000
  C   C1379     1.0  0.81596  0.42319  0.31127  1.0000
  C   C1380     1.0  0.78062  0.35909  0.34834  1.0000
  C   C1381     1.0  0.75919  0.33917  0.35817  1.0000
  C   C1382     1.0  0.75996  0.34163  0.37695  1.0000
  C   C1383     1.0  0.78179  0.36436  0.38591  1.0000
  C   C1384     1.0  0.80292  0.38458  0.37612  1.0000
  C   C1385     1.0  0.86330  0.40692  0.34866  1.0000
  C   C1386     1.0  0.87036  0.39927  0.36537  1.0000
  C   C1387     1.0  0.89580  0.39803  0.36810  1.0000
  C   C1388     1.0  0.74348  0.11534  0.32567  1.0000
  C   C1389     1.0  0.48133  0.43792  0.36050  1.0000
  C   C1390     1.0  0.88246  0.41357  0.33480  1.0000
  H   H1075     1.0  0.78819  0.42862  0.34900  1.0000
  C   C1391     1.0  0.91423  0.40386  0.35411  1.0000
  H   H1076     1.0  0.82884  0.36692  0.31833  1.0000
  H   H1077     1.0  0.82245  0.36283  0.28546  1.0000
  H   H1078     1.0  0.81196  0.39724  0.26858  1.0000
  H   H1079     1.0  0.80804  0.43596  0.28511  1.0000
  H   H1080     1.0  0.81481  0.44053  0.31814  1.0000
  H   H1081     1.0  0.77967  0.35658  0.33385  1.0000
  H   H1082     1.0  0.74224  0.32148  0.35130  1.0000
  H   H1083     1.0  0.74374  0.32587  0.38462  1.0000
  H   H1084     1.0  0.81929  0.40242  0.38336  1.0000
  H   H1085     1.0  0.85653  0.39419  0.37645  1.0000
  H   H1086     1.0  0.90098  0.39195  0.38103  1.0000
  H   H1087     1.0  0.57840  0.10600  0.26015  1.0000
  C   C1392     1.0  0.49862  0.39929  0.37470  1.0000
  H   H1088     1.0  0.87805  0.41995  0.32180  1.0000
  C   C1393     1.0  0.74096  0.15083  0.34536  1.0000
  C   C1394     1.0  0.94025  0.29408  0.43768  1.0000
  C   C1395     1.0  0.76998  0.14768  0.39414  1.0000
  H   H1089     1.0  0.89844  0.16884  0.47488  1.0000
  H   H1090     1.0  0.94304  0.30240  0.46607  1.0000
  H   H1091     1.0  0.50123  0.05327  0.35350  1.0000
  H   H1092     1.0  0.95955  0.31253  0.43533  1.0000
  C   C1396     1.0  0.48118  0.20634  0.30231  1.0000
  H   H1093     1.0  0.75606  0.12100  0.35369  1.0000
  C   C1397     1.0  0.73020  0.15998  0.33073  1.0000
  H   H1094     1.0  0.78244  0.36634  0.40049  1.0000
  C   C1398     1.0  0.50817  0.44711  0.36856  1.0000
  H   H1095     1.0  0.48870  0.06971  0.30356  1.0000
  H   H1096     1.0  0.70213  0.07979  0.40128  1.0000
  C   C1399     1.0  0.56077  0.08602  0.37963  1.0000
  C   C1400     1.0  0.87837  0.24328  0.24096  1.0000
  S   S187      1.0  0.48319  0.40360  0.44427  1.0000
  C   C1401     1.0  0.80896  0.46941  0.36181  1.0000
  C   C1402     1.0  0.52179  0.00372  0.29758  1.0000
  P   P47       1.0  0.52037  0.03112  0.38379  1.0000
  C   C1403     1.0  0.85851  0.48665  0.36852  1.0000
  H   H1097     1.0  0.57206  0.08287  0.39102  1.0000
  C   C1404     1.0  0.72643  0.47868  0.39594  1.0000
  H   H1098     1.0  0.53823  0.05979  0.26193  1.0000
  H   H1099     1.0  0.58043  0.11789  0.31737  1.0000
  H   H1100     1.0  0.64379  0.14123  0.35932  1.0000
  C   C1405     1.0  0.60337  0.02160  0.48609  1.0000
  H   H1101     1.0  0.80742  0.26171  0.25319  1.0000
  H   H1102     1.0  0.87167  0.41263  0.27237  1.0000
  H   H1103     1.0  0.49624  0.12094  0.40598  1.0000
  C   C1406     1.0  0.87278  0.46495  0.41295  1.0000
  C   C1407     1.0  0.61883  0.45675  0.26907  1.0000
  C   C1408     1.0  0.88910  0.24813  0.44362  1.0000
  C   C1409     1.0  0.90755  0.41160  0.33746  1.0000
  C   C1410     1.0  0.53032  0.03332  0.40734  1.0000
  H   H1104     1.0  0.52032  0.06760  0.41328  1.0000
  H   H1105     1.0  0.48853  0.32164  0.31795  1.0000
  C   C1411     1.0  0.61619  0.44706  0.28662  1.0000
  C   C1412     1.0  0.92435  0.27690  0.42316  1.0000
  H   H1106     1.0  0.53742  0.44885  0.45194  1.0000
  C   C1413     1.0  0.49200  0.13387  0.29038  1.0000
  H   H1107     1.0  0.52170  0.09860  0.33858  1.0000
  C   C1414     1.0  0.49056  0.44207  0.41800  1.0000
  H   H1108     1.0  0.56221  0.42842  0.33367  1.0000
  C   C1415     1.0  0.75552  0.46637  0.41610  1.0000
  H   H1109     1.0  0.74500  0.08987  0.41990  1.0000
  C   C1416     1.0  0.96232  0.43670  0.46717  1.0000
  H   H1110     1.0  0.56301  0.03578  0.30597  1.0000
  H   H1111     1.0  0.56400  0.47254  0.26655  1.0000
  H   H1112     1.0  0.63558  0.45737  0.26089  1.0000
  C   C1417     1.0  0.83339  0.28795  0.47282  1.0000
  H   H1113     1.0  0.49706  0.47281  0.39791  1.0000
  H   H1114     1.0  0.87642  0.45917  0.36147  1.0000
  H   H1115     1.0  0.94376  0.45139  0.44624  1.0000
  H   H1116     1.0  0.73277  0.46292  0.35869  1.0000
  H   H1117     1.0  0.92162  0.41554  0.32652  1.0000
  H   H1118     1.0  0.58133  0.44396  0.36462  1.0000
  C   C1418     1.0  0.53545  0.01264  0.37102  1.0000
  C   C1419     1.0  0.86440  0.23048  0.25635  1.0000
  C   C1420     1.0  0.48076  0.38299  0.31626  1.0000
  C   C1421     1.0  0.59999  0.46598  0.26203  1.0000
  C   C1422     1.0  0.48062  0.04559  0.47071  1.0000
  C   C1423     1.0  0.80798  0.26429  0.47477  1.0000
  C   C1424     1.0  0.49648  0.00635  0.25763  1.0000
  H   H1119     1.0  0.95257  0.48514  0.30724  1.0000
  H   H1120     1.0  0.55105  0.00002  0.43916  1.0000
  H   H1121     1.0  0.49846  0.98907  0.35398  1.0000
  H   H1122     1.0  0.78846  0.26568  0.47273  1.0000
  H   H1123     1.0  0.91905  0.47276  0.33338  1.0000
  P   P48       1.0  0.50130  0.16620  0.30291  1.0000
  H   H1124     1.0  0.87817  0.30450  0.47286  1.0000
  C   C1425     1.0  0.48091  0.99765  0.24134  1.0000
  C   C1426     1.0  0.57623  0.00615  0.36357  1.0000
  H   H1125     1.0  0.56640  0.11033  0.48639  1.0000
  H   H1126     1.0  0.75112  0.47184  0.30265  1.0000
  H   H1127     1.0  0.95402  0.44179  0.29641  1.0000
  C   C1427     1.0  0.74153  0.46439  0.33063  1.0000
  C   C1428     1.0  0.53472  0.47874  0.29381  1.0000
  C   C1429     1.0  0.49689  0.48491  0.27865  1.0000
  H   H1128     1.0  0.60217  0.47365  0.24844  1.0000
  H   H1129     1.0  0.54038  0.99811  0.40651  1.0000
  H   H1130     1.0  0.89836  0.26178  0.24219  1.0000
  H   H1131     1.0  0.59828  0.01169  0.36580  1.0000
  H   H1132     1.0  0.70570  0.47506  0.39122  1.0000
  C   C1430     1.0  0.89527  0.20764  0.47712  1.0000
  H   H1133     1.0  0.78790  0.22007  0.47940  1.0000
  H   H1134     1.0  0.56091  0.98940  0.48313  1.0000
  C   C1431     1.0  0.83287  0.23653  0.48039  1.0000
  C   C1432     1.0  0.86282  0.48250  0.42102  1.0000
  H   H1135     1.0  0.83198  0.21619  0.48270  1.0000
  C   C1433     1.0  0.89147  0.18140  0.48297  1.0000
  H   H1136     1.0  0.90624  0.48804  0.47100  1.0000
  H   H1137     1.0  0.50875  0.99775  0.48774  1.0000
  H   H1138     1.0  0.58028  0.07169  0.48739  1.0000
  C   C1434     1.0  0.88612  0.22395  0.48749  1.0000
  C   C1435     1.0  0.95275  0.38834  0.51846  1.0000
  C   C1436     1.0  0.54612  0.01048  0.54640  1.0000
  C   C1437     1.0  0.91471  0.48648  0.50779  1.0000
  C   C1438     1.0  0.75044  0.03330  0.71826  1.0000
  H   H1139     1.0  0.88091  0.40645  0.51619  1.0000
  C   C1439     1.0  0.62772  0.01954  0.51406  1.0000
  H   H1140     1.0  0.52645  0.47546  0.50128  1.0000
  C   C1440     1.0  0.89037  0.42876  0.51392  1.0000
  H   H1141     1.0  0.64660  0.02804  0.52256  1.0000
  C   C1441     1.0  0.94181  0.28357  0.50040  1.0000
  C   C1442     1.0  0.52235  0.04308  0.51275  1.0000
  C   C1443     1.0  0.65551  0.99529  0.68379  1.0000
  H   H1142     1.0  0.96947  0.44986  0.51586  1.0000
  C   C1444     1.0  0.87890  0.44540  0.52128  1.0000
  C   C1445     1.0  0.57961  0.99804  0.49177  1.0000
  H   H1143     1.0  0.53225  0.04510  0.58867  1.0000
  C   C1446     1.0  0.91515  0.28228  0.49754  1.0000
  H   H1144     1.0  0.87594  0.15111  0.50382  1.0000
  C   C1447     1.0  0.52350  0.01719  0.54607  1.0000
  H   H1145     1.0  0.57142  0.03201  0.58926  1.0000
  C   C1448     1.0  0.53111  0.08966  0.50323  1.0000
  H   H1146     1.0  0.86054  0.43597  0.52930  1.0000
  H   H1147     1.0  0.94223  0.39531  0.52809  1.0000
  C   C1449     1.0  0.51537  0.06556  0.51280  1.0000
  C   C1450     1.0  0.92629  0.46964  0.50063  1.0000
  C   C1451     1.0  0.55821  0.02816  0.57719  1.0000
  H   H1148     1.0  0.59812  0.99532  0.73433  1.0000
  H   H1149     1.0  0.58089  0.01086  0.56196  1.0000
  H   H1150     1.0  0.55332  0.02972  0.50467  1.0000
  C   C1452     1.0  0.53610  0.03546  0.57685  1.0000
  H   H1151     1.0  0.48710  0.41985  0.51572  1.0000
  H   H1152     1.0  0.96574  0.33058  0.53575  1.0000
  C   C1453     1.0  0.60396  0.99605  0.51977  1.0000
  H   H1153     1.0  0.91939  0.37666  0.49790  1.0000
  C   C1454     1.0  0.97885  0.36926  0.49366  1.0000
  C   C1455     1.0  0.95153  0.31679  0.52526  1.0000
  H   H1154     1.0  0.86071  0.18022  0.52260  1.0000
  C   C1456     1.0  0.96000  0.30093  0.51411  1.0000
  C   C1457     1.0  0.72129  0.01821  0.71804  1.0000
  C   C1458     1.0  0.62743  0.03227  0.49746  1.0000
  C   C1459     1.0  0.90673  0.29814  0.50892  1.0000
  C   C1460     1.0  0.92493  0.31537  0.52267  1.0000
  C   C1461     1.0  0.56192  0.06988  0.49429  1.0000
  H   H1155     1.0  0.65902  0.01222  0.69326  1.0000
  H   H1156     1.0  0.94475  0.47879  0.49273  1.0000
  H   H1157     1.0  0.78933  0.03193  0.71319  1.0000
  H   H1158     1.0  0.70896  0.02881  0.72190  1.0000
  C   C1462     1.0  0.54636  0.04590  0.50394  1.0000
  H   H1159     1.0  0.49807  0.06474  0.52041  1.0000
  C   C1463     1.0  0.87404  0.21405  0.50405  1.0000
  H   H1160     1.0  0.86750  0.22667  0.51245  1.0000
  H   H1161     1.0  0.64594  0.05029  0.49344  1.0000
  C   C1464     1.0  0.93965  0.37769  0.50129  1.0000
  H   H1162     1.0  0.76039  0.05522  0.72246  1.0000
  C   C1465     1.0  0.91403  0.44087  0.50357  1.0000
  C   C1466     1.0  0.51908  0.03046  0.56124  1.0000
  H   H1163     1.0  0.95038  0.44282  0.54611  1.0000
  C   C1467     1.0  0.97236  0.45634  0.54445  1.0000
  H   H1164     1.0  0.52556  0.10688  0.50320  1.0000
  C   C1468     1.0  0.56342  0.01602  0.56188  1.0000
  C   C1469     1.0  0.87887  0.17144  0.49930  1.0000
  H   H1165     1.0  0.88618  0.29727  0.50736  1.0000
  H   H1166     1.0  0.91863  0.32802  0.53120  1.0000
  C   C1470     1.0  0.75388  0.99201  0.70740  1.0000
  C   C1471     1.0  0.55419  0.09168  0.49381  1.0000
  H   H1167     1.0  0.92284  0.42793  0.49779  1.0000
  P   P49       1.0  0.50286  0.01214  0.52550  1.0000
  H   H1168     1.0  0.64209  0.01375  0.66224  1.0000
  H   H1169     1.0  0.94856  0.27120  0.49197  1.0000
  C   C1472     1.0  0.87025  0.18781  0.50986  1.0000
  C   C1473     1.0  0.97911  0.38975  0.52341  1.0000
  C   C1474     1.0  0.89099  0.47417  0.51824  1.0000
  H   H1170     1.0  0.50251  0.03690  0.56105  1.0000
  H   H1171     1.0  0.55064  0.00117  0.53468  1.0000
  C   C1475     1.0  0.76674  0.02019  0.71301  1.0000
  H   H1172     1.0  0.88175  0.48667  0.52403  1.0000
  C   C1476     1.0  0.64621  0.99641  0.66615  1.0000
  C   C1477     1.0  0.70828  0.98975  0.71278  1.0000
  C   C1478     1.0  0.95253  0.36785  0.48872  1.0000
  C   C1479     1.0  0.61795  0.99502  0.73748  1.0000
  C   C1480     1.0  0.66789  0.99204  0.74589  1.0000
  C   C1481     1.0  0.90539  0.22900  0.86586  1.0000
  Fe  Fe94      1.0  0.76149  0.04797  0.91261  1.0000
  S   S188      1.0  0.71638  0.03858  0.91659  1.0000
  S   S189      1.0  0.79496  0.09277  0.91918  1.0000
  H   H1173     1.0  0.91464  0.47966  0.85853  1.0000
  Fe  Fe95      1.0  0.71578  0.00587  0.93566  1.0000
  H   H1174     1.0  0.72865  0.07133  0.97254  1.0000
  C   C1482     1.0  0.77901  0.11149  0.87518  1.0000
  S   S190      1.0  0.76082  0.01621  0.93245  1.0000
  S   S191      1.0  0.74989  0.01836  0.88835  1.0000
  Fe  Fe96      1.0  0.94714  0.21228  0.90165  1.0000
  S   S192      1.0  0.93942  0.24948  0.90831  1.0000
  S   S193      1.0  0.91472  0.17111  0.88858  1.0000
  Fe  Fe97      1.0  0.96129  0.25069  0.93516  1.0000
  H   H1175     1.0  0.89033  0.42809  0.86143  1.0000
  H   H1176     1.0  0.88315  0.20273  0.88730  1.0000
  C   C1483     1.0  0.63035  0.00272  0.75477  1.0000
  H   H1177     1.0  0.83067  0.17993  0.95323  1.0000
  C   C1484     1.0  0.82155  0.15466  0.87296  1.0000
  C   C1485     1.0  0.90941  0.16617  0.96936  1.0000
  H   H1178     1.0  0.77426  0.16432  0.89838  1.0000
  C   C1486     1.0  0.76777  0.12538  0.88585  1.0000
  C   C1487     1.0  0.80716  0.22202  0.88680  1.0000
  S   S194      1.0  0.69471  0.00051  0.96286  1.0000
  H   H1179     1.0  0.87984  0.25032  0.90758  1.0000
  C   C1488     1.0  0.78328  0.15397  0.88998  1.0000
  H   H1180     1.0  0.62016  0.00895  0.76510  1.0000
  C   C1489     1.0  0.87982  0.23871  0.93505  1.0000
  H   H1181     1.0  0.92315  0.22440  0.86766  1.0000
  C   C1490     1.0  0.82918  0.11264  0.91123  1.0000
  C   C1491     1.0  0.83903  0.10443  0.89613  1.0000
  C   C1492     1.0  0.86541  0.12238  0.88951  1.0000
  C   C1493     1.0  0.88240  0.14847  0.89805  1.0000
  C   C1494     1.0  0.87294  0.15616  0.91354  1.0000
  C   C1495     1.0  0.84656  0.13826  0.92007  1.0000
  H   H1182     1.0  0.82600  0.08469  0.88923  1.0000
  H   H1183     1.0  0.87257  0.11614  0.87756  1.0000
  H   H1184     1.0  0.88578  0.17602  0.92039  1.0000
  H   H1185     1.0  0.83952  0.14425  0.93211  1.0000
  H   H1186     1.0  0.81490  0.12535  0.96400  1.0000
  H   H1187     1.0  0.81116  0.17254  0.92220  1.0000
  H   H1188     1.0  0.84163  0.24487  0.85917  1.0000
  C   C1496     1.0  0.85927  0.22191  0.87466  1.0000
  H   H1189     1.0  0.95812  0.40328  0.87615  1.0000
  C   C1497     1.0  0.49081  0.44809  0.80384  1.0000
  H   H1190     1.0  0.92632  0.41633  0.81216  1.0000
  H   H1191     1.0  0.92313  0.25696  0.84414  1.0000
  C   C1498     1.0  0.84118  0.19542  0.94328  1.0000
  H   H1192     1.0  0.94082  0.38170  0.76345  1.0000
  C   C1499     1.0  0.79879  0.11374  0.97326  1.0000
  H   H1193     1.0  0.76728  0.08916  0.87242  1.0000
  C   C1500     1.0  0.70962  0.00573  0.98524  1.0000
  C   C1501     1.0  0.97455  0.39222  0.80443  1.0000
  C   C1502     1.0  0.95176  0.47962  0.84799  1.0000
  C   C1503     1.0  0.93141  0.39967  0.78693  1.0000
  H   H1194     1.0  0.87535  0.22180  0.96150  1.0000
  H   H1195     1.0  0.87311  0.10702  0.94361  1.0000
  C   C1504     1.0  0.95173  0.43413  0.84504  1.0000
  C   C1505     1.0  0.96504  0.46328  0.84303  1.0000
  P   P50       1.0  0.96810  0.41268  0.83772  1.0000
  C   C1506     1.0  0.95617  0.38145  0.85096  1.0000
  C   C1507     1.0  0.95964  0.40358  0.81407  1.0000
  H   H1196     1.0  0.88216  0.26702  0.83996  1.0000
  C   C1508     1.0  0.94596  0.38775  0.77756  1.0000
  H   H1197     1.0  0.75344  0.21907  0.85940  1.0000
  H   H1198     1.0  0.74727  0.11375  0.89128  1.0000
  H   H1199     1.0  0.81996  0.04135  0.96623  1.0000
  C   C1509     1.0  0.95346  0.38333  0.86963  1.0000
  C   C1510     1.0  0.94563  0.35962  0.88013  1.0000
  C   C1511     1.0  0.94032  0.33384  0.87209  1.0000
  C   C1512     1.0  0.94259  0.33170  0.85354  1.0000
  C   C1513     1.0  0.95046  0.35534  0.84299  1.0000
  C   C1514     1.0  0.82142  0.01484  0.94463  1.0000
  S   S195      1.0  0.66703  0.99522  0.87368  1.0000
  C   C1515     1.0  0.86879  0.23477  0.91737  1.0000
  C   C1516     1.0  0.81386  0.02002  0.96161  1.0000
  C   C1517     1.0  0.88261  0.21659  0.87694  1.0000
  C   C1518     1.0  0.85922  0.24022  0.86123  1.0000
  H   H1200     1.0  0.97842  0.37420  0.77923  1.0000
  Fe  Fe98      1.0  0.70458  0.00590  0.89390  1.0000
  C   C1519     1.0  0.90277  0.14699  0.95491  1.0000
  C   C1520     1.0  0.83012  0.19132  0.92557  1.0000
  H   H1201     1.0  0.85233  0.18432  0.98602  1.0000
  P   P51       1.0  0.83029  0.20576  0.88939  1.0000
  C   C1521     1.0  0.86619  0.21894  0.94796  1.0000
  C   C1522     1.0  0.87831  0.12178  0.95490  1.0000
  H   H1202     1.0  0.78548  0.19729  0.86291  1.0000
  C   C1523     1.0  0.91129  0.43793  0.85642  1.0000
  C   C1524     1.0  0.78712  0.21352  0.87247  1.0000
  H   H1203     1.0  0.93536  0.31568  0.88030  1.0000
  C   C1525     1.0  0.89129  0.16044  0.98361  1.0000
  H   H1204     1.0  0.95281  0.35305  0.82876  1.0000
  H   H1205     1.0  0.51242  0.45510  0.80837  1.0000
  C   C1526     1.0  0.92449  0.42152  0.85143  1.0000
  H   H1206     1.0  0.75667  0.25632  0.88103  1.0000
  H   H1207     1.0  0.91648  0.15174  0.94365  1.0000
  C   C1527     1.0  0.77082  0.24685  0.88259  1.0000
  H   H1208     1.0  0.92840  0.18574  0.96937  1.0000
  H   H1209     1.0  0.89933  0.25685  0.93870  1.0000
  C   C1528     1.0  0.80900  0.24324  0.89891  1.0000
  H   H1210     1.0  0.83333  0.03213  0.93608  1.0000
  H   H1211     1.0  0.79222  0.27179  0.90627  1.0000
  H   H1212     1.0  0.84250  0.16515  0.86814  1.0000
  H   H1213     1.0  0.84107  0.09655  0.96871  1.0000
  C   C1529     1.0  0.76899  0.22587  0.87041  1.0000
  H   H1214     1.0  0.81474  0.11522  0.86071  1.0000
  C   C1530     1.0  0.88223  0.25289  0.85028  1.0000
  S   S196      1.0  0.96690  0.21246  0.92865  1.0000
  C   C1531     1.0  0.80577  0.12618  0.86861  1.0000
  C   C1532     1.0  0.90530  0.24726  0.85260  1.0000
  H   H1215     1.0  0.94436  0.36129  0.89459  1.0000
  S   S197      1.0  0.94016  0.24780  0.96204  1.0000
  H   H1216     1.0  0.82432  0.25025  0.91003  1.0000
  C   C1533     1.0  0.81037  0.16887  0.88363  1.0000
  C   C1534     1.0  0.84407  0.21078  0.91239  1.0000
  H   H1217     1.0  0.75195  0.01809  0.97772  1.0000
  C   C1535     1.0  0.79084  0.25556  0.89681  1.0000
  H   H1218     1.0  0.91332  0.39898  0.85242  1.0000
  C   C1536     1.0  0.77128  0.09876  0.96642  1.0000
  H   H1219     1.0  0.76667  0.09838  0.95207  1.0000
  H   H1220     1.0  0.49803  0.44017  0.77644  1.0000
  C   C1537     1.0  0.74982  0.08368  0.97795  1.0000
  C   C1538     1.0  0.86588  0.13585  0.98321  1.0000
  C   C1539     1.0  0.93803  0.40737  0.80517  1.0000
  C   C1540     1.0  0.92495  0.46697  0.85477  1.0000
  H   H1221     1.0  0.93948  0.31194  0.84743  1.0000
  H   H1222     1.0  0.68669  0.99008  0.74960  1.0000
  H   H1223     1.0  0.91498  0.40293  0.78003  1.0000
  C   C1541     1.0  0.48270  0.43967  0.78585  1.0000
  H   H1224     1.0  0.79135  0.00227  0.98520  1.0000
  C   C1542     1.0  0.79755  0.99768  0.97232  1.0000
  C   C1543     1.0  0.95385  0.25523  0.98471  1.0000
  C   C1544     1.0  0.96730  0.38376  0.78638  1.0000
  C   C1545     1.0  0.65535  0.00130  0.75895  1.0000
  H   H1225     1.0  0.66432  0.00629  0.77257  1.0000
  C   C1546     1.0  0.86007  0.11606  0.96909  1.0000
  Fe  Fe99      1.0  0.93237  0.78124  0.09610  1.0000
  S   S198      1.0  0.92090  0.73642  0.08980  1.0000
  S   S199      1.0  0.90298  0.80126  0.09580  1.0000
  Fe  Fe100     1.0  0.95047  0.73909  0.11294  1.0000
  S   S200      1.0  0.92765  0.70172  0.13168  1.0000
  S   S201      1.0  0.95987  0.78374  0.12001  1.0000
  Fe  Fe101     1.0  0.89808  0.61373  0.22640  1.0000
  S   S202      1.0  0.85546  0.58002  0.21786  1.0000
  S   S203      1.0  0.93043  0.64591  0.20798  1.0000
  H   H1226     1.0  0.80520  0.65286  0.20862  1.0000
  C   C1547     1.0  0.78781  0.65686  0.21213  1.0000
  C   C1548     1.0  0.76124  0.63948  0.20458  1.0000
  H   H1227     1.0  0.82028  0.96800  0.00272  1.0000
  Fe  Fe102     1.0  0.74333  0.73609  0.09314  1.0000
  S   S204      1.0  0.69899  0.70500  0.08653  1.0000
  S   S205      1.0  0.77422  0.71829  0.08988  1.0000
  Fe  Fe103     1.0  0.72660  0.78228  0.10342  1.0000
  S   S206      1.0  0.68099  0.75350  0.09786  1.0000
  S   S207      1.0  0.74755  0.82881  0.11187  1.0000
  Fe  Fe104     1.0  0.68930  0.72050  0.11268  1.0000
  S   S208      1.0  0.66095  0.68717  0.13249  1.0000
  Fe  Fe105     1.0  0.69567  0.74065  0.07249  1.0000
  S   S209      1.0  0.67809  0.74277  0.04424  1.0000
  S   S210      1.0  0.73409  0.75036  0.11960  1.0000
  S   S211      1.0  0.74070  0.77066  0.07772  1.0000
  C   C1549     1.0  0.65472  0.83942  0.06433  1.0000
  C   C1550     1.0  0.90779  0.82418  0.14605  1.0000
  C   C1551     1.0  0.84232  0.87765  0.16082  1.0000
  C   C1552     1.0  0.85701  0.74609  0.14727  1.0000
  C   C1553     1.0  0.83415  0.89770  0.16701  1.0000
  H   H1228     1.0  0.74774  0.90447  0.03006  1.0000
  Fe  Fe106     1.0  0.64014  0.60046  0.22940  1.0000
  S   S212      1.0  0.66510  0.63881  0.21163  1.0000
  S   S213      1.0  0.62847  0.55599  0.22008  1.0000
  H   H1229     1.0  0.67063  0.87928  0.01045  1.0000
  H   H1230     1.0  0.72858  0.64156  0.01289  1.0000
  S   S214      1.0  0.70303  0.92149  0.10163  1.0000
  C   C1554     1.0  0.51764  0.52772  0.18635  1.0000
  C   C1555     1.0  0.80038  0.63925  0.10905  1.0000
  H   H1231     1.0  0.74430  0.96925  0.03883  1.0000
  H   H1232     1.0  0.70798  0.90251  0.06410  1.0000
  C   C1556     1.0  0.73497  0.85433  0.10844  1.0000
  C   C1557     1.0  0.75377  0.88296  0.11055  1.0000
  C   C1558     1.0  0.74463  0.90390  0.10821  1.0000
  C   C1559     1.0  0.71638  0.89638  0.10417  1.0000
  C   C1560     1.0  0.69764  0.86778  0.10224  1.0000
  C   C1561     1.0  0.70686  0.84687  0.10407  1.0000
  H   H1233     1.0  0.77556  0.88900  0.11397  1.0000
  H   H1234     1.0  0.75932  0.92579  0.10983  1.0000
  H   H1235     1.0  0.67572  0.86177  0.09955  1.0000
  H   H1236     1.0  0.69207  0.82500  0.10250  1.0000
  C   C1562     1.0  0.68379  0.75197  0.00767  1.0000
  C   C1563     1.0  0.69020  0.73949  0.02258  1.0000
  C   C1564     1.0  0.70419  0.72312  0.01966  1.0000
  H   H1237     1.0  0.67278  0.76452  0.00970  1.0000
  H   H1238     1.0  0.70910  0.71344  0.03100  1.0000
  C   C1565     1.0  0.66303  0.67396  0.15447  1.0000
  C   C1566     1.0  0.64021  0.64956  0.16017  1.0000
  C   C1567     1.0  0.64056  0.63830  0.17733  1.0000
  C   C1568     1.0  0.66374  0.65138  0.18933  1.0000
  C   C1569     1.0  0.68671  0.67568  0.18359  1.0000
  C   C1570     1.0  0.68646  0.68680  0.16635  1.0000
  H   H1239     1.0  0.62194  0.63929  0.15124  1.0000
  H   H1240     1.0  0.62267  0.61969  0.18136  1.0000
  H   H1241     1.0  0.70482  0.68613  0.19262  1.0000
  H   H1242     1.0  0.70422  0.70551  0.16232  1.0000
  C   C1571     1.0  0.86677  0.72702  0.20946  1.0000
  C   C1572     1.0  0.80336  0.96733  0.01072  1.0000
  C   C1573     1.0  0.75437  0.95558  0.01382  1.0000
  C   C1574     1.0  0.69415  0.93053  0.05180  1.0000
  C   C1575     1.0  0.74887  0.64966  0.15337  1.0000
  C   C1576     1.0  0.84093  0.64502  0.09249  1.0000
  C   C1577     1.0  0.82465  0.67105  0.03054  1.0000
  C   C1578     1.0  0.85052  0.67341  0.03696  1.0000
  C   C1579     1.0  0.86725  0.77790  0.09376  1.0000
  C   C1580     1.0  0.84792  0.78803  0.08900  1.0000
  C   C1581     1.0  0.81923  0.76974  0.08746  1.0000
  C   C1582     1.0  0.80990  0.74136  0.09075  1.0000
  C   C1583     1.0  0.82926  0.73108  0.09499  1.0000
  C   C1584     1.0  0.85789  0.74938  0.09669  1.0000
  H   H1243     1.0  0.85517  0.81002  0.08651  1.0000
  H   H1244     1.0  0.80426  0.77748  0.08383  1.0000
  H   H1245     1.0  0.82210  0.70899  0.09727  1.0000
  H   H1246     1.0  0.87261  0.74143  0.10047  1.0000
  H   H1247     1.0  0.78232  0.73018  0.05291  1.0000
  C   C1585     1.0  0.82691  0.62577  0.18484  1.0000
  H   H1248     1.0  0.80201  0.69070  0.17695  1.0000
  C   C1586     1.0  0.92895  0.68682  0.15307  1.0000
  C   C1587     1.0  0.95243  0.69819  0.16495  1.0000
  C   C1588     1.0  0.95249  0.68531  0.18152  1.0000
  C   C1589     1.0  0.92903  0.66107  0.18670  1.0000
  C   C1590     1.0  0.90544  0.64984  0.17490  1.0000
  C   C1591     1.0  0.90550  0.66252  0.15824  1.0000
  C   C1592     1.0  0.67392  0.91793  0.02152  1.0000
  C   C1593     1.0  0.76132  0.66809  0.12362  1.0000
  H   H1249     1.0  0.88733  0.63107  0.17844  1.0000
  C   C1594     1.0  0.64784  0.78434  0.06375  1.0000
  C   C1595     1.0  0.63238  0.79224  0.07536  1.0000
  H   H1250     1.0  0.77891  0.82870  0.14415  1.0000
  H   H1251     1.0  0.64524  0.76300  0.06358  1.0000
  H   H1252     1.0  0.61796  0.77707  0.08425  1.0000
  C   C1596     1.0  0.89605  0.70728  0.19752  1.0000
  C   C1597     1.0  0.95187  0.85232  0.06135  1.0000
  H   H1253     1.0  0.78011  0.71887  0.99516  1.0000
  H   H1254     1.0  0.93576  0.83152  0.16910  1.0000
  H   H1255     1.0  0.85758  0.65810  0.03289  1.0000
  C   C1598     1.0  0.73477  0.66684  0.12088  1.0000
  Fe  Fe107     1.0  0.59012  0.54314  0.23679  1.0000
  H   H1256     1.0  0.97093  0.69424  0.19042  1.0000
  C   C1599     1.0  0.63571  0.81973  0.07558  1.0000
  H   H1257     1.0  0.69463  0.65585  0.13206  1.0000
  H   H1258     1.0  0.75846  0.62234  0.19549  1.0000
  H   H1259     1.0  0.84481  0.66530  0.17180  1.0000
  C   C1600     1.0  0.85821  0.71499  0.05428  1.0000
  C   C1601     1.0  0.77572  0.95487  0.00356  1.0000
  H   H1260     1.0  0.64559  0.82229  0.01593  1.0000
  C   C1602     1.0  0.79442  0.84754  0.15098  1.0000
  H   H1261     1.0  0.76485  0.86417  0.15479  1.0000
  H   H1262     1.0  0.62390  0.82596  0.08470  1.0000
  H   H1263     1.0  0.71738  0.62972  0.20371  1.0000
  H   H1264     1.0  0.92970  0.83577  0.03601  1.0000
  C   C1603     1.0  0.83517  0.85347  0.08376  1.0000
  C   C1604     1.0  0.81081  0.83227  0.09027  1.0000
  C   C1605     1.0  0.81037  0.82358  0.10798  1.0000
  C   C1606     1.0  0.80825  0.79174  0.14621  1.0000
  C   C1607     1.0  0.78980  0.78446  0.16047  1.0000
  C   C1608     1.0  0.77151  0.75633  0.16318  1.0000
  C   C1609     1.0  0.77187  0.73533  0.15191  1.0000
  C   C1610     1.0  0.79060  0.74246  0.13798  1.0000
  C   C1611     1.0  0.80881  0.77049  0.13521  1.0000
  H   H1265     1.0  0.83536  0.86011  0.07003  1.0000
  H   H1266     1.0  0.79207  0.82267  0.08169  1.0000
  H   H1267     1.0  0.79105  0.80756  0.11289  1.0000
  H   H1268     1.0  0.78932  0.80037  0.16941  1.0000
  H   H1269     1.0  0.75665  0.75079  0.17380  1.0000
  H   H1270     1.0  0.75732  0.71360  0.15373  1.0000
  H   H1271     1.0  0.79085  0.72632  0.12913  1.0000
  H   H1272     1.0  0.82343  0.77558  0.12452  1.0000
  C   C1612     1.0  0.83446  0.83596  0.11930  1.0000
  H   H1273     1.0  0.92060  0.81920  0.13695  1.0000
  C   C1613     1.0  0.69843  0.90656  0.05211  1.0000
  H   H1274     1.0  0.80719  0.78172  0.22140  1.0000
  C   C1614     1.0  0.51651  0.53634  0.16881  1.0000
  C   C1615     1.0  0.71062  0.71831  0.00202  1.0000
  H   H1275     1.0  0.76401  0.60423  0.15073  1.0000
  H   H1276     1.0  0.76401  0.57110  0.17367  1.0000
  H   H1277     1.0  0.79572  0.91497  0.00455  1.0000
  H   H1278     1.0  0.88743  0.69733  0.05376  1.0000
  C   C1616     1.0  0.82683  0.64499  0.17219  1.0000
  H   H1279     1.0  0.77789  0.63050  0.10966  1.0000
  C   C1617     1.0  0.71375  0.84161  0.00657  1.0000
  C   C1618     1.0  0.88800  0.72884  0.19818  1.0000
  C   C1619     1.0  0.87648  0.77264  0.00621  1.0000
  H   H1280     1.0  0.85063  0.66290  0.22669  1.0000
  C   C1620     1.0  0.76788  0.68160  0.22969  1.0000
  C   C1621     1.0  0.74143  0.66442  0.22193  1.0000
  S   S215      1.0  0.84636  0.50573  0.23364  1.0000
  C   C1622     1.0  0.81758  0.70594  0.16866  1.0000
  H   H1281     1.0  0.82559  0.74034  0.18708  1.0000
  C   C1623     1.0  0.89770  0.77058  0.01680  1.0000
  C   C1624     1.0  0.89967  0.77565  0.03539  1.0000
  C   C1625     1.0  0.88049  0.78288  0.04357  1.0000
  C   C1626     1.0  0.85905  0.78457  0.03322  1.0000
  C   C1627     1.0  0.85700  0.77948  0.01457  1.0000
  P   P52       1.0  0.82571  0.70066  0.23463  1.0000
  H   H1282     1.0  0.77582  0.76234  0.99149  1.0000
  C   C1628     1.0  0.95593  0.74142  0.98921  1.0000
  Fe  Fe108     1.0  0.72447  0.96949  0.10117  1.0000
  C   C1629     1.0  0.68207  0.93633  0.03649  1.0000
  C   C1630     1.0  0.86088  0.68148  0.21882  1.0000
  C   C1631     1.0  0.79420  0.87980  0.98963  1.0000
  H   H1283     1.0  0.80276  0.73427  0.21563  1.0000
  C   C1632     1.0  0.86734  0.69544  0.04877  1.0000
  H   H1284     1.0  0.92205  0.72049  0.00707  1.0000
  H   H1285     1.0  0.86699  0.67293  0.99494  1.0000
  H   H1286     1.0  0.89848  0.74706  0.19005  1.0000
  C   C1633     1.0  0.71517  0.65670  0.13424  1.0000
  H   H1287     1.0  0.97176  0.84297  0.01989  1.0000
  H   H1288     1.0  0.86135  0.77571  0.16847  1.0000
  H   H1289     1.0  0.86314  0.71616  0.00242  1.0000
  H   H1290     1.0  0.91292  0.76522  0.01067  1.0000
  H   H1291     1.0  0.91606  0.77387  0.04347  1.0000
  H   H1292     1.0  0.88217  0.78691  0.05797  1.0000
  H   H1293     1.0  0.84394  0.78972  0.03970  1.0000
  H   H1294     1.0  0.84029  0.78094  0.00682  1.0000
  C   C1634     1.0  0.85284  0.70316  0.21975  1.0000
  C   C1635     1.0  0.94406  0.73425  0.00623  1.0000
  H   H1295     1.0  0.59106  0.98125  0.20054  1.0000
  C   C1636     1.0  0.73809  0.64338  0.20937  1.0000
  H   H1296     1.0  0.80406  0.58485  0.19567  1.0000
  S   S216      1.0  0.96687  0.79707  0.07675  1.0000
  C   C1637     1.0  0.71066  0.65836  0.05621  1.0000
  C   C1638     1.0  0.71716  0.64615  0.07101  1.0000
  C   C1639     1.0  0.74325  0.64601  0.07256  1.0000
  C   C1640     1.0  0.76294  0.65823  0.05937  1.0000
  C   C1641     1.0  0.75656  0.67069  0.04451  1.0000
  C   C1642     1.0  0.73026  0.67057  0.04303  1.0000
  P   P53       1.0  0.78183  0.68756  0.02757  1.0000
  C   C1643     1.0  0.78268  0.72155  0.02441  1.0000
  C   C1644     1.0  0.81567  0.69117  0.03556  1.0000
  C   C1645     1.0  0.83254  0.71297  0.04771  1.0000
  C   C1646     1.0  0.81517  0.74639  0.22724  1.0000
  C   C1647     1.0  0.94993  0.84504  0.04305  1.0000
  C   C1648     1.0  0.78105  0.73110  0.00707  1.0000
  C   C1649     1.0  0.77877  0.75601  0.00487  1.0000
  C   C1650     1.0  0.77836  0.77176  0.01991  1.0000
  C   C1651     1.0  0.78034  0.76264  0.03719  1.0000
  C   C1652     1.0  0.78221  0.73755  0.03943  1.0000
  C   C1653     1.0  0.77177  0.66763  0.00646  1.0000
  H   H1297     1.0  0.79593  0.92228  0.04283  1.0000
  C   C1654     1.0  0.72226  0.64827  0.15054  1.0000
  C   C1655     1.0  0.68989  0.88769  0.03727  1.0000
  C   C1656     1.0  0.74436  0.64672  0.00296  1.0000
  H   H1298     1.0  0.69058  0.65885  0.05512  1.0000
  H   H1299     1.0  0.70212  0.63720  0.08140  1.0000
  H   H1300     1.0  0.74840  0.63701  0.08421  1.0000
  H   H1301     1.0  0.78321  0.65843  0.06107  1.0000
  H   H1302     1.0  0.72499  0.68005  0.03168  1.0000
  H   H1303     1.0  0.82593  0.72826  0.05238  1.0000
  C   C1657     1.0  0.49203  0.52265  0.15806  1.0000
  C   C1658     1.0  0.80942  0.97957  0.02805  1.0000
  H   H1304     1.0  0.53665  0.53812  0.19474  1.0000
  H   H1305     1.0  0.77549  0.79046  0.01817  1.0000
  H   H1306     1.0  0.77937  0.77445  0.04887  1.0000
  H   H1307     1.0  0.72950  0.67428  0.10850  1.0000
  P   P54       1.0  0.80333  0.66217  0.14367  1.0000
  H   H1308     1.0  0.86146  0.74431  0.21014  1.0000
  H   H1309     1.0  0.88080  0.66704  0.10677  1.0000
  H   H1310     1.0  0.88729  0.65314  0.14920  1.0000
  C   C1659     1.0  0.91990  0.49629  0.19799  1.0000
  H   H1311     1.0  0.96098  0.49849  0.20149  1.0000
  H   H1312     1.0  0.97071  0.71672  0.16128  1.0000
  Fe  Fe109     1.0  0.95755  0.75233  0.07177  1.0000
  C   C1660     1.0  0.89939  0.83697  0.17584  1.0000
  C   C1661     1.0  0.80619  0.89274  0.16507  1.0000
  C   C1662     1.0  0.78637  0.86771  0.15697  1.0000
  C   C1663     1.0  0.87130  0.71424  0.98958  1.0000
  P   P55       1.0  0.83283  0.82767  0.14280  1.0000
  C   C1664     1.0  0.85097  0.75401  0.16394  1.0000
  C   C1665     1.0  0.82360  0.69777  0.15195  1.0000
  C   C1666     1.0  0.82237  0.85216  0.15307  1.0000
  H   H1313     1.0  0.73306  0.94732  0.00844  1.0000
  C   C1667     1.0  0.85913  0.86626  0.09504  1.0000
  C   C1668     1.0  0.85868  0.85780  0.11282  1.0000
  C   C1669     1.0  0.96052  0.74435  0.02224  1.0000
  H   H1314     1.0  0.87624  0.81755  0.12559  1.0000
  C   C1670     1.0  0.76840  0.65891  0.13973  1.0000
  C   C1671     1.0  0.66687  0.80394  0.05247  1.0000
  H   H1315     1.0  0.97941  0.86929  0.08479  1.0000
  C   C1672     1.0  0.88272  0.68382  0.20803  1.0000
  C   C1673     1.0  0.88266  0.82351  0.13958  1.0000
  H   H1316     1.0  0.87797  0.88292  0.09010  1.0000
  H   H1317     1.0  0.86426  0.88248  0.16158  1.0000
  H   H1318     1.0  0.87716  0.86851  0.12155  1.0000
  H   H1319     1.0  0.67905  0.95510  0.03626  1.0000
  H   H1320     1.0  0.67882  0.79744  0.04364  1.0000
  H   H1321     1.0  0.79993  0.90852  0.16944  1.0000
  C   C1674     1.0  0.86596  0.83014  0.15111  1.0000
  H   H1322     1.0  0.49569  0.49902  0.20674  1.0000
  C   C1675     1.0  0.67067  0.83172  0.05278  1.0000
  C   C1676     1.0  0.76058  0.96796  0.03111  1.0000
  H   H1323     1.0  0.76938  0.85277  0.07813  1.0000
  C   C1677     1.0  0.81194  0.63468  0.09342  1.0000
  H   H1324     1.0  0.66476  0.92262  0.00960  1.0000
  C   C1678     1.0  0.91624  0.83103  0.16415  1.0000
  H   H1325     1.0  0.84960  0.91745  0.17286  1.0000
  H   H1326     1.0  0.84461  0.63115  0.19416  1.0000
  H   H1327     1.0  0.86100  0.84028  0.17865  1.0000
  C   C1679     1.0  0.87417  0.83627  0.16938  1.0000
  C   C1680     1.0  0.80409  0.59941  0.18558  1.0000
  C   C1681     1.0  0.85831  0.65937  0.10733  1.0000
  H   H1328     1.0  0.73486  0.85283  0.01214  1.0000
  H   H1329     1.0  0.65705  0.86059  0.06501  1.0000
  H   H1330     1.0  0.90583  0.84199  0.18991  1.0000
  H   H1331     1.0  0.79844  0.62301  0.08205  1.0000
  C   C1682     1.0  0.84300  0.71822  0.14114  1.0000
  H   H1332     1.0  0.87204  0.76161  0.13882  1.0000
  H   H1333     1.0  0.72131  0.83482  0.06580  1.0000
  H   H1334     1.0  0.92577  0.51667  0.20429  1.0000
  H   H1335     1.0  0.91275  0.70880  0.18898  1.0000
  C   C1683     1.0  0.83097  0.73402  0.17449  1.0000
  C   C1684     1.0  0.78150  0.61068  0.16037  1.0000
  H   H1336     1.0  0.86073  0.67508  0.13432  1.0000
  H   H1337     1.0  0.84998  0.64165  0.08038  1.0000
  C   C1685     1.0  0.75234  0.89284  0.04039  1.0000
  C   C1686     1.0  0.76477  0.86370  0.06735  1.0000
  C   C1687     1.0  0.73735  0.85361  0.06032  1.0000
  C   C1688     1.0  0.78150  0.59175  0.17324  1.0000
  H   H1338     1.0  0.80395  0.87351  0.00050  1.0000
  P   P56       1.0  0.69549  0.85672  0.03812  1.0000
  H   H1339     1.0  0.75417  0.64383  0.16627  1.0000
  C   C1689     1.0  0.73089  0.86830  0.04690  1.0000
  H   H1340     1.0  0.80687  0.89651  0.06703  1.0000
  C   C1690     1.0  0.78589  0.88840  0.06110  1.0000
  C   C1691     1.0  0.66363  0.82442  0.00860  1.0000
  H   H1341     1.0  0.70715  0.64103  0.16105  1.0000
  C   C1692     1.0  0.81782  0.65485  0.12370  1.0000
  H   H1342     1.0  0.70039  0.94466  0.06348  1.0000
  H   H1343     1.0  0.77647  0.67677  0.11329  1.0000
  H   H1344     1.0  0.84716  0.71303  0.12784  1.0000
  C   C1693     1.0  0.77970  0.90291  0.04753  1.0000
  C   C1694     1.0  0.69077  0.83989  0.01615  1.0000
  C   C1695     1.0  0.80380  0.63772  0.16010  1.0000
  H   H1345     1.0  0.87119  0.73183  0.06364  1.0000
  C   C1696     1.0  0.84682  0.66395  0.12296  1.0000
  C   C1697     1.0  0.67753  0.89350  0.02198  1.0000
  H   H1346     1.0  0.93313  0.84814  0.06858  1.0000
  H   H1347     1.0  0.81253  0.69004  0.99539  1.0000
  S   S217      1.0  0.54372  0.51385  0.23077  1.0000
  H   H1348     1.0  0.88933  0.66736  0.20789  1.0000
  H   H1349     1.0  0.81162  0.65334  0.02181  1.0000
  C   C1698     1.0  0.97796  0.86431  0.07049  1.0000
  H   H1350     1.0  0.49123  0.52933  0.14443  1.0000
  S   S218      1.0  0.94453  0.73308  0.04324  1.0000
  C   C1699     1.0  0.70959  0.82871  0.98948  1.0000
  H   H1351     1.0  0.56944  0.97332  0.16967  1.0000
  C   C1700     1.0  0.81773  0.77333  0.23043  1.0000
  C   C1701     1.0  0.78969  0.90357  0.99180  1.0000
  C   C1702     1.0  0.79142  0.67820  0.22468  1.0000
  H   H1352     1.0  0.72046  0.70471  0.99991  1.0000
  H   H1353     1.0  0.53465  0.55357  0.16356  1.0000
  H   H1354     1.0  0.72328  0.66705  0.22579  1.0000
  C   C1703     1.0  0.49433  0.50549  0.19316  1.0000
  C   C1704     1.0  0.79147  0.67370  0.99305  1.0000
  C   C1705     1.0  0.69109  0.74797  0.99008  1.0000
  H   H1355     1.0  0.92786  0.81381  0.99618  1.0000
  C   C1706     1.0  0.97397  0.84922  0.03394  1.0000
  C   C1707     1.0  0.65959  0.81151  0.99153  1.0000
  C   C1708     1.0  0.78799  0.97984  0.03825  1.0000
  Fe  Fe110     1.0  0.88693  0.59999  0.26738  1.0000
  S   S219      1.0  0.84364  0.56624  0.26109  1.0000
  S   S220      1.0  0.90369  0.61664  0.29617  1.0000
  H   H1356     1.0  0.86729  0.56014  0.30864  1.0000
  C   C1709     1.0  0.56043  0.98640  0.35015  1.0000
  Fe  Fe111     1.0  0.88141  0.57736  0.40427  1.0000
  S   S221      1.0  0.83805  0.55503  0.41476  1.0000
  S   S222      1.0  0.88069  0.56416  0.37456  1.0000
  Fe  Fe112     1.0  0.90719  0.59934  0.44325  1.0000
  S   S223      1.0  0.86513  0.57851  0.45536  1.0000
  S   S224      1.0  0.94836  0.62187  0.46061  1.0000
  Fe  Fe113     1.0  0.85788  0.54180  0.43725  1.0000
  C   C1710     1.0  0.89135  0.49293  0.23872  1.0000
  Fe  Fe114     1.0  0.84870  0.59359  0.43165  1.0000
  S   S225      1.0  0.81897  0.61389  0.43278  1.0000
  S   S226      1.0  0.90059  0.56139  0.42610  1.0000
  S   S227      1.0  0.89155  0.61734  0.42025  1.0000
  Fe  Fe115     1.0  0.62268  0.58170  0.26912  1.0000
  S   S228      1.0  0.60896  0.58283  0.29804  1.0000
  S   S229      1.0  0.61123  0.53701  0.26152  1.0000
  Fe  Fe116     1.0  0.61843  0.59875  0.44204  1.0000
  S   S230      1.0  0.61222  0.55415  0.44384  1.0000
  S   S231      1.0  0.59843  0.61847  0.46160  1.0000
  Fe  Fe117     1.0  0.64043  0.60287  0.40281  1.0000
  S   S232      1.0  0.63453  0.55882  0.40266  1.0000
  S   S233      1.0  0.65909  0.62721  0.37756  1.0000
  Fe  Fe118     1.0  0.59391  0.54837  0.41561  1.0000
  P   P57       1.0  0.90993  0.50541  0.30403  1.0000
  Fe  Fe119     1.0  0.65412  0.56923  0.43061  1.0000
  S   S234      1.0  0.68573  0.55195  0.43656  1.0000
  S   S235      1.0  0.59840  0.59202  0.41398  1.0000
  S   S236      1.0  0.66181  0.61437  0.43057  1.0000
  H   H1357     1.0  0.79309  0.65194  0.29165  1.0000
  H   H1358     1.0  0.80713  0.57582  0.46322  1.0000
  H   H1359     1.0  0.87739  0.50883  0.27263  1.0000
  H   H1360     1.0  0.79563  0.51790  0.38861  1.0000
  C   C1711     1.0  0.80253  0.55925  0.47273  1.0000
  H   H1361     1.0  0.48394  0.96671  0.28957  1.0000
  H   H1362     1.0  0.57021  0.97640  0.34210  1.0000
  C   C1712     1.0  0.51358  0.65213  0.47389  1.0000
  C   C1713     1.0  0.62617  0.59359  0.31966  1.0000
  C   C1714     1.0  0.65072  0.61852  0.32262  1.0000
  C   C1715     1.0  0.66108  0.62815  0.34039  1.0000
  C   C1716     1.0  0.64706  0.61304  0.35537  1.0000
  C   C1717     1.0  0.62323  0.58753  0.35235  1.0000
  C   C1718     1.0  0.61289  0.57800  0.33463  1.0000
  H   H1363     1.0  0.66103  0.63096  0.31129  1.0000
  H   H1364     1.0  0.67956  0.64787  0.34256  1.0000
  H   H1365     1.0  0.61227  0.57564  0.36370  1.0000
  H   H1366     1.0  0.59406  0.55870  0.33246  1.0000
  H   H1367     1.0  0.52781  0.65592  0.44679  1.0000
  H   H1368     1.0  0.53807  0.58934  0.40096  1.0000
  H   H1369     1.0  0.84554  0.59341  0.36726  1.0000
  C   C1719     1.0  0.72253  0.56943  0.43397  1.0000
  C   C1720     1.0  0.73702  0.59856  0.43291  1.0000
  C   C1721     1.0  0.76649  0.61177  0.43249  1.0000
  C   C1722     1.0  0.78179  0.59605  0.43271  1.0000
  C   C1723     1.0  0.76721  0.56684  0.43307  1.0000
  C   C1724     1.0  0.73782  0.55368  0.43401  1.0000
  H   H1370     1.0  0.72560  0.61098  0.43301  1.0000
  H   H1371     1.0  0.77752  0.63436  0.43216  1.0000
  H   H1372     1.0  0.77860  0.55442  0.43291  1.0000
  H   H1373     1.0  0.72686  0.53115  0.43488  1.0000
  C   C1725     1.0  0.52163  0.57842  0.44498  1.0000
  H   H1374     1.0  0.58933  0.49084  0.37635  1.0000
  C   C1726     1.0  0.85805  0.49798  0.31627  1.0000
  C   C1727     1.0  0.77686  0.50263  0.39444  1.0000
  C   C1728     1.0  0.95821  0.55500  0.47422  1.0000
  C   C1729     1.0  0.86471  0.50526  0.28432  1.0000
  H   H1375     1.0  0.58911  0.55345  0.48263  1.0000
  H   H1376     1.0  0.83560  0.81023  0.24781  1.0000
  H   H1377     1.0  0.76794  0.52331  0.30591  1.0000
  P   P58       1.0  0.73887  0.60129  0.31767  1.0000
  C   C1730     1.0  0.92358  0.49333  0.33864  1.0000
  C   C1731     1.0  0.89521  0.60199  0.31792  1.0000
  C   C1732     1.0  0.90771  0.61927  0.33331  1.0000
  C   C1733     1.0  0.90276  0.60844  0.35081  1.0000
  C   C1734     1.0  0.88551  0.58000  0.35313  1.0000
  C   C1735     1.0  0.87253  0.56286  0.33779  1.0000
  C   C1736     1.0  0.87714  0.57372  0.32030  1.0000
  H   H1378     1.0  0.92172  0.64117  0.33168  1.0000
  H   H1379     1.0  0.91304  0.62194  0.36244  1.0000
  H   H1380     1.0  0.85907  0.54094  0.33954  1.0000
  S   S237      1.0  0.83860  0.49824  0.44819  1.0000
  C   C1737     1.0  0.77554  0.59384  0.29454  1.0000
  C   C1738     1.0  0.82830  0.73513  0.23907  1.0000
  C   C1739     1.0  0.68576  0.52242  0.29814  1.0000
  C   C1740     1.0  0.82153  0.49992  0.29708  1.0000
  S   S238      1.0  0.66347  0.59817  0.25506  1.0000
  H   H1381     1.0  0.78914  0.49070  0.47350  1.0000
  H   H1382     1.0  0.60964  0.67751  0.47373  1.0000
  H   H1383     1.0  0.48757  0.96640  0.41962  1.0000
  H   H1384     1.0  0.66304  0.52174  0.34150  1.0000
  C   C1741     1.0  0.78940  0.59843  0.32620  1.0000
  C   C1742     1.0  0.81078  0.66234  0.28329  1.0000
  H   H1385     1.0  0.55283  0.56242  0.46730  1.0000
  C   C1743     1.0  0.71147  0.60148  0.36885  1.0000
  H   H1386     1.0  0.83503  0.50924  0.37501  1.0000
  C   C1744     1.0  0.83372  0.78938  0.24529  1.0000
  H   H1387     1.0  0.68058  0.59002  0.31238  1.0000
  H   H1388     1.0  0.81235  0.64678  0.47688  1.0000
  H   H1389     1.0  0.68725  0.50396  0.29323  1.0000
  C   C1745     1.0  0.95731  0.62668  0.48437  1.0000
  H   H1390     1.0  0.90462  0.51522  0.24012  1.0000
  H   H1391     1.0  0.87794  0.50287  0.37430  1.0000
  C   C1746     1.0  0.77132  0.58821  0.24264  1.0000
  H   H1392     1.0  0.83799  0.62882  0.38496  1.0000
  C   C1747     1.0  0.51922  0.53013  0.32479  1.0000
  H   H1393     1.0  0.67875  0.71876  0.43971  1.0000
  C   C1748     1.0  0.83422  0.49030  0.36893  1.0000
  C   C1749     1.0  0.83010  0.68635  0.25578  1.0000
  H   H1394     1.0  0.78660  0.66991  0.26250  1.0000
  H   H1395     1.0  0.86550  0.49593  0.32959  1.0000
  H   H1396     1.0  0.75156  0.57197  0.38899  1.0000
  H   H1397     1.0  0.69213  0.59082  0.37585  1.0000
  H   H1398     1.0  0.78557  0.60000  0.34026  1.0000
  C   C1750     1.0  0.53572  0.54036  0.35592  1.0000
  C   C1751     1.0  0.54360  0.52306  0.28029  1.0000
  H   H1399     1.0  0.83021  0.50595  0.26899  1.0000
  H   H1400     1.0  0.56149  0.50814  0.32554  1.0000
  C   C1752     1.0  0.55943  0.68575  0.46503  1.0000
  H   H1401     1.0  0.80663  0.54681  0.36052  1.0000
  H   H1402     1.0  0.74887  0.69697  0.30667  1.0000
  H   H1403     1.0  0.79928  0.52890  0.45219  1.0000
  C   C1753     1.0  0.75211  0.59942  0.24225  1.0000
  H   H1404     1.0  0.87484  0.70043  0.25385  1.0000
  C   C1754     1.0  0.62511  0.69675  0.46839  1.0000
  H   H1405     1.0  0.71324  0.57458  0.47151  1.0000
  C   C1755     1.0  0.57617  0.50225  0.35142  1.0000
  P   P59       1.0  0.74755  0.52081  0.37049  1.0000
  C   C1756     1.0  0.75943  0.63697  0.36869  1.0000
  C   C1757     1.0  0.51556  0.51223  0.27451  1.0000
  H   H1406     1.0  0.55992  0.63219  0.48088  1.0000
  C   C1758     1.0  0.74471  0.65557  0.31156  1.0000
  C   C1759     1.0  0.81384  0.59648  0.32183  1.0000
  H   H1407     1.0  0.94150  0.52976  0.37874  1.0000
  S   S239      1.0  0.90722  0.58572  0.24574  1.0000
  H   H1408     1.0  0.55817  0.54413  0.27681  1.0000
  C   C1760     1.0  0.93604  0.52525  0.36450  1.0000
  C   C1761     1.0  0.93207  0.53377  0.29006  1.0000
  C   C1762     1.0  0.75040  0.49933  0.38835  1.0000
  H   H1409     1.0  0.54739  0.61501  0.43039  1.0000
  C   C1763     1.0  0.82052  0.60876  0.38143  1.0000
  C   C1764     1.0  0.54658  0.54338  0.47468  1.0000
  C   C1765     1.0  0.49992  0.53490  0.42745  1.0000
  C   C1766     1.0  0.71264  0.59492  0.35071  1.0000
  C   C1767     1.0  0.71416  0.52197  0.37039  1.0000
  H   H1410     1.0  0.94666  0.60134  0.28093  1.0000
  H   H1411     1.0  0.95098  0.51054  0.27639  1.0000
  C   C1768     1.0  0.65838  0.54789  0.30204  1.0000
  H   H1412     1.0  0.56532  0.49300  0.43628  1.0000
  H   H1413     1.0  0.92294  0.55492  0.32770  1.0000
  H   H1414     1.0  0.97504  0.50161  0.45329  1.0000
  H   H1415     1.0  0.80420  0.58975  0.27630  1.0000
  C   C1769     1.0  0.72976  0.64476  0.27488  1.0000
  H   H1416     1.0  0.86518  0.50135  0.41446  1.0000
  H   H1417     1.0  0.57517  0.51510  0.29389  1.0000
  H   H1418     1.0  0.79091  0.61789  0.39558  1.0000
  H   H1419     1.0  0.73367  0.62756  0.39188  1.0000
  C   C1770     1.0  0.57841  0.75969  0.47760  1.0000
  C   C1771     1.0  0.96596  0.57804  0.26840  1.0000
  C   C1772     1.0  0.93141  0.49939  0.35692  1.0000
  C   C1773     1.0  0.84730  0.77856  0.25692  1.0000
  C   C1774     1.0  0.51152  0.54943  0.41192  1.0000
  C   C1775     1.0  0.79995  0.59191  0.29027  1.0000
  H   H1420     1.0  0.72386  0.60306  0.27956  1.0000
  C   C1776     1.0  0.77162  0.57628  0.38365  1.0000
  C   C1777     1.0  0.51780  0.95651  0.29588  1.0000
  H   H1421     1.0  0.77743  0.65348  0.37565  1.0000
  C   C1778     1.0  0.95008  0.53027  0.27793  1.0000
  C   C1779     1.0  0.96269  0.55961  0.45586  1.0000
  Fe  Fe120     1.0  0.86329  0.55311  0.23855  1.0000
  C   C1780     1.0  0.79787  0.53267  0.46641  1.0000
  C   C1781     1.0  0.85664  0.68960  0.26179  1.0000
  C   C1782     1.0  0.62607  0.72262  0.47347  1.0000
  C   C1783     1.0  0.93293  0.54508  0.35380  1.0000
  H   H1422     1.0  0.52026  0.96525  0.33622  1.0000
  H   H1423     1.0  0.91580  0.56239  0.29899  1.0000
  C   C1784     1.0  0.50567  0.97488  0.29412  1.0000
  Fe  Fe121     1.0  0.65030  0.55367  0.24599  1.0000
  S   S240      1.0  0.88188  0.63057  0.24876  1.0000
  C   C1785     1.0  0.74402  0.67658  0.30076  1.0000
  C   C1786     1.0  0.55315  0.50649  0.28996  1.0000
  H   H1424     1.0  0.85561  0.74367  0.26287  1.0000
  H   H1425     1.0  0.85983  0.79106  0.26840  1.0000
  C   C1787     1.0  0.70959  0.54548  0.30518  1.0000
  H   H1426     1.0  0.88026  0.68017  0.28238  1.0000
  C   C1788     1.0  0.73783  0.62885  0.30409  1.0000
  C   C1789     1.0  0.79395  0.60260  0.38739  1.0000
  H   H1427     1.0  0.73569  0.68735  0.27411  1.0000
  H   H1428     1.0  0.70785  0.51916  0.34128  1.0000
  C   C1790     1.0  0.76068  0.63047  0.35054  1.0000
  H   H1429     1.0  0.70891  0.59092  0.24285  1.0000
  S   S241      1.0  0.55332  0.51514  0.40323  1.0000
  H   H1430     1.0  0.89567  0.67756  0.45829  1.0000
  H   H1431     1.0  0.66914  0.52887  0.39933  1.0000
  C   C1791     1.0  0.85995  0.67850  0.27814  1.0000
  C   C1792     1.0  0.50486  0.54928  0.44416  1.0000
  C   C1793     1.0  0.67749  0.52649  0.38665  1.0000
  H   H1432     1.0  0.64353  0.52682  0.37042  1.0000
  Fe  Fe122     1.0  0.83988  0.59565  0.24114  1.0000
  C   C1794     1.0  0.73014  0.62364  0.28565  1.0000
  C   C1795     1.0  0.64646  0.74721  0.46626  1.0000
  C   C1796     1.0  0.56666  0.69575  0.48296  1.0000
  H   H1433     1.0  0.76106  0.59249  0.28366  1.0000
  C   C1797     1.0  0.53231  0.98012  0.34689  1.0000
  C   C1798     1.0  0.84475  0.75159  0.25379  1.0000
  H   H1434     1.0  0.81885  0.49439  0.32572  1.0000
  C   C1799     1.0  0.68219  0.57108  0.30878  1.0000
  C   C1800     1.0  0.79208  0.51108  0.47845  1.0000
  C   C1801     1.0  0.53306  0.66388  0.46057  1.0000
  C   C1802     1.0  0.77571  0.55580  0.37382  1.0000
  C   C1803     1.0  0.93062  0.55943  0.29070  1.0000
  H   H1435     1.0  0.50857  0.52481  0.26637  1.0000
  H   H1436     1.0  0.85058  0.68030  0.45942  1.0000
  C   C1804     1.0  0.92112  0.51343  0.32761  1.0000
  H   H1437     1.0  0.55351  0.56883  0.33433  1.0000
  H   H1438     1.0  0.56089  0.78736  0.46936  1.0000
  C   C1805     1.0  0.71400  0.55363  0.24696  1.0000
  H   H1439     1.0  0.50332  0.95397  0.47306  1.0000
  C   C1806     1.0  0.80253  0.56230  0.36771  1.0000
  C   C1807     1.0  0.87499  0.50248  0.30139  1.0000
  H   H1440     1.0  0.63867  0.54902  0.30052  1.0000
  H   H1441     1.0  0.52086  0.53651  0.31093  1.0000
  C   C1808     1.0  0.53765  0.54842  0.33801  1.0000
  H   H1442     1.0  0.64295  0.67524  0.45244  1.0000
  C   C1809     1.0  0.70798  0.57009  0.31043  1.0000
  C   C1810     1.0  0.77022  0.59770  0.31254  1.0000
  C   C1811     1.0  0.66022  0.52372  0.29652  1.0000
  H   H1443     1.0  0.75008  0.66030  0.32572  1.0000
  C   C1812     1.0  0.64404  0.69541  0.45630  1.0000
  C   C1813     1.0  0.73660  0.67120  0.28243  1.0000
  H   H1444     1.0  0.72373  0.64044  0.26069  1.0000
  C   C1814     1.0  0.53338  0.59281  0.42945  1.0000
  H   H1445     1.0  0.83962  0.65621  0.30152  1.0000
  H   H1446     1.0  0.72926  0.54427  0.30592  1.0000
  C   C1815     1.0  0.83799  0.50372  0.28220  1.0000
  C   C1816     1.0  0.76055  0.51017  0.31750  1.0000
  C   C1817     1.0  0.52826  0.57833  0.41290  1.0000
  C   C1818     1.0  0.94762  0.53824  0.44317  1.0000
  C   C1819     1.0  0.87910  0.66313  0.46637  1.0000
  H   H1447     1.0  0.77676  0.55089  0.24614  1.0000
  C   C1820     1.0  0.51512  0.51417  0.36063  1.0000
  C   C1821     1.0  0.82476  0.58870  0.37151  1.0000
  C   C1822     1.0  0.48329  0.55411  0.47878  1.0000
  C   C1823     1.0  0.88278  0.64233  0.47562  1.0000
  C   C1824     1.0  0.66418  0.71992  0.44915  1.0000
  H   H1448     1.0  0.91551  0.49600  0.43897  1.0000
  H   H1449     1.0  0.90228  0.64077  0.47469  1.0000
  H   H1450     1.0  0.75926  0.62152  0.24036  1.0000
  H   H1451     1.0  0.55024  0.55437  0.36620  1.0000
  H   H1452     1.0  0.59729  0.82884  0.48594  1.0000
  H   H1453     1.0  0.69393  0.57906  0.34412  1.0000
  S   S242      1.0  0.67808  0.53185  0.24930  1.0000
  C   C1825     1.0  0.59806  0.80888  0.48634  1.0000
  H   H1454     1.0  0.68103  0.76479  0.44856  1.0000
  C   C1826     1.0  0.80722  0.67272  0.26673  1.0000
  C   C1827     1.0  0.83703  0.66492  0.28891  1.0000
  H   H1455     1.0  0.95076  0.54200  0.42893  1.0000
  H   H1456     1.0  0.82883  0.59748  0.33233  1.0000
  H   H1457     1.0  0.93573  0.56487  0.35977  1.0000
  C   C1828     1.0  0.86103  0.62297  0.48549  1.0000
  H   H1458     1.0  0.76656  0.54442  0.33534  1.0000
  H   H1459     1.0  0.76984  0.69734  0.23970  1.0000
  H   H1460     1.0  0.52664  0.58997  0.45775  1.0000
  C   C1829     1.0  0.72354  0.58214  0.24399  1.0000
  C   C1830     1.0  0.83556  0.62459  0.48646  1.0000
  C   C1831     1.0  0.51830  0.52401  0.47549  1.0000
  C   C1832     1.0  0.75028  0.50543  0.34929  1.0000
  C   C1833     1.0  0.92766  0.51238  0.44881  1.0000
  C   C1834     1.0  0.75421  0.58513  0.48325  1.0000
  H   H1461     1.0  0.50543  0.93436  0.29285  1.0000
  H   H1462     1.0  0.64777  0.76747  0.46983  1.0000
  C   C1835     1.0  0.73736  0.60916  0.34137  1.0000
  H   H1463     1.0  0.77977  0.64236  0.34359  1.0000
  H   H1464     1.0  0.71399  0.52656  0.39942  1.0000
  C   C1836     1.0  0.85376  0.66476  0.46710  1.0000
  C   C1837     1.0  0.81920  0.59344  0.30387  1.0000
  C   C1838     1.0  0.92279  0.50783  0.46713  1.0000
  H   H1465     1.0  0.64200  0.50644  0.29043  1.0000
  C   C1839     1.0  0.66307  0.52522  0.37040  1.0000
  H   H1466     1.0  0.83838  0.59248  0.30044  1.0000
  C   C1840     1.0  0.96690  0.55232  0.26716  1.0000
  C   C1841     1.0  0.66541  0.74581  0.45415  1.0000
  C   C1842     1.0  0.73485  0.62240  0.37786  1.0000
  C   C1843     1.0  0.72990  0.58861  0.48068  1.0000
  H   H1467     1.0  0.48320  0.92000  0.42846  1.0000
  H   H1468     1.0  0.57955  0.52259  0.35668  1.0000
  C   C1844     1.0  0.73336  0.54246  0.24809  1.0000
  H   H1469     1.0  0.56231  0.74184  0.47029  1.0000
  H   H1470     1.0  0.88481  0.52621  0.48203  1.0000
  S   S243      1.0  0.60013  0.58780  0.24456  1.0000
  C   C1845     1.0  0.92563  0.53928  0.33546  1.0000
  H   H1471     1.0  0.57417  0.69465  0.45450  1.0000
  H   H1472     1.0  0.48783  0.51247  0.42624  1.0000
  H   H1473     1.0  0.50847  0.53804  0.39924  1.0000
  H   H1474     1.0  0.97882  0.59508  0.25998  1.0000
  H   H1475     1.0  0.96959  0.57225  0.48360  1.0000
  C   C1846     1.0  0.57754  0.78550  0.47702  1.0000
  C   C1847     1.0  0.76201  0.55969  0.24577  1.0000
  H   H1476     1.0  0.97719  0.58014  0.45147  1.0000
  H   H1477     1.0  0.49323  0.63511  0.47043  1.0000
  H   H1478     1.0  0.72608  0.52037  0.25033  1.0000
  C   C1848     1.0  0.76000  0.52217  0.33422  1.0000
  H   H1479     1.0  0.51362  0.50852  0.37461  1.0000
  P   P60       1.0  0.49132  0.53093  0.46466  1.0000
  C   C1849     1.0  0.70297  0.52505  0.38666  1.0000
  S   S244      1.0  0.80656  0.61065  0.23886  1.0000
  C   C1850     1.0  0.67410  0.52237  0.35412  1.0000
  C   C1851     1.0  0.94787  0.58158  0.28021  1.0000
  C   C1852     1.0  0.83204  0.64558  0.47707  1.0000
  H   H1480     1.0  0.75592  0.56847  0.47578  1.0000
  C   C1853     1.0  0.49868  0.50381  0.32944  1.0000
  C   C1854     1.0  0.93853  0.52890  0.48009  1.0000
  C   C1855     1.0  0.51115  0.49981  0.48557  1.0000
  C   C1856     1.0  0.69963  0.52095  0.35408  1.0000
  C   C1857     1.0  0.49629  0.49569  0.34748  1.0000
  C   C1858     1.0  0.54611  0.96683  0.30104  1.0000
  H   H1481     1.0  0.80127  0.49965  0.29530  1.0000
  C   C1859     1.0  0.56583  0.49384  0.33370  1.0000
  C   C1860     1.0  0.59397  0.62139  0.48530  1.0000
  C   C1861     1.0  0.56736  0.53834  0.48342  1.0000
  C   C1862     1.0  0.83148  0.49697  0.31411  1.0000
  H   H1482     1.0  0.55572  0.95275  0.30202  1.0000
  H   H1483     1.0  0.48453  0.49023  0.31895  1.0000
  C   C1863     1.0  0.49975  0.95445  0.48731  1.0000
  H   H1484     1.0  0.70830  0.61295  0.48754  1.0000
  C   C1864     1.0  0.59983  0.75709  0.48759  1.0000
  H   H1485     1.0  0.79996  0.48928  0.41316  1.0000
  Fe  Fe123     1.0  0.54512  0.70262  0.57292  1.0000
  S   S245      1.0  0.57291  0.68512  0.58556  1.0000
  S   S246      1.0  0.56374  0.75038  0.57591  1.0000
  H   H1486     1.0  0.55168  0.69142  0.51007  1.0000
  S   S247      1.0  0.52330  0.62336  0.57701  1.0000
  C   C1865     1.0  0.60445  0.83564  0.62841  1.0000
  Fe  Fe124     1.0  0.53420  0.65579  0.59953  1.0000
  S   S248      1.0  0.52471  0.64102  0.62864  1.0000
  Fe  Fe125     1.0  0.55908  0.65431  0.56161  1.0000
  S   S249      1.0  0.58636  0.63838  0.54606  1.0000
  S   S250      1.0  0.50708  0.67421  0.58760  1.0000
  S   S251      1.0  0.53420  0.67399  0.54820  1.0000
  H   H1487     1.0  0.56854  0.84212  0.52862  1.0000
  H   H1488     1.0  0.92969  0.62005  0.52597  1.0000
  S   S252      1.0  0.57078  0.69652  0.70739  1.0000
  Fe  Fe126     1.0  0.51989  0.93011  0.57745  1.0000
  S   S253      1.0  0.56407  0.96014  0.58581  1.0000
  C   C1866     1.0  0.62497  0.88618  0.71842  1.0000
  Fe  Fe127     1.0  0.53644  0.88465  0.56564  1.0000
  S   S254      1.0  0.58167  0.91240  0.57253  1.0000
  S   S255      1.0  0.51954  0.83967  0.55454  1.0000
  Fe  Fe128     1.0  0.56615  0.92283  0.59827  1.0000
  S   S256      1.0  0.58363  0.91684  0.62567  1.0000
  Fe  Fe129     1.0  0.57486  0.94712  0.55917  1.0000
  H   H1489     1.0  0.60363  0.88326  0.59887  1.0000
  S   S257      1.0  0.52112  0.89367  0.59161  1.0000
  S   S258      1.0  0.53043  0.91845  0.55057  1.0000
  C   C1867     1.0  0.97393  0.63764  0.52181  1.0000
  H   H1490     1.0  0.52719  0.85860  0.62587  1.0000
  S   S259      1.0  0.56208  0.94846  0.70540  1.0000
  C   C1868     1.0  0.57507  0.92416  0.64754  1.0000
  C   C1869     1.0  0.56789  0.94599  0.65075  1.0000
  H   H1491     1.0  0.48169  0.91228  0.52345  1.0000
  C   C1870     1.0  0.56654  0.93793  0.68329  1.0000
  C   C1871     1.0  0.57295  0.91555  0.68004  1.0000
  Fe  Fe130     1.0  0.55238  0.68106  0.73500  1.0000
  C   C1872     1.0  0.60125  0.73003  0.52618  1.0000
  C   C1873     1.0  0.52067  0.79212  0.62346  1.0000
  H   H1492     1.0  0.53463  0.85221  0.65819  1.0000
  C   C1874     1.0  0.54873  0.77351  0.57118  1.0000
  C   C1875     1.0  0.56057  0.80016  0.57973  1.0000
  C   C1876     1.0  0.55136  0.82034  0.57513  1.0000
  C   C1877     1.0  0.53031  0.81420  0.56178  1.0000
  C   C1878     1.0  0.51798  0.78731  0.55351  1.0000
  C   C1879     1.0  0.52700  0.76699  0.55825  1.0000
  H   H1493     1.0  0.57741  0.80543  0.58970  1.0000
  H   H1494     1.0  0.56107  0.84092  0.58154  1.0000
  H   H1495     1.0  0.61425  0.78581  0.72918  1.0000
  H   H1496     1.0  0.51777  0.74664  0.55148  1.0000
  C   C1880     1.0  0.53743  0.65747  0.65033  1.0000
  C   C1881     1.0  0.56151  0.68296  0.65271  1.0000
  C   C1882     1.0  0.57137  0.69449  0.67023  1.0000
  C   C1883     1.0  0.55716  0.68100  0.68560  1.0000
  C   C1884     1.0  0.53275  0.65582  0.68319  1.0000
  C   C1885     1.0  0.52311  0.64409  0.66570  1.0000
  H   H1497     1.0  0.57288  0.69344  0.64110  1.0000
  H   H1498     1.0  0.59034  0.71385  0.67191  1.0000
  H   H1499     1.0  0.52147  0.64520  0.69481  1.0000
  C   C1886     1.0  0.64682  0.95242  0.65871  1.0000
  C   C1887     1.0  0.64084  0.88012  0.73135  1.0000
  C   C1888     1.0  0.57048  0.63414  0.50933  1.0000
  C   C1889     1.0  0.58810  0.63118  0.52257  1.0000
  C   C1890     1.0  0.60820  0.62259  0.51702  1.0000
  H   H1500     1.0  0.55474  0.64037  0.51333  1.0000
  H   H1501     1.0  0.62192  0.62007  0.52706  1.0000
  C   C1891     1.0  0.62235  0.85272  0.55844  1.0000
  C   C1892     1.0  0.94548  0.62525  0.51603  1.0000
  C   C1893     1.0  0.52461  0.73210  0.68231  1.0000
  Fe  Fe131     1.0  0.49883  0.64376  0.56439  1.0000
  H   H1502     1.0  0.85167  0.54512  0.48850  1.0000
  C   C1894     1.0  0.96872  0.53737  0.67634  1.0000
  H   H1503     1.0  0.51774  0.77595  0.61348  1.0000
  C   C1895     1.0  0.88603  0.53586  0.49516  1.0000
  C   C1896     1.0  0.51742  0.72587  0.70020  1.0000
  H   H1504     1.0  0.58383  0.89254  0.66011  1.0000
  H   H1505     1.0  0.57559  0.77364  0.67053  1.0000
  Fe  Fe132     1.0  0.56112  0.92870  0.73289  1.0000
  C   C1897     1.0  0.58441  0.83824  0.53577  1.0000
  C   C1898     1.0  0.96181  0.54112  0.51813  1.0000
  C   C1899     1.0  0.49556  0.75630  0.68035  1.0000
  C   C1900     1.0  0.60257  0.85805  0.54846  1.0000
  C   C1901     1.0  0.62952  0.86156  0.59666  1.0000
  H   H1506     1.0  0.60021  0.87688  0.55090  1.0000
  C   C1902     1.0  0.85002  0.62064  0.54809  1.0000
  C   C1903     1.0  0.49209  0.93026  0.49728  1.0000
  H   H1507     1.0  0.64491  0.68960  0.53584  1.0000
  C   C1904     1.0  0.79053  0.51595  0.49681  1.0000
  H   H1508     1.0  0.74643  0.64525  0.50852  1.0000
  C   C1905     1.0  0.65230  0.95051  0.55450  1.0000
  H   H1509     1.0  0.58321  0.86173  0.62714  1.0000
  C   C1906     1.0  0.73490  0.88719  0.57352  1.0000
  C   C1907     1.0  0.97227  0.52572  0.52851  1.0000
  H   H1510     1.0  0.53388  0.80803  0.66843  1.0000
  C   C1908     1.0  0.72472  0.97686  0.70716  1.0000
  H   H1511     1.0  0.65225  0.95875  0.54123  1.0000
  C   C1909     1.0  0.80086  0.59386  0.55366  1.0000
  C   C1910     1.0  0.62303  0.82689  0.55589  1.0000
  C   C1911     1.0  0.62347  0.82825  0.62017  1.0000
  H   H1512     1.0  0.53781  0.72400  0.67625  1.0000
  C   C1912     1.0  0.67982  0.88049  0.57490  1.0000
  H   H1513     1.0  0.78420  0.58450  0.56301  1.0000
  H   H1514     1.0  0.50160  0.78230  0.54320  1.0000
  H   H1515     1.0  0.64883  0.91128  0.54433  1.0000
  H   H1516     1.0  0.53524  0.58274  0.54803  1.0000
  C   C1913     1.0  0.57344  0.62935  0.49090  1.0000
  H   H1517     1.0  0.91526  0.60961  0.49351  1.0000
  C   C1914     1.0  0.65570  0.98453  0.72844  1.0000
  C   C1915     1.0  0.52002  0.58292  0.69341  1.0000
  H   H1518     1.0  0.60474  0.86999  0.71374  1.0000
  C   C1916     1.0  0.77284  0.62487  0.50429  1.0000
  H   H1519     1.0  0.51388  0.94585  0.65159  1.0000
  H   H1520     1.0  0.62869  0.70841  0.56114  1.0000
  C   C1917     1.0  0.64989  0.92347  0.55633  1.0000
  P   P61       1.0  0.64478  0.87709  0.57578  1.0000
  S   S260      1.0  0.48828  0.94670  0.58199  1.0000
  C   C1918     1.0  0.82856  0.60847  0.56015  1.0000
  C   C1919     1.0  0.58529  0.81264  0.53331  1.0000
  H   H1521     1.0  0.52564  0.71375  0.70783  1.0000
  H   H1522     1.0  0.62021  0.77269  0.66424  1.0000
  H   H1523     1.0  0.48619  0.76733  0.67272  1.0000
  H   H1524     1.0  0.60440  0.78664  0.54209  1.0000
  C   C1920     1.0  0.51337  0.82191  0.71282  1.0000
  H   H1525     1.0  0.52857  0.56815  0.66834  1.0000
  H   H1526     1.0  0.54180  0.59349  0.69799  1.0000
  C   C1921     1.0  0.49274  0.94346  0.65006  1.0000
  H   H1527     1.0  0.51543  0.69846  0.64160  1.0000
  P   P62       1.0  0.67072  0.97034  0.71216  1.0000
  C   C1922     1.0  0.50847  0.83870  0.70031  1.0000
  H   H1528     1.0  0.58798  0.74029  0.52381  1.0000
  C   C1923     1.0  0.50307  0.97939  0.49574  1.0000
  H   H1529     1.0  0.71501  0.95513  0.70258  1.0000
  C   C1924     1.0  0.65401  0.96681  0.56976  1.0000
  C   C1925     1.0  0.56410  0.95306  0.66851  1.0000
  C   C1926     1.0  0.63435  0.91343  0.71232  1.0000
  H   H1530     1.0  0.62726  0.75616  0.63429  1.0000
  C   C1927     1.0  0.49131  0.95596  0.52419  1.0000
  H   H1531     1.0  0.96235  0.50312  0.52791  1.0000
  H   H1532     1.0  0.67711  0.87061  0.54632  1.0000
  H   H1533     1.0  0.72539  0.87596  0.54533  1.0000
  H   H1534     1.0  0.83342  0.61044  0.57452  1.0000
  C   C1928     1.0  0.84384  0.61820  0.52954  1.0000
  C   C1929     1.0  0.65399  0.95635  0.58691  1.0000
  C   C1930     1.0  0.60990  0.86839  0.60482  1.0000
  H   H1535     1.0  0.57025  0.79676  0.52415  1.0000
  C   C1931     1.0  0.49943  0.73491  0.70820  1.0000
  C   C1932     1.0  0.66015  0.93469  0.71869  1.0000
  C   C1933     1.0  0.69754  0.88888  0.59041  1.0000
  C   C1934     1.0  0.57979  0.98546  0.50845  1.0000
  H   H1536     1.0  0.48267  0.93098  0.67738  1.0000
  C   C1935     1.0  0.58662  0.74870  0.62348  1.0000
  C   C1936     1.0  0.55652  0.75698  0.64417  1.0000
  C   C1937     1.0  0.86707  0.54658  0.49880  1.0000
  C   C1938     1.0  0.59782  0.85581  0.62077  1.0000
  H   H1537     1.0  0.87152  0.63211  0.55313  1.0000
  C   C1939     1.0  0.48320  0.94906  0.63362  1.0000
  H   H1538     1.0  0.86091  0.62815  0.52065  1.0000
  H   H1539     1.0  0.65017  0.83462  0.59797  1.0000
  H   H1540     1.0  0.92197  0.55141  0.53577  1.0000
  C   C1940     1.0  0.48287  0.83991  0.69972  1.0000
  C   C1941     1.0  0.57837  0.76659  0.65735  1.0000
  H   H1541     1.0  0.48737  0.57589  0.55497  1.0000
  H   H1542     1.0  0.96655  0.58279  0.51287  1.0000
  H   H1543     1.0  0.59467  0.82559  0.64061  1.0000
  C   C1942     1.0  0.51725  0.56295  0.54463  1.0000
  C   C1943     1.0  0.90622  0.53767  0.50834  1.0000
  H   H1544     1.0  0.56132  0.96738  0.51244  1.0000
  C   C1944     1.0  0.62666  0.70526  0.51532  1.0000
  C   C1945     1.0  0.53204  0.49457  0.49401  1.0000
  H   H1545     1.0  0.85354  0.56769  0.51831  1.0000
  C   C1946     1.0  0.61076  0.71980  0.51170  1.0000
  C   C1947     1.0  0.49816  0.56519  0.49519  1.0000
  H   H1546     1.0  0.62841  0.81240  0.62595  1.0000
  C   C1948     1.0  0.56112  0.74882  0.62702  1.0000
  C   C1949     1.0  0.64819  0.91217  0.57349  1.0000
  C   C1950     1.0  0.49753  0.70036  0.63576  1.0000
  C   C1951     1.0  0.57773  0.90910  0.66234  1.0000
  P   P63       1.0  0.60086  0.72374  0.48882  1.0000
  H   H1547     1.0  0.75616  0.88974  0.57300  1.0000
  H   H1548     1.0  0.63722  0.77919  0.50459  1.0000
  H   H1549     1.0  0.77301  0.57976  0.53031  1.0000
  C   C1952     1.0  0.86807  0.55918  0.51558  1.0000
  S   S261      1.0  0.60609  0.98067  0.54087  1.0000
  C   C1953     1.0  0.60780  0.75700  0.63693  1.0000
  H   H1550     1.0  0.51862  0.82043  0.60362  1.0000
  C   C1954     1.0  0.72493  0.89204  0.58973  1.0000
  C   C1955     1.0  0.53036  0.83524  0.64857  1.0000
  H   H1551     1.0  0.88885  0.57071  0.54182  1.0000
  H   H1552     1.0  0.57468  0.90357  0.69122  1.0000
  C   C1956     1.0  0.69012  0.87619  0.55858  1.0000
  C   C1957     1.0  0.90682  0.54997  0.52528  1.0000
  H   H1553     1.0  0.65995  0.93363  0.67996  1.0000
  P   P64       1.0  0.80734  0.59900  0.49892  1.0000
  C   C1958     1.0  0.60459  0.80697  0.54338  1.0000
  C   C1959     1.0  0.67576  0.92858  0.73196  1.0000
  C   C1960     1.0  0.52080  0.54145  0.53594  1.0000
  H   H1554     1.0  0.69022  0.89309  0.60301  1.0000
  C   C1961     1.0  0.71753  0.87937  0.55794  1.0000
  H   H1555     1.0  0.64292  0.93563  0.64900  1.0000
  C   C1962     1.0  0.79510  0.54252  0.50317  1.0000
  H   H1556     1.0  0.58971  0.74173  0.61032  1.0000
  H   H1557     1.0  0.54493  0.74205  0.61640  1.0000
  C   C1963     1.0  0.52972  0.81007  0.65431  1.0000
  C   C1964     1.0  0.63591  0.84105  0.60433  1.0000
  C   C1965     1.0  0.74858  0.62840  0.50155  1.0000
  H   H1558     1.0  0.94725  0.52174  0.67411  1.0000
  H   H1559     1.0  0.51474  0.56014  0.49981  1.0000
  C   C1966     1.0  0.60382  0.76632  0.65378  1.0000
  H   H1560     1.0  0.86397  0.60646  0.49212  1.0000
  C   C1967     1.0  0.48767  0.93099  0.51568  1.0000
  P   P65       1.0  0.52289  0.75526  0.64906  1.0000
  C   C1968     1.0  0.52409  0.78801  0.64184  1.0000
  C   C1969     1.0  0.51449  0.74819  0.67241  1.0000
  H   H1561     1.0  0.65188  0.92179  0.60221  1.0000
  H   H1562     1.0  0.65538  0.96905  0.59874  1.0000
  C   C1970     1.0  0.65960  0.97219  0.68919  1.0000
  H   H1563     1.0  0.53319  0.82090  0.71330  1.0000
  H   H1564     1.0  0.50450  0.62438  0.66412  1.0000
  C   C1971     1.0  0.72710  0.61024  0.48976  1.0000
  C   C1972     1.0  0.49584  0.72585  0.63680  1.0000
  H   H1565     1.0  0.52474  0.85123  0.69137  1.0000
  H   H1566     1.0  0.63716  0.82170  0.56400  1.0000
  H   H1567     1.0  0.49396  0.73002  0.72208  1.0000
  H   H1568     1.0  0.76652  0.98193  0.70317  1.0000
  H   H1569     1.0  0.78597  0.49913  0.50611  1.0000
  H   H1570     1.0  0.48809  0.95622  0.53853  1.0000
  H   H1571     1.0  0.73851  0.89843  0.60176  1.0000
  C   C1973     1.0  0.93720  0.61942  0.49755  1.0000
  H   H1572     1.0  0.56627  0.95815  0.63962  1.0000
  C   C1974     1.0  0.65157  0.92931  0.58879  1.0000
  C   C1975     1.0  0.79460  0.59129  0.53511  1.0000
  H   H1573     1.0  0.62102  0.91811  0.70312  1.0000
  P   P66       1.0  0.93058  0.52361  0.50367  1.0000
  C   C1976     1.0  0.52603  0.83882  0.63034  1.0000
  C   C1977     1.0  0.81605  0.60328  0.52286  1.0000
  C   C1978     1.0  0.49040  0.55912  0.54861  1.0000
  H   H1574     1.0  0.63329  0.69600  0.50459  1.0000
  H   H1575     1.0  0.50384  0.59242  0.51826  1.0000
  H   H1576     1.0  0.54161  0.54470  0.53254  1.0000
  C   C1979     1.0  0.51254  0.56863  0.67674  1.0000
  C   C1980     1.0  0.88789  0.56080  0.52883  1.0000
  C   C1981     1.0  0.52131  0.81732  0.61779  1.0000
  H   H1577     1.0  0.49697  0.95576  0.62237  1.0000
  C   C1982     1.0  0.62422  0.71219  0.54739  1.0000
  C   C1983     1.0  0.61110  0.61768  0.49858  1.0000
  C   C1984     1.0  0.49306  0.80702  0.72513  1.0000
  H   H1578     1.0  0.79378  0.54570  0.51742  1.0000
  C   C1985     1.0  0.49201  0.58346  0.50578  1.0000
  C   C1986     1.0  0.60813  0.72639  0.54393  1.0000
  H   H1579     1.0  0.60033  0.73388  0.55505  1.0000
  C   C1987     1.0  0.65602  0.95117  0.67635  1.0000
  C   C1988     1.0  0.49919  0.98040  0.51430  1.0000
  C   C1989     1.0  0.63352  0.70171  0.53310  1.0000
  H   H1580     1.0  0.55941  0.97056  0.67086  1.0000
  C   C1990     1.0  0.48824  0.74981  0.69822  1.0000
  H   H1581     1.0  0.48410  0.86595  0.53579  1.0000
  H   H1582     1.0  0.57635  0.50975  0.49942  1.0000
  H   H1583     1.0  0.56579  0.78910  0.73318  1.0000
  H   H1584     1.0  0.78939  0.63920  0.51339  1.0000
  C   C1991     1.0  0.80159  0.56453  0.49117  1.0000
  C   C1992     1.0  0.49760  0.51589  0.53162  1.0000
  C   C1993     1.0  0.77580  0.60314  0.49520  1.0000
  H   H1585     1.0  0.62704  0.61166  0.49464  1.0000
  S   S262      1.0  0.52680  0.88571  0.73677  1.0000
  H   H1586     1.0  0.48596  0.76558  0.58462  1.0000
  H   H1587     1.0  0.50103  0.49983  0.52480  1.0000
  H   H1588     1.0  0.48974  0.91100  0.49079  1.0000
  H   H1589     1.0  0.50519  0.59475  0.71716  1.0000
  H   H1590     1.0  0.95759  0.57062  0.68269  1.0000
  C   C1994     1.0  0.52041  0.66234  0.49167  1.0000
  C   C1995     1.0  0.64166  0.97488  0.65366  1.0000
  C   C1996     1.0  0.62046  0.78073  0.49685  1.0000
  H   H1591     1.0  0.61984  0.97869  0.71140  1.0000
  C   C1997     1.0  0.54680  0.68409  0.49619  1.0000
  H   H1592     1.0  0.50539  0.65327  0.50207  1.0000
  C   C1998     1.0  0.48447  0.55549  0.67070  1.0000
  H   H1593     1.0  0.63368  0.97531  0.64014  1.0000
  H   H1594     1.0  0.62626  0.74601  0.73047  1.0000
  C   C1999     1.0  0.61954  0.80650  0.49622  1.0000
  H   H1595     1.0  0.63537  0.82461  0.50351  1.0000
  C   C2000     1.0  0.56014  0.51383  0.49294  1.0000
  C   C2001     1.0  0.97451  0.56487  0.68117  1.0000
  C   C2002     1.0  0.97495  0.57046  0.51997  1.0000
  H   H1596     1.0  0.49724  0.79423  0.73481  1.0000
  H   H1597     1.0  0.63291  0.85918  0.73655  1.0000
  C   C2003     1.0  0.49941  0.58381  0.70416  1.0000
  C   C2004     1.0  0.63044  0.98573  0.72442  1.0000
  H   H1598     1.0  0.65509  0.98746  0.56823  1.0000
  H   H1599     1.0  0.69491  0.94497  0.73787  1.0000
  C   C2005     1.0  0.53074  0.60849  0.81595  1.0000
  H   H1600     1.0  0.83928  0.79054  0.86952  1.0000
  C   C2006     1.0  0.70420  0.73072  0.98708  1.0000
  C   C2007     1.0  0.89491  0.83726  0.86338  1.0000
  C   C2008     1.0  0.59607  0.79063  0.80256  1.0000
  H   H1601     1.0  0.60972  0.89985  0.80908  1.0000
  Fe  Fe133     1.0  0.93335  0.75644  0.91282  1.0000
  S   S263      1.0  0.88542  0.73731  0.91329  1.0000
  S   S264      1.0  0.95304  0.72775  0.92016  1.0000
  Fe  Fe134     1.0  0.75346  0.77499  0.90985  1.0000
  S   S265      1.0  0.71987  0.73057  0.91153  1.0000
  S   S266      1.0  0.79934  0.79016  0.90246  1.0000
  Fe  Fe135     1.0  0.71445  0.79897  0.92314  1.0000
  S   S267      1.0  0.67918  0.75619  0.92614  1.0000
  S   S268      1.0  0.70437  0.83362  0.93299  1.0000
  Fe  Fe136     1.0  0.71169  0.74517  0.93865  1.0000
  S   S269      1.0  0.71209  0.72318  0.96502  1.0000
  Fe  Fe137     1.0  0.69021  0.74616  0.89860  1.0000
  S   S270      1.0  0.65156  0.72691  0.87837  1.0000
  S   S271      1.0  0.74625  0.78867  0.93717  1.0000
  S   S272      1.0  0.72455  0.78989  0.89540  1.0000
  Fe  Fe138     1.0  0.56884  0.68074  0.77616  1.0000
  S   S273      1.0  0.52357  0.66190  0.78361  1.0000
  S   S274      1.0  0.60889  0.69600  0.79491  1.0000
  Fe  Fe139     1.0  0.51982  0.69255  0.76441  1.0000
  S   S275      1.0  0.49882  0.71966  0.77186  1.0000
  Fe  Fe140     1.0  0.51379  0.63392  0.75867  1.0000
  H   H1602     1.0  0.51027  0.70556  0.82865  1.0000
  S   S276      1.0  0.56519  0.71260  0.75817  1.0000
  S   S277      1.0  0.55957  0.65033  0.75232  1.0000
  S   S278      1.0  0.76313  0.95539  0.90185  1.0000
  Fe  Fe141     1.0  0.58534  0.93304  0.77283  1.0000
  S   S279      1.0  0.55171  0.89012  0.77848  1.0000
  H   H1603     1.0  0.49784  0.84846  0.79098  1.0000
  S   S280      1.0  0.62545  0.95338  0.79143  1.0000
  C   C2009     1.0  0.50105  0.63808  0.82840  1.0000
  Fe  Fe142     1.0  0.52163  0.90280  0.76345  1.0000
  H   H1604     1.0  0.84731  0.77044  0.81419  1.0000
  C   C2010     1.0  0.49811  0.56216  0.84748  1.0000
  S   S281      1.0  0.55480  0.94683  0.75929  1.0000
  C   C2011     1.0  0.91955  0.82518  0.94537  1.0000
  P   P67       1.0  0.63126  0.80791  0.79478  1.0000
  C   C2012     1.0  0.51808  0.75387  0.76425  1.0000
  C   C2013     1.0  0.51553  0.77654  0.77227  1.0000
  C   C2014     1.0  0.53157  0.80390  0.76639  1.0000
  H   H1605     1.0  0.77148  0.75052  0.94804  1.0000
  C   C2015     1.0  0.62830  0.87999  0.77901  1.0000
  H   H1606     1.0  0.68034  0.86118  0.80619  1.0000
  H   H1607     1.0  0.71554  0.61648  0.98360  1.0000
  H   H1608     1.0  0.87937  0.83808  0.85404  1.0000
  C   C2016     1.0  0.58016  0.76169  0.79956  1.0000
  C   C2017     1.0  0.71956  0.86658  0.92307  1.0000
  C   C2018     1.0  0.74179  0.87389  0.91154  1.0000
  C   C2019     1.0  0.75477  0.90112  0.90490  1.0000
  C   C2020     1.0  0.74551  0.92106  0.90966  1.0000
  C   C2021     1.0  0.72291  0.91351  0.92090  1.0000
  C   C2022     1.0  0.70995  0.88633  0.92755  1.0000
  H   H1609     1.0  0.74936  0.85879  0.90806  1.0000
  H   H1610     1.0  0.77226  0.90687  0.89620  1.0000
  H   H1611     1.0  0.71573  0.92872  0.92474  1.0000
  H   H1612     1.0  0.69273  0.88072  0.93643  1.0000
  C   C2023     1.0  0.64054  0.71959  0.85491  1.0000
  C   C2024     1.0  0.61247  0.71246  0.84971  1.0000
  C   C2025     1.0  0.60246  0.70556  0.83154  1.0000
  C   C2026     1.0  0.62039  0.70566  0.81812  1.0000
  C   C2027     1.0  0.64859  0.71341  0.82324  1.0000
  C   C2028     1.0  0.65860  0.72034  0.84140  1.0000
  H   H1613     1.0  0.59823  0.71207  0.85987  1.0000
  H   H1614     1.0  0.58085  0.69997  0.82794  1.0000
  H   H1615     1.0  0.66282  0.71377  0.81308  1.0000
  H   H1616     1.0  0.68023  0.72585  0.84498  1.0000
  C   C2029     1.0  0.83110  0.78525  0.85578  1.0000
  S   S282      1.0  0.96069  0.79072  0.93252  1.0000
  H   H1617     1.0  0.62845  0.93726  0.92780  1.0000
  H   H1618     1.0  0.68576  0.75748  0.97878  1.0000
  H   H1619     1.0  0.85075  0.80527  0.97359  1.0000
  C   C2030     1.0  0.86194  0.75278  0.91144  1.0000
  C   C2031     1.0  0.83311  0.73600  0.91334  1.0000
  C   C2032     1.0  0.81371  0.74721  0.91125  1.0000
  C   C2033     1.0  0.82292  0.77541  0.90716  1.0000
  C   C2034     1.0  0.85184  0.79229  0.90564  1.0000
  C   C2035     1.0  0.87117  0.78107  0.90781  1.0000
  H   H1620     1.0  0.82567  0.71408  0.91623  1.0000
  H   H1621     1.0  0.79158  0.73389  0.91241  1.0000
  H   H1622     1.0  0.85931  0.81413  0.90251  1.0000
  H   H1623     1.0  0.89321  0.79423  0.90665  1.0000
  H   H1624     1.0  0.65832  0.92287  0.78415  1.0000
  C   C2036     1.0  0.65354  0.90108  0.78601  1.0000
  H   H1625     1.0  0.54002  0.72631  0.80160  1.0000
  H   H1626     1.0  0.69484  0.98441  0.84260  1.0000
  S   S283      1.0  0.96142  0.77456  0.88935  1.0000
  C   C2037     1.0  0.67215  0.89407  0.79579  1.0000
  H   H1627     1.0  0.70660  0.79293  0.84443  1.0000
  H   H1628     1.0  0.78902  0.84535  0.97185  1.0000
  H   H1629     1.0  0.58890  0.74926  0.79304  1.0000
  C   C2038     1.0  0.57634  0.87523  0.82616  1.0000
  C   C2039     1.0  0.56933  0.86261  0.84282  1.0000
  C   C2040     1.0  0.59036  0.86392  0.85501  1.0000
  C   C2041     1.0  0.61858  0.87743  0.85049  1.0000
  C   C2042     1.0  0.62547  0.89029  0.83378  1.0000
  P   P68       1.0  0.64543  0.88104  0.86713  1.0000
  C   C2043     1.0  0.63991  0.89845  0.88652  1.0000
  C   C2044     1.0  0.64434  0.84773  0.87300  1.0000
  C   C2045     1.0  0.66696  0.84732  0.88294  1.0000
  C   C2046     1.0  0.66627  0.82190  0.88806  1.0000
  C   C2047     1.0  0.64308  0.79670  0.88335  1.0000
  C   C2048     1.0  0.62082  0.79681  0.87304  1.0000
  C   C2049     1.0  0.62147  0.82220  0.86777  1.0000
  C   C2050     1.0  0.63244  0.92036  0.88404  1.0000
  C   C2051     1.0  0.62814  0.93412  0.89888  1.0000
  C   C2052     1.0  0.63114  0.92609  0.91631  1.0000
  C   C2053     1.0  0.63853  0.90430  0.91888  1.0000
  C   C2054     1.0  0.64300  0.89055  0.90409  1.0000
  C   C2055     1.0  0.67976  0.90207  0.85882  1.0000
  C   C2056     1.0  0.69139  0.88988  0.84688  1.0000
  C   C2057     1.0  0.71857  0.90538  0.84108  1.0000
  C   C2058     1.0  0.73427  0.93312  0.84715  1.0000
  C   C2059     1.0  0.72269  0.94545  0.85884  1.0000
  C   C2060     1.0  0.69552  0.93009  0.86463  1.0000
  H   H1630     1.0  0.54765  0.85253  0.84648  1.0000
  H   H1631     1.0  0.58472  0.85499  0.86816  1.0000
  H   H1632     1.0  0.64703  0.90209  0.83023  1.0000
  H   H1633     1.0  0.68504  0.86669  0.88699  1.0000
  H   H1634     1.0  0.68367  0.82174  0.89586  1.0000
  H   H1635     1.0  0.64259  0.77704  0.88749  1.0000
  H   H1636     1.0  0.60313  0.77713  0.86911  1.0000
  H   H1637     1.0  0.60412  0.82165  0.85966  1.0000
  H   H1638     1.0  0.63060  0.92736  0.87065  1.0000
  C   C2061     1.0  0.83573  0.78435  0.96925  1.0000
  H   H1639     1.0  0.95521  0.84193  0.80687  1.0000
  H   H1640     1.0  0.64906  0.87404  0.90654  1.0000
  H   H1641     1.0  0.67963  0.86823  0.84236  1.0000
  H   H1642     1.0  0.72771  0.89572  0.83221  1.0000
  H   H1643     1.0  0.75558  0.94502  0.84307  1.0000
  H   H1644     1.0  0.73503  0.96679  0.86382  1.0000
  H   H1645     1.0  0.68729  0.94016  0.87387  1.0000
  C   C2062     1.0  0.64637  0.79251  0.82776  1.0000
  C   C2063     1.0  0.66492  0.78852  0.83972  1.0000
  C   C2064     1.0  0.58425  0.80589  0.81155  1.0000
  C   C2065     1.0  0.55641  0.79257  0.81658  1.0000
  C   C2066     1.0  0.54041  0.76391  0.81295  1.0000
  C   C2067     1.0  0.55243  0.74845  0.80467  1.0000
  H   H1646     1.0  0.62498  0.78574  0.83157  1.0000
  H   H1647     1.0  0.65779  0.77862  0.85243  1.0000
  H   H1648     1.0  0.59628  0.82811  0.81441  1.0000
  H   H1649     1.0  0.54709  0.80458  0.82293  1.0000
  H   H1650     1.0  0.51856  0.75374  0.81622  1.0000
  C   C2068     1.0  0.63704  0.75187  0.75890  1.0000
  C   C2069     1.0  0.93117  0.86023  0.88664  1.0000
  C   C2070     1.0  0.55199  0.78575  0.74421  1.0000
  C   C2071     1.0  0.79102  0.75364  0.95473  1.0000
  H   H1651     1.0  0.62330  0.95162  0.89682  1.0000
  C   C2072     1.0  0.82209  0.73472  0.96563  1.0000
  H   H1652     1.0  0.67790  0.96851  0.81098  1.0000
  C   C2073     1.0  0.93631  0.83676  0.88712  1.0000
  H   H1653     1.0  0.55725  0.59226  0.77115  1.0000
  C   C2074     1.0  0.67338  0.97889  0.83854  1.0000
  S   S284      1.0  0.57010  0.84198  0.74428  1.0000
  C   C2075     1.0  0.89194  0.70804  0.95657  1.0000
  C   C2076     1.0  0.51331  0.66702  0.83225  1.0000
  C   C2077     1.0  0.90194  0.79703  0.97179  1.0000
  C   C2078     1.0  0.52377  0.57818  0.78966  1.0000
  C   C2079     1.0  0.51401  0.58417  0.80561  1.0000
  H   H1654     1.0  0.55424  0.67210  0.89298  1.0000
  C   C2080     1.0  0.85030  0.70871  0.87301  1.0000
  C   C2081     1.0  0.91542  0.77151  0.80231  1.0000
  H   H1655     1.0  0.69140  0.91052  0.80159  1.0000
  H   H1656     1.0  0.67803  0.89674  0.74860  1.0000
  H   H1657     1.0  0.51045  0.55986  0.78144  1.0000
  C   C2082     1.0  0.54411  0.63430  0.85370  1.0000
  C   C2083     1.0  0.78398  0.65905  0.97648  1.0000
  P   P69       1.0  0.76877  0.94117  0.98061  1.0000
  H   H1658     1.0  0.79187  0.78482  0.86217  1.0000
  H   H1659     1.0  0.48338  0.51981  0.85635  1.0000
  H   H1660     1.0  0.72723  0.83008  0.98201  1.0000
  H   H1661     1.0  0.81732  0.98326  0.92485  1.0000
  C   C2084     1.0  0.77265  0.87162  0.95969  1.0000
  C   C2085     1.0  0.76809  0.89530  0.96183  1.0000
  H   H1662     1.0  0.96737  0.72325  0.84770  1.0000
  H   H1663     1.0  0.92563  0.83508  0.83289  1.0000
  C   C2086     1.0  0.87996  0.73617  0.97736  1.0000
  H   H1664     1.0  0.49312  0.57016  0.80951  1.0000
  C   C2087     1.0  0.79280  0.77462  0.83408  1.0000
  C   C2088     1.0  0.81056  0.78043  0.96060  1.0000
  C   C2089     1.0  0.94518  0.84030  0.97398  1.0000
  H   H1665     1.0  0.88283  0.74645  0.81976  1.0000
  H   H1666     1.0  0.94306  0.73328  0.97705  1.0000
  C   C2090     1.0  0.69275  0.93350  0.96152  1.0000
  C   C2091     1.0  0.72141  0.94440  0.96584  1.0000
  C   C2092     1.0  0.62164  0.85189  0.78176  1.0000
  H   H1667     1.0  0.58668  0.63570  0.78896  1.0000
  C   C2093     1.0  0.93588  0.79833  0.79866  1.0000
  S   S285      1.0  0.59443  0.91941  0.74586  1.0000
  P   P70       1.0  0.87498  0.76693  0.98208  1.0000
  C   C2094     1.0  0.75663  0.63843  0.97307  1.0000
  H   H1668     1.0  0.76544  0.85896  0.94734  1.0000
  H   H1669     1.0  0.75699  0.90032  0.95116  1.0000
  S   S286      1.0  0.70049  0.97248  0.91346  1.0000
  H   H1670     1.0  0.80620  0.79813  0.95820  1.0000
  H   H1671     1.0  0.82643  0.71689  0.96685  1.0000
  C   C2095     1.0  0.80856  0.77064  0.82064  1.0000
  H   H1672     1.0  0.78936  0.94394  0.94359  1.0000
  H   H1673     1.0  0.89687  0.74919  0.95110  1.0000
  H   H1674     1.0  0.94908  0.80144  0.78727  1.0000
  C   C2096     1.0  0.84173  0.76150  0.97179  1.0000
  H   H1675     1.0  0.68465  0.94616  0.95448  1.0000
  H   H1676     1.0  0.73510  0.96564  0.96222  1.0000
  C   C2097     1.0  0.58483  0.66161  0.88128  1.0000
  C   C2098     1.0  0.48257  0.82755  0.78683  1.0000
  C   C2099     1.0  0.92244  0.81713  0.82447  1.0000
  H   H1677     1.0  0.91277  0.75382  0.79375  1.0000
  H   H1678     1.0  0.77175  0.77184  0.83095  1.0000
  H   H1679     1.0  0.88162  0.78685  0.94523  1.0000
  H   H1680     1.0  0.97033  0.77349  0.83574  1.0000
  C   C2100     1.0  0.63215  0.79016  0.77402  1.0000
  C   C2101     1.0  0.91043  0.86046  0.87481  1.0000
  C   C2102     1.0  0.89931  0.80160  0.95340  1.0000
  C   C2103     1.0  0.93932  0.82113  0.80970  1.0000
  C   C2104     1.0  0.89850  0.76742  0.81706  1.0000
  H   H1681     1.0  0.78164  0.71017  0.95248  1.0000
  H   H1682     1.0  0.60095  0.67297  0.89158  1.0000
  H   H1683     1.0  0.88529  0.66745  0.96557  1.0000
  H   H1684     1.0  0.79929  0.66386  0.96618  1.0000
  C   C2105     1.0  0.69250  0.79642  0.83512  1.0000
  H   H1685     1.0  0.50149  0.77302  0.78317  1.0000
  H   H1686     1.0  0.64123  0.89830  0.93234  1.0000
  C   C2106     1.0  0.60435  0.88913  0.82170  1.0000
  C   C2107     1.0  0.66572  0.86593  0.79836  1.0000
  H   H1687     1.0  0.83569  0.73908  0.86690  1.0000
  H   H1688     1.0  0.61361  0.88545  0.77171  1.0000
  C   C2108     1.0  0.92056  0.81345  0.87587  1.0000
  C   C2109     1.0  0.65535  0.80432  0.81096  1.0000
  H   H1689     1.0  0.64113  0.73372  0.75966  1.0000
  C   C2110     1.0  0.87319  0.68953  0.98534  1.0000
  C   C2111     1.0  0.64049  0.84451  0.79118  1.0000
  C   C2112     1.0  0.68308  0.81194  0.80634  1.0000
  H   H1690     1.0  0.60150  0.83596  0.77673  1.0000
  C   C2113     1.0  0.61784  0.96479  0.82742  1.0000
  C   C2114     1.0  0.70162  0.80818  0.81844  1.0000
  H   H1691     1.0  0.89982  0.70570  0.94370  1.0000
  C   C2115     1.0  0.54984  0.80845  0.75235  1.0000
  C   C2116     1.0  0.84709  0.78122  0.84240  1.0000
  H   H1692     1.0  0.90647  0.87868  0.87443  1.0000
  C   C2117     1.0  0.62860  0.75876  0.74250  1.0000
  H   H1693     1.0  0.61696  0.81319  0.75656  1.0000
  C   C2118     1.0  0.67453  0.90629  0.96615  1.0000
  Fe  Fe143     1.0  0.55965  0.87740  0.75128  1.0000
  H   H1694     1.0  0.56015  0.87494  0.81689  1.0000
  H   H1695     1.0  0.92448  0.79535  0.87666  1.0000
  C   C2119     1.0  0.89962  0.81337  0.86401  1.0000
  C   C2120     1.0  0.56657  0.62106  0.79377  1.0000
  C   C2121     1.0  0.79634  0.96490  0.94906  1.0000
  S   S287      1.0  0.48581  0.58676  0.75477  1.0000
  C   C2122     1.0  0.53823  0.64756  0.86829  1.0000
  C   C2123     1.0  0.92512  0.81659  0.98202  1.0000
  H   H1696     1.0  0.64377  0.76051  0.78727  1.0000
  C   C2124     1.0  0.55676  0.62729  0.80962  1.0000
  H   H1697     1.0  0.95243  0.83655  0.89627  1.0000
  H   H1698     1.0  0.83129  0.69513  0.87951  1.0000
  H   H1699     1.0  0.75068  0.62734  0.96014  1.0000
  H   H1700     1.0  0.96775  0.70810  0.81592  1.0000
  C   C2125     1.0  0.94253  0.84449  0.95564  1.0000
  H   H1701     1.0  0.91500  0.71460  0.86497  1.0000
  H   H1702     1.0  0.95970  0.80866  0.85160  1.0000
  C   C2126     1.0  0.78903  0.96985  0.96628  1.0000
  C   C2127     1.0  0.55860  0.66135  0.88195  1.0000
  H   H1703     1.0  0.61362  0.97624  0.85479  1.0000
  H   H1704     1.0  0.52997  0.82144  0.77274  1.0000
  C   C2128     1.0  0.80410  0.78195  0.85163  1.0000
  H   H1705     1.0  0.61098  0.64810  0.86665  1.0000
  C   C2129     1.0  0.78581  0.86391  0.97354  1.0000
  H   H1706     1.0  0.51797  0.64747  0.86903  1.0000
  C   C2130     1.0  0.53609  0.75858  0.75008  1.0000
  C   C2131     1.0  0.63861  0.76730  0.77460  1.0000
  C   C2132     1.0  0.59051  0.64763  0.86717  1.0000
  H   H1707     1.0  0.94334  0.87825  0.89542  1.0000
  H   H1708     1.0  0.63863  0.79949  0.98578  1.0000
  H   H1709     1.0  0.69020  0.82046  0.79327  1.0000
  C   C2133     1.0  0.89754  0.71979  0.86493  1.0000
  H   H1710     1.0  0.56934  0.64702  0.81670  1.0000
  H   H1711     1.0  0.95831  0.86261  0.94934  1.0000
  H   H1712     1.0  0.72292  0.81392  0.81478  1.0000
  H   H1713     1.0  0.51769  0.56328  0.84298  1.0000
  H   H1714     1.0  0.91989  0.75871  0.85198  1.0000
  C   C2134     1.0  0.62175  0.78114  0.74179  1.0000
  C   C2135     1.0  0.79676  0.73082  0.95728  1.0000
  C   C2136     1.0  0.88355  0.68645  0.96884  1.0000
  H   H1715     1.0  0.87072  0.68263  0.87866  1.0000
  C   C2137     1.0  0.89030  0.73285  0.96084  1.0000
  C   C2138     1.0  0.63588  0.96298  0.81474  1.0000
  C   C2139     1.0  0.87255  0.70169  0.87257  1.0000
  C   C2140     1.0  0.87797  0.75214  0.85803  1.0000
  C   C2141     1.0  0.83561  0.77388  0.82476  1.0000
  C   C2142     1.0  0.85300  0.73389  0.86588  1.0000
  H   H1716     1.0  0.53289  0.67726  0.83998  1.0000
  C   C2143     1.0  0.90025  0.74488  0.85767  1.0000
  H   H1717     1.0  0.57495  0.62260  0.84297  1.0000
  H   H1718     1.0  0.79971  0.76480  0.80704  1.0000
  C   C2144     1.0  0.90207  0.79017  0.82837  1.0000
  C   C2145     1.0  0.57014  0.63367  0.85355  1.0000
  C   C2146     1.0  0.62769  0.97427  0.84533  1.0000
  C   C2147     1.0  0.62338  0.79671  0.75746  1.0000
  H   H1719     1.0  0.65234  0.89809  0.96305  1.0000
  P   P71       1.0  0.51758  0.61686  0.83609  1.0000
  H   H1720     1.0  0.91747  0.82838  0.93115  1.0000
  P   P72       1.0  0.88153  0.78438  0.84817  1.0000
  C   C2148     1.0  0.55007  0.59655  0.78378  1.0000
  H   H1721     1.0  0.67951  0.80398  0.96864  1.0000
  H   H1722     1.0  0.59646  0.95965  0.82333  1.0000
  H   H1723     1.0  0.53740  0.74121  0.74333  1.0000
  C   C2149     1.0  0.50071  0.68328  0.82565  1.0000
  C   C2150     1.0  0.68499  0.88956  0.97466  1.0000
  C   C2151     1.0  0.73198  0.92783  0.97470  1.0000
  C   C2152     1.0  0.66364  0.96983  0.82054  1.0000
  C   C2153     1.0  0.77695  0.91182  0.97777  1.0000
  H   H1724     1.0  0.48383  0.83746  0.75890  1.0000
  C   C2154     1.0  0.68258  0.81387  0.98192  1.0000
  H   H1725     1.0  0.67103  0.86814  0.97770  1.0000
  C   C2155     1.0  0.81247  0.98731  0.93833  1.0000
  C   C2156     1.0  0.49217  0.58515  0.84564  1.0000
  C   C2157     1.0  0.71352  0.90038  0.97911  1.0000
  C   C2158     1.0  0.65560  0.98171  0.85105  1.0000
  S   S288      1.0  0.50657  0.66340  0.74016  1.0000
  Fe  Fe144     1.0  0.74581  0.98590  0.90873  1.0000
  H   H1726     1.0  0.96288  0.85540  0.98197  1.0000
  C   C2159     1.0  0.73684  0.63229  0.98630  1.0000
  H   H1727     1.0  0.72120  0.88722  0.98585  1.0000
  C   C2160     1.0  0.66621  0.90131  0.73815  1.0000
  H   H1728     1.0  0.96218  0.50209  0.84637  1.0000
