data_image0
_chemical_formula_structural       H2CHSHSC2SFeS2FeS2FeHFeS2CFeC6H2CH2C2FeHCHCHC6H5CHC2HC2HC4H2CHCH3CHFeCHCH3C2HCHCHC2SCH4SHCHCH3C3H2CH2C2HCHC3H2CH4C2HC3H2C4HCHCH2C4H4PC4HC4H2C3H2C4H2CHCH5C2H2CSH3CHCH2CHPC2HCH3CHC3H3CHCH2CHCHCHCH3C2HC2HC3H3C2HC6H3C2HC3SC2S2FeS2FeS2FeSFeS3FeS2HSFeSFeS3HCHC2SCHFe2S2CHSC4HC3H2C7H4C6H4C6H4C6H2C6H5C2H2CHC2HC2HC2HC2H2C2H2CH2SHCHCHC2H2CFeH2CHC6PCH6CHC2HC2H2C3HC2HCHC2HC2FeHCHCHCHC2H2PC2HC2FeCHPH2CHC2HC3HC2H2C2H3CHC9HPCH3CH3CHC3HSC2H3CH2CHC4PH2CHC5H3C2H2CH4C2HC3HC3HCHCHCHC2HCHC10PC4H2C12H6CHCH6SH4C3SCH6C5H7C2H3SH2CHCHCFeCHCHCH2C2H2C2FeCSPCHSHCH2CH2CHCFeHCFeS2FeS2FeSFeS4FeHSHC2SFeS2FeSHFeSFeS2HFeS2FeS2FeSFeS3CSH5FeS2FeS2FeSFeS3CH3PHC3SH4C3HCH10C9H2C6H4C6H4C3H2C7H2C6H4C6H4C6H4C6H3C5H2CH2CHC5SH5CSC4SC2H2C2HPC4HC8H3CHCH2PCH4CH3CHCHCHC6HCH5C3H2C3H3C8PC18H17CH4C5H2C6H8CHCHCH2C3PC15HC2H9PC2H2CSHC2PC2H2C2HCHC2HPC3HCSH2C4HC2H6C2H2C2H2C3HFeSHC5HC3HC4H2C2HC3HC4HC2HC4HC5H2C2H3CHC4H2SH4CHCHC3HCHCHC3H3CHC2HCPC2HCSC6HC4H2CHC3HPC2H3C2HCH4CHC2HCPHCHCHFeSHCSCHSFeSFeH2S2FeS2FeSFeS3FeS2FeS2FeSFeS3FeHCFeS2HFeSHSHCHC8H2C6H4C6H5C3HC6H4C6H5C4HC11H2SCH3CH4CPC3HFeC3HC2SC6H3CHCH2CH3C3H6CH2C2HC2H2CH3CFeC7PCHCH4C8H2CHCH4CH2C2H4CH2C3HC2HCFeCH2CHC2H2CH2C3HC4H2CHC2HC5PC2HCHC2PC2H2CH3CH2PCH2CHC2H3C6H4CH2PCH2CSHCH4C2HC3H2C11HC5HCHCFeH4C3H2C2H2CHC6H3CH2CHSC5HCH2C2HCH3CHCHCHPC3HC2SHC4HC2HCH4C2H8C2HC2H2CHCHCHC3PFeS2FeS2FeSFeS3HCS2CFe2SFeS2FeS3FeSCFeS2FeSFeS3H2C2HC6H6C5H4PC2HC4HC6H4C6H4C6H4CH2C2HC4H4CH2CH3C6H2CH2C2SCHCH2CH2CHCSH4C2HCH2CH3C5HC2HPCHC2SPC4PC13H5CH4C2H4CHC2FeCHC7H2CHC5H2CH2CHC4H3C3H4C3HC2H2C5HCHCH2CH2C5HC3H2C3H4C2HC2H2C2PC7HCH3C2H2C2H2PCH5SH3CH3C4HCHC5HCH2C7HCH3CFeH6C8H2C2H4CHCH2CHC2HCHC2H2CHC2PFeCSFeSFeS2CFeHSFeS2FeSHS2FeS2FeSFeSFeS3C2HCS2CHC7H3C7H4C6H3C7H4C7H2CHC3H2C3HC3H4C2HCH3C2HC2H2C8H3CHCH5C2HPC3H2C2HC3HC4H3C2SC6SCHCHC6HCH2C2H4CH2C3SC2HCHCHCH2C2H2CH2C3H5CHC3HC2H2CH2C4H2SH2C2H2CHCHPHCHC7H4SCH2CH6CH3CFeCHPHPCHPC2HC3SFeCHCH2CH2SH2CH6C7SHC2HCH2C2HCH3C2H3C6HCSH2SFeS2FePHFeSHSHSFeS2FeSFeS3HSFeS2FeSFeSCS2CHC8H4C6H4C6H6C8H4C6H4CH3C5HCH3CH4C2H4C2H2C2SH2CHSC2H2CHCHCHCH2C3HCH3C6PC6HC5HCH5CH2CHC3H4C2H2C4HC6HCHC8H2CHCHC3H4CHCH3C2HCHC2PC4HSCHC4H2C2H5C2HCH2CH2CFeCHC3HCH2C3HFeCH3CHC5H2CHSH2CSC2HCH2C3H2C3HPCHCHCHSHC3HPCHC2SCHCHCHCH7CHCH2CFeCH3C3H2C3H3C2FeS2FeSHFeSFeS3PCSC3SCFeHSC2SHFeS2FeS2FeSFeS3CH2C8H4C3HC5H4C7H4C6H4C6H4CSH4C2H4C2HCSH2C4HC2H2CHCHC4H4C6PC3HCHC10PH8CH7CH2CH2CHC3HC2H4C4H2C2H5CH8C2HC2H2FeC5HCH5CH3C3H2C4HCHCHCH4C2HC2HCHCHCHCHC8H4CHC5HCHC5HCHCSPHC3H3C2HCHC2H3CHCH2PC10H2CPCHC3HCFeC2H2CSH2CH2SH2SC2H3C5HC2H2C2HCHCH2C2HSHCSCFeSH2CSFeS2FeSFeS3FeS2FeS2FeSFeS3CSFeS2FeCFeSCSCH2CSH2C7SH2C6H4C6HCH2C7H4C6H3C11H4CHC2HC2HPC6HCSHCHCH2CHPC2H2CH2C2PH5C2H3C2HC3H2CH3C3H2CHC3HFeCHCH3C5HC8H2C2HCH2SCH2CH2CH2CHCHC3H3C2H3C3H2CH2CHCHC2H2CHC2H2CHCHC3HC3H3CH2C2HC2H2CHCHCHCHCHC7H2C4H8C3HCPHCH2C2HCHCHCSHC2HCHCH2C2H3CHCPH2C4HPC2SH2C10H5C2H2CHCHCHC2H2C2HCHCHCH3C2HC2HC2HCPHC5Fe2C4H2C2FeHCHC2HCPCHC4HC2HC2SC2HCH3C5HPHCH4C3PHC2H2CHC3HCH5PC2HCHC2HCH2C3HCH4CFeS2FeS2FeSFeS3H2SFeCFeS2FeHFeHS2H2FeS2HCHSFe2S2PHS2FeS2FeS2FeSFeHS2CSHCH4CH4CHC6H4C6H4C7HCH5C7HC7H4C6H4C6H4C6H8C4HC3HCHC2HCSC7PC19H6CH8C2H2CH3CHPCSC3H3C7H6CHC6HCH4C4PC18H8CPH7CH2CHC3HCHC3H3C3HC7H3CH2SCHCSCHC6H2CHC2SH2C3H2C3PH3PC3FeH2C3HC3H2CHC6H5C8HCHC4HCH5CHC2HC5H2CH3C3H3CHCHC2HC3PFeHC2H5CH5C7HC3HCPH2CHC3HFeC2HCHC2HC2HC2H2CSC3HC4HCHPH2C2H2C2H2CHCFeC2HC2H2C2FeCH2CH4PHCHC3HC4PCHC5H2CHSH2FeCH2CHCH2CH4CHC5H5FeCSFeHSHSCS2CSCHFeSHSHCSHFeS2FeS2FeSFeS3FeSFeS2FeSFeS4HFeSH2C6H4C6H5C4HCHC3PHC7H7CH2CHCPCHCH2C6H4CHCH2C4H3SCH5C2H2C2HPC3H4C12H5CHCHCH10CH2CHCHC2HCSCHCH2CHC3H3C4H4C2H3C2HCHC3SCHCH2C3HCFe2C2H2FeH3C3HCHC6HCHC2H4CHC3H2FeH2C7HCHC3PCH3C6H4CHC4HC5H5CPHCHCH3C8PC18H2C3H5C2SH3C11HC3H2C5H6C2HCHC2H2CHCHC4H2SC2H2CH3CH3SFeH2CHCSC4H2CH3C2HC2FeS2FeSHCSHS2C4H2CHCH2C8H5C2H3C3H2CHC2HCHCH2C2H4C2HC2HC5HCH3CH3C2PC8SC10H2PH2CH7C2HCHCHCHCH2CHC2SC2FeC2HCH3CH7C2HCHC2HCHCH5C3FeH3CH5C5PC5PH2C2HCH2C2SCSHC2HCH5C3HCHC2HC5HCFeS2FeS2FeSFeS3HSCFeS2FeH2FeSFeHS2HC2SFeS2FeSFeSHSCSHFeSCFeS2FeS2FeSFeS3C7H4C6H4C6H4CH2CHC7H3CHCH3C6H4C6H4C6H4C6HCH3C6PC18H20C4PC10HC7H11CH6C6HC3H2SC2HCH3SCH4C3HC4HC6FeC4H2CHCH3C6HCH2CH4C2H5SHCHC13H2CH5C2HC2HC5H2CH2PH2C3H2C3HCH2C3HCHCHC2SHC2HCSFeCHC4HCH3SC3HC3HC2HC2H2CH9C2H2CHCH3CHCH6CHSCHC7HPCH3C4P2CH2CH4C2SCH3C2HP2C6HCH6CH2C4HC2HC2FeSHCHCHCHC2H2CPH3C3FeC2HCH4CHCHC2HPHCFeHCHCH2SCFeS2FeSFeSFeS3FeS2FeS2FeSFeS3H2FeS2FeCFeSCSCHSCHSH3C5H3C6H4C6H4C6H4C3H3C6H4C4H2C6HC4SH3CH6C4HCSHCFeC3HCH2C2FeH2CHCHCH2CSC3HC2HC3H2SFeC5HCHCHCHCH2CHC3PC14SHCSH10CHSC5HC2H3C2PHCHPCHCFeC4H2C3HCH2C2PH5C2H2CHC3PC8H10C7HC5H4CSCHC3HCH2C2H4C2HC3HC3H2C6H3CHC2HFeH4C5H2C4HC4HC2HC2H2CH2C2HC2PH2PCHCH2SC3PC3H5C3HCH3C3FeS2HSFeHFeS2H4CSCHCH3C3H3C4H2C3H2C6H4C2H4CHC2HC4HC3HCHCHC3HCHC2H2C2HC2HC2HCHSHC2HC2H2C2HCHCHC3H4C6H3C2H4CHCH2C2H2C2SC5HFePH3C3SCHCHC3HC2H2CH3C3H2C3HC7HPCH3C2SCHCHC2H3CH2CHCH2C2H2C6H2C2H4C3FeC5H6PH4C4H5C2H2CHCPFeHSFeS2FeSCS2FeS2FeSHFeSFeS3FeSFeS2FeSFeS4HCH2FeS2C2H4C2HC6H2CHC6H4C6H4C6H4C6H5SC3HCHC6PC18H21C2H2C3H2CH3C7H2FeHCHC3HPH2C3H3C6H2C3HC2H4CHC2HCH5CHC3HCHCHCHC2H2CHCHC2HPHC4PC7HC2HCHCHC2HCH7CH2CHCHCHCH3C3HC2HC6HC2H2C2HC2PC7HCPC4HC3PC2SHCHCH2C3H3C3HSH2CH2C2HC7H4CH4C2H2C2HCH6C2HCH4FeS2FeS2FeSFeS2FeSCS3FeSFeHSCHS2FeS2FeS2FeSFeS3CH2CHC3H2C6H4C2HC2HCH2C7H4C6H4C6H4C3HC3H3C2HC2H6C2HC2H4C2H3CSHCH2C2HCH2C4SH7C5H5CH2C2H2CH3C2HCHC3H3C2HC4PC8H2C6HCHC2HCH5PC2H2CHC2HFeHC2H3FeHC2H2CHCHC8PC19H11CH3CH3CH2CSCH4C3PC2HC2H4PHCHC3HC2HCH3CHCHCHC2H3C4H2CSHCSHC2FeS2FeSCSPCFeS2H2C2SFeHSFeSHFeCS2FeS2FeS2FeSFeS3C7H3C7H5C2HC2H2CHC3H2CHC8H3C6H4C6H5C6PC8H2C8H8SHCHCH7CHCHC2H2CH5C4H3C5SC3H2CHCFeHC2H2C4PH3C3HC2HCHSH4CHCHCHC3HC10PC18H13CH6C2HC3H2C3HC4H3CHCHC3H5C3H3C5H3C2H4C2HC11HCH2C2H8C2HCHC2HC2HCHC2H2CHC2H3C2H3C2HCPCHCHC3H4CSC2PCHC2H2C2H3CHCHFeHCH2PH2CHC2PH2C2H3CSFeHCH5C4HC3SH2CHSFeSHFeSFeSHCFeCH2CHFeS2FeSCFeSFeS3FeSFeSHFeSFeS3HSHSHCH5C7H5CHC3HC8H3CHC4H4C6H4C6H5C6H3SCH3C5HCPC6H5CHC4HC5H4PC2H3CHCHC4SH2C2H2C4SHCH2C2FeC7PC4PHC4H7C3HCH2C4HPHC6PC11SC6H12CH8CSC4HSH2CH2C2HSHC3H2C2HCH3CH5CH8C8H2CH3CHC2HC2HCH2C3HC2H3C2FeHCHCHC2HCH2SC2HC5H4C2SHCFeC2HC2HCHCH3C4HC2HCHC2SH2CH2C2FeS2FeS2FeSFeS3C3HSCHS2HFeSCFeS2FeS2FeSFeS3HC2HC2H3CPHC7H4FeC5H3CFeHC2H2C6H5C6H4C6H7PC2HCSCH3C7PC18H16CH2C4PC18H3CH13CH3CH2CHCHCHCPC3HCHC8H3CHPCH2CH4C2H5C3H3C2HPC6HC10HCHC4HCHCH9CH3C2HCHC2HC2HSC2H2C2H3CSHC3H2CSC2SHCPC3H2C2H2C8HC3H4CHFeC2HCHCHC4H4C2HCHCHCHCH8CHC5H2CSHCHSFeS2FeS2CFeS3FeSCSFeSFeSHFeS2HSFeSFeHS2HC2SC3H2C7H4C6H2C6H4C2HSC3H3C3HC7H4C7H3CH2C2HC5H2C2H3C2H2C3HC2H3C2FeHCH2C5H2CH2CHCH2SH4PHPHC2HCHC2HC3HC2HC2H2C2H2FeCH4C3HCHPHC2HC2H2C7PC7H2C3SHC3H16C3HC2HCSH2C3HC2HPHCHC2FeHCH2CFeHCSHC6H2CH7CH2C3FeCH2SH3CHSCHC3HC2HC3HCHC2HC2HCH4CSC2HCHCHCHC3SC2HSFeCFeSH2SFe3SCS3HCH2C6H7C4H2CHC3HCH2C3SH3C6HCH4CHSPC2H6C2HC2HC2HC2H3C2H5CPHC11H6C3HC5HCHCSH4C2HC7SHC6H2C2HC2HCH2C2FeHCH3CHPHCSC2H4CHC3H3C2HC2HC2FeCH2C4H2SH3CSFeCSCSFeCFeS2FeSHFeSFeSFeS2FeS2FeSFeS3FeSCFeS2FeSFeS3CHCHCHCSC6H5C5HC7H4CH2CHCHC6H5C2HPC6H6CSCHC2HCH2CH5C2HC5HC2H3SCSCHC2H3CHC2H2C3HFeH2C3HC2HC2H3C2H4C2FeCHCH6CH2C5H5C2H3C6HC2HC3HC3SH2C2H3CHCH4CHC2H2CH2CH2SFeHPC2HCHC5H4C4H2C2HCH2CHC6PCH3C2H10C9H2C2H2C4SCH11C5HSC2H2C8PC5HCH2C3H2C2H2C2HC2PH2C5HC5HC2HCHCHFeS2FeS2FeSFeS3CH2FeS2FeS2FeSFeS3CSHFeHFeS2FeS3HFeS2FeS2HFeS2FeS2FeSFeS4HPC3HC7HCH2C6H5C2HC6H5C4HCH2CH3C2H3C6H4C6H4C6H4C6H3C6PC18H20PC5PC2H4C4HC4H5CSCH6CH3C3HC3H2CHCH2PC4HC4HCH4C2HCH4CHC2HPC3H2C9HC7HCH3C2H3CPC4H2CPHC6HCHCHC2HC3H2C7H2C2HC2H2CHC2HC2HC5HCH3C4HC3H3C2HC2HCHC2HCH2C4P2C9HCHCH2CH3C2H3CHC2H3CH2CHCH3C6H2C3HCH3C2HSH4CHCFe2C2H3CH2C2H3C3HC6HCH2C2SHC3HCH3CH3CH2SCH5CHC2HCHC2H3C3HCSH5CHSCH3SH2C2SCH3C4HCHCPC2HC
_chemical_formula_sum              "H3936 C4920 S656 Fe328 P164"
_cell_length_a       70.9873
_cell_length_b       71.412
_cell_length_c       71.8501
_cell_angle_alpha    85.3357
_cell_angle_beta     84.3016
_cell_angle_gamma    84.0594

_space_group_name_H-M_alt    "P 1"
_space_group_IT_number       1

loop_
  _space_group_symop_operation_xyz
  'x, y, z'

loop_
  _atom_site_type_symbol
  _atom_site_label
  _atom_site_symmetry_multiplicity
  _atom_site_fract_x
  _atom_site_fract_y
  _atom_site_fract_z
  _atom_site_occupancy
  H   H1        1.0  0.48946  0.21514  0.06919  1.0000
  H   H2        1.0  0.40632  0.11956  0.24536  1.0000
  C   C1        1.0  0.04307  0.03561  0.27198  1.0000
  H   H3        1.0  0.17205  0.12740  0.00040  1.0000
  S   S1        1.0  0.39597  0.03295  0.22697  1.0000
  H   H4        1.0  0.49585  0.12651  0.21833  1.0000
  S   S2        1.0  0.39416  0.21635  0.02104  1.0000
  C   C2        1.0  0.48636  0.20100  0.02557  1.0000
  C   C3        1.0  0.33618  0.01976  0.02733  1.0000
  S   S3        1.0  0.47400  0.21026  0.15554  1.0000
  Fe  Fe1       1.0  0.45403  0.15057  0.25642  1.0000
  S   S4        1.0  0.48081  0.14626  0.27145  1.0000
  S   S5        1.0  0.44506  0.17738  0.23819  1.0000
  Fe  Fe2       1.0  0.43893  0.11376  0.27535  1.0000
  S   S6        1.0  0.46447  0.10747  0.29157  1.0000
  S   S7        1.0  0.41540  0.09377  0.28080  1.0000
  Fe  Fe3       1.0  0.46124  0.13834  0.29720  1.0000
  H   H5        1.0  0.48903  0.04219  0.18704  1.0000
  Fe  Fe4       1.0  0.48173  0.11573  0.26476  1.0000
  S   S8        1.0  0.43447  0.14416  0.28261  1.0000
  S   S9        1.0  0.45601  0.12059  0.24827  1.0000
  C   C4        1.0  0.46057  0.04940  0.28555  1.0000
  Fe  Fe5       1.0  0.37660  0.00923  0.23468  1.0000
  C   C5        1.0  0.45321  0.18597  0.21504  1.0000
  C   C6        1.0  0.44340  0.20219  0.20675  1.0000
  C   C7        1.0  0.44942  0.20979  0.18861  1.0000
  C   C8        1.0  0.46547  0.20130  0.17847  1.0000
  C   C9        1.0  0.47517  0.18496  0.18670  1.0000
  C   C10       1.0  0.46914  0.17736  0.20484  1.0000
  H   H6        1.0  0.43103  0.20892  0.21444  1.0000
  H   H7        1.0  0.44169  0.22227  0.18249  1.0000
  C   C11       1.0  0.47604  0.05881  0.27763  1.0000
  H   H8        1.0  0.47699  0.16502  0.21102  1.0000
  H   H9        1.0  0.29816  0.00498  0.08797  1.0000
  C   C12       1.0  0.47068  0.05104  0.23131  1.0000
  C   C13       1.0  0.02302  0.00128  0.30855  1.0000
  Fe  Fe6       1.0  0.37796  0.22857  0.99608  1.0000
  H   H10       1.0  0.15874  0.05214  0.01097  1.0000
  C   C14       1.0  0.39677  0.11988  0.32020  1.0000
  H   H11       1.0  0.46270  0.13374  0.21065  1.0000
  C   C15       1.0  0.48121  0.02017  0.28795  1.0000
  H   H12       1.0  0.47459  0.20169  0.24945  1.0000
  C   C16       1.0  0.40199  0.04884  0.24274  1.0000
  C   C17       1.0  0.41728  0.05979  0.23741  1.0000
  C   C18       1.0  0.42186  0.07330  0.24907  1.0000
  C   C19       1.0  0.41108  0.07610  0.26615  1.0000
  C   C20       1.0  0.39615  0.06475  0.27175  1.0000
  C   C21       1.0  0.39165  0.05115  0.26015  1.0000
  H   H13       1.0  0.42555  0.05791  0.22414  1.0000
  H   H14       1.0  0.43355  0.08173  0.24472  1.0000
  H   H15       1.0  0.38781  0.06671  0.28499  1.0000
  H   H16       1.0  0.37987  0.04282  0.26442  1.0000
  H   H17       1.0  0.24468  0.24634  0.04516  1.0000
  C   C22       1.0  0.25342  0.01236  0.30575  1.0000
  H   H18       1.0  0.41903  0.20476  0.05000  1.0000
  C   C23       1.0  0.01413  0.12268  0.99843  1.0000
  C   C24       1.0  0.41221  0.06506  0.18338  1.0000
  H   H19       1.0  0.13140  0.03729  0.02786  1.0000
  C   C25       1.0  0.03571  0.05657  0.04908  1.0000
  C   C26       1.0  0.49324  0.21299  0.05446  1.0000
  H   H20       1.0  0.41409  0.01017  0.18875  1.0000
  C   C27       1.0  0.02370  0.04449  0.05954  1.0000
  C   C28       1.0  0.46943  0.21629  0.25151  1.0000
  C   C29       1.0  0.41068  0.12831  0.23295  1.0000
  C   C30       1.0  0.42935  0.14565  0.13087  1.0000
  H   H21       1.0  0.31281  0.00381  0.05561  1.0000
  H   H22       1.0  0.02695  0.07531  0.99798  1.0000
  C   C31       1.0  0.17232  0.11357  0.99516  1.0000
  H   H23       1.0  0.39904  0.23923  0.21416  1.0000
  C   C32       1.0  0.32543  0.02987  0.99683  1.0000
  H   H24       1.0  0.43227  0.22218  0.07362  1.0000
  H   H25       1.0  0.19391  0.17917  0.99605  1.0000
  H   H26       1.0  0.27465  0.02995  0.03621  1.0000
  C   C33       1.0  0.00215  0.04247  0.20549  1.0000
  H   H27       1.0  0.03260  0.03946  0.20635  1.0000
  Fe  Fe7       1.0  0.46804  0.23829  0.13774  1.0000
  C   C34       1.0  0.43168  0.06414  0.18526  1.0000
  H   H28       1.0  0.47413  0.07371  0.27336  1.0000
  C   C35       1.0  0.27812  0.02854  0.00612  1.0000
  H   H29       1.0  0.46775  0.06261  0.24038  1.0000
  H   H30       1.0  0.39888  0.15436  0.24449  1.0000
  H   H31       1.0  0.47453  0.09983  0.16319  1.0000
  C   C36       1.0  0.41602  0.21991  0.05001  1.0000
  C   C37       1.0  0.47772  0.02153  0.20756  1.0000
  H   H32       1.0  0.28431  0.18626  0.00765  1.0000
  C   C38       1.0  0.43086  0.00425  0.25814  1.0000
  H   H33       1.0  0.03685  0.06280  0.32442  1.0000
  C   C39       1.0  0.48261  0.03961  0.20122  1.0000
  H   H34       1.0  0.45975  0.23655  0.02284  1.0000
  C   C40       1.0  0.46580  0.11606  0.18725  1.0000
  C   C41       1.0  0.30008  0.05750  0.31865  1.0000
  S   S10       1.0  0.01301  0.01616  0.02321  1.0000
  C   C42       1.0  0.44077  0.08072  0.18423  1.0000
  H   H35       1.0  0.28007  0.06053  0.26978  1.0000
  H   H36       1.0  0.00358  0.14931  0.06053  1.0000
  H   H37       1.0  0.48759  0.17822  0.17904  1.0000
  H   H38       1.0  0.06218  0.11999  0.32456  1.0000
  S   S11       1.0  0.47495  0.23826  0.10610  1.0000
  H   H39       1.0  0.48024  0.01027  0.19810  1.0000
  C   C43       1.0  0.47898  0.10542  0.17544  1.0000
  H   H40       1.0  0.11077  0.02013  0.01058  1.0000
  C   C44       1.0  0.01462  0.10342  0.00441  1.0000
  H   H41       1.0  0.45555  0.07957  0.18687  1.0000
  H   H42       1.0  0.32761  0.04867  0.01827  1.0000
  H   H43       1.0  0.36306  0.08755  0.30612  1.0000
  C   C45       1.0  0.01287  0.04348  0.25896  1.0000
  C   C46       1.0  0.02805  0.07204  0.03809  1.0000
  C   C47       1.0  0.40415  0.19987  0.31247  1.0000
  H   H44       1.0  0.39908  0.17073  0.31518  1.0000
  H   H45       1.0  0.39163  0.11392  0.30848  1.0000
  C   C48       1.0  0.43569  0.00323  0.20787  1.0000
  H   H46       1.0  0.42074  0.14347  0.11974  1.0000
  H   H47       1.0  0.44962  0.24425  0.28573  1.0000
  C   C49       1.0  0.41447  0.11300  0.32619  1.0000
  C   C50       1.0  0.04008  0.05198  0.28174  1.0000
  H   H48       1.0  0.00972  0.21949  0.16960  1.0000
  C   C51       1.0  0.29483  0.21271  0.99731  1.0000
  H   H49       1.0  0.42640  0.24086  0.99771  1.0000
  C   C52       1.0  0.28457  0.19719  0.99628  1.0000
  C   C53       1.0  0.40976  0.24771  0.20710  1.0000
  C   C54       1.0  0.40424  0.22949  0.03691  1.0000
  H   H50       1.0  0.33956  0.02334  0.04089  1.0000
  H   H51       1.0  0.47720  0.19380  0.01793  1.0000
  C   C55       1.0  0.33805  0.00086  0.02276  1.0000
  H   H52       1.0  0.44660  0.05712  0.28752  1.0000
  H   H53       1.0  0.42458  0.10491  0.21851  1.0000
  H   H54       1.0  0.01546  0.12607  0.03741  1.0000
  H   H55       1.0  0.42304  0.10175  0.31913  1.0000
  C   C56       1.0  0.46593  0.03294  0.23777  1.0000
  C   C57       1.0  0.28566  0.05979  0.28336  1.0000
  H   H56       1.0  0.03756  0.08140  0.03037  1.0000
  C   C58       1.0  0.42003  0.00430  0.27549  1.0000
  C   C59       1.0  0.30104  0.04672  0.28725  1.0000
  C   C60       1.0  0.27665  0.02068  0.02485  1.0000
  H   H57       1.0  0.43937  0.17128  0.11717  1.0000
  H   H58       1.0  0.05555  0.02577  0.27386  1.0000
  C   C61       1.0  0.48140  0.20382  0.04453  1.0000
  C   C62       1.0  0.40641  0.14786  0.23243  1.0000
  C   C63       1.0  0.46320  0.03012  0.29087  1.0000
  C   C64       1.0  0.27795  0.00098  0.02901  1.0000
  H   H59       1.0  0.26588  0.08228  0.29377  1.0000
  C   C65       1.0  0.35792  0.08034  0.31925  1.0000
  H   H60       1.0  0.47421  0.22490  0.22247  1.0000
  C   C66       1.0  0.00401  0.04802  0.05918  1.0000
  H   H61       1.0  0.03159  0.01844  0.25346  1.0000
  H   H62       1.0  0.29702  0.01126  0.31433  1.0000
  C   C67       1.0  0.12296  0.02637  0.00321  1.0000
  C   C68       1.0  0.07205  0.10319  0.28132  1.0000
  C   C69       1.0  0.00429  0.10380  0.28279  1.0000
  C   C70       1.0  0.01408  0.01723  0.31737  1.0000
  H   H63       1.0  0.03405  0.00566  0.21786  1.0000
  H   H64       1.0  0.48294  0.00532  0.29239  1.0000
  H   H65       1.0  0.40501  0.05226  0.18497  1.0000
  H   H66       1.0  0.36568  0.00234  0.29803  1.0000
  P   P1        1.0  0.44117  0.12019  0.18235  1.0000
  C   C71       1.0  0.42731  0.13128  0.20170  1.0000
  C   C72       1.0  0.44075  0.13588  0.16131  1.0000
  C   C73       1.0  0.45161  0.15143  0.15946  1.0000
  C   C74       1.0  0.45106  0.16413  0.14363  1.0000
  H   H67       1.0  0.20966  0.00959  0.27832  1.0000
  C   C75       1.0  0.43989  0.16130  0.12936  1.0000
  C   C76       1.0  0.42980  0.13294  0.14676  1.0000
  C   C77       1.0  0.42282  0.15093  0.20126  1.0000
  C   C78       1.0  0.41233  0.15913  0.21655  1.0000
  H   H68       1.0  0.05047  0.05468  0.29099  1.0000
  H   H69       1.0  0.43954  0.05058  0.18828  1.0000
  C   C79       1.0  0.42112  0.12005  0.21768  1.0000
  C   C80       1.0  0.43053  0.09841  0.18083  1.0000
  C   C81       1.0  0.24254  0.23670  0.99989  1.0000
  H   H70       1.0  0.37971  0.01484  0.32411  1.0000
  H   H71       1.0  0.42490  0.01164  0.24602  1.0000
  C   C82       1.0  0.40186  0.08256  0.18018  1.0000
  C   C83       1.0  0.41093  0.09916  0.17898  1.0000
  C   C84       1.0  0.00110  0.12590  0.04404  1.0000
  C   C85       1.0  0.47222  0.12431  0.20221  1.0000
  H   H72       1.0  0.26613  0.00915  0.29657  1.0000
  H   H73       1.0  0.25199  0.22008  0.02421  1.0000
  C   C86       1.0  0.42355  0.22974  0.06341  1.0000
  H   H74       1.0  0.46024  0.15401  0.17045  1.0000
  C   C87       1.0  0.00963  0.05962  0.26906  1.0000
  H   H75       1.0  0.37290  0.14065  0.32319  1.0000
  H   H76       1.0  0.02960  0.03235  0.06786  1.0000
  H   H77       1.0  0.42159  0.12094  0.14755  1.0000
  H   H78       1.0  0.42759  0.16012  0.18942  1.0000
  H   H79       1.0  0.40949  0.17434  0.21638  1.0000
  C   C88       1.0  0.46924  0.22963  0.23615  1.0000
  C   C89       1.0  0.33963  0.07431  0.32142  1.0000
  H   H80       1.0  0.43591  0.01784  0.21081  1.0000
  H   H81       1.0  0.03254  0.10527  0.32272  1.0000
  C   C90       1.0  0.00829  0.07525  0.03716  1.0000
  S   S12       1.0  0.34468  0.01137  0.23771  1.0000
  H   H82       1.0  0.38666  0.08326  0.17916  1.0000
  H   H83       1.0  0.40252  0.11264  0.17731  1.0000
  H   H84       1.0  0.05097  0.05386  0.04944  1.0000
  C   C91       1.0  0.47921  0.05433  0.21316  1.0000
  H   H85       1.0  0.30252  0.21386  0.00941  1.0000
  C   C92       1.0  0.02957  0.03147  0.26045  1.0000
  H   H86       1.0  0.41106  0.19905  0.29836  1.0000
  H   H87       1.0  0.46338  0.24136  0.05587  1.0000
  C   C93       1.0  0.32963  0.03417  0.01449  1.0000
  H   H88       1.0  0.44691  0.18235  0.31930  1.0000
  P   P2        1.0  0.01921  0.08478  0.29364  1.0000
  C   C94       1.0  0.46962  0.01797  0.22601  1.0000
  C   C95       1.0  0.49113  0.12058  0.20635  1.0000
  H   H89       1.0  0.30739  0.03729  0.27672  1.0000
  C   C96       1.0  0.30834  0.04571  0.30471  1.0000
  H   H90       1.0  0.46836  0.19895  0.05153  1.0000
  H   H91       1.0  0.45918  0.17633  0.14253  1.0000
  H   H92       1.0  0.01241  0.09606  0.25434  1.0000
  C   C97       1.0  0.13453  0.03610  0.01291  1.0000
  H   H93       1.0  0.45918  0.03080  0.25181  1.0000
  C   C98       1.0  0.01965  0.03246  0.20881  1.0000
  C   C99       1.0  0.27766  0.07198  0.29690  1.0000
  C   C100      1.0  0.25261  0.02788  0.31658  1.0000
  H   H94       1.0  0.46257  0.21111  0.28119  1.0000
  H   H95       1.0  0.26468  0.03608  0.31579  1.0000
  H   H96       1.0  0.27730  0.04369  0.00321  1.0000
  C   C101      1.0  0.24607  0.23379  0.01874  1.0000
  H   H97       1.0  0.00384  0.13291  0.00505  1.0000
  C   C102      1.0  0.46250  0.22158  0.26938  1.0000
  H   H98       1.0  0.05338  0.08816  0.26757  1.0000
  H   H99       1.0  0.47278  0.23708  0.19133  1.0000
  C   C103      1.0  0.14997  0.04453  0.00329  1.0000
  H   H100      1.0  0.14186  0.11421  0.99640  1.0000
  C   C104      1.0  0.00391  0.10587  0.26321  1.0000
  H   H101      1.0  0.27860  0.08077  0.32450  1.0000
  C   C105      1.0  0.02048  0.01343  0.21530  1.0000
  H   H102      1.0  0.00183  0.05717  0.20039  1.0000
  C   C106      1.0  0.28488  0.07094  0.31443  1.0000
  H   H103      1.0  0.32040  0.03559  0.30715  1.0000
  H   H104      1.0  0.48311  0.06835  0.20841  1.0000
  H   H105      1.0  0.33079  0.07714  0.30988  1.0000
  C   C107      1.0  0.02353  0.06437  0.27999  1.0000
  C   C108      1.0  0.45520  0.24023  0.27189  1.0000
  H   H106      1.0  0.45124  0.02294  0.29724  1.0000
  C   C109      1.0  0.22188  0.00601  0.31923  1.0000
  C   C110      1.0  0.39733  0.18377  0.32213  1.0000
  H   H107      1.0  0.40596  0.01184  0.27656  1.0000
  C   C111      1.0  0.00975  0.07642  0.31673  1.0000
  C   C112      1.0  0.49676  0.02956  0.27976  1.0000
  C   C113      1.0  0.40247  0.21687  0.32114  1.0000
  H   H108      1.0  0.40808  0.22923  0.31376  1.0000
  H   H109      1.0  0.42722  0.24381  0.22999  1.0000
  H   H110      1.0  0.08299  0.10291  0.26968  1.0000
  C   C114      1.0  0.05530  0.09475  0.28021  1.0000
  C   C115      1.0  0.49405  0.04903  0.27500  1.0000
  H   H111      1.0  0.17573  0.00837  0.27381  1.0000
  C   C116      1.0  0.00381  0.00438  0.21849  1.0000
  C   C117      1.0  0.48388  0.24636  0.19114  1.0000
  C   C118      1.0  0.06035  0.11279  0.31225  1.0000
  C   C119      1.0  0.23805  0.00125  0.30696  1.0000
  C   C120      1.0  0.04361  0.10433  0.31120  1.0000
  C   C121      1.0  0.04111  0.09499  0.29529  1.0000
  H   H112      1.0  0.21393  0.00079  0.99808  1.0000
  H   H113      1.0  0.08752  0.11879  0.29816  1.0000
  H   H114      1.0  0.00186  0.03966  0.25096  1.0000
  C   C122      1.0  0.07459  0.11216  0.29735  1.0000
  C   C123      1.0  0.49796  0.10179  0.17953  1.0000
  H   H115      1.0  0.40792  0.00012  0.05800  1.0000
  C   C124      1.0  0.99866  0.00605  0.28638  1.0000
  C   C125      1.0  0.37883  0.99979  0.32397  1.0000
  C   C126      1.0  0.42324  0.99896  0.19528  1.0000
  S   S13       1.0  0.32742  0.99883  0.28770  1.0000
  C   C127      1.0  0.46213  0.24849  0.23853  1.0000
  C   C128      1.0  0.02713  0.09037  0.99450  1.0000
  S   S14       1.0  0.02487  0.22776  0.39762  1.0000
  S   S15       1.0  0.26235  0.02707  0.40862  1.0000
  Fe  Fe8       1.0  0.26380  0.12273  0.49833  1.0000
  S   S16       1.0  0.23368  0.12666  0.49073  1.0000
  S   S17       1.0  0.27486  0.10208  0.52150  1.0000
  Fe  Fe9       1.0  0.27844  0.14888  0.46500  1.0000
  S   S18       1.0  0.24909  0.15440  0.45484  1.0000
  S   S19       1.0  0.30211  0.16308  0.44659  1.0000
  Fe  Fe10      1.0  0.23827  0.15748  0.48500  1.0000
  S   S20       1.0  0.21800  0.18178  0.49662  1.0000
  Fe  Fe11      1.0  0.24677  0.12318  0.46117  1.0000
  S   S21       1.0  0.23288  0.10617  0.44162  1.0000
  S   S22       1.0  0.26781  0.15379  0.49491  1.0000
  S   S23       1.0  0.27666  0.11743  0.46901  1.0000
  Fe  Fe12      1.0  0.40502  0.20399  0.44689  1.0000
  S   S24       1.0  0.43416  0.19223  0.43514  1.0000
  S   S25       1.0  0.38394  0.18483  0.46310  1.0000
  H   H116      1.0  0.14912  0.02020  0.63173  1.0000
  S   S26       1.0  0.44440  0.23609  0.42520  1.0000
  Fe  Fe13      1.0  0.43067  0.21435  0.41119  1.0000
  S   S27       1.0  0.43563  0.21235  0.37926  1.0000
  Fe  Fe14      1.0  0.44588  0.21460  0.45021  1.0000
  S   S28       1.0  0.47192  0.20448  0.46674  1.0000
  S   S29       1.0  0.40074  0.22468  0.42207  1.0000
  S   S30       1.0  0.41700  0.22499  0.46311  1.0000
  H   H117      1.0  0.33162  0.20505  0.48557  1.0000
  C   C129      1.0  0.39132  0.16456  0.41528  1.0000
  H   H118      1.0  0.46210  0.14690  0.36769  1.0000
  C   C130      1.0  0.28808  0.09696  0.37682  1.0000
  C   C131      1.0  0.49056  0.23892  0.40077  1.0000
  S   S31       1.0  0.22172  0.02198  0.61763  1.0000
  C   C132      1.0  0.31036  0.05035  0.40358  1.0000
  H   H119      1.0  0.20845  0.02525  0.33920  1.0000
  Fe  Fe15      1.0  0.21683  0.02506  0.64878  1.0000
  Fe  Fe16      1.0  0.23417  0.04982  0.61598  1.0000
  S   S32       1.0  0.22388  0.07227  0.59387  1.0000
  S   S33       1.0  0.26384  0.03696  0.61982  1.0000
  C   C133      1.0  0.13263  0.04722  0.62858  1.0000
  H   H120      1.0  0.02715  0.20706  0.58299  1.0000
  S   S34       1.0  0.14512  0.22628  0.46194  1.0000
  C   C134      1.0  0.35221  0.22029  0.49663  1.0000
  C   C135      1.0  0.31803  0.13044  0.40327  1.0000
  C   C136      1.0  0.34594  0.05996  0.41083  1.0000
  C   C137      1.0  0.41798  0.19414  0.50331  1.0000
  H   H121      1.0  0.38063  0.20271  0.36341  1.0000
  C   C138      1.0  0.48451  0.21115  0.48529  1.0000
  C   C139      1.0  0.47918  0.22764  0.49459  1.0000
  C   C140      1.0  0.00766  0.22157  0.56434  1.0000
  H   H122      1.0  0.07008  0.20463  0.59275  1.0000
  H   H123      1.0  0.11907  0.04130  0.63071  1.0000
  C   C141      1.0  0.36322  0.06740  0.35070  1.0000
  C   C142      1.0  0.19832  0.19453  0.48621  1.0000
  C   C143      1.0  0.18975  0.21123  0.49388  1.0000
  C   C144      1.0  0.17361  0.22130  0.48655  1.0000
  C   C145      1.0  0.16579  0.21467  0.47149  1.0000
  C   C146      1.0  0.17441  0.19804  0.46380  1.0000
  C   C147      1.0  0.19063  0.18807  0.47101  1.0000
  H   H124      1.0  0.19560  0.21634  0.50563  1.0000
  H   H125      1.0  0.16712  0.23404  0.49265  1.0000
  H   H126      1.0  0.16847  0.19278  0.45217  1.0000
  H   H127      1.0  0.19700  0.17525  0.46500  1.0000
  C   C148      1.0  0.23814  0.07990  0.57353  1.0000
  C   C149      1.0  0.25733  0.07322  0.57031  1.0000
  C   C150      1.0  0.26828  0.07996  0.55418  1.0000
  C   C151      1.0  0.26022  0.09341  0.54111  1.0000
  C   C152      1.0  0.24092  0.09980  0.54415  1.0000
  C   C153      1.0  0.22997  0.09310  0.56031  1.0000
  H   H128      1.0  0.26379  0.06306  0.58035  1.0000
  H   H129      1.0  0.28317  0.07491  0.55194  1.0000
  H   H130      1.0  0.23454  0.11014  0.53421  1.0000
  H   H131      1.0  0.21514  0.09833  0.56268  1.0000
  C   C154      1.0  0.32436  0.16978  0.45198  1.0000
  C   C155      1.0  0.33234  0.16340  0.46866  1.0000
  C   C156      1.0  0.35053  0.16817  0.47178  1.0000
  C   C157      1.0  0.36087  0.17968  0.45849  1.0000
  C   C158      1.0  0.35268  0.18646  0.44202  1.0000
  C   C159      1.0  0.33465  0.18137  0.43872  1.0000
  H   H132      1.0  0.32457  0.15468  0.47910  1.0000
  H   H133      1.0  0.35664  0.16294  0.48464  1.0000
  H   H134      1.0  0.36036  0.19543  0.43171  1.0000
  H   H135      1.0  0.32864  0.18644  0.42578  1.0000
  C   C160      1.0  0.32395  0.17987  0.34571  1.0000
  C   C161      1.0  0.44235  0.19532  0.34585  1.0000
  C   C162      1.0  0.44356  0.19297  0.36536  1.0000
  C   C163      1.0  0.45064  0.17535  0.37315  1.0000
  C   C164      1.0  0.45645  0.16038  0.36153  1.0000
  C   C165      1.0  0.13028  0.11164  0.63313  1.0000
  H   H136      1.0  0.43705  0.20890  0.33965  1.0000
  H   H137      1.0  0.45173  0.17325  0.38809  1.0000
  C   C166      1.0  0.25304  0.04803  0.41937  1.0000
  C   C167      1.0  0.26441  0.05638  0.43073  1.0000
  C   C168      1.0  0.25825  0.07391  0.43814  1.0000
  C   C169      1.0  0.24073  0.08338  0.43404  1.0000
  C   C170      1.0  0.22920  0.07481  0.42305  1.0000
  C   C171      1.0  0.23522  0.05716  0.41588  1.0000
  H   H138      1.0  0.27808  0.04931  0.43377  1.0000
  H   H139      1.0  0.26712  0.08018  0.44684  1.0000
  H   H140      1.0  0.21558  0.08198  0.41989  1.0000
  H   H141      1.0  0.22631  0.05091  0.40720  1.0000
  H   H142      1.0  0.39654  0.11846  0.42204  1.0000
  C   C172      1.0  0.31394  0.11408  0.41453  1.0000
  C   C173      1.0  0.32804  0.01949  0.34266  1.0000
  H   H143      1.0  0.06041  0.22369  0.41443  1.0000
  H   H144      1.0  0.14605  0.09400  0.55382  1.0000
  C   C174      1.0  0.30037  0.08598  0.36466  1.0000
  H   H145      1.0  0.21402  0.23968  0.44399  1.0000
  C   C175      1.0  0.24197  0.21963  0.47720  1.0000
  C   C176      1.0  0.01280  0.20828  0.57874  1.0000
  H   H146      1.0  0.07690  0.24540  0.43129  1.0000
  C   C177      1.0  0.39395  0.21779  0.33948  1.0000
  C   C178      1.0  0.38703  0.20174  0.34914  1.0000
  H   H147      1.0  0.37156  0.21916  0.57870  1.0000
  C   C179      1.0  0.42156  0.12125  0.34067  1.0000
  C   C180      1.0  0.27502  0.06651  0.36158  1.0000
  H   H148      1.0  0.39306  0.23083  0.34639  1.0000
  C   C181      1.0  0.29404  0.07041  0.35716  1.0000
  C   C182      1.0  0.23189  0.22151  0.46133  1.0000
  H   H149      1.0  0.11567  0.01520  0.37432  1.0000
  H   H150      1.0  0.47605  0.19634  0.39360  1.0000
  C   C183      1.0  0.22142  0.23861  0.45651  1.0000
  C   C184      1.0  0.02192  0.06598  0.32887  1.0000
  H   H151      1.0  0.24960  0.23335  0.50053  1.0000
  H   H152      1.0  0.35623  0.24741  0.44761  1.0000
  C   C185      1.0  0.34404  0.04196  0.40529  1.0000
  H   H153      1.0  0.37241  0.06465  0.36199  1.0000
  H   H154      1.0  0.31469  0.08979  0.36114  1.0000
  S   S35       1.0  0.46313  0.14335  0.32813  1.0000
  H   H155      1.0  0.26950  0.05507  0.35544  1.0000
  C   C186      1.0  0.22498  0.01177  0.56606  1.0000
  H   H156      1.0  0.34961  0.19355  0.34425  1.0000
  C   C187      1.0  0.13234  0.24578  0.56623  1.0000
  H   H157      1.0  0.23192  0.20953  0.45297  1.0000
  C   C188      1.0  0.31216  0.06827  0.40932  1.0000
  C   C189      1.0  0.26954  0.09231  0.38195  1.0000
  H   H158      1.0  0.35140  0.21209  0.50999  1.0000
  H   H159      1.0  0.41765  0.17562  0.40442  1.0000
  C   C190      1.0  0.43452  0.20017  0.50894  1.0000
  Fe  Fe17      1.0  0.25624  0.03843  0.65103  1.0000
  H   H160      1.0  0.41840  0.18044  0.49771  1.0000
  H   H161      1.0  0.44780  0.19117  0.50771  1.0000
  C   C191      1.0  0.43399  0.21794  0.51589  1.0000
  H   H162      1.0  0.05833  0.23805  0.54424  1.0000
  C   C192      1.0  0.17391  0.18001  0.52963  1.0000
  C   C193      1.0  0.17262  0.16479  0.51894  1.0000
  C   C194      1.0  0.15484  0.16046  0.51472  1.0000
  C   C195      1.0  0.13835  0.17151  0.52100  1.0000
  C   C196      1.0  0.13957  0.18716  0.53132  1.0000
  C   C197      1.0  0.15747  0.19116  0.53585  1.0000
  P   P3        1.0  0.11832  0.20221  0.53814  1.0000
  C   C198      1.0  0.39310  0.14328  0.34338  1.0000
  H   H163      1.0  0.41153  0.17495  0.37139  1.0000
  H   H164      1.0  0.18780  0.18357  0.53243  1.0000
  H   H165      1.0  0.18552  0.15673  0.51351  1.0000
  H   H166      1.0  0.15392  0.14890  0.50609  1.0000
  H   H167      1.0  0.12470  0.16823  0.51728  1.0000
  H   H168      1.0  0.15891  0.20317  0.54368  1.0000
  C   C199      1.0  0.31625  0.01918  0.65445  1.0000
  H   H169      1.0  0.36522  0.11041  0.43648  1.0000
  C   C200      1.0  0.29521  0.11250  0.42245  1.0000
  C   C201      1.0  0.32595  0.11048  0.45619  1.0000
  H   H170      1.0  0.14255  0.08327  0.58737  1.0000
  C   C202      1.0  0.45516  0.16272  0.34201  1.0000
  C   C203      1.0  0.10146  0.20989  0.48485  1.0000
  H   H171      1.0  0.30049  0.16268  0.34821  1.0000
  H   H172      1.0  0.31525  0.19285  0.34227  1.0000
  C   C204      1.0  0.34610  0.24217  0.53597  1.0000
  C   C205      1.0  0.32623  0.03714  0.40170  1.0000
  C   C206      1.0  0.21921  0.00357  0.55084  1.0000
  H   H173      1.0  0.09919  0.15134  0.62935  1.0000
  C   C207      1.0  0.12202  0.12908  0.62580  1.0000
  C   C208      1.0  0.26299  0.07715  0.37423  1.0000
  H   H174      1.0  0.40507  0.11623  0.38797  1.0000
  C   C209      1.0  0.12876  0.23872  0.52906  1.0000
  H   H175      1.0  0.07321  0.21600  0.47608  1.0000
  C   C210      1.0  0.36973  0.07684  0.33385  1.0000
  C   C211      1.0  0.23456  0.01346  0.45896  1.0000
  H   H176      1.0  0.21243  0.99957  0.44891  1.0000
  C   C212      1.0  0.14813  0.09668  0.58319  1.0000
  C   C213      1.0  0.09710  0.12928  0.65147  1.0000
  Fe  Fe18      1.0  0.25105  0.00907  0.62303  1.0000
  H   H177      1.0  0.38208  0.10572  0.36813  1.0000
  C   C214      1.0  0.34225  0.22612  0.46523  1.0000
  H   H178      1.0  0.35635  0.03167  0.40393  1.0000
  C   C215      1.0  0.36570  0.23651  0.53376  1.0000
  H   H179      1.0  0.12535  0.21750  0.57340  1.0000
  C   C216      1.0  0.33577  0.23948  0.55343  1.0000
  H   H180      1.0  0.04102  0.23887  0.35223  1.0000
  C   C217      1.0  0.18690  0.11658  0.65734  1.0000
  C   C218      1.0  0.10531  0.11205  0.65895  1.0000
  H   H181      1.0  0.30692  0.15777  0.39187  1.0000
  H   H182      1.0  0.47598  0.22889  0.37906  1.0000
  P   P4        1.0  0.15149  0.09997  0.62126  1.0000
  C   C219      1.0  0.34498  0.06126  0.35288  1.0000
  C   C220      1.0  0.33308  0.06458  0.33823  1.0000
  H   H183      1.0  0.35751  0.15355  0.38897  1.0000
  C   C221      1.0  0.11253  0.20669  0.50005  1.0000
  C   C222      1.0  0.33228  0.09459  0.44611  1.0000
  Fe  Fe19      1.0  0.03126  0.22234  0.65121  1.0000
  C   C223      1.0  0.16091  0.12506  0.59069  1.0000
  H   H184      1.0  0.41706  0.24376  0.52189  1.0000
  P   P5        1.0  0.38000  0.16380  0.35322  1.0000
  H   H185      1.0  0.32143  0.12391  0.44904  1.0000
  H   H186      1.0  0.16058  0.24777  0.42903  1.0000
  C   C224      1.0  0.29289  0.99969  0.55523  1.0000
  H   H187      1.0  0.12809  0.09006  0.65610  1.0000
  C   C225      1.0  0.33104  0.09218  0.48544  1.0000
  C   C226      1.0  0.39125  0.01100  0.65955  1.0000
  H   H188      1.0  0.33242  0.13260  0.39780  1.0000
  C   C227      1.0  0.32515  0.10918  0.47576  1.0000
  C   C228      1.0  0.32998  0.07329  0.41301  1.0000
  C   C229      1.0  0.13324  0.06677  0.62576  1.0000
  H   H189      1.0  0.36397  0.15399  0.42192  1.0000
  C   C230      1.0  0.37079  0.15815  0.39202  1.0000
  C   C231      1.0  0.31563  0.16287  0.34907  1.0000
  H   H190      1.0  0.01990  0.02164  0.32946  1.0000
  H   H191      1.0  0.24454  0.01045  0.44693  1.0000
  C   C232      1.0  0.09661  0.00158  0.35949  1.0000
  C   C233      1.0  0.28073  0.12666  0.41859  1.0000
  H   H192      1.0  0.99898  0.13154  0.56195  1.0000
  H   H193      1.0  0.35983  0.06334  0.41376  1.0000
  H   H194      1.0  0.29949  0.07792  0.41093  1.0000
  C   C234      1.0  0.40114  0.17016  0.38227  1.0000
  H   H195      1.0  0.26018  0.10046  0.39186  1.0000
  C   C235      1.0  0.99872  0.20726  0.43739  1.0000
  C   C236      1.0  0.48963  0.23217  0.50915  1.0000
  C   C237      1.0  0.48261  0.20681  0.40020  1.0000
  C   C238      1.0  0.30268  0.00516  0.37120  1.0000
  C   C239      1.0  0.15008  0.10273  0.56413  1.0000
  C   C240      1.0  0.36445  0.22562  0.56677  1.0000
  C   C241      1.0  0.08168  0.21299  0.48791  1.0000
  C   C242      1.0  0.09101  0.20333  0.56892  1.0000
  C   C243      1.0  0.05376  0.23772  0.41679  1.0000
  H   H196      1.0  0.16530  0.13381  0.60080  1.0000
  P   P6        1.0  0.33276  0.09629  0.42081  1.0000
  C   C244      1.0  0.10851  0.17278  0.56448  1.0000
  H   H197      1.0  0.29677  0.00776  0.56619  1.0000
  H   H198      1.0  0.31973  0.12134  0.48347  1.0000
  H   H199      1.0  0.44679  0.22246  0.52047  1.0000
  C   C245      1.0  0.08078  0.19567  0.58485  1.0000
  H   H200      1.0  0.10099  0.15036  0.58498  1.0000
  H   H201      1.0  0.35055  0.09724  0.38239  1.0000
  H   H202      1.0  0.05762  0.21535  0.50859  1.0000
  C   C246      1.0  0.38426  0.16390  0.37759  1.0000
  H   H203      1.0  0.29525  0.01094  0.46078  1.0000
  C   C247      1.0  0.37437  0.15843  0.41079  1.0000
  C   C248      1.0  0.22098  0.02177  0.32974  1.0000
  C   C249      1.0  0.35563  0.10292  0.41052  1.0000
  H   H204      1.0  0.29652  0.04663  0.40086  1.0000
  S   S36       1.0  0.22723  0.05381  0.64678  1.0000
  C   C250      1.0  0.31289  0.03161  0.35037  1.0000
  C   C251      1.0  0.15357  0.10779  0.59662  1.0000
  H   H205      1.0  0.18145  0.06789  0.62212  1.0000
  H   H206      1.0  0.31847  0.04889  0.64846  1.0000
  H   H207      1.0  0.33383  0.22266  0.45444  1.0000
  C   C252      1.0  0.41125  0.02006  0.63151  1.0000
  H   H208      1.0  0.15053  0.00399  0.34938  1.0000
  H   H209      1.0  0.26634  0.12540  0.42490  1.0000
  C   C253      1.0  0.10496  0.19196  0.55857  1.0000
  H   H210      1.0  0.26386  0.99964  0.56680  1.0000
  C   C254      1.0  0.40465  0.17051  0.40101  1.0000
  C   C255      1.0  0.22131  0.01260  0.53282  1.0000
  C   C256      1.0  0.40061  0.22426  0.51037  1.0000
  C   C257      1.0  0.35483  0.24003  0.46139  1.0000
  P   P7        1.0  0.30972  0.05612  0.34121  1.0000
  H   H211      1.0  0.10831  0.21053  0.47066  1.0000
  H   H212      1.0  0.24973  0.20620  0.48109  1.0000
  C   C258      1.0  0.07293  0.21265  0.50622  1.0000
  H   H213      1.0  0.39404  0.16493  0.42983  1.0000
  C   C259      1.0  0.28491  0.14286  0.40737  1.0000
  C   C260      1.0  0.12518  0.22471  0.54347  1.0000
  C   C261      1.0  0.17069  0.11215  0.64965  1.0000
  C   C262      1.0  0.08437  0.17659  0.59064  1.0000
  C   C263      1.0  0.21630  0.00760  0.45990  1.0000
  H   H214      1.0  0.16863  0.14433  0.56713  1.0000
  H   H215      1.0  0.12822  0.13598  0.61304  1.0000
  H   H216      1.0  0.32034  0.13301  0.35632  1.0000
  C   C264      1.0  0.30032  0.02420  0.36486  1.0000
  C   C265      1.0  0.16766  0.06247  0.62387  1.0000
  H   H217      1.0  0.43569  0.11649  0.34472  1.0000
  H   H218      1.0  0.33691  0.22904  0.58234  1.0000
  C   C266      1.0  0.37482  0.22827  0.54932  1.0000
  H   H219      1.0  0.39359  0.03980  0.64824  1.0000
  H   H220      1.0  0.11920  0.16371  0.55687  1.0000
  H   H221      1.0  0.02784  0.21219  0.43909  1.0000
  H   H222      1.0  0.34367  0.06521  0.44861  1.0000
  C   C267      1.0  0.36051  0.10181  0.39116  1.0000
  C   C268      1.0  0.01316  0.21590  0.44421  1.0000
  H   H223      1.0  0.15905  0.12454  0.54358  1.0000
  C   C269      1.0  0.99934  0.19705  0.58813  1.0000
  C   C270      1.0  0.16279  0.13109  0.57163  1.0000
  C   C271      1.0  0.33793  0.07647  0.47552  1.0000
  H   H224      1.0  0.34280  0.06339  0.48304  1.0000
  C   C272      1.0  0.35484  0.16349  0.35132  1.0000
  C   C273      1.0  0.08395  0.20913  0.52146  1.0000
  C   C274      1.0  0.36464  0.23453  0.49303  1.0000
  H   H225      1.0  0.28863  0.03279  0.37154  1.0000
  C   C275      1.0  0.10387  0.20616  0.51852  1.0000
  H   H226      1.0  0.46697  0.23689  0.49065  1.0000
  C   C276      1.0  0.39827  0.02503  0.64667  1.0000
  H   H227      1.0  0.07682  0.20897  0.53544  1.0000
  C   C277      1.0  0.15741  0.11992  0.55835  1.0000
  H   H228      1.0  0.18004  0.03369  0.62692  1.0000
  C   C278      1.0  0.09823  0.16515  0.58047  1.0000
  C   C279      1.0  0.34096  0.21624  0.48283  1.0000
  H   H229      1.0  0.32467  0.02316  0.39755  1.0000
  C   C280      1.0  0.33844  0.07760  0.45594  1.0000
  H   H230      1.0  0.12788  0.20498  0.49727  1.0000
  C   C281      1.0  0.32683  0.14616  0.35362  1.0000
  C   C282      1.0  0.15075  0.07461  0.62402  1.0000
  C   C283      1.0  0.32532  0.03567  0.65414  1.0000
  C   C284      1.0  0.16698  0.04294  0.62641  1.0000
  C   C285      1.0  0.29041  0.03460  0.50736  1.0000
  C   C286      1.0  0.29617  0.05167  0.49903  1.0000
  C   C287      1.0  0.28272  0.06566  0.49244  1.0000
  C   C288      1.0  0.26341  0.06281  0.49453  1.0000
  C   C289      1.0  0.25747  0.04580  0.50323  1.0000
  C   C290      1.0  0.27115  0.03159  0.50931  1.0000
  P   P8        1.0  0.23264  0.04181  0.50669  1.0000
  C   C291      1.0  0.21809  0.06413  0.50479  1.0000
  C   C292      1.0  0.22657  0.02802  0.48852  1.0000
  C   C293      1.0  0.23978  0.02350  0.47327  1.0000
  C   C294      1.0  0.20296  0.01242  0.47478  1.0000
  H   H231      1.0  0.08807  0.21821  0.56477  1.0000
  H   H232      1.0  0.06300  0.24714  0.37423  1.0000
  C   C295      1.0  0.20796  0.02288  0.48887  1.0000
  C   C296      1.0  0.21024  0.07333  0.52075  1.0000
  C   C297      1.0  0.19943  0.09079  0.51884  1.0000
  C   C298      1.0  0.19624  0.09915  0.50102  1.0000
  C   C299      1.0  0.20390  0.09008  0.48508  1.0000
  C   C300      1.0  0.21479  0.07268  0.48692  1.0000
  C   C301      1.0  0.22910  0.03004  0.52992  1.0000
  C   C302      1.0  0.34634  0.14647  0.35482  1.0000
  C   C303      1.0  0.33025  0.00039  0.34895  1.0000
  C   C304      1.0  0.44793  0.18029  0.33425  1.0000
  C   C305      1.0  0.23312  0.02889  0.56326  1.0000
  C   C306      1.0  0.23544  0.03783  0.54525  1.0000
  H   H233      1.0  0.30081  0.02389  0.51270  1.0000
  H   H234      1.0  0.31098  0.05425  0.49805  1.0000
  H   H235      1.0  0.28717  0.07908  0.48644  1.0000
  H   H236      1.0  0.25327  0.07414  0.48983  1.0000
  H   H237      1.0  0.26687  0.01836  0.51599  1.0000
  H   H238      1.0  0.25396  0.02802  0.47210  1.0000
  C   C307      1.0  0.30357  0.14479  0.39978  1.0000
  H   H239      1.0  0.35481  0.13347  0.35855  1.0000
  C   C308      1.0  0.11000  0.00203  0.37241  1.0000
  H   H240      1.0  0.19732  0.02701  0.50005  1.0000
  H   H241      1.0  0.21253  0.06737  0.53472  1.0000
  H   H242      1.0  0.19389  0.09799  0.53122  1.0000
  H   H243      1.0  0.18825  0.11287  0.49950  1.0000
  H   H244      1.0  0.20186  0.09678  0.47122  1.0000
  H   H245      1.0  0.22097  0.06616  0.47433  1.0000
  S   S37       1.0  0.04621  0.24157  0.58297  1.0000
  H   H246      1.0  0.33022  0.09126  0.50065  1.0000
  H   H247      1.0  0.00356  0.18706  0.59949  1.0000
  H   H248      1.0  0.23781  0.03517  0.57504  1.0000
  H   H249      1.0  0.24217  0.05091  0.54331  1.0000
  C   C309      1.0  0.14951  0.03532  0.62907  1.0000
  C   C310      1.0  0.24177  0.23490  0.48822  1.0000
  C   C311      1.0  0.41101  0.13641  0.34917  1.0000
  S   S38       1.0  0.01663  0.22215  0.62486  1.0000
  C   C312      1.0  0.34348  0.18021  0.34683  1.0000
  H   H250      1.0  0.01803  0.23065  0.55754  1.0000
  H   H251      1.0  0.19173  0.09877  0.60736  1.0000
  H   H252      1.0  0.27381  0.15422  0.40521  1.0000
  H   H253      1.0  0.12737  0.23643  0.51457  1.0000
  H   H254      1.0  0.07639  0.17075  0.60303  1.0000
  H   H255      1.0  0.29184  0.10060  0.43207  1.0000
  C   C313      1.0  0.37830  0.10656  0.38306  1.0000
  C   C314      1.0  0.39132  0.11243  0.39422  1.0000
  C   C315      1.0  0.38652  0.11363  0.41345  1.0000
  C   C316      1.0  0.36869  0.10907  0.42159  1.0000
  C   C317      1.0  0.10552  0.13786  0.63498  1.0000
  H   H256      1.0  0.38399  0.08132  0.33198  1.0000
  H   H257      1.0  0.08418  0.13596  0.65844  1.0000
  H   H258      1.0  0.38850  0.20113  0.49951  1.0000
  H   H259      1.0  0.22014  0.10596  0.62124  1.0000
  H   H260      1.0  0.24857  0.07359  0.37814  1.0000
  H   H261      1.0  0.34015  0.05384  0.36592  1.0000
  H   H262      1.0  0.48965  0.18808  0.42411  1.0000
  C   C318      1.0  0.34493  0.23119  0.56882  1.0000
  C   C319      1.0  0.41712  0.22997  0.51662  1.0000
  H   H263      1.0  0.41666  0.03096  0.62163  1.0000
  H   H264      1.0  0.11999  0.07571  0.62534  1.0000
  H   H265      1.0  0.48538  0.24501  0.51611  1.0000
  S   S39       1.0  0.04997  0.24516  0.63918  1.0000
  H   H266      1.0  0.09184  0.01435  0.35138  1.0000
  H   H267      1.0  0.15711  0.11363  0.65792  1.0000
  C   C320      1.0  0.40101  0.20602  0.50426  1.0000
  H   H268      1.0  0.29295  0.10900  0.38247  1.0000
  C   C321      1.0  0.48267  0.22520  0.39196  1.0000
  H   H269      1.0  0.21733  0.11762  0.65312  1.0000
  C   C322      1.0  0.20632  0.10799  0.62913  1.0000
  Fe  Fe20      1.0  0.24599  0.00529  0.39703  1.0000
  C   C323      1.0  0.19013  0.10386  0.62130  1.0000
  H   H270      1.0  0.41729  0.14307  0.35971  1.0000
  C   C324      1.0  0.38884  0.18455  0.34061  1.0000
  H   H271      1.0  0.18865  0.00829  0.47521  1.0000
  C   C325      1.0  0.41709  0.00105  0.62898  1.0000
  H   H272      1.0  0.21712  0.00570  0.52131  1.0000
  H   H273      1.0  0.47530  0.24466  0.45602  1.0000
  C   C326      1.0  0.17219  0.10584  0.63150  1.0000
  C   C327      1.0  0.01485  0.05939  0.34681  1.0000
  H   H274      1.0  0.38991  0.22382  0.54806  1.0000
  H   H275      1.0  0.22357  0.00465  0.57999  1.0000
  C   C328      1.0  0.12749  0.22821  0.56206  1.0000
  C   C329      1.0  0.00866  0.22998  0.45680  1.0000
  Fe  Fe21      1.0  0.41470  0.24501  0.43738  1.0000
  C   C330      1.0  0.49039  0.20213  0.41728  1.0000
  S   S40       1.0  0.24552  0.00966  0.65452  1.0000
  P   P9        1.0  0.37889  0.23990  0.51112  1.0000
  C   C331      1.0  0.12192  0.10336  0.64996  1.0000
  H   H276      1.0  0.02015  0.23671  0.46141  1.0000
  S   S41       1.0  0.24373  0.00035  0.36671  1.0000
  H   H277      1.0  0.33804  0.02464  0.33153  1.0000
  C   C332      1.0  0.03595  0.24353  0.41008  1.0000
  H   H278      1.0  0.00226  0.19703  0.42693  1.0000
  H   H279      1.0  0.23573  0.04463  0.33694  1.0000
  C   C333      1.0  0.38615  0.13501  0.32866  1.0000
  H   H280      1.0  0.30247  0.01972  0.64899  1.0000
  H   H281      1.0  0.02427  0.05121  0.35604  1.0000
  C   C334      1.0  0.20472  0.11444  0.64711  1.0000
  H   H282      1.0  0.29264  0.99956  0.38209  1.0000
  C   C335      1.0  0.36593  0.24427  0.47522  1.0000
  Fe  Fe22      1.0  0.03427  0.24577  0.61334  1.0000
  H   H283      1.0  0.32064  0.24378  0.55501  1.0000
  C   C336      1.0  0.23635  0.03267  0.32847  1.0000
  Fe  Fe23      1.0  0.12717  0.11402  0.89212  1.0000
  S   S42       1.0  0.10998  0.11605  0.91991  1.0000
  S   S43       1.0  0.15940  0.11237  0.88572  1.0000
  Fe  Fe24      1.0  0.09191  0.11411  0.87046  1.0000
  S   S44       1.0  0.07186  0.11608  0.89695  1.0000
  S   S45       1.0  0.08374  0.11852  0.84010  1.0000
  Fe  Fe25      1.0  0.09020  0.13759  0.90508  1.0000
  S   S46       1.0  0.07510  0.16258  0.92038  1.0000
  Fe  Fe26      1.0  0.09277  0.09445  0.91030  1.0000
  S   S47       1.0  0.08793  0.06960  0.93188  1.0000
  S   S48       1.0  0.10864  0.13728  0.87784  1.0000
  S   S49       1.0  0.11158  0.09085  0.88321  1.0000
  S   S50       1.0  0.04754  0.19611  0.66517  1.0000
  Fe  Fe27      1.0  0.35641  0.21617  0.96442  1.0000
  H   H284      1.0  0.41642  0.12231  0.79648  1.0000
  S   S51       1.0  0.34503  0.19434  0.94748  1.0000
  H   H285      1.0  0.23891  0.07189  0.67907  1.0000
  C   C337      1.0  0.18525  0.11459  0.73424  1.0000
  C   C338      1.0  0.17649  0.17558  0.91390  1.0000
  S   S52       1.0  0.38757  0.21773  0.96759  1.0000
  Fe  Fe28      1.0  0.36221  0.03261  0.79355  1.0000
  S   S53       1.0  0.35031  0.05407  0.77198  1.0000
  S   S54       1.0  0.35705  0.03196  0.82573  1.0000
  Fe  Fe29      1.0  0.38944  0.01181  0.76356  1.0000
  S   S55       1.0  0.37927  0.03209  0.74010  1.0000
  H   H286      1.0  0.15637  0.11240  0.92667  1.0000
  Fe  Fe30      1.0  0.38091  0.05485  0.75970  1.0000
  S   S56       1.0  0.39321  0.08318  0.75224  1.0000
  Fe  Fe31      1.0  0.34955  0.02958  0.75397  1.0000
  S   S57       1.0  0.32421  0.02150  0.73927  1.0000
  S   S58       1.0  0.39271  0.03480  0.78216  1.0000
  H   H287      1.0  0.47971  0.11530  0.83713  1.0000
  Fe  Fe32      1.0  0.25301  0.08809  0.93975  1.0000
  S   S59       1.0  0.26515  0.06098  0.92751  1.0000
  S   S60       1.0  0.22152  0.09854  0.94508  1.0000
  Fe  Fe33      1.0  0.29208  0.09713  0.95017  1.0000
  S   S61       1.0  0.30706  0.07034  0.93867  1.0000
  S   S62       1.0  0.30546  0.11740  0.96724  1.0000
  Fe  Fe34      1.0  0.28927  0.07722  0.91417  1.0000
  S   S63       1.0  0.29808  0.07891  0.88241  1.0000
  Fe  Fe35      1.0  0.28197  0.05583  0.95292  1.0000
  S   S64       1.0  0.18918  0.01694  0.66536  1.0000
  S   S65       1.0  0.27582  0.10494  0.92497  1.0000
  S   S66       1.0  0.26831  0.08195  0.96591  1.0000
  C   C339      1.0  0.42348  0.08471  0.80130  1.0000
  S   S67       1.0  0.48246  0.09220  0.74209  1.0000
  H   H288      1.0  0.18095  0.10679  0.94937  1.0000
  H   H289      1.0  0.10260  0.11634  0.76806  1.0000
  H   H290      1.0  0.47022  0.20965  0.87817  1.0000
  H   H291      1.0  0.13277  0.15907  0.91625  1.0000
  H   H292      1.0  0.08152  0.13807  0.74931  1.0000
  Fe  Fe36      1.0  0.06388  0.06812  0.74718  1.0000
  S   S68       1.0  0.07443  0.08995  0.72539  1.0000
  S   S69       1.0  0.06778  0.06326  0.77863  1.0000
  Fe  Fe37      1.0  0.04848  0.04542  0.71787  1.0000
  S   S70       1.0  0.05880  0.06545  0.69368  1.0000
  S   S71       1.0  0.03553  0.01676  0.71820  1.0000
  Fe  Fe38      1.0  0.08583  0.06559  0.70797  1.0000
  S   S72       1.0  0.11546  0.07048  0.69323  1.0000
  Fe  Fe39      1.0  0.04718  0.08890  0.71215  1.0000
  S   S73       1.0  0.02777  0.11403  0.70048  1.0000
  S   S74       1.0  0.07668  0.04377  0.73050  1.0000
  S   S75       1.0  0.03543  0.06884  0.73555  1.0000
  C   C340      1.0  0.32796  0.01120  0.99191  1.0000
  H   H293      1.0  0.10949  0.18066  0.95078  1.0000
  H   H294      1.0  0.00124  0.02170  0.81073  1.0000
  H   H295      1.0  0.47552  0.13103  0.79875  1.0000
  P   P10       1.0  0.46960  0.24466  0.80395  1.0000
  H   H296      1.0  0.09875  0.10530  0.67171  1.0000
  C   C341      1.0  0.26412  0.14999  0.94534  1.0000
  C   C342      1.0  0.13568  0.03560  0.68672  1.0000
  C   C343      1.0  0.13581  0.05522  0.68583  1.0000
  S   S76       1.0  0.35981  0.00776  0.77651  1.0000
  H   H297      1.0  0.15278  0.20912  0.92158  1.0000
  H   H298      1.0  0.19210  0.00348  0.73249  1.0000
  H   H299      1.0  0.12287  0.02926  0.69216  1.0000
  H   H300      1.0  0.34878  0.04596  0.69789  1.0000
  C   C344      1.0  0.20447  0.02242  0.74897  1.0000
  C   C345      1.0  0.03367  0.13664  0.69036  1.0000
  C   C346      1.0  0.05218  0.14203  0.68921  1.0000
  H   H301      1.0  0.19787  0.23174  0.96184  1.0000
  C   C347      1.0  0.46931  0.23575  0.86102  1.0000
  H   H302      1.0  0.15189  0.00899  0.68124  1.0000
  H   H303      1.0  0.09269  0.12532  0.96641  1.0000
  H   H304      1.0  0.06341  0.13219  0.69439  1.0000
  H   H305      1.0  0.12412  0.01784  0.73864  1.0000
  H   H306      1.0  0.45778  0.05590  0.79784  1.0000
  H   H307      1.0  0.25909  0.21903  0.90499  1.0000
  H   H308      1.0  0.44325  0.03546  0.68522  1.0000
  H   H309      1.0  0.05183  0.14099  0.86032  1.0000
  H   H310      1.0  0.28173  0.22445  0.87707  1.0000
  H   H311      1.0  0.17297  0.07039  0.76639  1.0000
  C   C348      1.0  0.44263  0.15483  0.77215  1.0000
  C   C349      1.0  0.31104  0.02997  0.71974  1.0000
  C   C350      1.0  0.29922  0.01795  0.71278  1.0000
  C   C351      1.0  0.28840  0.02402  0.69750  1.0000
  C   C352      1.0  0.28917  0.04230  0.68894  1.0000
  C   C353      1.0  0.30075  0.05439  0.69609  1.0000
  C   C354      1.0  0.31153  0.04833  0.71137  1.0000
  C   C355      1.0  0.47029  0.20510  0.84876  1.0000
  C   C356      1.0  0.20052  0.14614  0.96394  1.0000
  H   H312      1.0  0.30140  0.06859  0.68972  1.0000
  H   H313      1.0  0.32010  0.05794  0.71679  1.0000
  C   C357      1.0  0.41802  0.08561  0.75002  1.0000
  C   C358      1.0  0.42445  0.10371  0.74914  1.0000
  C   C359      1.0  0.44409  0.10606  0.74711  1.0000
  C   C360      1.0  0.45750  0.09033  0.74551  1.0000
  C   C361      1.0  0.45098  0.07229  0.74642  1.0000
  C   C362      1.0  0.43143  0.06990  0.74890  1.0000
  H   H314      1.0  0.41417  0.11596  0.74999  1.0000
  H   H315      1.0  0.44884  0.12004  0.74638  1.0000
  H   H316      1.0  0.46106  0.06003  0.74497  1.0000
  H   H317      1.0  0.42673  0.05590  0.74956  1.0000
  C   C363      1.0  0.34016  0.04490  0.84116  1.0000
  C   C364      1.0  0.32739  0.05968  0.83466  1.0000
  C   C365      1.0  0.31472  0.06988  0.84750  1.0000
  C   C366      1.0  0.31442  0.06537  0.86699  1.0000
  C   C367      1.0  0.32717  0.05057  0.87349  1.0000
  C   C368      1.0  0.33996  0.04047  0.86066  1.0000
  H   H318      1.0  0.32734  0.06333  0.81976  1.0000
  H   H319      1.0  0.30497  0.08130  0.84228  1.0000
  H   H320      1.0  0.32716  0.04689  0.88839  1.0000
  H   H321      1.0  0.34972  0.02907  0.86589  1.0000
  C   C369      1.0  0.26473  0.01703  0.77069  1.0000
  C   C370      1.0  0.14666  0.16298  0.91060  1.0000
  C   C371      1.0  0.35129  0.01820  0.66967  1.0000
  H   H322      1.0  0.47079  0.18989  0.85108  1.0000
  H   H323      1.0  0.18315  0.03820  0.79028  1.0000
  C   C372      1.0  0.33340  0.17340  0.95376  1.0000
  C   C373      1.0  0.33175  0.16496  0.97203  1.0000
  C   C374      1.0  0.32311  0.14790  0.97586  1.0000
  C   C375      1.0  0.31599  0.13905  0.96154  1.0000
  C   C376      1.0  0.31730  0.14773  0.94335  1.0000
  C   C377      1.0  0.32586  0.16478  0.93958  1.0000
  C   C378      1.0  0.00391  0.04295  0.77376  1.0000
  H   H324      1.0  0.31159  0.14137  0.93224  1.0000
  H   H325      1.0  0.46893  0.24431  0.87287  1.0000
  C   C379      1.0  0.06598  0.06209  0.94254  1.0000
  C   C380      1.0  0.06631  0.04710  0.95655  1.0000
  C   C381      1.0  0.04929  0.04074  0.96554  1.0000
  C   C382      1.0  0.03168  0.04933  0.96061  1.0000
  C   C383      1.0  0.03134  0.06437  0.94666  1.0000
  C   C384      1.0  0.04837  0.07070  0.93764  1.0000
  H   H326      1.0  0.07983  0.04031  0.96045  1.0000
  H   H327      1.0  0.04979  0.02917  0.97623  1.0000
  H   H328      1.0  0.01782  0.07116  0.94278  1.0000
  H   H329      1.0  0.04786  0.08225  0.92692  1.0000
  C   C385      1.0  0.08002  0.10273  0.82309  1.0000
  C   C386      1.0  0.08057  0.08319  0.82714  1.0000
  C   C387      1.0  0.07700  0.07137  0.81330  1.0000
  C   C388      1.0  0.07291  0.07886  0.79524  1.0000
  C   C389      1.0  0.07264  0.09836  0.79110  1.0000
  C   C390      1.0  0.07617  0.11019  0.80495  1.0000
  H   H330      1.0  0.08353  0.07722  0.84099  1.0000
  H   H331      1.0  0.07725  0.05632  0.81668  1.0000
  H   H332      1.0  0.06939  0.10434  0.77734  1.0000
  H   H333      1.0  0.07571  0.12527  0.80164  1.0000
  C   C391      1.0  0.08190  0.18577  0.92069  1.0000
  C   C392      1.0  0.09823  0.19164  0.91029  1.0000
  C   C393      1.0  0.10273  0.21038  0.91061  1.0000
  C   C394      1.0  0.09096  0.22347  0.92120  1.0000
  C   C395      1.0  0.07489  0.21748  0.93195  1.0000
  C   C396      1.0  0.07038  0.19874  0.93164  1.0000
  H   H334      1.0  0.10719  0.18182  0.90180  1.0000
  H   H335      1.0  0.11524  0.21488  0.90238  1.0000
  H   H336      1.0  0.06572  0.22736  0.94022  1.0000
  H   H337      1.0  0.05773  0.19434  0.93976  1.0000
  C   C397      1.0  0.17637  0.10833  0.90252  1.0000
  C   C398      1.0  0.19567  0.10419  0.89632  1.0000
  C   C399      1.0  0.20963  0.10083  0.90917  1.0000
  C   C400      1.0  0.20443  0.10178  0.92837  1.0000
  C   C401      1.0  0.18514  0.10600  0.93457  1.0000
  C   C402      1.0  0.17116  0.10926  0.92174  1.0000
  H   H338      1.0  0.19984  0.10344  0.88149  1.0000
  H   H339      1.0  0.22442  0.09762  0.90419  1.0000
  H   H340      1.0  0.15518  0.12189  0.73449  1.0000
  C   C403      1.0  0.12769  0.23575  0.95427  1.0000
  C   C404      1.0  0.43158  0.13255  0.86373  1.0000
  C   C405      1.0  0.24675  0.24363  0.93706  1.0000
  C   C406      1.0  0.23003  0.03556  0.96741  1.0000
  C   C407      1.0  0.04167  0.17326  0.67461  1.0000
  H   H341      1.0  0.15197  0.13312  0.95623  1.0000
  H   H342      1.0  0.24322  0.04003  0.96036  1.0000
  C   C408      1.0  0.02259  0.03518  0.77555  1.0000
  H   H343      1.0  0.40295  0.07040  0.78941  1.0000
  H   H344      1.0  0.41834  0.12089  0.84226  1.0000
  C   C409      1.0  0.30069  0.20882  0.92527  1.0000
  H   H345      1.0  0.18998  0.05184  0.72869  1.0000
  C   C410      1.0  0.48090  0.02276  0.71090  1.0000
  C   C411      1.0  0.24078  0.18187  0.93376  1.0000
  C   C412      1.0  0.13232  0.20314  0.96643  1.0000
  C   C413      1.0  0.21914  0.04630  0.71673  1.0000
  C   C414      1.0  0.22825  0.06755  0.69000  1.0000
  S   S77       1.0  0.00975  0.04205  0.97160  1.0000
  H   H346      1.0  0.47194  0.15794  0.77544  1.0000
  H   H347      1.0  0.41818  0.13766  0.87105  1.0000
  H   H348      1.0  0.47075  0.20478  0.81894  1.0000
  H   H349      1.0  0.02034  0.01259  0.83760  1.0000
  H   H350      1.0  0.26697  0.18358  0.98014  1.0000
  C   C415      1.0  0.09924  0.15398  0.95968  1.0000
  S   S78       1.0  0.49586  0.14825  0.74128  1.0000
  C   C416      1.0  0.07835  0.22334  0.81544  1.0000
  C   C417      1.0  0.01270  0.00886  0.71590  1.0000
  C   C418      1.0  0.19640  0.07150  0.70545  1.0000
  C   C419      1.0  0.27423  0.21716  0.90641  1.0000
  S   S79       1.0  0.09632  0.24735  0.91941  1.0000
  C   C420      1.0  0.48150  0.22937  0.78659  1.0000
  C   C421      1.0  0.47084  0.02841  0.69529  1.0000
  H   H351      1.0  0.24635  0.04379  0.70015  1.0000
  H   H352      1.0  0.47157  0.07737  0.83995  1.0000
  C   C422      1.0  0.47023  0.23330  0.82736  1.0000
  C   C423      1.0  0.44341  0.03064  0.79979  1.0000
  H   H353      1.0  0.48053  0.04633  0.77141  1.0000
  P   P11       1.0  0.06892  0.21762  0.85384  1.0000
  C   C424      1.0  0.06333  0.19339  0.85546  1.0000
  C   C425      1.0  0.09344  0.21895  0.85778  1.0000
  C   C426      1.0  0.10554  0.20257  0.86173  1.0000
  C   C427      1.0  0.12461  0.20392  0.86434  1.0000
  H   H354      1.0  0.23183  0.19401  0.92866  1.0000
  C   C428      1.0  0.00911  0.00419  0.83502  1.0000
  C   C429      1.0  0.10072  0.23661  0.85627  1.0000
  C   C430      1.0  0.06082  0.18375  0.87324  1.0000
  C   C431      1.0  0.05645  0.16502  0.87496  1.0000
  C   C432      1.0  0.05480  0.15566  0.85898  1.0000
  C   C433      1.0  0.05732  0.16508  0.84124  1.0000
  C   C434      1.0  0.06140  0.18394  0.83944  1.0000
  C   C435      1.0  0.05305  0.22888  0.87175  1.0000
  H   H355      1.0  0.20380  0.07768  0.98071  1.0000
  H   H356      1.0  0.29845  0.00381  0.71926  1.0000
  H   H357      1.0  0.19509  0.04801  0.93428  1.0000
  C   C436      1.0  0.45563  0.23902  0.98527  1.0000
  H   H358      1.0  0.28294  0.16932  0.95253  1.0000
  C   C437      1.0  0.29536  0.22673  0.98260  1.0000
  H   H359      1.0  0.15298  0.07834  0.67803  1.0000
  H   H360      1.0  0.32444  0.00793  0.97826  1.0000
  P   P12       1.0  0.48433  0.01309  0.74891  1.0000
  C   C438      1.0  0.24711  0.14786  0.93784  1.0000
  H   H361      1.0  0.10033  0.18875  0.86300  1.0000
  H   H362      1.0  0.13379  0.19126  0.86769  1.0000
  H   H363      1.0  0.31654  0.21996  0.87989  1.0000
  H   H364      1.0  0.18222  0.07880  0.70632  1.0000
  C   C439      1.0  0.27608  0.20930  0.96528  1.0000
  H   H365      1.0  0.06233  0.19064  0.88584  1.0000
  H   H366      1.0  0.05455  0.15768  0.88871  1.0000
  H   H367      1.0  0.01203  0.17761  0.67031  1.0000
  C   C440      1.0  0.47834  0.07747  0.82576  1.0000
  H   H368      1.0  0.06303  0.19089  0.82556  1.0000
  C   C441      1.0  0.47027  0.03679  0.77734  1.0000
  H   H369      1.0  0.08557  0.22711  0.78559  1.0000
  C   C442      1.0  0.12293  0.12728  0.96217  1.0000
  H   H370      1.0  0.30337  0.23873  0.98341  1.0000
  C   C443      1.0  0.45543  0.00771  0.77743  1.0000
  C   C444      1.0  0.19052  0.01109  0.74503  1.0000
  C   C445      1.0  0.37819  0.03935  0.68778  1.0000
  C   C446      1.0  0.36299  0.05035  0.69676  1.0000
  C   C447      1.0  0.36617  0.06668  0.70502  1.0000
  C   C448      1.0  0.38463  0.07195  0.70466  1.0000
  H   H371      1.0  0.28309  0.05434  0.74550  1.0000
  C   C449      1.0  0.43514  0.21353  0.98776  1.0000
  H   H372      1.0  0.14237  0.08307  0.98377  1.0000
  H   H373      1.0  0.34625  0.00406  0.70839  1.0000
  H   H374      1.0  0.35441  0.07491  0.71226  1.0000
  H   H375      1.0  0.38714  0.08431  0.71155  1.0000
  H   H376      1.0  0.07043  0.16429  0.68088  1.0000
  C   C450      1.0  0.15533  0.10617  0.99278  1.0000
  C   C451      1.0  0.17134  0.01948  0.77350  1.0000
  C   C452      1.0  0.18520  0.03066  0.77762  1.0000
  H   H377      1.0  0.20670  0.08908  0.68162  1.0000
  H   H378      1.0  0.24298  0.13385  0.93651  1.0000
  C   C453      1.0  0.15287  0.15963  0.89199  1.0000
  C   C454      1.0  0.17093  0.16392  0.88442  1.0000
  C   C455      1.0  0.18269  0.17205  0.89531  1.0000
  H   H379      1.0  0.14397  0.15299  0.88360  1.0000
  H   H380      1.0  0.17589  0.16054  0.87021  1.0000
  H   H381      1.0  0.19674  0.17523  0.88944  1.0000
  C   C456      1.0  0.27325  0.04387  0.75003  1.0000
  C   C457      1.0  0.46736  0.20852  0.97352  1.0000
  C   C458      1.0  0.37652  0.17570  0.90020  1.0000
  C   C459      1.0  0.38652  0.18119  0.88324  1.0000
  C   C460      1.0  0.38604  0.17101  0.86749  1.0000
  C   C461      1.0  0.37541  0.15541  0.86863  1.0000
  C   C462      1.0  0.36522  0.14990  0.88562  1.0000
  C   C463      1.0  0.36605  0.16006  0.90142  1.0000
  P   P13       1.0  0.35090  0.13016  0.88769  1.0000
  C   C464      1.0  0.32589  0.13838  0.88852  1.0000
  C   C465      1.0  0.35559  0.11537  0.86814  1.0000
  C   C466      1.0  0.35090  0.12263  0.85024  1.0000
  C   C467      1.0  0.35296  0.11096  0.83530  1.0000
  C   C468      1.0  0.35928  0.09186  0.83820  1.0000
  C   C469      1.0  0.36356  0.08442  0.85604  1.0000
  C   C470      1.0  0.36179  0.09609  0.87096  1.0000
  C   C471      1.0  0.31275  0.12578  0.88560  1.0000
  C   C472      1.0  0.29330  0.13165  0.88659  1.0000
  C   C473      1.0  0.28677  0.15009  0.89080  1.0000
  C   C474      1.0  0.29977  0.16285  0.89339  1.0000
  C   C475      1.0  0.31930  0.15713  0.89193  1.0000
  C   C476      1.0  0.35652  0.11650  0.90905  1.0000
  C   C477      1.0  0.37557  0.11326  0.91322  1.0000
  C   C478      1.0  0.38020  0.10335  0.93001  1.0000
  C   C479      1.0  0.36586  0.09656  0.94272  1.0000
  C   C480      1.0  0.34695  0.09950  0.93855  1.0000
  C   C481      1.0  0.34223  0.10935  0.92175  1.0000
  H   H382      1.0  0.37676  0.18360  0.91248  1.0000
  H   H383      1.0  0.39460  0.19337  0.88236  1.0000
  H   H384      1.0  0.39382  0.17529  0.85436  1.0000
  H   H385      1.0  0.37530  0.14775  0.85630  1.0000
  H   H386      1.0  0.35850  0.15596  0.91476  1.0000
  H   H387      1.0  0.34513  0.13719  0.84796  1.0000
  H   H388      1.0  0.34907  0.11652  0.82157  1.0000
  H   H389      1.0  0.36024  0.08265  0.82679  1.0000
  H   H390      1.0  0.36754  0.06941  0.85841  1.0000
  H   H391      1.0  0.36452  0.08976  0.88475  1.0000
  H   H392      1.0  0.31752  0.11131  0.88275  1.0000
  H   H393      1.0  0.28333  0.12166  0.88441  1.0000
  H   H394      1.0  0.27164  0.15442  0.89208  1.0000
  H   H395      1.0  0.29472  0.17714  0.89668  1.0000
  H   H396      1.0  0.32907  0.16734  0.89369  1.0000
  H   H397      1.0  0.38682  0.11858  0.90358  1.0000
  H   H398      1.0  0.39485  0.10113  0.93331  1.0000
  C   C482      1.0  0.14268  0.03281  0.97436  1.0000
  H   H399      1.0  0.33587  0.09437  0.94854  1.0000
  H   H400      1.0  0.32743  0.11151  0.91899  1.0000
  H   H401      1.0  0.42932  0.09026  0.78770  1.0000
  H   H402      1.0  0.42147  0.20829  0.99192  1.0000
  C   C483      1.0  0.47030  0.21363  0.83050  1.0000
  C   C484      1.0  0.15571  0.08848  0.98559  1.0000
  C   C485      1.0  0.43564  0.23829  0.93489  1.0000
  C   C486      1.0  0.12712  0.02462  0.98397  1.0000
  C   C487      1.0  0.25724  0.04296  0.74038  1.0000
  H   H403      1.0  0.28690  0.23600  0.95533  1.0000
  H   H404      1.0  0.47930  0.13220  0.86581  1.0000
  C   C488      1.0  0.22703  0.22120  0.95443  1.0000
  C   C489      1.0  0.02322  0.16778  0.67553  1.0000
  C   C490      1.0  0.43044  0.08924  0.81780  1.0000
  C   C491      1.0  0.42347  0.08073  0.83509  1.0000
  C   C492      1.0  0.40903  0.06867  0.83588  1.0000
  C   C493      1.0  0.40146  0.06507  0.81945  1.0000
  H   H405      1.0  0.21455  0.10411  0.73675  1.0000
  H   H406      1.0  0.21293  0.05911  0.95552  1.0000
  H   H407      1.0  0.42921  0.08329  0.84796  1.0000
  H   H408      1.0  0.40360  0.06214  0.84921  1.0000
  H   H409      1.0  0.39008  0.05591  0.82005  1.0000
  H   H410      1.0  0.18873  0.12702  0.72541  1.0000
  H   H411      1.0  0.18683  0.05484  0.90202  1.0000
  H   H412      1.0  0.11313  0.12024  0.69866  1.0000
  C   C494      1.0  0.44645  0.12407  0.79889  1.0000
  H   H413      1.0  0.03303  0.04382  0.77956  1.0000
  C   C495      1.0  0.47222  0.21456  0.78104  1.0000
  H   H414      1.0  0.04272  0.01077  0.77219  1.0000
  C   C496      1.0  0.39673  0.04457  0.68771  1.0000
  H   H415      1.0  0.31989  0.04094  0.98700  1.0000
  H   H416      1.0  0.24388  0.01097  0.98146  1.0000
  C   C497      1.0  0.11799  0.05870  0.76073  1.0000
  C   C498      1.0  0.13366  0.06748  0.75202  1.0000
  C   C499      1.0  0.14544  0.05847  0.73788  1.0000
  P   P14       1.0  0.13718  0.09102  0.75744  1.0000
  C   C500      1.0  0.12102  0.10671  0.74409  1.0000
  C   C501      1.0  0.13378  0.09390  0.78239  1.0000
  C   C502      1.0  0.13228  0.11207  0.78891  1.0000
  C   C503      1.0  0.12946  0.11450  0.80815  1.0000
  C   C504      1.0  0.12867  0.09882  0.82104  1.0000
  C   C505      1.0  0.13086  0.08067  0.81473  1.0000
  C   C506      1.0  0.13361  0.07817  0.79550  1.0000
  C   C507      1.0  0.12343  0.10754  0.72441  1.0000
  C   C508      1.0  0.11133  0.11987  0.71383  1.0000
  C   C509      1.0  0.09649  0.13120  0.72282  1.0000
  C   C510      1.0  0.09351  0.12987  0.74238  1.0000
  C   C511      1.0  0.10562  0.11757  0.75299  1.0000
  C   C512      1.0  0.16160  0.09540  0.75067  1.0000
  C   C513      1.0  0.16620  0.11154  0.73932  1.0000
  C   C514      1.0  0.17629  0.08271  0.75733  1.0000
  H   H417      1.0  0.47390  0.19158  0.76302  1.0000
  C   C515      1.0  0.45098  0.03090  0.69729  1.0000
  C   C516      1.0  0.49446  0.06493  0.82169  1.0000
  H   H418      1.0  0.10806  0.06588  0.77086  1.0000
  H   H419      1.0  0.15676  0.06550  0.72998  1.0000
  H   H420      1.0  0.13296  0.12438  0.77912  1.0000
  H   H421      1.0  0.12749  0.12854  0.81316  1.0000
  H   H422      1.0  0.12602  0.10077  0.83593  1.0000
  H   H423      1.0  0.13008  0.06856  0.82480  1.0000
  H   H424      1.0  0.13549  0.06396  0.79105  1.0000
  H   H425      1.0  0.13450  0.09846  0.71720  1.0000
  H   H426      1.0  0.08691  0.14054  0.71463  1.0000
  P   P15       1.0  0.15135  0.17393  0.94621  1.0000
  C   C517      1.0  0.14223  0.04048  0.73333  1.0000
  C   C518      1.0  0.14262  0.19828  0.94948  1.0000
  H   H427      1.0  0.04955  0.08644  0.97229  1.0000
  H   H428      1.0  0.10261  0.03410  0.76307  1.0000
  C   C519      1.0  0.14541  0.21242  0.93498  1.0000
  S   S80       1.0  0.00855  0.24336  0.66400  1.0000
  H   H429      1.0  0.24560  0.22523  0.99078  1.0000
  C   C520      1.0  0.47939  0.08905  0.79308  1.0000
  C   C521      1.0  0.02805  0.01651  0.77145  1.0000
  P   P16       1.0  0.44911  0.10472  0.81654  1.0000
  C   C522      1.0  0.16909  0.05176  0.67240  1.0000
  C   C523      1.0  0.40872  0.07312  0.80220  1.0000
  H   H430      1.0  0.44730  0.18754  0.97649  1.0000
  H   H431      1.0  0.15125  0.03371  0.72225  1.0000
  C   C524      1.0  0.20089  0.05612  0.71811  1.0000
  C   C525      1.0  0.30661  0.21755  0.89210  1.0000
  H   H432      1.0  0.21213  0.04112  0.76868  1.0000
  C   C526      1.0  0.17404  0.00965  0.75727  1.0000
  H   H433      1.0  0.18582  0.18170  0.92226  1.0000
  C   C527      1.0  0.19009  0.08527  0.98391  1.0000
  C   C528      1.0  0.25752  0.18410  0.94197  1.0000
  H   H434      1.0  0.49216  0.05143  0.73451  1.0000
  P   P17       1.0  0.37418  0.01735  0.67883  1.0000
  C   C529      1.0  0.19531  0.08589  0.75235  1.0000
  C   C530      1.0  0.11973  0.23793  0.85905  1.0000
  C   C531      1.0  0.28601  0.22509  0.96668  1.0000
  H   H435      1.0  0.20292  0.10875  0.99250  1.0000
  C   C532      1.0  0.06011  0.23652  0.88673  1.0000
  S   S81       1.0  0.48904  0.23580  0.90806  1.0000
  H   H436      1.0  0.22530  0.20738  0.96143  1.0000
  H   H437      1.0  0.16579  0.18891  0.97891  1.0000
  C   C533      1.0  0.05233  0.24467  0.82815  1.0000
  C   C534      1.0  0.10389  0.13466  0.96339  1.0000
  C   C535      1.0  0.03961  0.11581  0.97416  1.0000
  C   C536      1.0  0.15265  0.06320  0.67873  1.0000
  H   H438      1.0  0.33737  0.17140  0.98316  1.0000
  C   C537      1.0  0.46995  0.21616  0.86400  1.0000
  C   C538      1.0  0.42705  0.14472  0.77819  1.0000
  H   H439      1.0  0.42572  0.02951  0.71663  1.0000
  H   H440      1.0  0.15462  0.06925  0.89562  1.0000
  H   H441      1.0  0.36932  0.08912  0.95588  1.0000
  H   H442      1.0  0.16327  0.00100  0.75407  1.0000
  H   H443      1.0  0.27325  0.13764  0.94977  1.0000
  H   H444      1.0  0.48386  0.23200  0.97177  1.0000
  C   C539      1.0  0.21935  0.00341  0.70409  1.0000
  C   C540      1.0  0.17178  0.16702  0.95932  1.0000
  H   H445      1.0  0.44131  0.16643  0.76151  1.0000
  H   H446      1.0  0.25497  0.05309  0.72867  1.0000
  C   C541      1.0  0.24869  0.01606  0.76109  1.0000
  C   C542      1.0  0.15854  0.17079  0.92176  1.0000
  H   H447      1.0  0.32862  0.20968  0.91079  1.0000
  H   H448      1.0  0.08444  0.15961  0.95979  1.0000
  C   C543      1.0  0.13737  0.13925  0.95759  1.0000
  C   C544      1.0  0.21352  0.01344  0.98867  1.0000
  C   C545      1.0  0.46190  0.13461  0.79309  1.0000
  H   H449      1.0  0.43131  0.00450  0.79767  1.0000
  Fe  Fe40      1.0  0.00515  0.01740  0.99345  1.0000
  S   S82       1.0  0.27612  0.05090  0.66936  1.0000
  H   H450      1.0  0.20662  0.07605  0.75747  1.0000
  C   C546      1.0  0.37612  0.00017  0.69851  1.0000
  C   C547      1.0  0.26947  0.16801  0.94709  1.0000
  C   C548      1.0  0.05611  0.16023  0.68148  1.0000
  C   C549      1.0  0.43801  0.23206  0.99093  1.0000
  C   C550      1.0  0.13802  0.23107  0.93744  1.0000
  H   H451      1.0  0.18184  0.05812  0.66683  1.0000
  C   C551      1.0  0.47091  0.08989  0.81153  1.0000
  C   C552      1.0  0.13282  0.15876  0.95405  1.0000
  C   C553      1.0  0.19620  0.02413  0.98602  1.0000
  H   H452      1.0  0.45826  0.21178  0.78751  1.0000
  C   C554      1.0  0.45459  0.23244  0.92849  1.0000
  C   C555      1.0  0.04761  0.24437  0.90093  1.0000
  C   C556      1.0  0.18462  0.15160  0.95408  1.0000
  C   C557      1.0  0.19979  0.10174  0.74070  1.0000
  H   H453      1.0  0.41360  0.14851  0.77226  1.0000
  H   H454      1.0  0.46107  0.21890  0.93366  1.0000
  C   C558      1.0  0.03330  0.22878  0.87147  1.0000
  C   C559      1.0  0.47115  0.01973  0.72870  1.0000
  H   H455      1.0  0.07522  0.23630  0.88772  1.0000
  C   C560      1.0  0.17528  0.17694  0.97454  1.0000
  C   C561      1.0  0.15824  0.06635  0.90995  1.0000
  C   C562      1.0  0.28101  0.21190  0.92397  1.0000
  H   H456      1.0  0.14635  0.22263  0.86550  1.0000
  C   C563      1.0  0.11358  0.16594  0.95468  1.0000
  C   C564      1.0  0.46928  0.01951  0.76964  1.0000
  C   C565      1.0  0.03980  0.09660  0.97970  1.0000
  C   C566      1.0  0.21277  0.04630  0.96471  1.0000
  H   H457      1.0  0.02757  0.22236  0.86036  1.0000
  C   C567      1.0  0.42883  0.12960  0.79174  1.0000
  C   C568      1.0  0.12487  0.22180  0.96878  1.0000
  H   H458      1.0  0.22255  0.16204  0.92572  1.0000
  C   C569      1.0  0.39991  0.06089  0.69604  1.0000
  C   C570      1.0  0.45116  0.02210  0.73053  1.0000
  C   C571      1.0  0.23253  0.05175  0.70215  1.0000
  C   C572      1.0  0.11486  0.04066  0.75627  1.0000
  H   H459      1.0  0.13897  0.07184  0.95443  1.0000
  C   C573      1.0  0.45993  0.14994  0.77982  1.0000
  C   C574      1.0  0.18112  0.05474  0.93206  1.0000
  C   C575      1.0  0.46620  0.11972  0.84462  1.0000
  C   C576      1.0  0.21015  0.07730  0.69151  1.0000
  C   C577      1.0  0.13168  0.22159  0.86309  1.0000
  H   H460      1.0  0.00560  0.23679  0.88530  1.0000
  H   H461      1.0  0.05633  0.15757  0.82890  1.0000
  C   C578      1.0  0.23114  0.00634  0.71795  1.0000
  C   C579      1.0  0.24462  0.22526  0.94505  1.0000
  H   H462      1.0  0.47848  0.03105  0.68166  1.0000
  H   H463      1.0  0.18339  0.01942  0.99352  1.0000
  H   H464      1.0  0.42768  0.22930  0.94492  1.0000
  C   C580      1.0  0.15386  0.04336  0.98384  1.0000
  H   H465      1.0  0.11813  0.01708  0.97642  1.0000
  C   C581      1.0  0.23554  0.16380  0.93186  1.0000
  C   C582      1.0  0.19130  0.17148  0.98431  1.0000
  C   C583      1.0  0.01925  0.14964  0.68340  1.0000
  C   C584      1.0  0.17638  0.05826  0.91358  1.0000
  H   H466      1.0  0.32211  0.14141  0.99002  1.0000
  H   H467      1.0  0.43306  0.03516  0.81105  1.0000
  S   S83       1.0  0.28421  0.02574  0.96728  1.0000
  H   H468      1.0  0.14566  0.03121  0.95946  1.0000
  H   H469      1.0  0.18240  0.14379  0.94230  1.0000
  H   H470      1.0  0.04921  0.12052  0.96240  1.0000
  H   H471      1.0  0.21025  0.13414  0.95985  1.0000
  C   C585      1.0  0.16893  0.03213  0.67320  1.0000
  H   H472      1.0  0.26785  0.00686  0.78227  1.0000
  C   C586      1.0  0.48093  0.20316  0.76707  1.0000
  H   H473      1.0  0.27953  0.01454  0.69229  1.0000
  C   C587      1.0  0.46602  0.12943  0.86080  1.0000
  C   C588      1.0  0.47028  0.22704  0.97658  1.0000
  C   C589      1.0  0.16789  0.05985  0.94713  1.0000
  H   H474      1.0  0.32670  0.17144  0.92558  1.0000
  C   C590      1.0  0.01480  0.00555  0.76569  1.0000
  H   H475      1.0  0.44860  0.14335  0.88289  1.0000
  C   C591      1.0  0.14485  0.07107  0.92479  1.0000
  H   H476      1.0  0.12645  0.11217  0.96407  1.0000
  C   C592      1.0  0.44905  0.11613  0.83804  1.0000
  C   C593      1.0  0.12695  0.03155  0.74255  1.0000
  C   C594      1.0  0.02670  0.12885  0.98345  1.0000
  H   H477      1.0  0.47347  0.09785  0.78167  1.0000
  H   H478      1.0  0.08933  0.21180  0.81730  1.0000
  H   H479      1.0  0.18565  0.12154  0.67130  1.0000
  C   C595      1.0  0.19564  0.04074  0.97401  1.0000
  H   H480      1.0  0.30632  0.20413  0.93851  1.0000
  C   C596      1.0  0.43173  0.12291  0.84751  1.0000
  C   C597      1.0  0.21149  0.23497  0.95479  1.0000
  H   H481      1.0  0.00489  0.14567  0.68418  1.0000
  C   C598      1.0  0.44976  0.20179  0.97907  1.0000
  P   P18       1.0  0.26457  0.20735  0.94426  1.0000
  C   C599      1.0  0.15217  0.02415  0.68053  1.0000
  C   C600      1.0  0.28701  0.22013  0.89056  1.0000
  H   H482      1.0  0.13068  0.07709  0.92197  1.0000
  C   C601      1.0  0.49550  0.07651  0.78906  1.0000
  S   S84       1.0  0.35250  0.24618  0.95173  1.0000
  C   C602      1.0  0.06607  0.22928  0.83085  1.0000
  C   C603      1.0  0.31343  0.21181  0.90945  1.0000
  C   C604      1.0  0.46519  0.24394  0.91547  1.0000
  C   C605      1.0  0.17311  0.07786  0.98096  1.0000
  C   C606      1.0  0.45734  0.04232  0.79235  1.0000
  C   C607      1.0  0.23042  0.01915  0.97937  1.0000
  H   H483      1.0  0.49630  0.02093  0.70910  1.0000
  C   C608      1.0  0.44872  0.13577  0.87039  1.0000
  C   C609      1.0  0.20392  0.15608  0.97901  1.0000
  C   C610      1.0  0.07633  0.23203  0.79750  1.0000
  C   C611      1.0  0.27501  0.19559  0.98044  1.0000
  H   H484      1.0  0.44313  0.01988  0.74398  1.0000
  H   H485      1.0  0.12968  0.19242  0.97768  1.0000
  C   C612      1.0  0.28111  0.01678  0.99123  1.0000
  H   H486      1.0  0.11650  0.22543  0.98166  1.0000
  C   C613      1.0  0.44114  0.02764  0.71490  1.0000
  C   C614      1.0  0.02082  0.23683  0.88561  1.0000
  C   C615      1.0  0.14969  0.06810  0.94325  1.0000
  H   H487      1.0  0.47862  0.19955  0.96646  1.0000
  P   P19       1.0  0.17327  0.05510  0.97134  1.0000
  C   C616      1.0  0.06229  0.24697  0.79486  1.0000
  C   C617      1.0  0.46933  0.24432  0.84283  1.0000
  H   H488      1.0  0.26040  0.24739  0.93051  1.0000
  H   H489      1.0  0.21634  0.15180  0.98655  1.0000
  H   H490      1.0  0.13951  0.24185  0.92600  1.0000
  C   C618      1.0  0.44249  0.01333  0.79235  1.0000
  C   C619      1.0  0.18967  0.10308  0.99079  1.0000
  H   H491      1.0  0.23952  0.00496  0.76536  1.0000
  C   C620      1.0  0.02799  0.24467  0.90033  1.0000
  H   H492      1.0  0.02628  0.14370  0.97882  1.0000
  H   H493      1.0  0.12378  0.23950  0.80775  1.0000
  H   H494      1.0  0.00019  0.05766  0.77640  1.0000
  H   H495      1.0  0.00002  0.03496  0.70351  1.0000
  C   C621      1.0  0.34227  0.00161  0.66958  1.0000
  H   H496      1.0  0.41423  0.06480  0.69629  1.0000
  C   C622      1.0  0.24487  0.02892  0.74574  1.0000
  C   C623      1.0  0.27709  0.03084  0.76505  1.0000
  H   H497      1.0  0.28988  0.03125  0.77207  1.0000
  C   C624      1.0  0.20166  0.03219  0.76538  1.0000
  P   P20       1.0  0.22504  0.02598  0.73251  1.0000
  H   H498      1.0  0.20676  0.01297  0.70179  1.0000
  C   C625      1.0  0.99826  0.00936  0.81991  1.0000
  H   H499      1.0  0.40875  0.03581  0.68166  1.0000
  C   C626      1.0  0.32473  0.00215  0.66211  1.0000
  H   H500      1.0  0.15849  0.01842  0.78289  1.0000
  Fe  Fe41      1.0  0.38307  0.24814  0.95700  1.0000
  S   S85       1.0  0.34712  0.22466  0.99366  1.0000
  H   H501      1.0  0.34969  0.04810  0.66108  1.0000
  C   C627      1.0  0.34286  0.03519  0.66158  1.0000
  S   S86       1.0  0.02391  0.38717  0.26423  1.0000
  C   C628      1.0  0.40635  0.29128  0.99814  1.0000
  H   H502      1.0  0.05983  0.48872  0.26871  1.0000
  S   S87       1.0  0.21870  0.39217  0.03528  1.0000
  Fe  Fe42      1.0  0.45622  0.28095  0.13644  1.0000
  S   S88       1.0  0.44005  0.30637  0.15084  1.0000
  Fe  Fe43      1.0  0.44797  0.25755  0.10391  1.0000
  H   H503      1.0  0.48559  0.45212  0.18222  1.0000
  H   H504      1.0  0.39493  0.25430  0.18224  1.0000
  S   S89       1.0  0.43986  0.25556  0.13513  1.0000
  S   S90       1.0  0.46270  0.28369  0.10522  1.0000
  Fe  Fe44      1.0  0.26345  0.45598  0.10609  1.0000
  S   S91       1.0  0.24185  0.48030  0.11327  1.0000
  S   S92       1.0  0.26718  0.44381  0.07722  1.0000
  Fe  Fe45      1.0  0.28321  0.45718  0.14277  1.0000
  S   S93       1.0  0.30485  0.43964  0.16073  1.0000
  Fe  Fe46      1.0  0.23971  0.46644  0.14273  1.0000
  S   S94       1.0  0.21143  0.46002  0.15906  1.0000
  S   S95       1.0  0.25975  0.44109  0.13479  1.0000
  S   S96       1.0  0.28835  0.47039  0.11339  1.0000
  Fe  Fe47      1.0  0.41312  0.41771  0.24505  1.0000
  S   S97       1.0  0.44413  0.41101  0.23630  1.0000
  S   S98       1.0  0.39697  0.40708  0.27245  1.0000
  Fe  Fe48      1.0  0.40571  0.43698  0.20653  1.0000
  S   S99       1.0  0.43658  0.43135  0.19508  1.0000
  S   S100      1.0  0.38358  0.45585  0.19039  1.0000
  Fe  Fe49      1.0  0.43488  0.40205  0.20950  1.0000
  S   S101      1.0  0.45178  0.37445  0.20031  1.0000
  Fe  Fe50      1.0  0.44402  0.44073  0.22250  1.0000
  S   S102      1.0  0.47037  0.45649  0.22647  1.0000
  S   S103      1.0  0.40365  0.40720  0.21898  1.0000
  S   S104      1.0  0.41328  0.44792  0.23327  1.0000
  Fe  Fe51      1.0  0.13651  0.48709  0.24513  1.0000
  H   H505      1.0  0.44279  0.44103  0.12830  1.0000
  C   C629      1.0  0.47179  0.49499  0.21447  1.0000
  Fe  Fe52      1.0  0.10365  0.46181  0.25462  1.0000
  S   S105      1.0  0.10019  0.46780  0.28504  1.0000
  S   S106      1.0  0.08350  0.44737  0.23890  1.0000
  H   H506      1.0  0.34877  0.37923  0.03161  1.0000
  Fe  Fe53      1.0  0.13229  0.46492  0.28356  1.0000
  S   S107      1.0  0.48418  0.26360  0.14050  1.0000
  H   H507      1.0  0.27111  0.32880  0.99602  1.0000
  S   S108      1.0  0.13566  0.45625  0.25369  1.0000
  H   H508      1.0  0.02591  0.39690  0.99782  1.0000
  C   C630      1.0  0.49071  0.40442  0.19052  1.0000
  H   H509      1.0  0.20170  0.42697  0.27852  1.0000
  C   C631      1.0  0.19805  0.47117  0.17801  1.0000
  C   C632      1.0  0.28981  0.41944  0.99689  1.0000
  C   C633      1.0  0.47670  0.41872  0.11934  1.0000
  C   C634      1.0  0.17396  0.48873  0.20679  1.0000
  C   C635      1.0  0.17190  0.47023  0.20296  1.0000
  C   C636      1.0  0.18370  0.46160  0.18849  1.0000
  C   C637      1.0  0.45483  0.25360  0.25652  1.0000
  C   C638      1.0  0.47072  0.43550  0.30869  1.0000
  H   H510      1.0  0.16090  0.46276  0.21088  1.0000
  H   H511      1.0  0.18159  0.44747  0.18529  1.0000
  C   C639      1.0  0.32711  0.44441  0.16801  1.0000
  C   C640      1.0  0.33847  0.42963  0.17686  1.0000
  C   C641      1.0  0.35567  0.43284  0.18390  1.0000
  C   C642      1.0  0.36191  0.45091  0.18194  1.0000
  C   C643      1.0  0.35074  0.46563  0.17276  1.0000
  C   C644      1.0  0.33345  0.46244  0.16589  1.0000
  H   H512      1.0  0.33386  0.41557  0.17841  1.0000
  H   H513      1.0  0.36412  0.42134  0.19077  1.0000
  H   H514      1.0  0.35552  0.47960  0.17085  1.0000
  H   H515      1.0  0.32503  0.47394  0.15895  1.0000
  C   C645      1.0  0.44376  0.32491  0.16492  1.0000
  C   C646      1.0  0.46123  0.32653  0.17184  1.0000
  C   C647      1.0  0.46343  0.34186  0.18245  1.0000
  C   C648      1.0  0.44822  0.35571  0.18641  1.0000
  C   C649      1.0  0.43069  0.35392  0.17971  1.0000
  C   C650      1.0  0.42853  0.33865  0.16905  1.0000
  H   H516      1.0  0.47307  0.31607  0.16887  1.0000
  H   H517      1.0  0.47701  0.34297  0.18768  1.0000
  H   H518      1.0  0.41878  0.36425  0.18281  1.0000
  H   H519      1.0  0.41493  0.33753  0.16384  1.0000
  H   H520      1.0  0.35296  0.46590  0.22071  1.0000
  C   C651      1.0  0.01979  0.29954  0.01255  1.0000
  C   C652      1.0  0.01047  0.30310  0.03043  1.0000
  C   C653      1.0  0.49591  0.27412  0.20095  1.0000
  H   H521      1.0  0.01856  0.30708  0.04122  1.0000
  C   C654      1.0  0.23158  0.40733  0.04671  1.0000
  C   C655      1.0  0.24552  0.41772  0.03688  1.0000
  C   C656      1.0  0.25587  0.42912  0.04643  1.0000
  C   C657      1.0  0.25253  0.43028  0.06595  1.0000
  C   C658      1.0  0.23833  0.42021  0.07579  1.0000
  C   C659      1.0  0.22795  0.40877  0.06621  1.0000
  H   H522      1.0  0.24841  0.41692  0.02191  1.0000
  H   H523      1.0  0.26654  0.43713  0.03864  1.0000
  H   H524      1.0  0.23560  0.42093  0.09080  1.0000
  H   H525      1.0  0.21719  0.40083  0.07397  1.0000
  C   C660      1.0  0.06595  0.43201  0.24737  1.0000
  C   C661      1.0  0.06726  0.42047  0.26396  1.0000
  C   C662      1.0  0.05412  0.40700  0.26905  1.0000
  C   C663      1.0  0.03931  0.40520  0.25785  1.0000
  C   C664      1.0  0.03751  0.41733  0.24170  1.0000
  C   C665      1.0  0.05091  0.43048  0.23638  1.0000
  H   H526      1.0  0.07881  0.42143  0.27248  1.0000
  H   H527      1.0  0.05558  0.39772  0.28160  1.0000
  H   H528      1.0  0.02619  0.41612  0.23296  1.0000
  H   H529      1.0  0.04983  0.43928  0.22347  1.0000
  H   H530      1.0  0.49473  0.39367  0.20130  1.0000
  C   C666      1.0  0.41981  0.49406  0.24000  1.0000
  C   C667      1.0  0.46245  0.45416  0.30750  1.0000
  C   C668      1.0  0.22804  0.42696  0.19670  1.0000
  C   C669      1.0  0.47838  0.43222  0.16357  1.0000
  H   H531      1.0  0.47301  0.44319  0.15360  1.0000
  C   C670      1.0  0.45935  0.35304  0.12854  1.0000
  C   C671      1.0  0.12588  0.48169  0.18866  1.0000
  C   C672      1.0  0.00660  0.44811  0.28842  1.0000
  C   C673      1.0  0.47751  0.34365  0.12956  1.0000
  C   C674      1.0  0.17471  0.49392  0.29878  1.0000
  C   C675      1.0  0.41477  0.43777  0.14141  1.0000
  C   C676      1.0  0.38852  0.40604  0.31076  1.0000
  C   C677      1.0  0.40117  0.41176  0.29551  1.0000
  C   C678      1.0  0.41632  0.42165  0.29888  1.0000
  C   C679      1.0  0.41826  0.42656  0.31714  1.0000
  C   C680      1.0  0.37021  0.45678  0.27014  1.0000
  H   H532      1.0  0.37678  0.39830  0.30832  1.0000
  H   H533      1.0  0.42623  0.42593  0.28731  1.0000
  S   S109      1.0  0.26279  0.48156  0.15246  1.0000
  C   C681      1.0  0.48155  0.26177  0.20236  1.0000
  H   H534      1.0  0.29467  0.47502  0.18474  1.0000
  H   H535      1.0  0.15707  0.27484  0.00640  1.0000
  H   H536      1.0  0.15947  0.49256  0.32609  1.0000
  C   C682      1.0  0.46847  0.27043  0.05051  1.0000
  H   H537      1.0  0.24642  0.47357  0.05796  1.0000
  H   H538      1.0  0.03542  0.33308  0.99849  1.0000
  H   H539      1.0  0.27868  0.44654  0.19362  1.0000
  H   H540      1.0  0.48240  0.38447  0.17300  1.0000
  C   C683      1.0  0.12303  0.40234  0.15593  1.0000
  P   P21       1.0  0.12144  0.42541  0.18563  1.0000
  C   C684      1.0  0.09678  0.45768  0.19347  1.0000
  C   C685      1.0  0.11546  0.45039  0.18798  1.0000
  C   C686      1.0  0.25730  0.47387  0.22798  1.0000
  H   H541      1.0  0.44827  0.48867  0.24802  1.0000
  Fe  Fe54      1.0  0.22468  0.38749  0.00397  1.0000
  C   C687      1.0  0.18859  0.49817  0.19661  1.0000
  C   C688      1.0  0.12991  0.46262  0.18535  1.0000
  C   C689      1.0  0.14601  0.42578  0.21346  1.0000
  H   H542      1.0  0.37602  0.31350  0.29717  1.0000
  C   C690      1.0  0.40052  0.49698  0.24612  1.0000
  C   C691      1.0  0.40042  0.24907  0.03709  1.0000
  S   S110      1.0  0.15252  0.44858  0.30350  1.0000
  C   C692      1.0  0.10244  0.41246  0.19723  1.0000
  C   C693      1.0  0.10337  0.40439  0.21565  1.0000
  C   C694      1.0  0.08850  0.39454  0.22446  1.0000
  C   C695      1.0  0.07259  0.39271  0.21502  1.0000
  C   C696      1.0  0.07145  0.40085  0.19677  1.0000
  C   C697      1.0  0.08628  0.41071  0.18790  1.0000
  H   H543      1.0  0.19168  0.40769  0.21828  1.0000
  H   H544      1.0  0.18993  0.34398  0.03150  1.0000
  H   H545      1.0  0.13733  0.49077  0.18736  1.0000
  C   C698      1.0  0.12635  0.39821  0.13712  1.0000
  H   H546      1.0  0.11931  0.39124  0.16643  1.0000
  C   C699      1.0  0.25897  0.49618  0.04112  1.0000
  H   H547      1.0  0.18821  0.47395  0.23956  1.0000
  H   H548      1.0  0.29557  0.41763  0.04666  1.0000
  C   C700      1.0  0.28430  0.47475  0.19691  1.0000
  H   H549      1.0  0.14442  0.45731  0.18114  1.0000
  H   H550      1.0  0.13460  0.43451  0.22063  1.0000
  H   H551      1.0  0.49650  0.42750  0.20599  1.0000
  C   C701      1.0  0.44413  0.30300  0.21806  1.0000
  C   C702      1.0  0.35230  0.33780  0.01090  1.0000
  C   C703      1.0  0.17823  0.41068  0.21219  1.0000
  H   H552      1.0  0.11527  0.40596  0.22346  1.0000
  H   H553      1.0  0.08902  0.38879  0.23885  1.0000
  H   H554      1.0  0.06090  0.38545  0.22208  1.0000
  H   H555      1.0  0.05888  0.39974  0.18966  1.0000
  H   H556      1.0  0.08501  0.41719  0.17387  1.0000
  H   H557      1.0  0.19143  0.31985  0.00865  1.0000
  C   C704      1.0  0.46386  0.26548  0.01292  1.0000
  H   H558      1.0  0.27079  0.39961  0.16950  1.0000
  H   H559      1.0  0.47107  0.29954  0.04153  1.0000
  C   C705      1.0  0.10732  0.48879  0.19438  1.0000
  C   C706      1.0  0.48401  0.49369  0.28291  1.0000
  H   H560      1.0  0.44842  0.27745  0.18118  1.0000
  C   C707      1.0  0.27916  0.42710  0.24776  1.0000
  C   C708      1.0  0.46955  0.29474  0.23826  1.0000
  H   H561      1.0  0.04097  0.46330  0.26142  1.0000
  H   H562      1.0  0.19129  0.47252  0.12533  1.0000
  C   C709      1.0  0.42407  0.48067  0.32292  1.0000
  H   H563      1.0  0.36219  0.49329  0.20035  1.0000
  H   H564      1.0  0.00564  0.26207  0.30852  1.0000
  H   H565      1.0  0.01887  0.31335  0.12510  1.0000
  C   C710      1.0  0.13158  0.41221  0.12339  1.0000
  Fe  Fe55      1.0  0.48936  0.26435  0.10888  1.0000
  C   C711      1.0  0.49160  0.42345  0.19320  1.0000
  C   C712      1.0  0.26217  0.36834  0.03313  1.0000
  C   C713      1.0  0.26128  0.36719  0.05269  1.0000
  C   C714      1.0  0.27601  0.37314  0.06159  1.0000
  C   C715      1.0  0.29144  0.38055  0.05090  1.0000
  C   C716      1.0  0.29173  0.38289  0.03128  1.0000
  C   C717      1.0  0.27735  0.37608  0.02245  1.0000
  P   P22       1.0  0.31162  0.39212  0.01727  1.0000
  C   C718      1.0  0.32103  0.41070  0.02814  1.0000
  H   H566      1.0  0.42635  0.27489  0.01466  1.0000
  C   C719      1.0  0.02167  0.48213  0.24565  1.0000
  H   H567      1.0  0.01645  0.35872  0.01884  1.0000
  H   H568      1.0  0.13427  0.40897  0.10882  1.0000
  H   H569      1.0  0.44180  0.37906  0.13101  1.0000
  H   H570      1.0  0.46616  0.42431  0.26437  1.0000
  C   C720      1.0  0.30988  0.42088  0.04192  1.0000
  C   C721      1.0  0.31697  0.43579  0.04959  1.0000
  C   C722      1.0  0.33510  0.44094  0.04334  1.0000
  C   C723      1.0  0.34607  0.43131  0.02921  1.0000
  C   C724      1.0  0.33899  0.41638  0.02149  1.0000
  C   C725      1.0  0.47075  0.38193  0.13692  1.0000
  C   C726      1.0  0.12466  0.42061  0.16113  1.0000
  C   C727      1.0  0.43776  0.26905  0.18855  1.0000
  H   H571      1.0  0.00397  0.47403  0.30190  1.0000
  H   H572      1.0  0.21808  0.46599  0.21986  1.0000
  C   C728      1.0  0.48546  0.43735  0.17972  1.0000
  H   H573      1.0  0.25077  0.36380  0.02618  1.0000
  C   C729      1.0  0.44005  0.26092  0.20671  1.0000
  H   H574      1.0  0.24904  0.36196  0.06091  1.0000
  H   H575      1.0  0.30295  0.38469  0.05800  1.0000
  H   H576      1.0  0.27782  0.37670  0.00730  1.0000
  H   H577      1.0  0.18742  0.39518  0.18789  1.0000
  C   C730      1.0  0.27507  0.45850  0.20200  1.0000
  H   H578      1.0  0.29960  0.48803  0.25069  1.0000
  H   H579      1.0  0.25710  0.46799  0.29209  1.0000
  C   C731      1.0  0.03719  0.47776  0.25629  1.0000
  C   C732      1.0  0.42780  0.49058  0.27234  1.0000
  H   H580      1.0  0.30824  0.44344  0.06032  1.0000
  H   H581      1.0  0.34051  0.45255  0.04931  1.0000
  H   H582      1.0  0.35999  0.43554  0.02412  1.0000
  H   H583      1.0  0.34743  0.40935  0.01023  1.0000
  C   C733      1.0  0.34513  0.36879  0.02284  1.0000
  H   H584      1.0  0.17983  0.45442  0.26863  1.0000
  H   H585      1.0  0.48018  0.28453  0.24405  1.0000
  C   C734      1.0  0.32830  0.37152  0.01378  1.0000
  C   C735      1.0  0.46490  0.43253  0.27653  1.0000
  C   C736      1.0  0.14349  0.41888  0.19622  1.0000
  H   H586      1.0  0.46194  0.46235  0.31957  1.0000
  C   C737      1.0  0.23717  0.48768  0.01312  1.0000
  C   C738      1.0  0.46290  0.25023  0.02647  1.0000
  H   H587      1.0  0.31000  0.35824  0.99739  1.0000
  C   C739      1.0  0.19310  0.45094  0.26018  1.0000
  Fe  Fe56      1.0  0.10295  0.49800  0.27408  1.0000
  C   C740      1.0  0.99925  0.35728  0.99577  1.0000
  H   H588      1.0  0.40118  0.36611  0.29152  1.0000
  H   H589      1.0  0.33082  0.46813  0.29977  1.0000
  C   C741      1.0  0.43405  0.43189  0.13736  1.0000
  H   H590      1.0  0.44850  0.26779  0.25869  1.0000
  C   C742      1.0  0.18600  0.28200  0.00076  1.0000
  C   C743      1.0  0.35456  0.49545  0.21398  1.0000
  H   H591      1.0  0.01332  0.47099  0.24275  1.0000
  H   H592      1.0  0.21606  0.43521  0.20347  1.0000
  C   C744      1.0  0.47196  0.42469  0.29319  1.0000
  H   H593      1.0  0.28541  0.29657  0.00579  1.0000
  H   H594      1.0  0.04290  0.33793  0.30290  1.0000
  C   C745      1.0  0.26132  0.41498  0.19384  1.0000
  C   C746      1.0  0.48909  0.37251  0.13742  1.0000
  C   C747      1.0  0.33534  0.34020  0.00228  1.0000
  H   H595      1.0  0.28068  0.44205  0.24746  1.0000
  C   C748      1.0  0.32333  0.35691  0.00379  1.0000
  C   C749      1.0  0.45492  0.46203  0.29089  1.0000
  C   C750      1.0  0.00957  0.29453  0.99833  1.0000
  C   C751      1.0  0.38837  0.33995  0.29220  1.0000
  H   H596      1.0  0.02499  0.31102  0.15869  1.0000
  H   H597      1.0  0.43645  0.39082  0.16500  1.0000
  C   C752      1.0  0.09277  0.47681  0.19670  1.0000
  H   H598      1.0  0.08539  0.44859  0.19612  1.0000
  C   C753      1.0  0.46727  0.41944  0.10298  1.0000
  C   C754      1.0  0.41112  0.40957  0.16198  1.0000
  H   H599      1.0  0.01603  0.36261  0.30730  1.0000
  C   C755      1.0  0.23649  0.47714  0.03042  1.0000
  C   C756      1.0  0.15853  0.40775  0.18707  1.0000
  C   C757      1.0  0.16331  0.42168  0.22141  1.0000
  C   C758      1.0  0.06478  0.33802  0.99801  1.0000
  C   C759      1.0  0.41926  0.24928  0.06392  1.0000
  P   P23       1.0  0.46681  0.40683  0.14062  1.0000
  C   C760      1.0  0.40328  0.42652  0.15355  1.0000
  C   C761      1.0  0.03601  0.33991  0.31685  1.0000
  H   H600      1.0  0.10578  0.40714  0.31900  1.0000
  C   C762      1.0  0.46510  0.25280  0.04520  1.0000
  H   H601      1.0  0.27538  0.37220  0.07675  1.0000
  C   C763      1.0  0.43040  0.40371  0.15802  1.0000
  C   C764      1.0  0.45597  0.37212  0.13208  1.0000
  P   P24       1.0  0.24985  0.43661  0.22436  1.0000
  C   C765      1.0  0.29136  0.41437  0.25787  1.0000
  C   C766      1.0  0.27707  0.47969  0.27080  1.0000
  H   H602      1.0  0.38838  0.43115  0.15670  1.0000
  H   H603      1.0  0.01968  0.44272  0.29442  1.0000
  C   C767      1.0  0.34549  0.46426  0.29489  1.0000
  H   H604      1.0  0.43485  0.29957  0.20805  1.0000
  H   H605      1.0  0.45393  0.41325  0.10322  1.0000
  H   H606      1.0  0.45402  0.34153  0.23886  1.0000
  C   C768      1.0  0.35087  0.46067  0.27605  1.0000
  H   H607      1.0  0.13775  0.44114  0.11785  1.0000
  H   H608      1.0  0.46648  0.29550  0.00842  1.0000
  P   P25       1.0  0.33363  0.46238  0.25899  1.0000
  C   C769      1.0  0.42134  0.26696  0.17998  1.0000
  H   H609      1.0  0.45082  0.45663  0.26242  1.0000
  H   H610      1.0  0.36143  0.32472  0.00988  1.0000
  C   C770      1.0  0.30386  0.45190  0.28457  1.0000
  H   H611      1.0  0.24709  0.47374  0.24020  1.0000
  C   C771      1.0  0.39697  0.35373  0.30012  1.0000
  C   C772      1.0  0.00294  0.35558  0.01471  1.0000
  H   H612      1.0  0.23193  0.41896  0.25958  1.0000
  H   H613      1.0  0.30230  0.41946  0.26506  1.0000
  H   H614      1.0  0.00248  0.25404  0.16877  1.0000
  C   C773      1.0  0.32419  0.42496  0.22174  1.0000
  C   C774      1.0  0.33644  0.40903  0.22637  1.0000
  C   C775      1.0  0.34796  0.40919  0.24104  1.0000
  C   C776      1.0  0.34722  0.42524  0.25112  1.0000
  C   C777      1.0  0.33531  0.44148  0.24618  1.0000
  C   C778      1.0  0.32377  0.44119  0.23144  1.0000
  H   H615      1.0  0.31526  0.42489  0.21034  1.0000
  H   H616      1.0  0.33719  0.39667  0.21843  1.0000
  H   H617      1.0  0.35768  0.39695  0.24453  1.0000
  H   H618      1.0  0.35609  0.42481  0.26259  1.0000
  C   C779      1.0  0.47501  0.42817  0.08623  1.0000
  H   H619      1.0  0.27544  0.41369  0.19861  1.0000
  H   H620      1.0  0.48739  0.47998  0.28995  1.0000
  P   P26       1.0  0.44571  0.48665  0.28890  1.0000
  C   C780      1.0  0.24080  0.40851  0.17067  1.0000
  H   H621      1.0  0.21174  0.42045  0.17475  1.0000
  H   H622      1.0  0.23892  0.40268  0.15758  1.0000
  C   C781      1.0  0.48087  0.47861  0.22300  1.0000
  S   S111      1.0  0.10482  0.49224  0.24380  1.0000
  H   H623      1.0  0.40233  0.40114  0.17184  1.0000
  C   C782      1.0  0.20546  0.43545  0.26573  1.0000
  H   H624      1.0  0.00323  0.29554  0.18250  1.0000
  H   H625      1.0  0.22778  0.46540  0.03293  1.0000
  H   H626      1.0  0.37008  0.34998  0.02831  1.0000
  H   H627      1.0  0.18951  0.27778  0.01493  1.0000
  C   C783      1.0  0.02084  0.35385  0.31932  1.0000
  C   C784      1.0  0.01277  0.30509  0.15445  1.0000
  H   H628      1.0  0.39582  0.29317  0.01000  1.0000
  C   C785      1.0  0.26638  0.49023  0.22267  1.0000
  C   C786      1.0  0.46819  0.31345  0.24316  1.0000
  C   C787      1.0  0.23174  0.26960  0.00431  1.0000
  H   H629      1.0  0.41933  0.27391  0.16624  1.0000
  H   H630      1.0  0.03493  0.30050  0.00985  1.0000
  C   C788      1.0  0.29586  0.47846  0.26264  1.0000
  C   C789      1.0  0.49240  0.35339  0.13394  1.0000
  C   C790      1.0  0.23470  0.26641  0.02341  1.0000
  C   C791      1.0  0.35921  0.46293  0.30776  1.0000
  C   C792      1.0  0.34916  0.47987  0.22559  1.0000
  C   C793      1.0  0.37837  0.45851  0.30184  1.0000
  C   C794      1.0  0.38574  0.32211  0.32238  1.0000
  C   C795      1.0  0.43533  0.49308  0.31175  1.0000
  C   C796      1.0  0.22107  0.31001  0.01154  1.0000
  C   C797      1.0  0.23728  0.31308  0.02014  1.0000
  C   C798      1.0  0.23623  0.32666  0.03327  1.0000
  H   H631      1.0  0.24884  0.32898  0.03978  1.0000
  C   C799      1.0  0.20300  0.33497  0.02869  1.0000
  C   C800      1.0  0.20394  0.32123  0.01572  1.0000
  C   C801      1.0  0.27989  0.49066  0.20715  1.0000
  C   C802      1.0  0.24715  0.48159  0.04449  1.0000
  C   C803      1.0  0.38276  0.32414  0.30332  1.0000
  H   H632      1.0  0.42430  0.49385  0.22513  1.0000
  C   C804      1.0  0.45484  0.32690  0.23550  1.0000
  H   H633      1.0  0.47990  0.32873  0.12720  1.0000
  C   C805      1.0  0.19763  0.48789  0.09876  1.0000
  Fe  Fe57      1.0  0.26632  0.49377  0.12228  1.0000
  H   H634      1.0  0.47767  0.31761  0.25265  1.0000
  H   H635      1.0  0.23145  0.27753  0.03290  1.0000
  H   H636      1.0  0.00504  0.42305  0.27405  1.0000
  H   H637      1.0  0.40352  0.49379  0.29312  1.0000
  C   C806      1.0  0.30327  0.40359  0.99583  1.0000
  C   C807      1.0  0.46659  0.28336  0.01850  1.0000
  C   C808      1.0  0.40007  0.35170  0.31913  1.0000
  H   H638      1.0  0.25077  0.30503  0.01660  1.0000
  H   H639      1.0  0.28428  0.42446  0.01036  1.0000
  C   C809      1.0  0.13012  0.43455  0.14727  1.0000
  C   C810      1.0  0.13350  0.43035  0.12848  1.0000
  H   H640      1.0  0.28083  0.44321  0.30417  1.0000
  H   H641      1.0  0.21843  0.34870  0.04713  1.0000
  C   C811      1.0  0.27167  0.46704  0.28578  1.0000
  H   H642      1.0  0.39872  0.45226  0.27830  1.0000
  C   C812      1.0  0.43338  0.49096  0.25302  1.0000
  C   C813      1.0  0.44270  0.32161  0.22314  1.0000
  C   C814      1.0  0.22546  0.41846  0.18040  1.0000
  C   C815      1.0  0.38387  0.45564  0.28300  1.0000
  C   C816      1.0  0.49439  0.42606  0.11851  1.0000
  C   C817      1.0  0.28505  0.45309  0.29261  1.0000
  H   H643      1.0  0.37475  0.45436  0.25561  1.0000
  H   H644      1.0  0.07849  0.48209  0.20179  1.0000
  H   H645      1.0  0.47842  0.41026  0.29402  1.0000
  C   C818      1.0  0.24600  0.42522  0.20363  1.0000
  H   H646      1.0  0.19994  0.47533  0.09099  1.0000
  H   H647      1.0  0.42981  0.43449  0.31954  1.0000
  C   C819      1.0  0.04784  0.49207  0.26037  1.0000
  H   H648      1.0  0.46756  0.42884  0.07371  1.0000
  S   S112      1.0  0.42731  0.26249  0.08104  1.0000
  C   C820      1.0  0.25873  0.40679  0.17738  1.0000
  C   C821      1.0  0.40782  0.25887  0.05056  1.0000
  C   C822      1.0  0.44190  0.41455  0.14531  1.0000
  C   C823      1.0  0.26535  0.42044  0.23795  1.0000
  C   C824      1.0  0.28979  0.39500  0.25839  1.0000
  H   H649      1.0  0.29939  0.38519  0.26609  1.0000
  C   C825      1.0  0.45627  0.45103  0.27543  1.0000
  H   H650      1.0  0.25297  0.39551  0.23149  1.0000
  H   H651      1.0  0.40870  0.45119  0.13542  1.0000
  C   C826      1.0  0.48374  0.39924  0.17433  1.0000
  C   C827      1.0  0.19273  0.48631  0.11811  1.0000
  H   H652      1.0  0.18016  0.47916  0.29991  1.0000
  C   C828      1.0  0.46913  0.28574  0.03718  1.0000
  H   H653      1.0  0.39136  0.25661  0.02716  1.0000
  H   H654      1.0  0.31404  0.44087  0.28987  1.0000
  H   H655      1.0  0.31447  0.45354  0.22737  1.0000
  C   C829      1.0  0.00933  0.30643  0.13554  1.0000
  H   H656      1.0  0.49442  0.28647  0.20887  1.0000
  C   C830      1.0  0.26367  0.40095  0.23877  1.0000
  H   H657      1.0  0.43249  0.33212  0.21706  1.0000
  C   C831      1.0  0.21910  0.33765  0.03751  1.0000
  H   H658      1.0  0.13188  0.44863  0.15085  1.0000
  P   P27       1.0  0.46035  0.26540  0.21840  1.0000
  C   C832      1.0  0.35717  0.35207  0.02122  1.0000
  C   C833      1.0  0.42587  0.25028  0.21599  1.0000
  C   C834      1.0  0.47761  0.41310  0.16068  1.0000
  H   H659      1.0  0.42117  0.46754  0.31775  1.0000
  C   C835      1.0  0.27589  0.38830  0.24891  1.0000
  C   C836      1.0  0.21483  0.45742  0.23272  1.0000
  S   S113      1.0  0.13467  0.49558  0.27484  1.0000
  H   H660      1.0  0.16522  0.42725  0.23462  1.0000
  C   C837      1.0  0.33945  0.48242  0.24334  1.0000
  C   C838      1.0  0.19782  0.46192  0.24374  1.0000
  C   C839      1.0  0.22260  0.43097  0.25488  1.0000
  C   C840      1.0  0.22748  0.44197  0.23829  1.0000
  H   H661      1.0  0.40442  0.27397  0.05083  1.0000
  C   C841      1.0  0.40746  0.25612  0.18912  1.0000
  C   C842      1.0  0.26137  0.45792  0.21749  1.0000
  H   H662      1.0  0.44779  0.34534  0.12538  1.0000
  C   C843      1.0  0.30949  0.46479  0.26975  1.0000
  H   H663      1.0  0.15711  0.40236  0.17369  1.0000
  H   H664      1.0  0.38603  0.34161  0.27745  1.0000
  H   H665      1.0  0.27464  0.37327  0.24933  1.0000
  H   H666      1.0  0.12499  0.38412  0.13318  1.0000
  C   C844      1.0  0.45762  0.28937  0.22555  1.0000
  C   C845      1.0  0.17582  0.40366  0.19507  1.0000
  H   H667      1.0  0.26663  0.49044  0.26550  1.0000
  H   H668      1.0  0.38892  0.45714  0.31189  1.0000
  H   H669      1.0  0.47619  0.42942  0.32162  1.0000
  H   H670      1.0  0.46986  0.27234  0.06511  1.0000
  H   H671      1.0  0.22884  0.48389  0.00245  1.0000
  H   H672      1.0  0.06878  0.32462  0.00547  1.0000
  H   H673      1.0  0.45805  0.49448  0.20937  1.0000
  H   H674      1.0  0.13700  0.32911  0.99838  1.0000
  C   C846      1.0  0.49236  0.43595  0.08564  1.0000
  C   C847      1.0  0.40836  0.49383  0.27838  1.0000
  H   H675      1.0  0.35500  0.46515  0.32240  1.0000
  C   C848      1.0  0.42381  0.28089  0.00070  1.0000
  C   C849      1.0  0.20065  0.48942  0.18235  1.0000
  H   H676      1.0  0.21165  0.49695  0.17443  1.0000
  H   H677      1.0  0.40674  0.36266  0.32473  1.0000
  C   C850      1.0  0.00025  0.29644  0.16795  1.0000
  H   H678      1.0  0.08971  0.49075  0.32034  1.0000
  C   C851      1.0  0.39481  0.49705  0.26529  1.0000
  H   H679      1.0  0.33131  0.32895  0.99470  1.0000
  C   C852      1.0  0.16766  0.28023  0.99599  1.0000
  H   H680      1.0  0.49679  0.27616  0.99471  1.0000
  C   C853      1.0  0.99842  0.43699  0.27690  1.0000
  C   C854      1.0  0.24202  0.24860  0.03052  1.0000
  C   C855      1.0  0.15442  0.45221  0.32747  1.0000
  P   P28       1.0  0.22280  0.29255  0.99448  1.0000
  Fe  Fe58      1.0  0.36500  0.40787  0.41444  1.0000
  S   S114      1.0  0.38673  0.39962  0.43539  1.0000
  S   S115      1.0  0.33461  0.40480  0.42746  1.0000
  Fe  Fe59      1.0  0.39576  0.41807  0.38300  1.0000
  S   S116      1.0  0.41915  0.41052  0.40195  1.0000
  S   S117      1.0  0.40653  0.43090  0.35419  1.0000
  Fe  Fe60      1.0  0.40379  0.38483  0.41180  1.0000
  S   S118      1.0  0.42235  0.35663  0.41283  1.0000
  Fe  Fe61      1.0  0.40027  0.42583  0.42388  1.0000
  S   S119      1.0  0.40813  0.45020  0.43957  1.0000
  S   S120      1.0  0.38147  0.39157  0.39140  1.0000
  S   S121      1.0  0.37748  0.43501  0.40440  1.0000
  H   H681      1.0  0.05357  0.31738  0.33006  1.0000
  C   C856      1.0  0.48116  0.48185  0.37541  1.0000
  S   S122      1.0  0.47783  0.45229  0.48890  1.0000
  S   S123      1.0  0.39940  0.27434  0.44157  1.0000
  C   C857      1.0  0.03303  0.27603  0.48364  1.0000
  Fe  Fe62      1.0  0.02619  0.26608  0.65044  1.0000
  Fe  Fe63      1.0  0.10768  0.28251  0.49380  1.0000
  S   S124      1.0  0.09905  0.28937  0.52410  1.0000
  Fe  Fe64      1.0  0.13058  0.29832  0.45842  1.0000
  S   S125      1.0  0.12306  0.27515  0.44165  1.0000
  S   S126      1.0  0.14986  0.31941  0.44230  1.0000
  Fe  Fe65      1.0  0.09338  0.27971  0.45550  1.0000
  S   S127      1.0  0.06630  0.28481  0.44029  1.0000
  S   S128      1.0  0.10033  0.30434  0.47054  1.0000
  S   S129      1.0  0.13865  0.27799  0.48265  1.0000
  Fe  Fe66      1.0  0.20198  0.46236  0.44370  1.0000
  S   S130      1.0  0.21796  0.43346  0.44768  1.0000
  C   C858      1.0  0.00384  0.26051  0.48844  1.0000
  Fe  Fe67      1.0  0.18342  0.45067  0.40892  1.0000
  S   S131      1.0  0.19833  0.42129  0.41063  1.0000
  S   S132      1.0  0.16077  0.46241  0.38915  1.0000
  Fe  Fe68      1.0  0.19079  0.42158  0.44180  1.0000
  S   S133      1.0  0.17638  0.39861  0.46071  1.0000
  Fe  Fe69      1.0  0.22430  0.43524  0.41623  1.0000
  S   S134      1.0  0.25278  0.42985  0.39867  1.0000
  S   S135      1.0  0.17448  0.45045  0.43997  1.0000
  S   S136      1.0  0.20967  0.46464  0.41235  1.0000
  H   H682      1.0  0.45591  0.37738  0.37109  1.0000
  H   H683      1.0  0.40489  0.48535  0.49492  1.0000
  C   C859      1.0  0.22452  0.29255  0.45540  1.0000
  C   C860      1.0  0.05408  0.27693  0.37157  1.0000
  H   H684      1.0  0.01019  0.34677  0.36635  1.0000
  C   C861      1.0  0.15686  0.34147  0.44779  1.0000
  C   C862      1.0  0.15006  0.34992  0.46436  1.0000
  C   C863      1.0  0.15615  0.36738  0.46804  1.0000
  C   C864      1.0  0.16885  0.37680  0.45511  1.0000
  C   C865      1.0  0.17545  0.36845  0.43843  1.0000
  C   C866      1.0  0.16958  0.35087  0.43488  1.0000
  H   H685      1.0  0.14010  0.34303  0.47434  1.0000
  H   H686      1.0  0.15092  0.37368  0.48098  1.0000
  H   H687      1.0  0.18533  0.37540  0.42843  1.0000
  H   H688      1.0  0.17497  0.34448  0.42204  1.0000
  H   H689      1.0  0.13602  0.26712  0.52225  1.0000
  H   H690      1.0  0.30013  0.45742  0.42679  1.0000
  C   C867      1.0  0.17287  0.44709  0.35492  1.0000
  C   C868      1.0  0.15853  0.45748  0.36561  1.0000
  C   C869      1.0  0.14194  0.46476  0.35723  1.0000
  C   C870      1.0  0.12430  0.41220  0.33963  1.0000
  C   C871      1.0  0.46934  0.49388  0.64372  1.0000
  H   H691      1.0  0.18567  0.44132  0.36117  1.0000
  H   H692      1.0  0.13065  0.47261  0.36541  1.0000
  H   H693      1.0  0.01273  0.34025  0.43008  1.0000
  H   H694      1.0  0.30575  0.43328  0.48972  1.0000
  P   P29       1.0  0.20698  0.27609  0.46231  1.0000
  C   C872      1.0  0.43636  0.46253  0.52364  1.0000
  C   C873      1.0  0.07883  0.36810  0.41994  1.0000
  H   H695      1.0  0.08900  0.38345  0.33979  1.0000
  C   C874      1.0  0.41642  0.34701  0.36024  1.0000
  C   C875      1.0  0.05483  0.26830  0.42923  1.0000
  C   C876      1.0  0.03698  0.27405  0.42264  1.0000
  C   C877      1.0  0.06889  0.27090  0.57216  1.0000
  H   H696      1.0  0.03043  0.28816  0.42474  1.0000
  C   C878      1.0  0.42781  0.45060  0.45292  1.0000
  C   C879      1.0  0.43894  0.43411  0.45828  1.0000
  C   C880      1.0  0.45426  0.43498  0.46914  1.0000
  C   C881      1.0  0.45862  0.45229  0.47483  1.0000
  C   C882      1.0  0.44763  0.46885  0.46930  1.0000
  C   C883      1.0  0.43227  0.46798  0.45845  1.0000
  H   H697      1.0  0.43561  0.42065  0.45423  1.0000
  H   H698      1.0  0.46268  0.42210  0.47333  1.0000
  H   H699      1.0  0.45083  0.48225  0.47361  1.0000
  H   H700      1.0  0.42374  0.48081  0.45436  1.0000
  C   C884      1.0  0.41526  0.33386  0.42024  1.0000
  C   C885      1.0  0.39843  0.33137  0.43163  1.0000
  C   C886      1.0  0.39376  0.31304  0.43786  1.0000
  C   C887      1.0  0.40576  0.29700  0.43269  1.0000
  C   C888      1.0  0.42237  0.29947  0.42093  1.0000
  C   C889      1.0  0.42713  0.31781  0.41485  1.0000
  H   H701      1.0  0.38917  0.34357  0.43590  1.0000
  H   H702      1.0  0.38084  0.31128  0.44690  1.0000
  H   H703      1.0  0.43167  0.28726  0.41675  1.0000
  H   H704      1.0  0.44012  0.31959  0.40596  1.0000
  C   C890      1.0  0.27543  0.42329  0.40707  1.0000
  C   C891      1.0  0.27743  0.41715  0.42580  1.0000
  C   C892      1.0  0.29564  0.41161  0.43177  1.0000
  C   C893      1.0  0.31210  0.41246  0.41917  1.0000
  C   C894      1.0  0.31014  0.41889  0.40049  1.0000
  C   C895      1.0  0.29188  0.42408  0.39445  1.0000
  H   H705      1.0  0.26491  0.41637  0.43559  1.0000
  H   H706      1.0  0.29697  0.40659  0.44624  1.0000
  H   H707      1.0  0.32265  0.41952  0.39064  1.0000
  H   H708      1.0  0.29047  0.42876  0.37992  1.0000
  C   C896      1.0  0.32217  0.47837  0.46663  1.0000
  H   H709      1.0  0.47357  0.49124  0.32925  1.0000
  H   H710      1.0  0.17823  0.30057  0.40409  1.0000
  C   C897      1.0  0.08448  0.27582  0.54035  1.0000
  C   C898      1.0  0.40416  0.48220  0.40007  1.0000
  H   H711      1.0  0.49418  0.38438  0.60265  1.0000
  C   C899      1.0  0.48673  0.26720  0.43786  1.0000
  C   C900      1.0  0.42749  0.37766  0.36307  1.0000
  C   C901      1.0  0.44408  0.47771  0.39794  1.0000
  C   C902      1.0  0.00681  0.30691  0.39148  1.0000
  H   H712      1.0  0.25949  0.30082  0.42044  1.0000
  H   H713      1.0  0.43694  0.32310  0.36618  1.0000
  H   H714      1.0  0.42207  0.30329  0.33664  1.0000
  H   H715      1.0  0.99964  0.36682  0.33903  1.0000
  C   C903      1.0  0.19119  0.28970  0.42910  1.0000
  H   H716      1.0  0.07155  0.33622  0.35076  1.0000
  H   H717      1.0  0.18201  0.43647  0.32784  1.0000
  C   C904      1.0  0.10965  0.40359  0.33318  1.0000
  H   H718      1.0  0.08674  0.29325  0.56299  1.0000
  H   H719      1.0  0.12706  0.46777  0.33210  1.0000
  H   H720      1.0  0.11110  0.33477  0.43802  1.0000
  C   C905      1.0  0.45692  0.27044  0.45765  1.0000
  C   C906      1.0  0.39051  0.41088  0.32908  1.0000
  C   C907      1.0  0.10554  0.34703  0.42964  1.0000
  C   C908      1.0  0.27715  0.48098  0.48278  1.0000
  C   C909      1.0  0.00736  0.33707  0.63146  1.0000
  C   C910      1.0  0.47847  0.47318  0.61856  1.0000
  H   H721      1.0  0.35816  0.34331  0.34549  1.0000
  H   H722      1.0  0.39952  0.37381  0.35619  1.0000
  C   C911      1.0  0.13988  0.46214  0.33831  1.0000
  H   H723      1.0  0.00479  0.29753  0.38090  1.0000
  H   H724      1.0  0.01400  0.26651  0.40804  1.0000
  C   C912      1.0  0.41428  0.46833  0.38943  1.0000
  C   C913      1.0  0.07945  0.36650  0.64582  1.0000
  S   S137      1.0  0.01208  0.26850  0.62329  1.0000
  C   C914      1.0  0.44839  0.34923  0.36873  1.0000
  H   H725      1.0  0.44954  0.44351  0.41889  1.0000
  C   C915      1.0  0.08594  0.35196  0.43031  1.0000
  H   H726      1.0  0.03361  0.35009  0.62789  1.0000
  H   H727      1.0  0.17361  0.33487  0.37660  1.0000
  C   C916      1.0  0.26233  0.48851  0.51360  1.0000
  H   H728      1.0  0.38875  0.48337  0.40149  1.0000
  H   H729      1.0  0.40673  0.45886  0.38252  1.0000
  C   C917      1.0  0.22647  0.30763  0.46625  1.0000
  H   H730      1.0  0.49316  0.29235  0.42031  1.0000
  C   C918      1.0  0.21153  0.49550  0.51371  1.0000
  S   S138      1.0  0.49433  0.47350  0.53159  1.0000
  H   H731      1.0  0.15691  0.30095  0.52431  1.0000
  H   H732      1.0  0.42073  0.45365  0.50227  1.0000
  H   H733      1.0  0.44644  0.26421  0.46761  1.0000
  H   H734      1.0  0.40666  0.25817  0.48459  1.0000
  C   C919      1.0  0.06083  0.25528  0.56695  1.0000
  C   C920      1.0  0.43414  0.33829  0.36497  1.0000
  H   H735      1.0  0.26214  0.32791  0.43927  1.0000
  C   C921      1.0  0.43380  0.49169  0.40857  1.0000
  H   H736      1.0  0.21768  0.30968  0.47924  1.0000
  H   H737      1.0  0.36328  0.27536  0.52800  1.0000
  C   C922      1.0  0.02948  0.28638  0.35069  1.0000
  H   H738      1.0  0.13316  0.35411  0.41848  1.0000
  H   H739      1.0  0.10294  0.34153  0.36000  1.0000
  H   H740      1.0  0.11463  0.42941  0.38615  1.0000
  C   C923      1.0  0.27041  0.40483  0.48887  1.0000
  C   C924      1.0  0.23993  0.32037  0.46037  1.0000
  C   C925      1.0  0.47786  0.48578  0.41599  1.0000
  C   C926      1.0  0.46762  0.41781  0.41603  1.0000
  C   C927      1.0  0.07929  0.35435  0.63149  1.0000
  H   H741      1.0  0.01493  0.27364  0.46188  1.0000
  C   C928      1.0  0.41391  0.49393  0.40957  1.0000
  C   C929      1.0  0.28042  0.44076  0.47515  1.0000
  H   H742      1.0  0.47687  0.48624  0.59052  1.0000
  P   P30       1.0  0.28690  0.46386  0.46628  1.0000
  C   C930      1.0  0.46304  0.43723  0.41277  1.0000
  H   H743      1.0  0.13860  0.27363  0.55507  1.0000
  C   C931      1.0  0.25927  0.47856  0.41076  1.0000
  C   C932      1.0  0.47493  0.48834  0.60542  1.0000
  S   S139      1.0  0.20420  0.48988  0.45818  1.0000
  P   P31       1.0  0.46967  0.47347  0.39773  1.0000
  C   C933      1.0  0.13539  0.25980  0.55186  1.0000
  C   C934      1.0  0.12937  0.40776  0.35790  1.0000
  C   C935      1.0  0.11960  0.39479  0.36999  1.0000
  C   C936      1.0  0.10528  0.38573  0.36318  1.0000
  P   P32       1.0  0.12701  0.38857  0.39323  1.0000
  C   C937      1.0  0.15069  0.37683  0.38956  1.0000
  C   C938      1.0  0.12738  0.40893  0.40641  1.0000
  C   C939      1.0  0.13464  0.40653  0.42402  1.0000
  C   C940      1.0  0.13548  0.42210  0.43439  1.0000
  C   C941      1.0  0.15332  0.35829  0.38396  1.0000
  C   C942      1.0  0.17167  0.34930  0.38057  1.0000
  C   C943      1.0  0.18751  0.35891  0.38238  1.0000
  C   C944      1.0  0.18500  0.37754  0.38746  1.0000
  C   C945      1.0  0.16668  0.38652  0.39098  1.0000
  C   C946      1.0  0.09133  0.37919  0.40876  1.0000
  C   C947      1.0  0.44506  0.36891  0.36776  1.0000
  C   C948      1.0  0.43413  0.46608  0.38834  1.0000
  C   C949      1.0  0.02292  0.26242  0.51447  1.0000
  H   H744      1.0  0.14092  0.41449  0.36258  1.0000
  H   H745      1.0  0.09809  0.37506  0.37181  1.0000
  H   H746      1.0  0.13995  0.39265  0.42964  1.0000
  H   H747      1.0  0.14155  0.42018  0.44776  1.0000
  H   H748      1.0  0.14118  0.35076  0.38233  1.0000
  C   C950      1.0  0.15708  0.48260  0.50768  1.0000
  H   H749      1.0  0.20173  0.35195  0.37985  1.0000
  H   H750      1.0  0.19726  0.38505  0.38879  1.0000
  H   H751      1.0  0.16510  0.40103  0.39473  1.0000
  H   H752      1.0  0.08566  0.39194  0.40118  1.0000
  C   C951      1.0  0.35239  0.46186  0.45581  1.0000
  C   C952      1.0  0.39877  0.26890  0.49282  1.0000
  H   H753      1.0  0.46459  0.31182  0.43252  1.0000
  H   H754      1.0  0.06366  0.37213  0.42077  1.0000
  H   H755      1.0  0.14856  0.48816  0.53634  1.0000
  H   H756      1.0  0.06323  0.27993  0.38187  1.0000
  C   C953      1.0  0.41316  0.36677  0.35953  1.0000
  H   H757      1.0  0.41286  0.29129  0.47724  1.0000
  C   C954      1.0  0.34237  0.35287  0.37046  1.0000
  C   C955      1.0  0.42196  0.27842  0.35558  1.0000
  Fe  Fe70      1.0  0.12925  0.25530  0.46688  1.0000
  C   C956      1.0  0.45399  0.28940  0.45117  1.0000
  H   H758      1.0  0.44126  0.29796  0.45611  1.0000
  C   C957      1.0  0.37432  0.27852  0.51707  1.0000
  C   C958      1.0  0.37818  0.29733  0.51302  1.0000
  C   C959      1.0  0.39213  0.30194  0.49873  1.0000
  C   C960      1.0  0.40240  0.28772  0.48866  1.0000
  C   C961      1.0  0.18803  0.27166  0.49829  1.0000
  C   C962      1.0  0.17078  0.44443  0.33598  1.0000
  C   C963      1.0  0.39451  0.33583  0.33045  1.0000
  H   H759      1.0  0.43164  0.26989  0.34634  1.0000
  H   H760      1.0  0.11689  0.45670  0.40426  1.0000
  C   C964      1.0  0.08063  0.28113  0.55889  1.0000
  H   H761      1.0  0.07939  0.25581  0.52103  1.0000
  C   C965      1.0  0.25779  0.47911  0.44451  1.0000
  C   C966      1.0  0.25023  0.30275  0.43319  1.0000
  C   C967      1.0  0.16868  0.27371  0.41449  1.0000
  C   C968      1.0  0.46719  0.29721  0.43781  1.0000
  C   C969      1.0  0.16659  0.29619  0.51263  1.0000
  H   H762      1.0  0.45063  0.47570  0.54352  1.0000
  H   H763      1.0  0.47790  0.46406  0.64789  1.0000
  C   C970      1.0  0.04204  0.32838  0.33226  1.0000
  H   H764      1.0  0.37018  0.30838  0.52079  1.0000
  H   H765      1.0  0.39485  0.31653  0.49530  1.0000
  C   C971      1.0  0.07197  0.33688  0.63542  1.0000
  H   H766      1.0  0.01118  0.32831  0.61977  1.0000
  C   C972      1.0  0.01698  0.27041  0.47661  1.0000
  C   C973      1.0  0.15173  0.49441  0.52229  1.0000
  C   C974      1.0  0.27631  0.46996  0.44445  1.0000
  C   C975      1.0  0.03607  0.27198  0.50251  1.0000
  H   H767      1.0  0.25247  0.48129  0.39783  1.0000
  H   H768      1.0  0.39810  0.27558  0.39902  1.0000
  H   H769      1.0  0.46672  0.49577  0.65857  1.0000
  C   C976      1.0  0.18118  0.30178  0.48100  1.0000
  C   C977      1.0  0.48343  0.28613  0.43100  1.0000
  C   C978      1.0  0.24942  0.48354  0.42771  1.0000
  H   H770      1.0  0.41969  0.25596  0.37747  1.0000
  H   H771      1.0  0.07185  0.32742  0.62436  1.0000
  H   H772      1.0  0.23507  0.49042  0.42793  1.0000
  H   H773      1.0  0.33017  0.36216  0.39731  1.0000
  C   C979      1.0  0.47324  0.25939  0.45103  1.0000
  C   C980      1.0  0.02006  0.34925  0.63611  1.0000
  C   C981      1.0  0.34202  0.47765  0.46333  1.0000
  H   H774      1.0  0.38028  0.40701  0.34056  1.0000
  C   C982      1.0  0.25176  0.31797  0.44382  1.0000
  C   C983      1.0  0.23670  0.29005  0.43898  1.0000
  H   H775      1.0  0.16150  0.32198  0.49535  1.0000
  H   H776      1.0  0.45765  0.40936  0.42449  1.0000
  C   C984      1.0  0.41423  0.48335  0.50608  1.0000
  C   C985      1.0  0.47550  0.47591  0.63772  1.0000
  C   C986      1.0  0.44021  0.47770  0.53330  1.0000
  C   C987      1.0  0.42325  0.46533  0.51016  1.0000
  C   C988      1.0  0.11804  0.35799  0.41835  1.0000
  H   H777      1.0  0.04856  0.27639  0.50787  1.0000
  C   C989      1.0  0.40517  0.42157  0.33226  1.0000
  H   H778      1.0  0.42483  0.39290  0.36250  1.0000
  C   C990      1.0  0.20966  0.48744  0.49667  1.0000
  H   H779      1.0  0.15930  0.27330  0.40355  1.0000
  H   H780      1.0  0.44164  0.45482  0.38047  1.0000
  C   C991      1.0  0.48900  0.48571  0.44690  1.0000
  H   H781      1.0  0.29706  0.40159  0.50127  1.0000
  H   H782      1.0  0.48330  0.45931  0.61384  1.0000
  C   C992      1.0  0.17598  0.27798  0.51358  1.0000
  C   C993      1.0  0.49326  0.43974  0.39432  1.0000
  C   C994      1.0  0.13391  0.25614  0.53331  1.0000
  C   C995      1.0  0.25815  0.41679  0.47816  1.0000
  C   C996      1.0  0.12141  0.44262  0.40995  1.0000
  H   H783      1.0  0.01940  0.26401  0.33734  1.0000
  C   C997      1.0  0.12899  0.44016  0.42730  1.0000
  C   C998      1.0  0.23128  0.25200  0.48349  1.0000
  C   C999      1.0  0.16915  0.30805  0.49631  1.0000
  H   H784      1.0  0.38839  0.30870  0.38978  1.0000
  H   H785      1.0  0.34945  0.48928  0.46654  1.0000
  C   C1000     1.0  0.19234  0.27503  0.44334  1.0000
  C   C1001     1.0  0.41650  0.48506  0.34090  1.0000
  C   C1002     1.0  0.17948  0.28896  0.41469  1.0000
  H   H786      1.0  0.15831  0.46740  0.51047  1.0000
  H   H787      1.0  0.38108  0.30990  0.33086  1.0000
  H   H788      1.0  0.49232  0.47821  0.46007  1.0000
  H   H789      1.0  0.06610  0.27509  0.58638  1.0000
  C   C1003     1.0  0.02758  0.26175  0.41320  1.0000
  C   C1004     1.0  0.07651  0.26010  0.53520  1.0000
  H   H790      1.0  0.36777  0.46125  0.45326  1.0000
  C   C1005     1.0  0.41525  0.27055  0.37313  1.0000
  C   C1006     1.0  0.39749  0.30048  0.37987  1.0000
  H   H791      1.0  0.04318  0.28356  0.47443  1.0000
  H   H792      1.0  0.20973  0.47231  0.49638  1.0000
  C   C1007     1.0  0.04188  0.29123  0.36320  1.0000
  C   C1008     1.0  0.05404  0.25820  0.36725  1.0000
  P   P33       1.0  0.04030  0.31520  0.37001  1.0000
  C   C1009     1.0  0.02264  0.31740  0.38983  1.0000
  C   C1010     1.0  0.06319  0.32010  0.37662  1.0000
  C   C1011     1.0  0.06894  0.31309  0.39422  1.0000
  C   C1012     1.0  0.08673  0.31625  0.39941  1.0000
  C   C1013     1.0  0.09896  0.32654  0.38711  1.0000
  C   C1014     1.0  0.09337  0.33370  0.36960  1.0000
  C   C1015     1.0  0.07553  0.33056  0.36437  1.0000
  H   H793      1.0  0.17365  0.26860  0.52604  1.0000
  C   C1016     1.0  0.41643  0.29731  0.35013  1.0000
  H   H794      1.0  0.25692  0.48401  0.52772  1.0000
  H   H795      1.0  0.24484  0.41213  0.47498  1.0000
  H   H796      1.0  0.36031  0.35527  0.41229  1.0000
  C   C1017     1.0  0.04164  0.25352  0.35483  1.0000
  C   C1018     1.0  0.10020  0.39029  0.34491  1.0000
  H   H797      1.0  0.19880  0.30203  0.42938  1.0000
  H   H798      1.0  0.24952  0.48252  0.45752  1.0000
  C   C1019     1.0  0.11101  0.37390  0.40744  1.0000
  C   C1020     1.0  0.32315  0.44747  0.45475  1.0000
  H   H799      1.0  0.48850  0.39426  0.41107  1.0000
  H   H800      1.0  0.02522  0.25955  0.52917  1.0000
  P   P34       1.0  0.39783  0.33318  0.35525  1.0000
  C   C1021     1.0  0.01168  0.35627  0.33722  1.0000
  H   H801      1.0  0.05835  0.31833  0.65655  1.0000
  H   H802      1.0  0.05974  0.30492  0.40392  1.0000
  H   H803      1.0  0.09104  0.31054  0.41299  1.0000
  H   H804      1.0  0.11279  0.32883  0.39118  1.0000
  H   H805      1.0  0.16578  0.48124  0.47815  1.0000
  S   S140      1.0  0.09874  0.25837  0.47968  1.0000
  H   H806      1.0  0.03631  0.33830  0.40253  1.0000
  H   H807      1.0  0.01928  0.29692  0.34467  1.0000
  H   H808      1.0  0.13019  0.45229  0.43507  1.0000
  C   C1022     1.0  0.19110  0.28371  0.48205  1.0000
  H   H809      1.0  0.13181  0.42227  0.33039  1.0000
  H   H810      1.0  0.38960  0.34319  0.39389  1.0000
  H   H811      1.0  0.37558  0.25502  0.47174  1.0000
  C   C1023     1.0  0.40303  0.28158  0.38524  1.0000
  C   C1024     1.0  0.12048  0.42707  0.39955  1.0000
  C   C1025     1.0  0.02446  0.32975  0.40366  1.0000
  C   C1026     1.0  0.35889  0.34566  0.36006  1.0000
  H   H812      1.0  0.07634  0.34334  0.43906  1.0000
  C   C1027     1.0  0.02945  0.26764  0.34649  1.0000
  H   H813      1.0  0.44395  0.44874  0.52618  1.0000
  C   C1028     1.0  0.26309  0.43471  0.47137  1.0000
  C   C1029     1.0  0.48499  0.40932  0.40846  1.0000
  C   C1030     1.0  0.01105  0.33100  0.41926  1.0000
  C   C1031     1.0  0.06443  0.33171  0.65358  1.0000
  C   C1032     1.0  0.34295  0.44679  0.45155  1.0000
  H   H814      1.0  0.25340  0.44370  0.46305  1.0000
  C   C1033     1.0  0.29248  0.42881  0.48629  1.0000
  H   H815      1.0  0.40793  0.47525  0.34941  1.0000
  H   H816      1.0  0.31614  0.43564  0.45124  1.0000
  C   C1034     1.0  0.28615  0.46506  0.42732  1.0000
  C   C1035     1.0  0.43115  0.49569  0.52932  1.0000
  C   C1036     1.0  0.16935  0.25934  0.42887  1.0000
  C   C1037     1.0  0.28754  0.41087  0.49298  1.0000
  C   C1038     1.0  0.31256  0.46324  0.46234  1.0000
  C   C1039     1.0  0.27765  0.46942  0.41056  1.0000
  C   C1040     1.0  0.03303  0.33083  0.35034  1.0000
  H   H817      1.0  0.31443  0.49070  0.47248  1.0000
  C   C1041     1.0  0.40396  0.30847  0.36214  1.0000
  H   H818      1.0  0.35096  0.43452  0.44569  1.0000
  H   H819      1.0  0.32921  0.35604  0.36390  1.0000
  H   H820      1.0  0.21310  0.48638  0.52633  1.0000
  C   C1042     1.0  0.27077  0.47519  0.50129  1.0000
  Fe  Fe71      1.0  0.48900  0.47717  0.50108  1.0000
  H   H821      1.0  0.08471  0.38015  0.64236  1.0000
  H   H822      1.0  0.47989  0.46141  0.43610  1.0000
  H   H823      1.0  0.24113  0.33218  0.46861  1.0000
  H   H824      1.0  0.27186  0.46042  0.50618  1.0000
  H   H825      1.0  0.46182  0.34245  0.37289  1.0000
  H   H826      1.0  0.26662  0.39089  0.49395  1.0000
  C   C1043     1.0  0.37609  0.34192  0.36844  1.0000
  C   C1044     1.0  0.37641  0.34548  0.38732  1.0000
  C   C1045     1.0  0.35983  0.35235  0.39776  1.0000
  C   C1046     1.0  0.34285  0.35625  0.38930  1.0000
  C   C1047     1.0  0.47575  0.44834  0.40178  1.0000
  C   C1048     1.0  0.38451  0.26414  0.50689  1.0000
  C   C1049     1.0  0.48201  0.47620  0.43316  1.0000
  C   C1050     1.0  0.16117  0.49037  0.48943  1.0000
  H   H827      1.0  0.08479  0.35850  0.61730  1.0000
  H   H828      1.0  0.18267  0.31101  0.46829  1.0000
  C   C1051     1.0  0.01773  0.34485  0.35270  1.0000
  C   C1052     1.0  0.18076  0.26024  0.44349  1.0000
  H   H829      1.0  0.28504  0.46507  0.39747  1.0000
  H   H830      1.0  0.33882  0.24865  0.52416  1.0000
  H   H831      1.0  0.02538  0.36934  0.65529  1.0000
  H   H832      1.0  0.13107  0.40547  0.65867  1.0000
  C   C1053     1.0  0.00681  0.25679  0.50751  1.0000
  H   H833      1.0  0.18050  0.24938  0.45492  1.0000
  C   C1054     1.0  0.01539  0.36013  0.65151  1.0000
  H   H834      1.0  0.48984  0.25329  0.39458  1.0000
  H   H835      1.0  0.23562  0.27832  0.43060  1.0000
  C   C1055     1.0  0.22063  0.25386  0.46785  1.0000
  H   H836      1.0  0.19462  0.25730  0.49913  1.0000
  C   C1056     1.0  0.06313  0.25000  0.42638  1.0000
  C   C1057     1.0  0.48092  0.48983  0.34185  1.0000
  H   H837      1.0  0.23125  0.26372  0.49216  1.0000
  C   C1058     1.0  0.49783  0.42028  0.39765  1.0000
  H   H838      1.0  0.45716  0.48015  0.35932  1.0000
  C   C1059     1.0  0.47166  0.48357  0.35900  1.0000
  C   C1060     1.0  0.09663  0.49679  0.33091  1.0000
  H   H839      1.0  0.07760  0.48672  0.35387  1.0000
  H   H840      1.0  0.19424  0.49475  0.57301  1.0000
  C   C1061     1.0  0.08973  0.49467  0.34977  1.0000
  H   H841      1.0  0.13345  0.24863  0.58064  1.0000
  C   C1062     1.0  0.06464  0.25000  0.54841  1.0000
  C   C1063     1.0  0.02142  0.31906  0.69157  1.0000
  P   P35       1.0  0.08968  0.30228  0.81604  1.0000
  Fe  Fe72      1.0  0.22840  0.40792  0.96495  1.0000
  C   C1064     1.0  0.12507  0.25454  0.80697  1.0000
  S   S141      1.0  0.22436  0.43842  0.95255  1.0000
  Fe  Fe73      1.0  0.25308  0.37061  0.97353  1.0000
  S   S142      1.0  0.28291  0.35631  0.96568  1.0000
  Fe  Fe74      1.0  0.21007  0.37002  0.97075  1.0000
  S   S143      1.0  0.19007  0.35356  0.95622  1.0000
  S   S144      1.0  0.23394  0.38074  0.95077  1.0000
  C   C1065     1.0  0.06456  0.34379  0.66791  1.0000
  Fe  Fe75      1.0  0.03988  0.35292  0.75400  1.0000
  H   H842      1.0  0.08552  0.33309  0.84186  1.0000
  S   S145      1.0  0.05102  0.32840  0.73563  1.0000
  Fe  Fe76      1.0  0.05142  0.38790  0.77190  1.0000
  S   S146      1.0  0.02320  0.39225  0.78913  1.0000
  S   S147      1.0  0.07563  0.40571  0.77546  1.0000
  Fe  Fe77      1.0  0.02641  0.36059  0.79526  1.0000
  S   S148      1.0  0.01929  0.34412  0.82344  1.0000
  H   H843      1.0  0.01877  0.42760  0.82617  1.0000
  S   S149      1.0  0.05522  0.35649  0.77942  1.0000
  S   S150      1.0  0.03872  0.38403  0.74538  1.0000
  Fe  Fe78      1.0  0.09082  0.30526  0.95621  1.0000
  S   S151      1.0  0.06247  0.32192  0.95207  1.0000
  S   S152      1.0  0.11243  0.31413  0.97493  1.0000
  Fe  Fe79      1.0  0.08116  0.27280  0.93400  1.0000
  S   S153      1.0  0.05233  0.28727  0.92844  1.0000
  Fe  Fe80      1.0  0.06711  0.31369  0.92206  1.0000
  S   S154      1.0  0.06528  0.33522  0.89659  1.0000
  Fe  Fe81      1.0  0.04965  0.29422  0.95898  1.0000
  S   S155      1.0  0.02053  0.28984  0.97540  1.0000
  S   S156      1.0  0.09621  0.29896  0.92599  1.0000
  S   S157      1.0  0.07773  0.27785  0.96475  1.0000
  C   C1066     1.0  0.01122  0.32728  0.93973  1.0000
  C   C1067     1.0  0.09175  0.28998  0.87235  1.0000
  H   H844      1.0  0.05844  0.33961  0.68187  1.0000
  C   C1068     1.0  0.03617  0.37528  0.70165  1.0000
  S   S158      1.0  0.27551  0.48202  0.88851  1.0000
  S   S159      1.0  0.10048  0.48283  0.73280  1.0000
  C   C1069     1.0  0.11704  0.40773  0.66603  1.0000
  H   H845      1.0  0.04939  0.31521  0.81814  1.0000
  C   C1070     1.0  0.04591  0.34288  0.99410  1.0000
  C   C1071     1.0  0.04235  0.31832  0.71658  1.0000
  C   C1072     1.0  0.02665  0.32670  0.70761  1.0000
  C   C1073     1.0  0.20648  0.48041  0.87779  1.0000
  C   C1074     1.0  0.03121  0.30251  0.68464  1.0000
  C   C1075     1.0  0.04650  0.29374  0.69401  1.0000
  C   C1076     1.0  0.05215  0.30173  0.70972  1.0000
  H   H846      1.0  0.16408  0.34101  0.93286  1.0000
  H   H847      1.0  0.16702  0.34468  0.99179  1.0000
  H   H848      1.0  0.05440  0.28118  0.68876  1.0000
  C   C1077     1.0  0.05047  0.25343  0.81020  1.0000
  C   C1078     1.0  0.08128  0.42767  0.76376  1.0000
  C   C1079     1.0  0.09365  0.43829  0.77171  1.0000
  C   C1080     1.0  0.09928  0.45537  0.76265  1.0000
  C   C1081     1.0  0.09290  0.46190  0.74528  1.0000
  C   C1082     1.0  0.08041  0.45135  0.73733  1.0000
  C   C1083     1.0  0.07447  0.43443  0.74658  1.0000
  H   H849      1.0  0.09902  0.43322  0.78496  1.0000
  H   H850      1.0  0.10888  0.46328  0.76896  1.0000
  H   H851      1.0  0.07534  0.45629  0.72394  1.0000
  H   H852      1.0  0.06495  0.42646  0.74027  1.0000
  C   C1084     1.0  0.03263  0.34153  0.84343  1.0000
  C   C1085     1.0  0.04547  0.35434  0.84638  1.0000
  C   C1086     1.0  0.05514  0.35220  0.86279  1.0000
  C   C1087     1.0  0.05254  0.33700  0.87624  1.0000
  C   C1088     1.0  0.03989  0.32402  0.87317  1.0000
  C   C1089     1.0  0.02988  0.32639  0.85695  1.0000
  H   H853      1.0  0.04769  0.36610  0.83619  1.0000
  H   H854      1.0  0.06477  0.36241  0.86508  1.0000
  H   H855      1.0  0.03770  0.31227  0.88335  1.0000
  C   C1090     1.0  0.14452  0.28074  0.80164  1.0000
  C   C1091     1.0  0.23903  0.44994  0.93473  1.0000
  C   C1092     1.0  0.25455  0.44045  0.92471  1.0000
  C   C1093     1.0  0.26562  0.45040  0.91055  1.0000
  C   C1094     1.0  0.26113  0.46981  0.90617  1.0000
  C   C1095     1.0  0.24549  0.47916  0.91611  1.0000
  C   C1096     1.0  0.23468  0.46933  0.93041  1.0000
  H   H856      1.0  0.25798  0.42548  0.92783  1.0000
  H   H857      1.0  0.27766  0.44301  0.90293  1.0000
  H   H858      1.0  0.47846  0.48703  0.89646  1.0000
  H   H859      1.0  0.22283  0.47682  0.93816  1.0000
  C   C1097     1.0  0.16775  0.34397  0.96187  1.0000
  C   C1098     1.0  0.15813  0.33858  0.94721  1.0000
  C   C1099     1.0  0.14095  0.32998  0.95087  1.0000
  C   C1100     1.0  0.13322  0.32639  0.96934  1.0000
  C   C1101     1.0  0.14276  0.33188  0.98403  1.0000
  C   C1102     1.0  0.15983  0.34070  0.98035  1.0000
  C   C1103     1.0  0.01647  0.35440  0.95620  1.0000
  H   H860      1.0  0.13387  0.32586  0.93941  1.0000
  H   H861      1.0  0.08481  0.37586  0.97557  1.0000
  C   C1104     1.0  0.30864  0.29634  0.98408  1.0000
  H   H862      1.0  0.12135  0.25011  0.95580  1.0000
  C   C1105     1.0  0.29235  0.33313  0.97304  1.0000
  C   C1106     1.0  0.30906  0.32508  0.96335  1.0000
  C   C1107     1.0  0.31711  0.30675  0.96874  1.0000
  H   H863      1.0  0.31578  0.33303  0.95151  1.0000
  H   H864      1.0  0.32988  0.30071  0.96105  1.0000
  C   C1108     1.0  0.99978  0.46247  0.79635  1.0000
  C   C1109     1.0  0.03355  0.44499  0.70863  1.0000
  C   C1110     1.0  0.19952  0.28971  0.98751  1.0000
  H   H865      1.0  0.43108  0.28075  0.90999  1.0000
  C   C1111     1.0  0.06193  0.28043  0.86461  1.0000
  C   C1112     1.0  0.26396  0.31509  0.94596  1.0000
  C   C1113     1.0  0.03940  0.40021  0.67697  1.0000
  H   H866      1.0  0.23292  0.27158  0.93135  1.0000
  H   H867      1.0  0.01879  0.33929  0.71276  1.0000
  H   H868      1.0  0.07435  0.38893  0.72029  1.0000
  H   H869      1.0  0.09341  0.34609  0.99425  1.0000
  C   C1114     1.0  0.10000  0.33470  0.79508  1.0000
  C   C1115     1.0  0.01096  0.39066  0.97457  1.0000
  H   H870      1.0  0.45992  0.28365  0.78814  1.0000
  C   C1116     1.0  0.28706  0.48468  0.94229  1.0000
  H   H871      1.0  0.07158  0.27712  0.89234  1.0000
  H   H872      1.0  0.03070  0.36064  0.90950  1.0000
  H   H873      1.0  0.06056  0.25353  0.78092  1.0000
  C   C1117     1.0  0.26890  0.29779  0.95564  1.0000
  C   C1118     1.0  0.47944  0.27001  0.97307  1.0000
  H   H874      1.0  0.02093  0.42142  0.72396  1.0000
  C   C1119     1.0  0.06613  0.28677  0.84587  1.0000
  C   C1120     1.0  0.43302  0.28506  0.96739  1.0000
  H   H875      1.0  0.26127  0.27790  0.97821  1.0000
  H   H876      1.0  0.01994  0.31643  0.85486  1.0000
  C   C1121     1.0  0.03060  0.47387  0.72467  1.0000
  C   C1122     1.0  0.08150  0.36460  0.70388  1.0000
  C   C1123     1.0  0.07382  0.36690  0.98108  1.0000
  C   C1124     1.0  0.08072  0.37450  0.72009  1.0000
  C   C1125     1.0  0.08802  0.36581  0.73635  1.0000
  C   C1126     1.0  0.09625  0.34719  0.73652  1.0000
  C   C1127     1.0  0.09757  0.33738  0.72031  1.0000
  C   C1128     1.0  0.09039  0.34608  0.70397  1.0000
  H   H877      1.0  0.41195  0.30030  0.95085  1.0000
  H   H878      1.0  0.04308  0.25006  0.83977  1.0000
  H   H879      1.0  0.00836  0.37462  0.71661  1.0000
  C   C1129     1.0  0.00900  0.39739  0.69507  1.0000
  H   H880      1.0  0.05374  0.48033  0.75342  1.0000
  C   C1130     1.0  0.47965  0.26795  0.95378  1.0000
  H   H881      1.0  0.08701  0.37351  0.74888  1.0000
  H   H882      1.0  0.10141  0.34030  0.74925  1.0000
  H   H883      1.0  0.10378  0.32287  0.72051  1.0000
  H   H884      1.0  0.09179  0.33821  0.69162  1.0000
  H   H885      1.0  0.06797  0.41530  0.69462  1.0000
  C   C1131     1.0  0.31000  0.39725  0.97817  1.0000
  C   C1132     1.0  0.05293  0.30834  0.80521  1.0000
  H   H886      1.0  0.20148  0.26364  0.94640  1.0000
  P   P36       1.0  0.18364  0.49165  0.88633  1.0000
  C   C1133     1.0  0.14499  0.46332  0.92135  1.0000
  C   C1134     1.0  0.19448  0.29535  0.96933  1.0000
  C   C1135     1.0  0.17310  0.48518  0.85107  1.0000
  H   H887      1.0  0.49385  0.49009  0.77066  1.0000
  H   H888      1.0  0.18433  0.44917  0.94427  1.0000
  C   C1136     1.0  0.24236  0.47914  0.79911  1.0000
  C   C1137     1.0  0.27680  0.48853  0.97507  1.0000
  H   H889      1.0  0.24188  0.49406  0.91306  1.0000
  C   C1138     1.0  0.21978  0.49123  0.86736  1.0000
  C   C1139     1.0  0.01405  0.46157  0.78136  1.0000
  C   C1140     1.0  0.09338  0.42769  0.68379  1.0000
  H   H890      1.0  0.46782  0.26257  0.94824  1.0000
  C   C1141     1.0  0.25536  0.47671  0.81269  1.0000
  C   C1142     1.0  0.03898  0.30819  0.79282  1.0000
  C   C1143     1.0  0.43763  0.26725  0.91523  1.0000
  C   C1144     1.0  0.23768  0.48282  0.86110  1.0000
  H   H891      1.0  0.14993  0.44498  0.94615  1.0000
  H   H892      1.0  0.32043  0.38519  0.97677  1.0000
  H   H893      1.0  0.38839  0.30600  0.97810  1.0000
  C   C1145     1.0  0.14284  0.26134  0.80234  1.0000
  C   C1146     1.0  0.15317  0.47483  0.90668  1.0000
  S   S160      1.0  0.20324  0.39804  0.98346  1.0000
  C   C1147     1.0  0.23122  0.25742  0.93756  1.0000
  C   C1148     1.0  0.22902  0.45252  0.87491  1.0000
  C   C1149     1.0  0.47308  0.28312  0.79465  1.0000
  C   C1150     1.0  0.48176  0.29981  0.79495  1.0000
  C   C1151     1.0  0.12844  0.29337  0.80553  1.0000
  C   C1152     1.0  0.23416  0.31831  0.96548  1.0000
  S   S161      1.0  0.02522  0.29489  0.66307  1.0000
  C   C1153     1.0  0.01751  0.44592  0.73994  1.0000
  H   H894      1.0  0.10611  0.36023  0.77826  1.0000
  C   C1154     1.0  0.21100  0.46085  0.88099  1.0000
  H   H895      1.0  0.09954  0.38067  0.80472  1.0000
  C   C1155     1.0  0.28807  0.47873  0.96122  1.0000
  C   C1156     1.0  0.42697  0.25567  0.92814  1.0000
  C   C1157     1.0  0.26800  0.49026  0.81367  1.0000
  C   C1158     1.0  0.41550  0.29538  0.96487  1.0000
  C   C1159     1.0  0.07611  0.29261  0.78322  1.0000
  C   C1160     1.0  0.40218  0.29851  0.98021  1.0000
  H   H896      1.0  0.14833  0.28524  0.97439  1.0000
  C   C1161     1.0  0.24192  0.49517  0.78653  1.0000
  H   H897      1.0  0.19882  0.46934  0.91858  1.0000
  H   H898      1.0  0.09053  0.28716  0.77892  1.0000
  C   C1162     1.0  0.07147  0.30021  0.80071  1.0000
  C   C1163     1.0  0.01753  0.43725  0.81381  1.0000
  H   H899      1.0  0.08959  0.36690  0.83656  1.0000
  H   H900      1.0  0.10224  0.32603  0.78324  1.0000
  H   H901      1.0  0.20081  0.45197  0.88834  1.0000
  H   H902      1.0  0.44264  0.28249  0.95512  1.0000
  C   C1164     1.0  0.09061  0.33855  0.82800  1.0000
  H   H903      1.0  0.17213  0.29843  0.95076  1.0000
  H   H904      1.0  0.49550  0.26997  0.92671  1.0000
  C   C1165     1.0  0.09846  0.36559  0.80712  1.0000
  C   C1166     1.0  0.01824  0.33620  0.92282  1.0000
  C   C1167     1.0  0.10217  0.35401  0.79218  1.0000
  S   S162      1.0  0.40291  0.26343  0.93516  1.0000
  C   C1168     1.0  0.16198  0.48868  0.83593  1.0000
  C   C1169     1.0  0.00049  0.42967  0.97090  1.0000
  H   H905      1.0  0.23277  0.43760  0.87820  1.0000
  C   C1170     1.0  0.18372  0.46804  0.91932  1.0000
  H   H906      1.0  0.04213  0.36308  0.70984  1.0000
  C   C1171     1.0  0.09428  0.32680  0.81305  1.0000
  H   H907      1.0  0.27393  0.32098  0.93522  1.0000
  C   C1172     1.0  0.11054  0.28662  0.80993  1.0000
  H   H908      1.0  0.25551  0.46440  0.82257  1.0000
  H   H909      1.0  0.13001  0.46131  0.92206  1.0000
  C   C1173     1.0  0.01697  0.38165  0.70537  1.0000
  C   C1174     1.0  0.07871  0.35008  0.99159  1.0000
  H   H910      1.0  0.24299  0.33902  0.94378  1.0000
  H   H911      1.0  0.08917  0.44080  0.69039  1.0000
  C   C1175     1.0  0.43747  0.27784  0.98537  1.0000
  H   H912      1.0  0.06434  0.29511  0.71646  1.0000
  H   H913      1.0  0.14427  0.48156  0.89623  1.0000
  C   C1176     1.0  0.08309  0.29505  0.84029  1.0000
  C   C1177     1.0  0.17266  0.47726  0.90551  1.0000
  C   C1178     1.0  0.17553  0.45652  0.93392  1.0000
  H   H914      1.0  0.11020  0.37957  0.66319  1.0000
  H   H915      1.0  0.04192  0.44842  0.77201  1.0000
  H   H916      1.0  0.05157  0.38454  0.96844  1.0000
  H   H917      1.0  0.10919  0.30261  0.84967  1.0000
  H   H918      1.0  0.29553  0.47698  0.93146  1.0000
  C   C1179     1.0  0.40714  0.25987  0.79136  1.0000
  H   H919      1.0  0.05607  0.28517  0.83595  1.0000
  C   C1180     1.0  0.23881  0.30079  0.97508  1.0000
  C   C1181     1.0  0.15617  0.45414  0.93494  1.0000
  C   C1182     1.0  0.05496  0.37180  0.97716  1.0000
  H   H920      1.0  0.19559  0.49500  0.95876  1.0000
  C   C1183     1.0  0.04767  0.38492  0.68790  1.0000
  C   C1184     1.0  0.02461  0.35409  0.92257  1.0000
  H   H921      1.0  0.18530  0.47478  0.84999  1.0000
  H   H922      1.0  0.20437  0.30150  0.95877  1.0000
  C   C1185     1.0  0.28306  0.42868  0.98059  1.0000
  H   H923      1.0  0.30773  0.40099  0.94838  1.0000
  H   H924      1.0  0.46868  0.25957  0.84093  1.0000
  C   C1186     1.0  0.16273  0.28600  0.97792  1.0000
  C   C1187     1.0  0.02393  0.36310  0.93921  1.0000
  C   C1188     1.0  0.00140  0.45013  0.81240  1.0000
  C   C1189     1.0  0.16866  0.49533  0.86714  1.0000
  H   H925      1.0  0.10150  0.29142  0.88273  1.0000
  H   H926      1.0  0.15832  0.28600  0.79824  1.0000
  S   S163      1.0  0.31786  0.27306  0.99142  1.0000
  H   H927      1.0  0.16574  0.48121  0.82333  1.0000
  H   H928      1.0  0.28281  0.29034  0.95245  1.0000
  C   C1190     1.0  0.03692  0.46391  0.70888  1.0000
  C   C1191     1.0  0.30301  0.40636  0.96191  1.0000
  H   H929      1.0  0.12064  0.43611  0.67226  1.0000
  H   H930      1.0  0.45114  0.25045  0.76892  1.0000
  C   C1192     1.0  0.11119  0.42499  0.67370  1.0000
  H   H931      1.0  0.24814  0.49136  0.85370  1.0000
  C   C1193     1.0  0.07477  0.28199  0.87782  1.0000
  H   H932      1.0  0.47698  0.47636  0.86072  1.0000
  P   P37       1.0  0.01673  0.36550  0.97782  1.0000
  H   H933      1.0  0.09530  0.26171  0.81457  1.0000
  C   C1194     1.0  0.04360  0.30041  0.77556  1.0000
  H   H934      1.0  0.25663  0.45726  0.86106  1.0000
  C   C1195     1.0  0.28389  0.32274  0.98840  1.0000
  C   C1196     1.0  0.09280  0.35784  0.82503  1.0000
  C   C1197     1.0  0.10898  0.26713  0.81077  1.0000
  C   C1198     1.0  0.08130  0.41323  0.68600  1.0000
  C   C1199     1.0  0.43074  0.25329  0.81378  1.0000
  C   C1200     1.0  0.24241  0.46353  0.86511  1.0000
  C   C1201     1.0  0.01042  0.33629  0.95639  1.0000
  H   H935      1.0  0.00975  0.32611  0.68439  1.0000
  H   H936      1.0  0.47527  0.31296  0.78877  1.0000
  H   H937      1.0  0.23236  0.46877  0.79853  1.0000
  H   H938      1.0  0.00560  0.32884  0.96944  1.0000
  S   S164      1.0  0.37516  0.25915  0.98563  1.0000
  C   C1202     1.0  0.06218  0.29277  0.77069  1.0000
  H   H939      1.0  0.03298  0.30106  0.76561  1.0000
  H   H940      1.0  0.46466  0.27055  0.89905  1.0000
  C   C1203     1.0  0.44027  0.25235  0.78049  1.0000
  H   H941      1.0  0.04860  0.27454  0.86898  1.0000
  H   H942      1.0  0.02475  0.31480  0.79633  1.0000
  H   H943      1.0  0.03977  0.26523  0.80815  1.0000
  H   H944      1.0  0.09159  0.24940  0.85327  1.0000
  H   H945      1.0  0.04442  0.47090  0.69686  1.0000
  H   H946      1.0  0.22097  0.32671  0.96941  1.0000
  C   C1204     1.0  0.25650  0.29074  0.97029  1.0000
  H   H947      1.0  0.06586  0.28762  0.75689  1.0000
  H   H948      1.0  0.01709  0.43128  0.99416  1.0000
  H   H949      1.0  0.43404  0.25210  0.82824  1.0000
  C   C1205     1.0  0.41184  0.25803  0.80989  1.0000
  Fe  Fe82      1.0  0.01057  0.38633  0.76290  1.0000
  C   C1206     1.0  0.02758  0.49588  0.76412  1.0000
  H   H950      1.0  0.12509  0.25166  0.85835  1.0000
  P   P38       1.0  0.07236  0.37651  0.68300  1.0000
  H   H951      1.0  0.22833  0.49234  0.96774  1.0000
  P   P39       1.0  0.45938  0.26308  0.98894  1.0000
  C   C1207     1.0  0.17616  0.29346  0.96460  1.0000
  H   H952      1.0  0.01840  0.25076  0.91143  1.0000
  P   P40       1.0  0.01264  0.47764  0.76074  1.0000
  C   C1208     1.0  0.03213  0.43683  0.79926  1.0000
  C   C1209     1.0  0.09596  0.29641  0.85366  1.0000
  H   H953      1.0  0.23141  0.49688  0.77645  1.0000
  C   C1210     1.0  0.45666  0.26147  0.90896  1.0000
  C   C1211     1.0  0.28957  0.42207  0.96311  1.0000
  C   C1212     1.0  0.03042  0.44895  0.78312  1.0000
  S   S165      1.0  0.24928  0.39881  0.98620  1.0000
  Fe  Fe83      1.0  0.34492  0.25485  0.98112  1.0000
  C   C1213     1.0  0.02380  0.43603  0.72413  1.0000
  H   H954      1.0  0.41772  0.25858  0.76228  1.0000
  C   C1214     1.0  0.24660  0.32534  0.95090  1.0000
  H   H955      1.0  0.39249  0.26358  0.78838  1.0000
  H   H956      1.0  0.27796  0.48849  0.82435  1.0000
  C   C1215     1.0  0.44509  0.25031  0.79910  1.0000
  H   H957      1.0  0.01927  0.32906  0.90998  1.0000
  H   H958      1.0  0.23297  0.25666  0.97805  1.0000
  S   S166      1.0  0.01117  0.35499  0.77026  1.0000
  H   H959      1.0  0.15533  0.25159  0.79942  1.0000
  H   H960      1.0  0.28392  0.42892  0.95054  1.0000
  C   C1216     1.0  0.02113  0.46484  0.74043  1.0000
  H   H961      1.0  0.27778  0.48369  0.98965  1.0000
  H   H962      1.0  0.04474  0.42698  0.80036  1.0000
  H   H963      1.0  0.13011  0.30828  0.80533  1.0000
  H   H964      1.0  0.02961  0.37663  0.93885  1.0000
  H   H965      1.0  0.29752  0.46645  0.96512  1.0000
  H   H966      1.0  0.03832  0.43733  0.69639  1.0000
  C   C1217     1.0  0.42135  0.25705  0.77667  1.0000
  C   C1218     1.0  0.21354  0.25300  0.94617  1.0000
  C   C1219     1.0  0.48123  0.26612  0.80301  1.0000
  C   C1220     1.0  0.04080  0.35998  0.98398  1.0000
  C   C1221     1.0  0.10506  0.39316  0.66839  1.0000
  C   C1222     1.0  0.01718  0.40263  0.98676  1.0000
  C   C1223     1.0  0.08688  0.39597  0.67798  1.0000
  S   S167      1.0  0.22976  0.35846  0.99268  1.0000
  H   H967      1.0  0.00692  0.31311  0.94010  1.0000
  C   C1224     1.0  0.07264  0.36102  0.66428  1.0000
  C   C1225     1.0  0.01211  0.42209  0.98480  1.0000
  H   H968      1.0  0.01387  0.41861  0.67255  1.0000
  C   C1226     1.0  0.49006  0.48849  0.69950  1.0000
  H   H969      1.0  0.46398  0.48599  0.92903  1.0000
  H   H970      1.0  0.05323  0.25004  0.91254  1.0000
  C   C1227     1.0  0.04729  0.49319  0.75933  1.0000
  C   C1228     1.0  0.49161  0.47966  0.86000  1.0000
  H   H971      1.0  0.00972  0.43876  0.75171  1.0000
  C   C1229     1.0  0.02015  0.40652  0.68068  1.0000
  H   H972      1.0  0.40085  0.26035  0.82129  1.0000
  H   H973      1.0  0.27226  0.44055  0.98154  1.0000
  H   H974      1.0  0.48056  0.48745  0.68883  1.0000
  C   C1230     1.0  0.49587  0.27537  0.97991  1.0000
  C   C1231     1.0  0.49555  0.27180  0.94153  1.0000
  H   H975      1.0  0.03311  0.48858  0.72456  1.0000
  H   H976      1.0  0.20279  0.49528  0.80632  1.0000
  H   H977      1.0  0.04787  0.40733  0.66572  1.0000
  C   C1232     1.0  0.99879  0.39828  0.96104  1.0000
  C   C1233     1.0  0.49581  0.49817  0.86190  1.0000
  C   C1234     1.0  0.23535  0.25450  0.99273  1.0000
  C   C1235     1.0  0.29204  0.30449  0.99390  1.0000
  C   C1236     1.0  0.17282  0.58369  0.01007  1.0000
  C   C1237     1.0  0.33573  0.50071  0.24950  1.0000
  H   H978      1.0  0.47125  0.66011  0.17014  1.0000
  C   C1238     1.0  0.42565  0.74647  0.08479  1.0000
  S   S168      1.0  0.15845  0.50056  0.22402  1.0000
  H   H979      1.0  0.04440  0.68327  0.28829  1.0000
  H   H980      1.0  0.13265  0.52782  0.19279  1.0000
  S   S169      1.0  0.27207  0.52453  0.11504  1.0000
  Fe  Fe84      1.0  0.04516  0.62468  0.25054  1.0000
  S   S170      1.0  0.03347  0.62577  0.22255  1.0000
  S   S171      1.0  0.07251  0.60541  0.25378  1.0000
  Fe  Fe85      1.0  0.01692  0.65789  0.26340  1.0000
  P   P41       1.0  0.02256  0.53922  0.23314  1.0000
  H   H981      1.0  0.17528  0.53295  0.26835  1.0000
  Fe  Fe86      1.0  0.03304  0.65729  0.22187  1.0000
  S   S172      1.0  0.04796  0.67617  0.19865  1.0000
  H   H982      1.0  0.48890  0.63514  0.18904  1.0000
  S   S173      1.0  0.04659  0.65612  0.24914  1.0000
  H   H983      1.0  0.01078  0.62884  0.03265  1.0000
  S   S174      1.0  0.26914  0.61779  0.02669  1.0000
  Fe  Fe87      1.0  0.22200  0.65126  0.03044  1.0000
  S   S175      1.0  0.23742  0.64025  0.05567  1.0000
  S   S176      1.0  0.19656  0.67402  0.03193  1.0000
  Fe  Fe88      1.0  0.26430  0.64692  0.03764  1.0000
  S   S177      1.0  0.28981  0.65904  0.04805  1.0000
  Fe  Fe89      1.0  0.24111  0.61220  0.04261  1.0000
  S   S178      1.0  0.23226  0.58368  0.05578  1.0000
  S   S179      1.0  0.24875  0.65956  0.01323  1.0000
  S   S180      1.0  0.22421  0.62300  0.01820  1.0000
  H   H984      1.0  0.38532  0.70379  0.04604  1.0000
  S   S181      1.0  0.08389  0.71520  0.08489  1.0000
  Fe  Fe90      1.0  0.04689  0.72762  0.04726  1.0000
  S   S182      1.0  0.05288  0.69846  0.06112  1.0000
  S   S183      1.0  0.02162  0.73805  0.02976  1.0000
  Fe  Fe91      1.0  0.05248  0.71233  0.08825  1.0000
  S   S184      1.0  0.03340  0.70085  0.11327  1.0000
  Fe  Fe92      1.0  0.08413  0.70334  0.05680  1.0000
  S   S185      1.0  0.10581  0.67835  0.04901  1.0000
  C   C1239     1.0  0.08007  0.74554  0.29071  1.0000
  S   S186      1.0  0.07822  0.73167  0.04097  1.0000
  S   S187      1.0  0.08105  0.51991  0.28683  1.0000
  C   C1240     1.0  0.37821  0.69388  0.03920  1.0000
  H   H985      1.0  0.16229  0.74296  0.99726  1.0000
  C   C1241     1.0  0.14314  0.53076  0.18117  1.0000
  C   C1242     1.0  0.45690  0.66170  0.12054  1.0000
  C   C1243     1.0  0.17140  0.67464  0.03721  1.0000
  C   C1244     1.0  0.16024  0.69181  0.03382  1.0000
  C   C1245     1.0  0.14028  0.69332  0.03770  1.0000
  C   C1246     1.0  0.13110  0.67752  0.04495  1.0000
  C   C1247     1.0  0.14224  0.66027  0.04826  1.0000
  C   C1248     1.0  0.16226  0.65885  0.04459  1.0000
  H   H986      1.0  0.16713  0.70398  0.02795  1.0000
  H   H987      1.0  0.13199  0.70664  0.03484  1.0000
  H   H988      1.0  0.13533  0.64794  0.05385  1.0000
  H   H989      1.0  0.17059  0.64563  0.04765  1.0000
  C   C1249     1.0  0.07391  0.58142  0.26233  1.0000
  C   C1250     1.0  0.06110  0.57486  0.27683  1.0000
  C   C1251     1.0  0.06335  0.55592  0.28410  1.0000
  C   C1252     1.0  0.07840  0.54340  0.27692  1.0000
  C   C1253     1.0  0.09124  0.54996  0.26243  1.0000
  C   C1254     1.0  0.08913  0.56896  0.25537  1.0000
  H   H990      1.0  0.04967  0.58448  0.28265  1.0000
  H   H991      1.0  0.05350  0.55100  0.29545  1.0000
  H   H992      1.0  0.10298  0.54050  0.25690  1.0000
  H   H993      1.0  0.09934  0.57406  0.24444  1.0000
  C   C1255     1.0  0.04427  0.68142  0.17454  1.0000
  C   C1256     1.0  0.02724  0.67861  0.16739  1.0000
  C   C1257     1.0  0.02431  0.68448  0.14857  1.0000
  C   C1258     1.0  0.03842  0.69296  0.13657  1.0000
  C   C1259     1.0  0.05558  0.69553  0.14362  1.0000
  C   C1260     1.0  0.05840  0.68991  0.16254  1.0000
  H   H994      1.0  0.01619  0.67224  0.17645  1.0000
  H   H995      1.0  0.19053  0.51238  0.19967  1.0000
  H   H996      1.0  0.06652  0.70212  0.13461  1.0000
  H   H997      1.0  0.07158  0.69224  0.16794  1.0000
  H   H998      1.0  0.44253  0.70071  0.12546  1.0000
  H   H999      1.0  0.00209  0.70810  0.25226  1.0000
  C   C1261     1.0  0.01524  0.52349  0.29604  1.0000
  C   C1262     1.0  0.16192  0.71895  0.07775  1.0000
  C   C1263     1.0  0.26103  0.54058  0.09820  1.0000
  C   C1264     1.0  0.26709  0.55880  0.09473  1.0000
  C   C1265     1.0  0.25873  0.57204  0.08156  1.0000
  C   C1266     1.0  0.24405  0.56725  0.07178  1.0000
  C   C1267     1.0  0.23795  0.54903  0.07523  1.0000
  C   C1268     1.0  0.24640  0.53575  0.08833  1.0000
  H   H1000     1.0  0.27839  0.56268  0.10227  1.0000
  H   H1001     1.0  0.26354  0.58599  0.07911  1.0000
  H   H1002     1.0  0.22667  0.54516  0.06768  1.0000
  H   H1003     1.0  0.24162  0.52179  0.09080  1.0000
  C   C1269     1.0  0.31190  0.71823  0.04023  1.0000
  C   C1270     1.0  0.32227  0.70294  0.04913  1.0000
  C   C1271     1.0  0.31520  0.68503  0.05148  1.0000
  C   C1272     1.0  0.29785  0.68205  0.04474  1.0000
  C   C1273     1.0  0.28760  0.69729  0.03562  1.0000
  C   C1274     1.0  0.29456  0.71525  0.03346  1.0000
  H   H1004     1.0  0.33556  0.70499  0.05449  1.0000
  H   H1005     1.0  0.32319  0.67339  0.05865  1.0000
  H   H1006     1.0  0.27428  0.69525  0.03031  1.0000
  H   H1007     1.0  0.28646  0.72693  0.02646  1.0000
  C   C1275     1.0  0.44595  0.64515  0.09601  1.0000
  H   H1008     1.0  0.00483  0.50393  0.23072  1.0000
  H   H1009     1.0  0.12777  0.52011  0.16055  1.0000
  H   H1010     1.0  0.00410  0.51972  0.17352  1.0000
  C   C1276     1.0  0.17407  0.70704  0.08885  1.0000
  C   C1277     1.0  0.04442  0.70563  0.30698  1.0000
  C   C1278     1.0  0.03574  0.69343  0.29666  1.0000
  C   C1279     1.0  0.01592  0.69416  0.29747  1.0000
  C   C1280     1.0  0.17919  0.50525  0.28248  1.0000
  H   H1011     1.0  0.28685  0.50334  0.20289  1.0000
  C   C1281     1.0  0.48302  0.69300  0.09579  1.0000
  H   H1012     1.0  0.05148  0.52163  0.25707  1.0000
  H   H1013     1.0  0.16709  0.57718  0.99907  1.0000
  H   H1014     1.0  0.05778  0.67682  0.01687  1.0000
  C   C1282     1.0  0.46137  0.51832  0.27080  1.0000
  H   H1015     1.0  0.18804  0.49927  0.27084  1.0000
  H   H1016     1.0  0.47359  0.54203  0.25527  1.0000
  H   H1017     1.0  0.10415  0.66780  0.00750  1.0000
  H   H1018     1.0  0.42502  0.69631  0.05211  1.0000
  C   C1283     1.0  0.34106  0.51628  0.23780  1.0000
  C   C1284     1.0  0.13600  0.62883  0.00969  1.0000
  H   H1019     1.0  0.18721  0.50072  0.14338  1.0000
  H   H1020     1.0  0.09027  0.57355  0.20724  1.0000
  H   H1021     1.0  0.09712  0.72163  0.16535  1.0000
  H   H1022     1.0  0.18626  0.54779  0.17272  1.0000
  C   C1285     1.0  0.16804  0.69032  0.09790  1.0000
  C   C1286     1.0  0.49087  0.68271  0.11115  1.0000
  H   H1023     1.0  0.21151  0.56490  0.10532  1.0000
  H   H1024     1.0  0.19196  0.60622  0.05085  1.0000
  C   C1287     1.0  0.47479  0.69745  0.15798  1.0000
  C   C1288     1.0  0.25992  0.50658  0.02375  1.0000
  S   S188      1.0  0.00318  0.66068  0.23606  1.0000
  H   H1025     1.0  0.01097  0.68246  0.14330  1.0000
  H   H1026     1.0  0.01366  0.58322  0.28376  1.0000
  C   C1289     1.0  0.00230  0.62942  0.04600  1.0000
  H   H1027     1.0  0.00057  0.65170  0.99764  1.0000
  S   S189      1.0  0.01643  0.62603  0.26719  1.0000
  C   C1290     1.0  0.01186  0.66599  0.01897  1.0000
  C   C1291     1.0  0.00913  0.55150  0.25191  1.0000
  H   H1028     1.0  0.35467  0.52566  0.21094  1.0000
  H   H1029     1.0  0.11281  0.72358  0.13287  1.0000
  C   C1292     1.0  0.19276  0.52026  0.11916  1.0000
  H   H1030     1.0  0.25208  0.57448  0.02058  1.0000
  C   C1293     1.0  0.20317  0.71837  0.05252  1.0000
  H   H1031     1.0  0.48772  0.68940  0.16196  1.0000
  C   C1294     1.0  0.10784  0.57241  0.30477  1.0000
  H   H1032     1.0  0.34122  0.72101  0.00805  1.0000
  C   C1295     1.0  0.46107  0.72062  0.01601  1.0000
  H   H1033     1.0  0.99936  0.73336  0.11125  1.0000
  H   H1034     1.0  0.24000  0.54411  0.01637  1.0000
  C   C1296     1.0  0.48776  0.65401  0.14390  1.0000
  C   C1297     1.0  0.12023  0.64144  0.01467  1.0000
  C   C1298     1.0  0.06033  0.57810  0.21558  1.0000
  H   H1035     1.0  0.00615  0.70245  0.08613  1.0000
  C   C1299     1.0  0.18129  0.61119  0.02367  1.0000
  H   H1036     1.0  0.16302  0.74186  0.10631  1.0000
  H   H1037     1.0  0.37406  0.67541  0.06418  1.0000
  H   H1038     1.0  0.00730  0.67417  0.06855  1.0000
  C   C1300     1.0  0.23080  0.56634  0.15358  1.0000
  C   C1301     1.0  0.24473  0.55139  0.15657  1.0000
  C   C1302     1.0  0.24169  0.53320  0.15256  1.0000
  C   C1303     1.0  0.22498  0.52993  0.14507  1.0000
  C   C1304     1.0  0.21110  0.54495  0.14166  1.0000
  C   C1305     1.0  0.21396  0.56312  0.14634  1.0000
  P   P42       1.0  0.18923  0.54105  0.13238  1.0000
  C   C1306     1.0  0.18254  0.56141  0.11690  1.0000
  C   C1307     1.0  0.17350  0.54201  0.16970  1.0000
  C   C1308     1.0  0.13743  0.69743  0.08557  1.0000
  C   C1309     1.0  0.00151  0.53003  0.18396  1.0000
  C   C1310     1.0  0.02801  0.51513  0.24229  1.0000
  C   C1311     1.0  0.36493  0.68507  0.01160  1.0000
  H   H1039     1.0  0.15227  0.52590  0.13437  1.0000
  C   C1312     1.0  0.19664  0.57027  0.10528  1.0000
  C   C1313     1.0  0.19172  0.58620  0.09350  1.0000
  C   C1314     1.0  0.17270  0.59339  0.09308  1.0000
  C   C1315     1.0  0.15856  0.58465  0.10452  1.0000
  C   C1316     1.0  0.16344  0.56874  0.11642  1.0000
  H   H1040     1.0  0.00874  0.50191  0.27930  1.0000
  C   C1317     1.0  0.01287  0.65744  0.00191  1.0000
  H   H1041     1.0  0.18833  0.71048  0.09029  1.0000
  H   H1042     1.0  0.09698  0.74320  0.10778  1.0000
  H   H1043     1.0  0.25802  0.55390  0.16169  1.0000
  H   H1044     1.0  0.25269  0.52175  0.15454  1.0000
  H   H1045     1.0  0.22318  0.51576  0.14166  1.0000
  C   C1318     1.0  0.02023  0.71620  0.99925  1.0000
  H   H1046     1.0  0.22840  0.70123  0.04270  1.0000
  H   H1047     1.0  0.35751  0.65285  0.04865  1.0000
  C   C1319     1.0  0.20033  0.50556  0.08961  1.0000
  H   H1048     1.0  0.41714  0.63761  0.10079  1.0000
  C   C1320     1.0  0.15578  0.74637  0.01101  1.0000
  C   C1321     1.0  0.01086  0.72976  0.01080  1.0000
  C   C1322     1.0  0.00323  0.51135  0.28997  1.0000
  H   H1049     1.0  0.16894  0.60577  0.08394  1.0000
  H   H1050     1.0  0.14381  0.59030  0.10425  1.0000
  H   H1051     1.0  0.15227  0.56235  0.12525  1.0000
  H   H1052     1.0  0.38004  0.70971  0.01247  1.0000
  C   C1323     1.0  0.44270  0.71993  0.14681  1.0000
  C   C1324     1.0  0.46029  0.65373  0.10314  1.0000
  H   H1053     1.0  0.47534  0.71740  0.17876  1.0000
  H   H1054     1.0  0.13929  0.61659  0.01912  1.0000
  C   C1325     1.0  0.07775  0.54727  0.21382  1.0000
  C   C1326     1.0  0.12770  0.55251  0.32566  1.0000
  C   C1327     1.0  0.15759  0.74615  0.04464  1.0000
  C   C1328     1.0  0.11596  0.65774  0.00317  1.0000
  H   H1055     1.0  0.06178  0.52357  0.22133  1.0000
  C   C1329     1.0  0.08998  0.74204  0.12188  1.0000
  C   C1330     1.0  0.03511  0.73996  0.25007  1.0000
  C   C1331     1.0  0.47638  0.52875  0.26342  1.0000
  C   C1332     1.0  0.01213  0.52817  0.19953  1.0000
  C   C1333     1.0  0.36255  0.66520  0.04069  1.0000
  C   C1334     1.0  0.17527  0.60306  0.00845  1.0000
  H   H1056     1.0  0.49479  0.74142  0.21481  1.0000
  C   C1335     1.0  0.01767  0.73214  0.25434  1.0000
  H   H1057     1.0  0.47760  0.74826  0.07342  1.0000
  C   C1336     1.0  0.15502  0.52037  0.31206  1.0000
  C   C1337     1.0  0.11827  0.55521  0.30920  1.0000
  C   C1338     1.0  0.37496  0.69734  0.02028  1.0000
  C   C1339     1.0  0.05037  0.72935  0.24065  1.0000
  C   C1340     1.0  0.02829  0.67272  0.02433  1.0000
  C   C1341     1.0  0.45305  0.74033  0.10355  1.0000
  C   C1342     1.0  0.46508  0.50062  0.28047  1.0000
  C   C1343     1.0  0.14048  0.52634  0.16307  1.0000
  H   H1058     1.0  0.17766  0.68094  0.10600  1.0000
  H   H1059     1.0  0.44496  0.72115  0.08459  1.0000
  C   C1344     1.0  0.45194  0.72480  0.16175  1.0000
  H   H1060     1.0  0.06018  0.59333  0.21413  1.0000
  C   C1345     1.0  0.17787  0.57243  0.02603  1.0000
  H   H1061     1.0  0.01186  0.60078  0.05502  1.0000
  C   C1346     1.0  0.14341  0.71415  0.07647  1.0000
  C   C1347     1.0  0.25049  0.54960  0.00591  1.0000
  C   C1348     1.0  0.35042  0.51365  0.22001  1.0000
  H   H1062     1.0  0.10066  0.57444  0.29202  1.0000
  H   H1063     1.0  0.17700  0.65380  0.00139  1.0000
  H   H1064     1.0  0.03059  0.57869  0.22484  1.0000
  H   H1065     1.0  0.05629  0.73398  0.28135  1.0000
  C   C1349     1.0  0.42893  0.71247  0.02565  1.0000
  H   H1066     1.0  0.24971  0.72656  0.04363  1.0000
  C   C1350     1.0  0.44945  0.70379  0.13747  1.0000
  H   H1067     1.0  0.18940  0.57181  0.05281  1.0000
  H   H1068     1.0  0.29545  0.67103  0.00457  1.0000
  H   H1069     1.0  0.20328  0.57486  0.14418  1.0000
  C   C1351     1.0  0.16272  0.50147  0.31352  1.0000
  C   C1352     1.0  0.43518  0.70257  0.04181  1.0000
  H   H1070     1.0  0.35187  0.65871  0.01534  1.0000
  C   C1353     1.0  0.03032  0.70440  0.23839  1.0000
  H   H1071     1.0  0.44695  0.52390  0.26851  1.0000
  C   C1354     1.0  0.03348  0.71892  0.31804  1.0000
  C   C1355     1.0  0.14977  0.68545  0.09615  1.0000
  P   P43       1.0  0.17022  0.74007  0.06525  1.0000
  C   C1356     1.0  0.10636  0.58692  0.31689  1.0000
  C   C1357     1.0  0.17191  0.52422  0.28105  1.0000
  C   C1358     1.0  0.04315  0.51070  0.25359  1.0000
  C   C1359     1.0  0.11232  0.50697  0.32553  1.0000
  H   H1072     1.0  0.20021  0.53516  0.09234  1.0000
  S   S190      1.0  0.31959  0.74138  0.03748  1.0000
  C   C1360     1.0  0.46546  0.69231  0.14313  1.0000
  H   H1073     1.0  0.43651  0.66598  0.14467  1.0000
  C   C1361     1.0  0.42491  0.65183  0.12381  1.0000
  C   C1362     1.0  0.48266  0.65120  0.16326  1.0000
  C   C1363     1.0  0.04598  0.66334  0.99547  1.0000
  C   C1364     1.0  0.00494  0.70752  0.30847  1.0000
  H   H1074     1.0  0.08364  0.73318  0.29998  1.0000
  H   H1075     1.0  0.44709  0.73768  0.16852  1.0000
  C   C1365     1.0  0.49514  0.52174  0.26586  1.0000
  C   C1366     1.0  0.04526  0.67137  0.01264  1.0000
  H   H1076     1.0  0.05945  0.70364  0.22692  1.0000
  H   H1077     1.0  0.32409  0.68583  0.00998  1.0000
  H   H1078     1.0  0.46782  0.69422  0.09478  1.0000
  H   H1079     1.0  0.15487  0.54663  0.29458  1.0000
  H   H1080     1.0  0.01898  0.71095  0.19238  1.0000
  C   C1367     1.0  0.32337  0.68006  0.99661  1.0000
  C   C1368     1.0  0.09900  0.73117  0.13607  1.0000
  H   H1081     1.0  0.01754  0.54569  0.31398  1.0000
  C   C1369     1.0  0.00868  0.73779  0.20307  1.0000
  H   H1082     1.0  0.43075  0.72911  0.14200  1.0000
  H   H1083     1.0  0.02808  0.67919  0.03744  1.0000
  C   C1370     1.0  0.06450  0.74605  0.28016  1.0000
  H   H1084     1.0  0.03264  0.56543  0.25926  1.0000
  H   H1085     1.0  0.41124  0.65100  0.13186  1.0000
  C   C1371     1.0  0.16610  0.74227  0.02670  1.0000
  Fe  Fe93      1.0  0.25198  0.63015  0.00323  1.0000
  C   C1372     1.0  0.25735  0.56679  0.00844  1.0000
  H   H1086     1.0  0.47316  0.52464  0.20601  1.0000
  C   C1373     1.0  0.04407  0.54999  0.22470  1.0000
  C   C1374     1.0  0.49465  0.70240  0.08201  1.0000
  C   C1375     1.0  0.22700  0.74703  0.05324  1.0000
  H   H1087     1.0  0.17652  0.55741  0.02700  1.0000
  C   C1376     1.0  0.18489  0.58053  0.04068  1.0000
  H   H1088     1.0  0.12337  0.69347  0.08394  1.0000
  H   H1089     1.0  0.11873  0.54396  0.29984  1.0000
  C   C1377     1.0  0.46790  0.71348  0.16742  1.0000
  C   C1378     1.0  0.17101  0.53753  0.15147  1.0000
  C   C1379     1.0  0.15438  0.52965  0.14828  1.0000
  H   H1090     1.0  0.09100  0.53861  0.21093  1.0000
  Fe  Fe94      1.0  0.00466  0.62880  0.23899  1.0000
  C   C1380     1.0  0.07736  0.56691  0.21167  1.0000
  H   H1091     1.0  0.41398  0.71385  0.02341  1.0000
  H   H1092     1.0  0.02995  0.52325  0.29022  1.0000
  H   H1093     1.0  0.18052  0.73568  0.02477  1.0000
  C   C1381     1.0  0.49243  0.63688  0.17401  1.0000
  H   H1094     1.0  0.48193  0.70967  0.03525  1.0000
  C   C1382     1.0  0.01776  0.56349  0.26226  1.0000
  C   C1383     1.0  0.35920  0.66868  0.02181  1.0000
  C   C1384     1.0  0.19786  0.52170  0.09973  1.0000
  C   C1385     1.0  0.49704  0.73921  0.01215  1.0000
  C   C1386     1.0  0.04368  0.56972  0.22189  1.0000
  H   H1095     1.0  0.03445  0.71028  0.00181  1.0000
  H   H1096     1.0  0.18263  0.62617  0.02306  1.0000
  C   C1387     1.0  0.19549  0.73599  0.05859  1.0000
  H   H1097     1.0  0.00122  0.73153  0.21554  1.0000
  S   S191      1.0  0.04486  0.74140  0.07478  1.0000
  H   H1098     1.0  0.33808  0.53039  0.24255  1.0000
  H   H1099     1.0  0.20275  0.59299  0.08473  1.0000
  C   C1388     1.0  0.01539  0.71434  0.24864  1.0000
  S   S192      1.0  0.00421  0.67845  0.28548  1.0000
  C   C1389     1.0  0.18631  0.59995  0.03960  1.0000
  C   C1390     1.0  0.42824  0.64427  0.10630  1.0000
  H   H1100     1.0  0.14519  0.67231  0.10282  1.0000
  C   C1391     1.0  0.02800  0.73414  0.17366  1.0000
  H   H1101     1.0  0.03551  0.72484  0.16366  1.0000
  H   H1102     1.0  0.23319  0.58047  0.15662  1.0000
  C   C1392     1.0  0.22264  0.71499  0.04722  1.0000
  C   C1393     1.0  0.00872  0.54139  0.21320  1.0000
  C   C1394     1.0  0.00704  0.57350  0.27626  1.0000
  H   H1103     1.0  0.19411  0.70717  0.05190  1.0000
  H   H1104     1.0  0.26283  0.50266  0.23047  1.0000
  C   C1395     1.0  0.01859  0.72619  0.18994  1.0000
  C   C1396     1.0  0.37189  0.67788  0.04944  1.0000
  C   C1397     1.0  0.04786  0.71175  0.23456  1.0000
  H   H1105     1.0  0.06418  0.73469  0.23787  1.0000
  P   P44       1.0  0.47697  0.73424  0.00035  1.0000
  C   C1398     1.0  0.06114  0.53881  0.22006  1.0000
  H   H1106     1.0  0.02307  0.51651  0.20083  1.0000
  C   C1399     1.0  0.43923  0.66039  0.13098  1.0000
  H   H1107     1.0  0.11721  0.50876  0.31082  1.0000
  C   C1400     1.0  0.48047  0.51215  0.21253  1.0000
  H   H1108     1.0  0.13360  0.72292  0.06814  1.0000
  S   S193      1.0  0.41132  0.73851  0.06859  1.0000
  H   H1109     1.0  0.02836  0.69088  0.23352  1.0000
  C   C1401     1.0  0.46729  0.71040  0.03219  1.0000
  C   C1402     1.0  0.27098  0.57414  0.99529  1.0000
  C   C1403     1.0  0.00825  0.53613  0.30950  1.0000
  H   H1110     1.0  0.20469  0.50671  0.07470  1.0000
  P   P45       1.0  0.47535  0.67262  0.12990  1.0000
  C   C1404     1.0  0.01363  0.71991  0.31859  1.0000
  H   H1111     1.0  0.27602  0.58766  0.99705  1.0000
  C   C1405     1.0  0.23459  0.72927  0.04769  1.0000
  C   C1406     1.0  0.01700  0.50078  0.23876  1.0000
  S   S194      1.0  0.37694  0.74577  0.02926  1.0000
  C   C1407     1.0  0.45438  0.70140  0.04501  1.0000
  H   H1112     1.0  0.10430  0.50344  0.19750  1.0000
  C   C1408     1.0  0.43859  0.51016  0.31869  1.0000
  H   H1113     1.0  0.44710  0.52003  0.31030  1.0000
  C   C1409     1.0  0.44157  0.73470  0.09041  1.0000
  H   H1114     1.0  0.47402  0.65404  0.09514  1.0000
  C   C1410     1.0  0.16004  0.53184  0.29587  1.0000
  H   H1115     1.0  0.00582  0.73949  0.26225  1.0000
  H   H1116     1.0  0.45911  0.69392  0.05768  1.0000
  H   H1117     1.0  0.05977  0.70470  0.30639  1.0000
  H   H1118     1.0  0.43653  0.72946  0.00067  1.0000
  H   H1119     1.0  0.48846  0.71075  0.07049  1.0000
  H   H1120     1.0  0.09814  0.60019  0.31340  1.0000
  H   H1121     1.0  0.26948  0.51757  0.02137  1.0000
  C   C1411     1.0  0.00294  0.61344  0.05865  1.0000
  H   H1122     1.0  0.16179  0.54159  0.19860  1.0000
  C   C1412     1.0  0.09016  0.73011  0.15434  1.0000
  H   H1123     1.0  0.44859  0.63907  0.08255  1.0000
  H   H1124     1.0  0.11166  0.63902  0.02785  1.0000
  C   C1413     1.0  0.44180  0.72137  0.01279  1.0000
  Fe  Fe95      1.0  0.07629  0.74342  0.06949  1.0000
  C   C1414     1.0  0.15960  0.53861  0.18445  1.0000
  H   H1125     1.0  0.46520  0.73116  0.10780  1.0000
  H   H1126     1.0  0.01810  0.73464  0.13780  1.0000
  H   H1127     1.0  0.06594  0.73915  0.17274  1.0000
  C   C1415     1.0  0.07229  0.73987  0.15841  1.0000
  C   C1416     1.0  0.01679  0.74685  0.12793  1.0000
  C   C1417     1.0  0.00605  0.74606  0.11276  1.0000
  H   H1128     1.0  0.32883  0.50290  0.26340  1.0000
  H   H1129     1.0  0.00501  0.73028  0.32668  1.0000
  C   C1418     1.0  0.99879  0.68686  0.06392  1.0000
  C   C1419     1.0  0.24860  0.50277  0.00975  1.0000
  C   C1420     1.0  0.19047  0.50237  0.12831  1.0000
  H   H1130     1.0  0.26747  0.49936  0.05201  1.0000
  H   H1131     1.0  0.39002  0.49901  0.23598  1.0000
  H   H1132     1.0  0.37983  0.49923  0.27002  1.0000
  C   C1421     1.0  0.99821  0.70289  0.07395  1.0000
  C   C1422     1.0  0.34736  0.72690  0.99474  1.0000
  Fe  Fe96      1.0  0.39894  0.59967  0.59746  1.0000
  S   S195      1.0  0.37091  0.61777  0.59629  1.0000
  S   S196      1.0  0.41773  0.59287  0.57069  1.0000
  Fe  Fe97      1.0  0.39561  0.59597  0.64050  1.0000
  S   S197      1.0  0.36731  0.61331  0.64254  1.0000
  H   H1133     1.0  0.38664  0.53040  0.57613  1.0000
  Fe  Fe98      1.0  0.35959  0.59715  0.61906  1.0000
  S   S198      1.0  0.33209  0.58226  0.62189  1.0000
  Fe  Fe99      1.0  0.38067  0.63276  0.61963  1.0000
  S   S199      1.0  0.37517  0.66463  0.62261  1.0000
  S   S200      1.0  0.38713  0.57822  0.61870  1.0000
  S   S201      1.0  0.40939  0.61630  0.61908  1.0000
  P   P46       1.0  0.14358  0.52918  0.53777  1.0000
  C   C1423     1.0  0.17630  0.57237  0.52093  1.0000
  S   S202      1.0  0.46433  0.51274  0.55822  1.0000
  C   C1424     1.0  0.43883  0.54443  0.50049  1.0000
  C   C1425     1.0  0.29173  0.72155  0.55603  1.0000
  C   C1426     1.0  0.45533  0.63854  0.37125  1.0000
  S   S203      1.0  0.43164  0.72765  0.59478  1.0000
  C   C1427     1.0  0.46830  0.65219  0.36897  1.0000
  Fe  Fe100     1.0  0.14120  0.72111  0.52369  1.0000
  H   H1134     1.0  0.48969  0.52935  0.42436  1.0000
  S   S204      1.0  0.16157  0.69405  0.52091  1.0000
  C   C1428     1.0  0.44911  0.56667  0.61835  1.0000
  C   C1429     1.0  0.48212  0.56382  0.59358  1.0000
  S   S205      1.0  0.10925  0.72468  0.52740  1.0000
  H   H1135     1.0  0.16578  0.55717  0.33999  1.0000
  Fe  Fe101     1.0  0.19884  0.55576  0.59709  1.0000
  S   S206      1.0  0.18226  0.55870  0.57180  1.0000
  S   S207      1.0  0.18697  0.53763  0.62247  1.0000
  Fe  Fe102     1.0  0.23110  0.57707  0.57608  1.0000
  S   S208      1.0  0.21634  0.58119  0.54922  1.0000
  S   S209      1.0  0.25818  0.59224  0.57592  1.0000
  Fe  Fe103     1.0  0.18980  0.58885  0.56821  1.0000
  S   S210      1.0  0.16564  0.61285  0.56648  1.0000
  Fe  Fe104     1.0  0.20997  0.55061  0.55473  1.0000
  S   S211      1.0  0.21339  0.52454  0.53674  1.0000
  S   S212      1.0  0.20476  0.58617  0.59467  1.0000
  S   S213      1.0  0.22639  0.54624  0.58047  1.0000
  C   C1430     1.0  0.21120  0.51521  0.51460  1.0000
  H   H1136     1.0  0.05246  0.72541  0.44605  1.0000
  H   H1137     1.0  0.27995  0.50505  0.46267  1.0000
  C   C1431     1.0  0.18050  0.50296  0.57407  1.0000
  C   C1432     1.0  0.02253  0.72652  0.44270  1.0000
  C   C1433     1.0  0.16226  0.67147  0.53362  1.0000
  C   C1434     1.0  0.17857  0.65863  0.53092  1.0000
  C   C1435     1.0  0.17982  0.64060  0.54064  1.0000
  C   C1436     1.0  0.16478  0.63521  0.55339  1.0000
  C   C1437     1.0  0.14841  0.64799  0.55598  1.0000
  C   C1438     1.0  0.14709  0.66593  0.54608  1.0000
  H   H1138     1.0  0.19034  0.66264  0.52118  1.0000
  H   H1139     1.0  0.19246  0.63094  0.53835  1.0000
  H   H1140     1.0  0.13661  0.64398  0.56567  1.0000
  H   H1141     1.0  0.13427  0.67540  0.54795  1.0000
  C   C1439     1.0  0.23052  0.52687  0.63491  1.0000
  C   C1440     1.0  0.17863  0.54325  0.64569  1.0000
  C   C1441     1.0  0.46182  0.61949  0.36997  1.0000
  H   H1142     1.0  0.18247  0.57283  0.64177  1.0000
  C   C1442     1.0  0.12119  0.51518  0.33900  1.0000
  C   C1443     1.0  0.04928  0.72514  0.53825  1.0000
  C   C1444     1.0  0.18035  0.54477  0.36347  1.0000
  C   C1445     1.0  0.10708  0.54195  0.52855  1.0000
  C   C1446     1.0  0.26684  0.51354  0.48929  1.0000
  H   H1143     1.0  0.22077  0.73643  0.62068  1.0000
  H   H1144     1.0  0.33888  0.52650  0.47542  1.0000
  H   H1145     1.0  0.14951  0.56003  0.62029  1.0000
  H   H1146     1.0  0.17015  0.60206  0.52491  1.0000
  C   C1447     1.0  0.16960  0.55455  0.52398  1.0000
  C   C1448     1.0  0.43048  0.57046  0.56720  1.0000
  C   C1449     1.0  0.44375  0.56832  0.55143  1.0000
  C   C1450     1.0  0.45422  0.55075  0.54838  1.0000
  C   C1451     1.0  0.45132  0.53510  0.56098  1.0000
  C   C1452     1.0  0.43782  0.53718  0.57653  1.0000
  C   C1453     1.0  0.42757  0.55478  0.57973  1.0000
  H   H1147     1.0  0.44608  0.58035  0.54163  1.0000
  H   H1148     1.0  0.46461  0.54935  0.53638  1.0000
  H   H1149     1.0  0.43523  0.52506  0.58609  1.0000
  H   H1150     1.0  0.41724  0.55621  0.59174  1.0000
  C   C1454     1.0  0.31193  0.58499  0.60853  1.0000
  C   C1455     1.0  0.29809  0.57201  0.61212  1.0000
  C   C1456     1.0  0.28173  0.57376  0.60213  1.0000
  C   C1457     1.0  0.27884  0.58872  0.58856  1.0000
  C   C1458     1.0  0.29267  0.60168  0.58497  1.0000
  C   C1459     1.0  0.30912  0.59981  0.59481  1.0000
  H   H1151     1.0  0.30010  0.56044  0.62262  1.0000
  H   H1152     1.0  0.27133  0.56361  0.60501  1.0000
  H   H1153     1.0  0.29066  0.61326  0.57446  1.0000
  H   H1154     1.0  0.31958  0.60990  0.59185  1.0000
  C   C1460     1.0  0.39121  0.68193  0.61516  1.0000
  C   C1461     1.0  0.40917  0.67720  0.60595  1.0000
  C   C1462     1.0  0.42130  0.69140  0.59994  1.0000
  C   C1463     1.0  0.41567  0.71048  0.60297  1.0000
  C   C1464     1.0  0.39774  0.71521  0.61225  1.0000
  C   C1465     1.0  0.38565  0.70099  0.61838  1.0000
  H   H1155     1.0  0.41366  0.66263  0.60335  1.0000
  H   H1156     1.0  0.43513  0.68756  0.59279  1.0000
  H   H1157     1.0  0.39325  0.72978  0.61480  1.0000
  H   H1158     1.0  0.37184  0.70480  0.62557  1.0000
  C   C1466     1.0  0.38716  0.52254  0.49747  1.0000
  S   S214      1.0  0.04545  0.73427  0.33022  1.0000
  H   H1159     1.0  0.44142  0.59245  0.60199  1.0000
  H   H1160     1.0  0.17746  0.72413  0.64409  1.0000
  H   H1161     1.0  0.47720  0.51281  0.39988  1.0000
  H   H1162     1.0  0.46326  0.66700  0.36964  1.0000
  C   C1467     1.0  0.46840  0.57911  0.59134  1.0000
  C   C1468     1.0  0.21284  0.69106  0.61404  1.0000
  H   H1163     1.0  0.25031  0.74125  0.60085  1.0000
  H   H1164     1.0  0.13164  0.56484  0.35143  1.0000
  H   H1165     1.0  0.48611  0.59928  0.36527  1.0000
  H   H1166     1.0  0.23034  0.52496  0.62012  1.0000
  C   C1469     1.0  0.17220  0.50843  0.59147  1.0000
  C   C1470     1.0  0.20695  0.61008  0.64095  1.0000
  H   H1167     1.0  0.49017  0.53818  0.60973  1.0000
  C   C1471     1.0  0.15126  0.55249  0.53259  1.0000
  S   S215      1.0  0.09474  0.74236  0.57581  1.0000
  H   H1168     1.0  0.42389  0.51471  0.47140  1.0000
  H   H1169     1.0  0.41423  0.50526  0.36189  1.0000
  C   C1472     1.0  0.13898  0.57100  0.62535  1.0000
  C   C1473     1.0  0.13701  0.58850  0.61519  1.0000
  C   C1474     1.0  0.12372  0.60279  0.62186  1.0000
  C   C1475     1.0  0.11236  0.59958  0.63867  1.0000
  H   H1170     1.0  0.45025  0.63618  0.61645  1.0000
  C   C1476     1.0  0.14004  0.56845  0.53906  1.0000
  C   C1477     1.0  0.38383  0.53548  0.48209  1.0000
  H   H1171     1.0  0.22991  0.68838  0.63747  1.0000
  H   H1172     1.0  0.02649  0.70126  0.40343  1.0000
  C   C1478     1.0  0.47961  0.70963  0.53916  1.0000
  H   H1173     1.0  0.13825  0.59860  0.54119  1.0000
  C   C1479     1.0  0.01736  0.72276  0.48191  1.0000
  H   H1174     1.0  0.17501  0.50108  0.38487  1.0000
  C   C1480     1.0  0.47211  0.72578  0.54816  1.0000
  C   C1481     1.0  0.03568  0.72305  0.47270  1.0000
  C   C1482     1.0  0.19323  0.71195  0.56666  1.0000
  C   C1483     1.0  0.00425  0.72602  0.45182  1.0000
  H   H1175     1.0  0.37478  0.50182  0.51739  1.0000
  H   H1176     1.0  0.14594  0.59103  0.60222  1.0000
  H   H1177     1.0  0.12235  0.61638  0.61396  1.0000
  H   H1178     1.0  0.47020  0.58964  0.57972  1.0000
  C   C1484     1.0  0.13223  0.69763  0.57890  1.0000
  C   C1485     1.0  0.12501  0.68752  0.59502  1.0000
  C   C1486     1.0  0.13742  0.67823  0.60747  1.0000
  C   C1487     1.0  0.15703  0.67943  0.60399  1.0000
  C   C1488     1.0  0.16437  0.68979  0.58791  1.0000
  C   C1489     1.0  0.15185  0.69846  0.57518  1.0000
  P   P47       1.0  0.18945  0.69301  0.58455  1.0000
  C   C1490     1.0  0.20356  0.67181  0.57744  1.0000
  C   C1491     1.0  0.11377  0.51355  0.35787  1.0000
  C   C1492     1.0  0.46252  0.55090  0.62026  1.0000
  H   H1179     1.0  0.44097  0.50046  0.41661  1.0000
  C   C1493     1.0  0.48744  0.51454  0.42677  1.0000
  H   H1180     1.0  0.46234  0.71087  0.63488  1.0000
  C   C1494     1.0  0.05248  0.73209  0.51960  1.0000
  C   C1495     1.0  0.19613  0.65422  0.57997  1.0000
  C   C1496     1.0  0.20751  0.63788  0.57505  1.0000
  C   C1497     1.0  0.22629  0.63892  0.56749  1.0000
  C   C1498     1.0  0.23375  0.65638  0.56477  1.0000
  C   C1499     1.0  0.22243  0.67279  0.56967  1.0000
  C   C1500     1.0  0.19591  0.69915  0.60685  1.0000
  C   C1501     1.0  0.18328  0.71122  0.61779  1.0000
  C   C1502     1.0  0.18741  0.71498  0.63567  1.0000
  C   C1503     1.0  0.19602  0.72280  0.53362  1.0000
  P   P48       1.0  0.14022  0.52981  0.33167  1.0000
  H   H1181     1.0  0.15340  0.53693  0.49712  1.0000
  H   H1182     1.0  0.12262  0.70477  0.56918  1.0000
  H   H1183     1.0  0.10978  0.68690  0.59775  1.0000
  H   H1184     1.0  0.13180  0.67026  0.61988  1.0000
  H   H1185     1.0  0.16645  0.67244  0.61391  1.0000
  H   H1186     1.0  0.15712  0.70584  0.56233  1.0000
  H   H1187     1.0  0.19481  0.69382  0.54368  1.0000
  H   H1188     1.0  0.17286  0.51459  0.65413  1.0000
  C   C1504     1.0  0.01180  0.70896  0.37874  1.0000
  H   H1189     1.0  0.18150  0.65298  0.58533  1.0000
  H   H1190     1.0  0.47758  0.69579  0.54598  1.0000
  H   H1191     1.0  0.20159  0.62442  0.57665  1.0000
  H   H1192     1.0  0.23496  0.62619  0.56352  1.0000
  H   H1193     1.0  0.24829  0.65713  0.55876  1.0000
  H   H1194     1.0  0.22841  0.68623  0.56747  1.0000
  H   H1195     1.0  0.17005  0.71750  0.61259  1.0000
  C   C1505     1.0  0.47121  0.53804  0.65768  1.0000
  H   H1196     1.0  0.40142  0.56297  0.51353  1.0000
  H   H1197     1.0  0.08213  0.50836  0.56612  1.0000
  C   C1506     1.0  0.35236  0.52533  0.48149  1.0000
  H   H1198     1.0  0.19323  0.52864  0.38645  1.0000
  H   H1199     1.0  0.39809  0.51157  0.54926  1.0000
  C   C1507     1.0  0.01289  0.70263  0.39754  1.0000
  H   H1200     1.0  0.46433  0.72449  0.56193  1.0000
  C   C1508     1.0  0.20931  0.52669  0.49800  1.0000
  C   C1509     1.0  0.14613  0.52600  0.57639  1.0000
  C   C1510     1.0  0.26033  0.50765  0.50759  1.0000
  H   H1201     1.0  0.39132  0.53331  0.62645  1.0000
  C   C1511     1.0  0.11414  0.58196  0.64894  1.0000
  C   C1512     1.0  0.15445  0.52181  0.50033  1.0000
  H   H1202     1.0  0.09277  0.50167  0.37785  1.0000
  H   H1203     1.0  0.10235  0.61093  0.64376  1.0000
  H   H1204     1.0  0.06290  0.53035  0.54524  1.0000
  H   H1205     1.0  0.24619  0.61237  0.60989  1.0000
  C   C1513     1.0  0.45394  0.61574  0.63986  1.0000
  C   C1514     1.0  0.23511  0.54397  0.64058  1.0000
  C   C1515     1.0  0.15505  0.51999  0.59264  1.0000
  C   C1516     1.0  0.08909  0.51786  0.55575  1.0000
  H   H1206     1.0  0.37064  0.71365  0.54121  1.0000
  H   H1207     1.0  0.14914  0.52483  0.60610  1.0000
  C   C1517     1.0  0.35793  0.72142  0.56851  1.0000
  C   C1518     1.0  0.40120  0.53224  0.63715  1.0000
  H   H1208     1.0  0.16333  0.51586  0.47161  1.0000
  H   H1209     1.0  0.49555  0.69866  0.51480  1.0000
  H   H1210     1.0  0.20585  0.52776  0.46836  1.0000
  H   H1211     1.0  0.45175  0.60894  0.37142  1.0000
  H   H1212     1.0  0.45951  0.60436  0.63120  1.0000
  C   C1519     1.0  0.17776  0.56156  0.65155  1.0000
  H   H1213     1.0  0.19638  0.71972  0.51904  1.0000
  H   H1214     1.0  0.12634  0.56714  0.54684  1.0000
  H   H1215     1.0  0.40444  0.72819  0.65374  1.0000
  H   H1216     1.0  0.31093  0.74486  0.51837  1.0000
  H   H1217     1.0  0.26492  0.52837  0.48459  1.0000
  H   H1218     1.0  0.21311  0.62704  0.61525  1.0000
  H   H1219     1.0  0.34437  0.50402  0.50301  1.0000
  H   H1220     1.0  0.44024  0.64276  0.37378  1.0000
  C   C1520     1.0  0.41700  0.73975  0.54816  1.0000
  C   C1521     1.0  0.45207  0.58066  0.60388  1.0000
  H   H1221     1.0  0.11390  0.55106  0.51768  1.0000
  C   C1522     1.0  0.24429  0.59364  0.63492  1.0000
  C   C1523     1.0  0.39658  0.52681  0.54716  1.0000
  H   H1222     1.0  0.43629  0.54897  0.51460  1.0000
  H   H1223     1.0  0.43625  0.56812  0.62782  1.0000
  Fe  Fe105     1.0  0.48425  0.50447  0.53264  1.0000
  C   C1524     1.0  0.21398  0.59581  0.65368  1.0000
  C   C1525     1.0  0.39440  0.53134  0.65609  1.0000
  C   C1526     1.0  0.44112  0.64826  0.64275  1.0000
  C   C1527     1.0  0.44882  0.63369  0.63158  1.0000
  C   C1528     1.0  0.41667  0.71779  0.65404  1.0000
  H   H1224     1.0  0.36402  0.54677  0.46220  1.0000
  C   C1529     1.0  0.48778  0.64679  0.36562  1.0000
  H   H1225     1.0  0.43642  0.66177  0.63592  1.0000
  H   H1226     1.0  0.34543  0.68968  0.60458  1.0000
  H   H1227     1.0  0.20729  0.70950  0.65672  1.0000
  H   H1228     1.0  0.46574  0.51764  0.60086  1.0000
  H   H1229     1.0  0.30428  0.59454  0.66074  1.0000
  C   C1530     1.0  0.12559  0.56693  0.33810  1.0000
  H   H1230     1.0  0.40010  0.65244  0.65513  1.0000
  H   H1231     1.0  0.03374  0.72979  0.56503  1.0000
  H   H1232     1.0  0.04799  0.72185  0.48068  1.0000
  C   C1531     1.0  0.35080  0.71448  0.58639  1.0000
  C   C1532     1.0  0.10892  0.51759  0.55402  1.0000
  C   C1533     1.0  0.42069  0.53238  0.63197  1.0000
  H   H1233     1.0  0.18869  0.55659  0.36382  1.0000
  H   H1234     1.0  0.11712  0.50763  0.56296  1.0000
  C   C1534     1.0  0.17156  0.50883  0.55783  1.0000
  C   C1535     1.0  0.07825  0.53021  0.54395  1.0000
  C   C1536     1.0  0.47470  0.74364  0.53943  1.0000
  C   C1537     1.0  0.20746  0.51864  0.48099  1.0000
  H   H1235     1.0  0.17865  0.50506  0.54442  1.0000
  C   C1538     1.0  0.47936  0.54992  0.60818  1.0000
  H   H1236     1.0  0.45141  0.52558  0.45119  1.0000
  C   C1539     1.0  0.04900  0.60175  0.65284  1.0000
  H   H1237     1.0  0.27069  0.74111  0.54381  1.0000
  C   C1540     1.0  0.23280  0.58757  0.65088  1.0000
  H   H1238     1.0  0.39439  0.54487  0.47653  1.0000
  H   H1239     1.0  0.04205  0.60279  0.63998  1.0000
  H   H1240     1.0  0.02445  0.72827  0.42751  1.0000
  H   H1241     1.0  0.29339  0.71263  0.54436  1.0000
  C   C1541     1.0  0.36441  0.68918  0.55929  1.0000
  C   C1542     1.0  0.15612  0.52999  0.34979  1.0000
  H   H1242     1.0  0.01581  0.72113  0.49706  1.0000
  C   C1543     1.0  0.44761  0.53121  0.46475  1.0000
  C   C1544     1.0  0.15947  0.51391  0.36209  1.0000
  H   H1243     1.0  0.20931  0.54181  0.49824  1.0000
  C   C1545     1.0  0.19508  0.70810  0.54768  1.0000
  H   H1244     1.0  0.22276  0.68153  0.60609  1.0000
  C   C1546     1.0  0.37275  0.51134  0.50505  1.0000
  H   H1245     1.0  0.38265  0.56536  0.57194  1.0000
  C   C1547     1.0  0.45437  0.55058  0.48894  1.0000
  H   H1246     1.0  0.25860  0.58712  0.63196  1.0000
  C   C1548     1.0  0.44799  0.69061  0.65366  1.0000
  H   H1247     1.0  0.06355  0.72507  0.51039  1.0000
  C   C1549     1.0  0.35547  0.51265  0.49701  1.0000
  C   C1550     1.0  0.21693  0.69486  0.63193  1.0000
  C   C1551     1.0  0.11801  0.52991  0.54064  1.0000
  C   C1552     1.0  0.16719  0.54515  0.35013  1.0000
  C   C1553     1.0  0.08725  0.54220  0.53031  1.0000
  C   C1554     1.0  0.30253  0.71685  0.57126  1.0000
  C   C1555     1.0  0.48481  0.74537  0.52176  1.0000
  C   C1556     1.0  0.06730  0.59243  0.65346  1.0000
  H   H1248     1.0  0.06384  0.73332  0.60315  1.0000
  H   H1249     1.0  0.47127  0.54824  0.46252  1.0000
  H   H1250     1.0  0.30861  0.72453  0.59825  1.0000
  H   H1251     1.0  0.42575  0.53333  0.61727  1.0000
  C   C1557     1.0  0.17266  0.51354  0.37536  1.0000
  H   H1252     1.0  0.17885  0.54228  0.52001  1.0000
  C   C1558     1.0  0.05887  0.74572  0.59468  1.0000
  C   C1559     1.0  0.36655  0.53672  0.47402  1.0000
  C   C1560     1.0  0.00142  0.72453  0.47149  1.0000
  C   C1561     1.0  0.23727  0.60800  0.62230  1.0000
  C   C1562     1.0  0.42003  0.50194  0.34788  1.0000
  H   H1253     1.0  0.05772  0.71265  0.54345  1.0000
  C   C1563     1.0  0.35731  0.68241  0.57713  1.0000
  H   H1254     1.0  0.34609  0.72389  0.59733  1.0000
  C   C1564     1.0  0.35036  0.69506  0.59059  1.0000
  C   C1565     1.0  0.12769  0.56773  0.64219  1.0000
  C   C1566     1.0  0.43101  0.51451  0.33675  1.0000
  C   C1567     1.0  0.20418  0.70672  0.64279  1.0000
  C   C1568     1.0  0.11513  0.58415  0.33360  1.0000
  H   H1255     1.0  0.23886  0.55494  0.62994  1.0000
  C   C1569     1.0  0.18298  0.52902  0.37617  1.0000
  H   H1256     1.0  0.31258  0.70431  0.57139  1.0000
  C   C1570     1.0  0.36470  0.70862  0.55496  1.0000
  S   S216      1.0  0.47670  0.50732  0.50280  1.0000
  P   P49       1.0  0.45859  0.53247  0.63854  1.0000
  H   H1257     1.0  0.13327  0.53558  0.57740  1.0000
  C   C1571     1.0  0.21862  0.61625  0.62532  1.0000
  C   C1572     1.0  0.45878  0.54397  0.47110  1.0000
  C   C1573     1.0  0.49249  0.72925  0.51266  1.0000
  H   H1258     1.0  0.02452  0.71238  0.36998  1.0000
  H   H1259     1.0  0.39706  0.72564  0.56723  1.0000
  H   H1260     1.0  0.35769  0.66733  0.58077  1.0000
  C   C1574     1.0  0.48044  0.50510  0.41296  1.0000
  C   C1575     1.0  0.14674  0.58629  0.53596  1.0000
  H   H1261     1.0  0.07425  0.58613  0.64104  1.0000
  C   C1576     1.0  0.19380  0.74541  0.55721  1.0000
  H   H1262     1.0  0.48624  0.72087  0.45848  1.0000
  C   C1577     1.0  0.48129  0.61405  0.36662  1.0000
  C   C1578     1.0  0.46649  0.50933  0.63059  1.0000
  H   H1263     1.0  0.46354  0.55984  0.49413  1.0000
  H   H1264     1.0  0.39032  0.58150  0.54081  1.0000
  H   H1265     1.0  0.12988  0.55416  0.64991  1.0000
  C   C1579     1.0  0.49176  0.50482  0.44372  1.0000
  H   H1266     1.0  0.33554  0.73023  0.53831  1.0000
  C   C1580     1.0  0.03826  0.72499  0.45313  1.0000
  H   H1267     1.0  0.11981  0.52047  0.36841  1.0000
  H   H1268     1.0  0.37013  0.67931  0.54900  1.0000
  P   P50       1.0  0.40837  0.52235  0.50935  1.0000
  C   C1581     1.0  0.40116  0.53589  0.52944  1.0000
  C   C1582     1.0  0.16482  0.58827  0.52683  1.0000
  C   C1583     1.0  0.19270  0.73074  0.57133  1.0000
  C   C1584     1.0  0.39840  0.55567  0.52713  1.0000
  C   C1585     1.0  0.39179  0.56621  0.54243  1.0000
  C   C1586     1.0  0.38746  0.55709  0.56004  1.0000
  C   C1587     1.0  0.38984  0.53740  0.56241  1.0000
  C   C1588     1.0  0.42735  0.53187  0.49409  1.0000
  C   C1589     1.0  0.43200  0.52512  0.47622  1.0000
  C   C1590     1.0  0.43354  0.53173  0.64567  1.0000
  H   H1269     1.0  0.49473  0.56257  0.58377  1.0000
  H   H1270     1.0  0.19058  0.57376  0.51444  1.0000
  C   C1591     1.0  0.45129  0.61231  0.65929  1.0000
  P   P51       1.0  0.35960  0.74639  0.56318  1.0000
  C   C1592     1.0  0.46877  0.50629  0.61138  1.0000
  H   H1271     1.0  0.43369  0.52764  0.34213  1.0000
  C   C1593     1.0  0.03577  0.73478  0.55037  1.0000
  C   C1594     1.0  0.43371  0.72159  0.64363  1.0000
  C   C1595     1.0  0.30033  0.72826  0.58637  1.0000
  H   H1272     1.0  0.19081  0.73420  0.58576  1.0000
  C   C1596     1.0  0.15419  0.52018  0.55889  1.0000
  Fe  Fe106     1.0  0.11252  0.74613  0.54774  1.0000
  C   C1597     1.0  0.17227  0.52879  0.65853  1.0000
  C   C1598     1.0  0.15075  0.51411  0.51879  1.0000
  H   H1273     1.0  0.19231  0.61608  0.64299  1.0000
  H   H1274     1.0  0.43477  0.50745  0.53643  1.0000
  C   C1599     1.0  0.09827  0.50309  0.36325  1.0000
  S   S217      1.0  0.14467  0.74127  0.54537  1.0000
  H   H1275     1.0  0.40601  0.50423  0.41833  1.0000
  H   H1276     1.0  0.46541  0.74288  0.48540  1.0000
  C   C1600     1.0  0.44934  0.70800  0.64340  1.0000
  H   H1277     1.0  0.07889  0.55158  0.52098  1.0000
  H   H1278     1.0  0.43467  0.73488  0.63529  1.0000
  S   S218      1.0  0.14225  0.74376  0.49980  1.0000
  H   H1279     1.0  0.49540  0.51738  0.65250  1.0000
  H   H1280     1.0  0.17942  0.50430  0.60399  1.0000
  S   S219      1.0  0.03740  0.74711  0.38364  1.0000
  C   C1601     1.0  0.39876  0.73718  0.55663  1.0000
  C   C1602     1.0  0.15978  0.50995  0.48575  1.0000
  H   H1281     1.0  0.11360  0.59528  0.34319  1.0000
  H   H1282     1.0  0.22105  0.49964  0.64376  1.0000
  H   H1283     1.0  0.42903  0.73026  0.55230  1.0000
  C   C1603     1.0  0.49444  0.62762  0.36493  1.0000
  C   C1604     1.0  0.27880  0.73775  0.55580  1.0000
  C   C1605     1.0  0.48981  0.71132  0.52147  1.0000
  C   C1606     1.0  0.19528  0.74145  0.53837  1.0000
  C   C1607     1.0  0.20748  0.49897  0.48014  1.0000
  H   H1284     1.0  0.46020  0.68016  0.65318  1.0000
  C   C1608     1.0  0.28739  0.74442  0.58623  1.0000
  C   C1609     1.0  0.22528  0.51257  0.64826  1.0000
  H   H1285     1.0  0.25339  0.51788  0.51706  1.0000
  H   H1286     1.0  0.15213  0.50148  0.36138  1.0000
  C   C1610     1.0  0.27531  0.50029  0.47694  1.0000
  C   C1611     1.0  0.33223  0.74537  0.53770  1.0000
  H   H1287     1.0  0.37924  0.53185  0.66008  1.0000
  C   C1612     1.0  0.23467  0.54681  0.65973  1.0000
  H   H1288     1.0  0.49132  0.69278  0.44022  1.0000
  C   C1613     1.0  0.49660  0.70945  0.46251  1.0000
  H   H1289     1.0  0.49727  0.51208  0.45442  1.0000
  H   H1290     1.0  0.32276  0.56332  0.66089  1.0000
  C   C1614     1.0  0.41800  0.49863  0.51582  1.0000
  C   C1615     1.0  0.22098  0.74802  0.61003  1.0000
  H   H1291     1.0  0.49755  0.65761  0.36341  1.0000
  S   S220      1.0  0.26290  0.62515  0.97287  1.0000
  H   H1292     1.0  0.03172  0.70242  0.79080  1.0000
  C   C1616     1.0  0.45878  0.51346  0.84989  1.0000
  S   S221      1.0  0.47833  0.71134  0.89756  1.0000
  C   C1617     1.0  0.42520  0.57308  0.86021  1.0000
  Fe  Fe107     1.0  0.46664  0.71269  0.86934  1.0000
  S   S222      1.0  0.45267  0.69017  0.85554  1.0000
  H   H1293     1.0  0.20197  0.67516  0.99256  1.0000
  H   H1294     1.0  0.39792  0.66499  0.81140  1.0000
  C   C1618     1.0  0.44763  0.64728  0.72867  1.0000
  S   S223      1.0  0.23873  0.52700  0.88825  1.0000
  Fe  Fe108     1.0  0.28205  0.54975  0.86193  1.0000
  S   S224      1.0  0.25344  0.56605  0.86890  1.0000
  S   S225      1.0  0.30402  0.56622  0.84341  1.0000
  Fe  Fe109     1.0  0.25359  0.55056  0.89743  1.0000
  S   S226      1.0  0.24004  0.56009  0.92585  1.0000
  Fe  Fe110     1.0  0.24053  0.54132  0.85924  1.0000
  S   S227      1.0  0.21443  0.54865  0.84244  1.0000
  S   S228      1.0  0.28303  0.53593  0.89133  1.0000
  S   S229      1.0  0.26900  0.52593  0.85069  1.0000
  Fe  Fe111     1.0  0.45112  0.59190  0.80512  1.0000
  S   S230      1.0  0.44795  0.56171  0.81603  1.0000
  S   S231      1.0  0.46954  0.61026  0.81929  1.0000
  Fe  Fe112     1.0  0.43010  0.58737  0.77066  1.0000
  S   S232      1.0  0.42574  0.55694  0.77920  1.0000
  S   S233      1.0  0.41802  0.60590  0.74624  1.0000
  Fe  Fe113     1.0  0.41768  0.56685  0.80817  1.0000
  S   S234      1.0  0.39501  0.55433  0.82930  1.0000
  Fe  Fe114     1.0  0.45637  0.55379  0.78651  1.0000
  S   S235      1.0  0.47574  0.52728  0.77749  1.0000
  S   S236      1.0  0.42044  0.59754  0.79942  1.0000
  S   S237      1.0  0.46114  0.58374  0.77578  1.0000
  C   C1619     1.0  0.01992  0.51220  0.77294  1.0000
  S   S238      1.0  0.11485  0.51312  0.77413  1.0000
  Fe  Fe115     1.0  0.14008  0.53815  0.72941  1.0000
  S   S239      1.0  0.13940  0.54871  0.75828  1.0000
  S   S240      1.0  0.15578  0.55617  0.70615  1.0000
  Fe  Fe116     1.0  0.14588  0.51834  0.76826  1.0000
  C   C1620     1.0  0.21896  0.50492  0.97081  1.0000
  Fe  Fe117     1.0  0.10857  0.54301  0.76190  1.0000
  S   S241      1.0  0.08599  0.56318  0.77678  1.0000
  C   C1621     1.0  0.13395  0.60494  0.70095  1.0000
  S   S242      1.0  0.10865  0.53480  0.73251  1.0000
  C   C1622     1.0  0.16432  0.55076  0.68291  1.0000
  H   H1295     1.0  0.28190  0.55833  0.76403  1.0000
  H   H1296     1.0  0.48763  0.66437  0.84954  1.0000
  C   C1623     1.0  0.18255  0.58903  0.96420  1.0000
  S   S243      1.0  0.41199  0.58047  0.66395  1.0000
  H   H1297     1.0  0.42571  0.55827  0.85770  1.0000
  H   H1298     1.0  0.43623  0.52905  0.67563  1.0000
  C   C1624     1.0  0.00364  0.74013  0.67928  1.0000
  C   C1625     1.0  0.20220  0.53658  0.82722  1.0000
  C   C1626     1.0  0.20830  0.51826  0.82219  1.0000
  C   C1627     1.0  0.18812  0.63345  0.98118  1.0000
  C   C1628     1.0  0.18189  0.51897  0.80234  1.0000
  C   C1629     1.0  0.17574  0.53724  0.80747  1.0000
  C   C1630     1.0  0.18586  0.54596  0.81978  1.0000
  S   S244      1.0  0.48682  0.73375  0.85647  1.0000
  H   H1299     1.0  0.16316  0.54462  0.80197  1.0000
  H   H1300     1.0  0.18096  0.56011  0.82359  1.0000
  C   C1631     1.0  0.32926  0.56197  0.83920  1.0000
  C   C1632     1.0  0.34005  0.54885  0.85034  1.0000
  C   C1633     1.0  0.36009  0.54674  0.84706  1.0000
  C   C1634     1.0  0.36964  0.55746  0.83243  1.0000
  C   C1635     1.0  0.35883  0.57035  0.82107  1.0000
  C   C1636     1.0  0.33881  0.57273  0.82458  1.0000
  H   H1301     1.0  0.33298  0.54053  0.86168  1.0000
  H   H1302     1.0  0.36825  0.53670  0.85594  1.0000
  H   H1303     1.0  0.36589  0.57854  0.80964  1.0000
  H   H1304     1.0  0.33064  0.58293  0.81587  1.0000
  C   C1637     1.0  0.45788  0.66805  0.84530  1.0000
  C   C1638     1.0  0.47609  0.65839  0.84410  1.0000
  C   C1639     1.0  0.47935  0.64084  0.83598  1.0000
  C   C1640     1.0  0.46452  0.63268  0.82894  1.0000
  C   C1641     1.0  0.44632  0.64237  0.83005  1.0000
  C   C1642     1.0  0.44306  0.65992  0.83817  1.0000
  H   H1305     1.0  0.45497  0.50247  0.80514  1.0000
  C   C1643     1.0  0.46427  0.50776  0.83171  1.0000
  H   H1306     1.0  0.43476  0.63628  0.82474  1.0000
  H   H1307     1.0  0.42892  0.66722  0.83904  1.0000
  C   C1644     1.0  0.46214  0.66547  0.78538  1.0000
  C   C1645     1.0  0.03490  0.59938  0.75333  1.0000
  C   C1646     1.0  0.03685  0.59752  0.77259  1.0000
  C   C1647     1.0  0.05228  0.58595  0.77958  1.0000
  C   C1648     1.0  0.06576  0.57591  0.76748  1.0000
  C   C1649     1.0  0.06338  0.57719  0.74831  1.0000
  C   C1650     1.0  0.04816  0.58903  0.74126  1.0000
  H   H1308     1.0  0.02678  0.60538  0.78204  1.0000
  H   H1309     1.0  0.05398  0.58504  0.79443  1.0000
  H   H1310     1.0  0.07349  0.56936  0.73891  1.0000
  H   H1311     1.0  0.04666  0.59020  0.72639  1.0000
  C   C1651     1.0  0.25632  0.60696  0.96004  1.0000
  C   C1652     1.0  0.26580  0.60391  0.94224  1.0000
  C   C1653     1.0  0.26108  0.58959  0.93161  1.0000
  C   C1654     1.0  0.24675  0.57820  0.93866  1.0000
  C   C1655     1.0  0.23721  0.58129  0.95642  1.0000
  C   C1656     1.0  0.24188  0.59564  0.96703  1.0000
  H   H1312     1.0  0.27692  0.61263  0.93667  1.0000
  H   H1313     1.0  0.26851  0.58739  0.91795  1.0000
  H   H1314     1.0  0.22636  0.57234  0.96209  1.0000
  C   C1657     1.0  0.47828  0.70336  0.95452  1.0000
  C   C1658     1.0  0.01429  0.68791  0.81225  1.0000
  C   C1659     1.0  0.48116  0.73076  0.75929  1.0000
  C   C1660     1.0  0.37873  0.62387  0.80768  1.0000
  C   C1661     1.0  0.01276  0.65465  0.80900  1.0000
  C   C1662     1.0  0.41264  0.58748  0.68702  1.0000
  C   C1663     1.0  0.40365  0.60469  0.69277  1.0000
  C   C1664     1.0  0.40504  0.60990  0.71108  1.0000
  C   C1665     1.0  0.41557  0.59808  0.72379  1.0000
  C   C1666     1.0  0.42434  0.58076  0.71811  1.0000
  C   C1667     1.0  0.42282  0.57549  0.69985  1.0000
  H   H1315     1.0  0.39568  0.61399  0.68310  1.0000
  H   H1316     1.0  0.39794  0.62318  0.71540  1.0000
  H   H1317     1.0  0.43236  0.57146  0.72775  1.0000
  H   H1318     1.0  0.42953  0.56201  0.69569  1.0000
  C   C1668     1.0  0.11233  0.54132  0.68295  1.0000
  H   H1319     1.0  0.42433  0.73242  0.76648  1.0000
  C   C1669     1.0  0.46806  0.71708  0.76169  1.0000
  C   C1670     1.0  0.38266  0.63632  0.87984  1.0000
  H   H1320     1.0  0.42321  0.72383  0.97085  1.0000
  C   C1671     1.0  0.14307  0.64874  0.98141  1.0000
  C   C1672     1.0  0.35723  0.71509  0.98162  1.0000
  H   H1321     1.0  0.02570  0.53879  0.78245  1.0000
  P   P52       1.0  0.09972  0.57819  0.67096  1.0000
  C   C1673     1.0  0.38141  0.67925  0.97448  1.0000
  C   C1674     1.0  0.38248  0.66041  0.96991  1.0000
  C   C1675     1.0  0.39891  0.65220  0.96014  1.0000
  C   C1676     1.0  0.41444  0.66270  0.95505  1.0000
  C   C1677     1.0  0.41371  0.68127  0.96008  1.0000
  C   C1678     1.0  0.39742  0.68937  0.97010  1.0000
  H   H1322     1.0  0.45561  0.57327  0.85884  1.0000
  C   C1679     1.0  0.04849  0.60817  0.68545  1.0000
  S   S245      1.0  0.44359  0.73551  0.87732  1.0000
  H   H1323     1.0  0.20488  0.52005  0.72997  1.0000
  C   C1680     1.0  0.25453  0.50891  0.78745  1.0000
  H   H1324     1.0  0.00369  0.66582  0.71875  1.0000
  C   C1681     1.0  0.36522  0.59012  0.88556  1.0000
  H   H1325     1.0  0.37801  0.58698  0.89273  1.0000
  H   H1326     1.0  0.41073  0.51926  0.84736  1.0000
  C   C1682     1.0  0.40421  0.66071  0.68273  1.0000
  H   H1327     1.0  0.07418  0.50486  0.75862  1.0000
  P   P53       1.0  0.25379  0.53001  0.77167  1.0000
  C   C1683     1.0  0.46125  0.65966  0.73038  1.0000
  C   C1684     1.0  0.40677  0.60336  0.86403  1.0000
  H   H1328     1.0  0.43798  0.54264  0.91992  1.0000
  H   H1329     1.0  0.35080  0.56806  0.90158  1.0000
  C   C1685     1.0  0.02980  0.65635  0.99012  1.0000
  H   H1330     1.0  0.39963  0.63766  0.95662  1.0000
  H   H1331     1.0  0.42815  0.63781  0.77668  1.0000
  C   C1686     1.0  0.18794  0.52234  0.96959  1.0000
  C   C1687     1.0  0.03959  0.60960  0.66883  1.0000
  P   P54       1.0  0.16955  0.61782  0.98769  1.0000
  H   H1332     1.0  0.20384  0.53301  0.93133  1.0000
  H   H1333     1.0  0.42072  0.51006  0.81516  1.0000
  H   H1334     1.0  0.06417  0.52133  0.67956  1.0000
  H   H1335     1.0  0.42577  0.68945  0.95623  1.0000
  H   H1336     1.0  0.46002  0.74593  0.78824  1.0000
  C   C1688     1.0  0.15272  0.50876  0.86792  1.0000
  C   C1689     1.0  0.38387  0.62757  0.84005  1.0000
  H   H1337     1.0  0.39569  0.74063  0.78803  1.0000
  H   H1338     1.0  0.19476  0.58669  0.97233  1.0000
  H   H1339     1.0  0.06139  0.65426  0.73092  1.0000
  C   C1690     1.0  0.43778  0.64876  0.71263  1.0000
  C   C1691     1.0  0.44141  0.66265  0.69807  1.0000
  H   H1340     1.0  0.06029  0.53419  0.77295  1.0000
  C   C1692     1.0  0.45215  0.68339  0.78268  1.0000
  C   C1693     1.0  0.09288  0.51513  0.68703  1.0000
  C   C1694     1.0  0.03352  0.68232  0.74654  1.0000
  H   H1341     1.0  0.47719  0.74524  0.71338  1.0000
  H   H1342     1.0  0.18681  0.55823  0.77273  1.0000
  C   C1695     1.0  0.44128  0.60089  0.86274  1.0000
  H   H1343     1.0  0.42737  0.63896  0.71164  1.0000
  H   H1344     1.0  0.13600  0.60241  0.73083  1.0000
  H   H1345     1.0  0.44371  0.51369  0.94093  1.0000
  C   C1696     1.0  0.36827  0.66681  0.88951  1.0000
  C   C1697     1.0  0.23041  0.53431  0.76327  1.0000
  C   C1698     1.0  0.30734  0.56421  0.66279  1.0000
  H   H1346     1.0  0.45856  0.68573  0.68893  1.0000
  H   H1347     1.0  0.45231  0.54397  0.88717  1.0000
  C   C1699     1.0  0.46189  0.72356  0.72894  1.0000
  H   H1348     1.0  0.00456  0.74247  0.77761  1.0000
  C   C1700     1.0  0.00745  0.67072  0.81887  1.0000
  C   C1701     1.0  0.14642  0.50235  0.83664  1.0000
  C   C1702     1.0  0.20264  0.62943  0.96685  1.0000
  H   H1349     1.0  0.39733  0.70359  0.97434  1.0000
  Fe  Fe118     1.0  0.49643  0.73445  0.88568  1.0000
  C   C1703     1.0  0.19090  0.54774  0.88791  1.0000
  H   H1350     1.0  0.18316  0.53006  0.86786  1.0000
  C   C1704     1.0  0.30052  0.51189  0.73716  1.0000
  H   H1351     1.0  0.44170  0.62371  0.68549  1.0000
  H   H1352     1.0  0.16579  0.57263  0.92649  1.0000
  H   H1353     1.0  0.35045  0.65428  0.69427  1.0000
  C   C1705     1.0  0.40715  0.53007  0.66986  1.0000
  C   C1706     1.0  0.23155  0.57270  0.69045  1.0000
  C   C1707     1.0  0.45521  0.67500  0.69989  1.0000
  C   C1708     1.0  0.00841  0.69511  0.71938  1.0000
  C   C1709     1.0  0.10628  0.57957  0.70831  1.0000
  H   H1354     1.0  0.02520  0.65460  0.74294  1.0000
  C   C1710     1.0  0.24210  0.58018  0.70315  1.0000
  C   C1711     1.0  0.23402  0.58354  0.72129  1.0000
  C   C1712     1.0  0.21536  0.57953  0.72687  1.0000
  C   C1713     1.0  0.20477  0.57213  0.71433  1.0000
  C   C1714     1.0  0.21283  0.56863  0.69626  1.0000
  C   C1715     1.0  0.28686  0.51349  0.75254  1.0000
  C   C1716     1.0  0.25959  0.54903  0.78457  1.0000
  C   C1717     1.0  0.07770  0.52688  0.68025  1.0000
  H   H1355     1.0  0.39678  0.65283  0.84454  1.0000
  H   H1356     1.0  0.23965  0.54272  0.80848  1.0000
  C   C1718     1.0  0.48432  0.74095  0.74198  1.0000
  C   C1719     1.0  0.19399  0.53967  0.75045  1.0000
  H   H1357     1.0  0.19026  0.56902  0.71860  1.0000
  C   C1720     1.0  0.49056  0.54746  0.68734  1.0000
  H   H1358     1.0  0.25653  0.58350  0.69913  1.0000
  H   H1359     1.0  0.20130  0.56172  0.90972  1.0000
  S   S246      1.0  0.16969  0.50714  0.78690  1.0000
  C   C1721     1.0  0.26345  0.51020  0.95094  1.0000
  H   H1360     1.0  0.20346  0.61691  0.95929  1.0000
  H   H1361     1.0  0.21856  0.55359  0.78422  1.0000
  C   C1722     1.0  0.46505  0.67350  0.71598  1.0000
  H   H1362     1.0  0.02851  0.64316  0.78485  1.0000
  H   H1363     1.0  0.09195  0.60389  0.75346  1.0000
  C   C1723     1.0  0.07532  0.69840  0.75037  1.0000
  H   H1364     1.0  0.21723  0.54687  0.99080  1.0000
  H   H1365     1.0  0.42512  0.69822  0.77636  1.0000
  C   C1724     1.0  0.43477  0.65054  0.77837  1.0000
  H   H1366     1.0  0.44480  0.63630  0.73966  1.0000
  C   C1725     1.0  0.22628  0.52488  0.74793  1.0000
  H   H1367     1.0  0.19559  0.50278  0.92173  1.0000
  C   C1726     1.0  0.26743  0.56679  0.66574  1.0000
  C   C1727     1.0  0.42376  0.61183  0.86417  1.0000
  C   C1728     1.0  0.21275  0.53544  0.98384  1.0000
  H   H1368     1.0  0.16047  0.52118  0.68677  1.0000
  H   H1369     1.0  0.28777  0.57046  0.96901  1.0000
  H   H1370     1.0  0.03660  0.71200  0.74832  1.0000
  C   C1729     1.0  0.43322  0.68462  0.77818  1.0000
  C   C1730     1.0  0.42467  0.66827  0.77583  1.0000
  H   H1371     1.0  0.20908  0.58213  0.74091  1.0000
  H   H1372     1.0  0.35826  0.67916  0.88746  1.0000
  H   H1373     1.0  0.27622  0.54009  0.96448  1.0000
  C   C1731     1.0  0.45011  0.51426  0.92658  1.0000
  C   C1732     1.0  0.26920  0.53890  0.73526  1.0000
  C   C1733     1.0  0.49263  0.54913  0.87314  1.0000
  H   H1374     1.0  0.11144  0.57985  0.73729  1.0000
  H   H1375     1.0  0.28144  0.54661  0.70738  1.0000
  C   C1734     1.0  0.28287  0.53727  0.71992  1.0000
  H   H1376     1.0  0.08032  0.62372  0.72618  1.0000
  H   H1377     1.0  0.06676  0.68508  0.79687  1.0000
  C   C1735     1.0  0.27100  0.52690  0.75163  1.0000
  H   H1378     1.0  0.19073  0.56010  0.87808  1.0000
  C   C1736     1.0  0.12727  0.66130  0.98645  1.0000
  H   H1379     1.0  0.37377  0.60289  0.83027  1.0000
  C   C1737     1.0  0.37822  0.61685  0.82643  1.0000
  C   C1738     1.0  0.03165  0.52609  0.77586  1.0000
  H   H1380     1.0  0.07323  0.59790  0.69920  1.0000
  H   H1381     1.0  0.19363  0.56772  0.94536  1.0000
  C   C1739     1.0  0.43132  0.51061  0.82494  1.0000
  H   H1382     1.0  0.45451  0.72072  0.71711  1.0000
  C   C1740     1.0  0.17055  0.56529  0.67004  1.0000
  C   C1741     1.0  0.30554  0.66457  0.97632  1.0000
  H   H1383     1.0  0.23451  0.59778  0.98072  1.0000
  H   H1384     1.0  0.25392  0.52232  0.94668  1.0000
  C   C1742     1.0  0.22521  0.51512  0.66734  1.0000
  H   H1385     1.0  0.32140  0.57469  0.88520  1.0000
  C   C1743     1.0  0.29687  0.58188  0.66271  1.0000
  H   H1386     1.0  0.46817  0.69673  0.94750  1.0000
  C   C1744     1.0  0.05898  0.50703  0.76239  1.0000
  C   C1745     1.0  0.20036  0.50637  0.96568  1.0000
  C   C1746     1.0  0.36290  0.74271  0.96049  1.0000
  H   H1387     1.0  0.31907  0.66031  0.94866  1.0000
  C   C1747     1.0  0.46389  0.55317  0.66840  1.0000
  C   C1748     1.0  0.45058  0.50639  0.81930  1.0000
  C   C1749     1.0  0.05116  0.52353  0.77052  1.0000
  H   H1388     1.0  0.09115  0.50054  0.69180  1.0000
  H   H1389     1.0  0.29288  0.65802  0.97407  1.0000
  H   H1390     1.0  0.06776  0.55475  0.66990  1.0000
  C   C1750     1.0  0.26765  0.50627  0.80109  1.0000
  H   H1391     1.0  0.30616  0.53416  0.66414  1.0000
  H   H1392     1.0  0.23693  0.51508  0.74114  1.0000
  C   C1751     1.0  0.16518  0.53249  0.67704  1.0000
  C   C1752     1.0  0.27808  0.54906  0.66597  1.0000
  H   H1393     1.0  0.12563  0.54682  0.68462  1.0000
  C   C1753     1.0  0.16629  0.58102  0.93832  1.0000
  C   C1754     1.0  0.33687  0.67382  0.96516  1.0000
  H   H1394     1.0  0.18452  0.54921  0.98169  1.0000
  H   H1395     1.0  0.36891  0.66479  0.71845  1.0000
  C   C1755     1.0  0.15144  0.59483  0.94278  1.0000
  H   H1396     1.0  0.44876  0.70274  0.74741  1.0000
  C   C1756     1.0  0.33872  0.68047  0.98270  1.0000
  H   H1397     1.0  0.12192  0.51328  0.69375  1.0000
  C   C1757     1.0  0.45863  0.71340  0.74626  1.0000
  H   H1398     1.0  0.22113  0.50401  0.67767  1.0000
  C   C1758     1.0  0.18795  0.65017  0.99030  1.0000
  H   H1399     1.0  0.47915  0.50472  0.82694  1.0000
  C   C1759     1.0  0.48516  0.50149  0.71312  1.0000
  H   H1400     1.0  0.22793  0.66718  0.96800  1.0000
  C   C1760     1.0  0.37424  0.65289  0.67325  1.0000
  C   C1761     1.0  0.48585  0.69872  0.79448  1.0000
  C   C1762     1.0  0.42632  0.72382  0.82773  1.0000
  C   C1763     1.0  0.42668  0.53003  0.66471  1.0000
  C   C1764     1.0  0.46152  0.49865  0.91987  1.0000
  C   C1765     1.0  0.27432  0.56018  0.77766  1.0000
  C   C1766     1.0  0.43641  0.71230  0.81456  1.0000
  H   H1401     1.0  0.99870  0.70008  0.70893  1.0000
  H   H1402     1.0  0.40368  0.62241  0.89755  1.0000
  C   C1767     1.0  0.29852  0.52375  0.72086  1.0000
  C   C1768     1.0  0.25612  0.56499  0.81350  1.0000
  C   C1769     1.0  0.27093  0.57582  0.80668  1.0000
  C   C1770     1.0  0.27998  0.57347  0.78873  1.0000
  H   H1403     1.0  0.24920  0.56670  0.82747  1.0000
  H   H1404     1.0  0.27566  0.58570  0.81551  1.0000
  H   H1405     1.0  0.29172  0.58164  0.78364  1.0000
  H   H1406     1.0  0.46735  0.56907  0.69187  1.0000
  H   H1407     1.0  0.20453  0.59104  0.66541  1.0000
  H   H1408     1.0  0.06565  0.64480  0.79057  1.0000
  H   H1409     1.0  0.49211  0.57179  0.82222  1.0000
  H   H1410     1.0  0.43453  0.52192  0.86930  1.0000
  C   C1771     1.0  0.16788  0.60320  0.96858  1.0000
  C   C1772     1.0  0.09716  0.55330  0.67622  1.0000
  C   C1773     1.0  0.47337  0.55767  0.68336  1.0000
  H   H1411     1.0  0.48887  0.73367  0.77086  1.0000
  C   C1774     1.0  0.39272  0.64947  0.90698  1.0000
  P   P55       1.0  0.46344  0.70474  0.78450  1.0000
  H   H1412     1.0  0.43550  0.69721  0.81643  1.0000
  C   C1775     1.0  0.39202  0.65175  0.81563  1.0000
  H   H1413     1.0  0.00160  0.62874  0.70143  1.0000
  H   H1414     1.0  0.24221  0.58929  0.73104  1.0000
  C   C1776     1.0  0.39125  0.64486  0.83446  1.0000
  C   C1777     1.0  0.18188  0.57816  0.94900  1.0000
  H   H1415     1.0  0.13939  0.59706  0.93444  1.0000
  C   C1778     1.0  0.19817  0.53244  0.91795  1.0000
  H   H1416     1.0  0.09647  0.71681  0.73892  1.0000
  C   C1779     1.0  0.39509  0.66463  0.70045  1.0000
  H   H1417     1.0  0.34816  0.67475  0.95394  1.0000
  C   C1780     1.0  0.38562  0.64131  0.80226  1.0000
  S   S247      1.0  0.44038  0.72932  0.93355  1.0000
  H   H1418     1.0  0.30920  0.52258  0.70902  1.0000
  C   C1781     1.0  0.45507  0.53127  0.89622  1.0000
  C   C1782     1.0  0.20815  0.52758  0.74156  1.0000
  H   H1419     1.0  0.41780  0.71756  0.83952  1.0000
  C   C1783     1.0  0.09560  0.71297  0.76903  1.0000
  H   H1420     1.0  0.28881  0.50434  0.76511  1.0000
  C   C1784     1.0  0.34719  0.60860  0.86237  1.0000
  H   H1421     1.0  0.15203  0.65197  0.96869  1.0000
  H   H1422     1.0  0.00699  0.64145  0.81390  1.0000
  C   C1785     1.0  0.25060  0.55154  0.80260  1.0000
  C   C1786     1.0  0.11141  0.58607  0.68973  1.0000
  H   H1423     1.0  0.45070  0.56138  0.66530  1.0000
  H   H1424     1.0  0.16979  0.57950  0.67442  1.0000
  H   H1425     1.0  0.47584  0.68290  0.71718  1.0000
  C   C1787     1.0  0.49580  0.51378  0.78693  1.0000
  H   H1426     1.0  0.37442  0.61542  0.79724  1.0000
  C   C1788     1.0  0.19797  0.54918  0.76563  1.0000
  P   P56       1.0  0.24909  0.51677  0.98754  1.0000
  H   H1427     1.0  0.48099  0.54036  0.83005  1.0000
  H   H1428     1.0  0.40176  0.64846  0.91837  1.0000
  C   C1789     1.0  0.08973  0.71010  0.75156  1.0000
  C   C1790     1.0  0.21607  0.54647  0.77211  1.0000
  C   C1791     1.0  0.40765  0.58396  0.86174  1.0000
  C   C1792     1.0  0.12889  0.59820  0.71940  1.0000
  H   H1429     1.0  0.49349  0.63349  0.83523  1.0000
  P   P57       1.0  0.04839  0.67412  0.76507  1.0000
  C   C1793     1.0  0.06644  0.68977  0.76671  1.0000
  C   C1794     1.0  0.03252  0.67273  0.78621  1.0000
  S   S248      1.0  0.01699  0.61536  0.74360  1.0000
  H   H1430     1.0  0.05907  0.66257  0.98631  1.0000
  H   H1431     1.0  0.23044  0.53355  0.68791  1.0000
  C   C1795     1.0  0.19679  0.54867  0.90575  1.0000
  C   C1796     1.0  0.02507  0.65566  0.79260  1.0000
  C   C1797     1.0  0.07277  0.69230  0.78416  1.0000
  C   C1798     1.0  0.06166  0.65161  0.76117  1.0000
  C   C1799     1.0  0.06867  0.64040  0.77643  1.0000
  C   C1800     1.0  0.07956  0.62326  0.77357  1.0000
  C   C1801     1.0  0.08380  0.61735  0.75547  1.0000
  C   C1802     1.0  0.07716  0.62852  0.74016  1.0000
  C   C1803     1.0  0.06623  0.64570  0.74296  1.0000
  C   C1804     1.0  0.02361  0.66950  0.73849  1.0000
  H   H1432     1.0  0.41018  0.66930  0.77206  1.0000
  H   H1433     1.0  0.49313  0.54290  0.88735  1.0000
  H   H1434     1.0  0.25727  0.54959  0.73445  1.0000
  H   H1435     1.0  0.40186  0.52963  0.68454  1.0000
  H   H1436     1.0  0.45438  0.60755  0.86236  1.0000
  C   C1805     1.0  0.19812  0.50952  0.80993  1.0000
  C   C1806     1.0  0.29797  0.54781  0.66451  1.0000
  H   H1437     1.0  0.17987  0.54145  0.74568  1.0000
  H   H1438     1.0  0.36036  0.65341  0.86610  1.0000
  C   C1807     1.0  0.21663  0.65803  0.97141  1.0000
  H   H1439     1.0  0.31898  0.60060  0.86039  1.0000
  C   C1808     1.0  0.44200  0.58154  0.86074  1.0000
  H   H1440     1.0  0.14499  0.61445  0.69810  1.0000
  C   C1809     1.0  0.41920  0.73829  0.96608  1.0000
  H   H1441     1.0  0.14066  0.61664  0.96092  1.0000
  C   C1810     1.0  0.33320  0.58324  0.88160  1.0000
  C   C1811     1.0  0.33184  0.59789  0.86755  1.0000
  H   H1442     1.0  0.00981  0.70038  0.81980  1.0000
  H   H1443     1.0  0.09197  0.70594  0.79883  1.0000
  C   C1812     1.0  0.08719  0.70399  0.78531  1.0000
  C   C1813     1.0  0.48727  0.70020  0.81366  1.0000
  H   H1444     1.0  0.07123  0.69598  0.73670  1.0000
  C   C1814     1.0  0.21678  0.64166  0.96205  1.0000
  H   H1445     1.0  0.34576  0.61989  0.85148  1.0000
  C   C1815     1.0  0.44858  0.72005  0.80000  1.0000
  H   H1446     1.0  0.46899  0.65832  0.74275  1.0000
  C   C1816     1.0  0.36539  0.65623  0.69107  1.0000
  H   H1447     1.0  0.20441  0.56272  0.68684  1.0000
  H   H1448     1.0  0.22819  0.63821  0.95133  1.0000
  H   H1449     1.0  0.09563  0.56969  0.71135  1.0000
  C   C1817     1.0  0.43935  0.51745  0.85550  1.0000
  C   C1818     1.0  0.01139  0.71059  0.98407  1.0000
  H   H1450     1.0  0.08447  0.61430  0.78540  1.0000
  C   C1819     1.0  0.39392  0.63482  0.89499  1.0000
  C   C1820     1.0  0.45347  0.64916  0.78318  1.0000
  H   H1451     1.0  0.42714  0.65642  0.94737  1.0000
  C   C1821     1.0  0.42571  0.51590  0.84309  1.0000
  C   C1822     1.0  0.44397  0.62692  0.67054  1.0000
  H   H1452     1.0  0.37914  0.67687  0.91346  1.0000
  C   C1823     1.0  0.27087  0.54718  0.97691  1.0000
  P   P58       1.0  0.42907  0.66388  0.67698  1.0000
  H   H1453     1.0  0.40176  0.69767  0.67189  1.0000
  C   C1824     1.0  0.49235  0.56541  0.83644  1.0000
  C   C1825     1.0  0.48512  0.72151  0.97983  1.0000
  C   C1826     1.0  0.37996  0.66549  0.90421  1.0000
  C   C1827     1.0  0.20209  0.66240  0.98535  1.0000
  C   C1828     1.0  0.02671  0.68896  0.79590  1.0000
  Fe  Fe119     1.0  0.11663  0.50503  0.74431  1.0000
  Fe  Fe120     1.0  0.26787  0.51326  0.88068  1.0000
  C   C1829     1.0  0.36955  0.65224  0.87741  1.0000
  C   C1830     1.0  0.18653  0.53058  0.88218  1.0000
  C   C1831     1.0  0.34982  0.57945  0.89071  1.0000
  C   C1832     1.0  0.11504  0.58552  0.72306  1.0000
  H   H1454     1.0  0.46118  0.63536  0.78551  1.0000
  H   H1455     1.0  0.42355  0.62695  0.86483  1.0000
  C   C1833     1.0  0.48595  0.54760  0.84095  1.0000
  C   C1834     1.0  0.23020  0.53204  0.67308  1.0000
  Fe  Fe121     1.0  0.45619  0.73527  0.90475  1.0000
  H   H1456     1.0  0.27750  0.51667  0.80220  1.0000
  C   C1835     1.0  0.44690  0.53057  0.91475  1.0000
  H   H1457     1.0  0.10683  0.72196  0.76995  1.0000
  C   C1836     1.0  0.12524  0.59893  0.68613  1.0000
  C   C1837     1.0  0.15223  0.60593  0.95783  1.0000
  H   H1458     1.0  0.40280  0.66955  0.71105  1.0000
  C   C1838     1.0  0.03004  0.70172  0.74151  1.0000
  P   P59       1.0  0.38437  0.61778  0.86395  1.0000
  C   C1839     1.0  0.36421  0.60445  0.87099  1.0000
  H   H1459     1.0  0.38641  0.64643  0.78763  1.0000
  C   C1840     1.0  0.39357  0.65506  0.66908  1.0000
  C   C1841     1.0  0.01127  0.67586  0.72483  1.0000
  C   C1842     1.0  0.07981  0.54589  0.67480  1.0000
  C   C1843     1.0  0.37580  0.66215  0.70465  1.0000
  H   H1460     1.0  0.47508  0.70512  0.82285  1.0000
  C   C1844     1.0  0.11025  0.52231  0.68815  1.0000
  C   C1845     1.0  0.45039  0.73954  0.79884  1.0000
  H   H1461     1.0  0.39489  0.57729  0.86037  1.0000
  C   C1846     1.0  0.01775  0.70804  0.72776  1.0000
  C   C1847     1.0  0.47235  0.71211  0.97111  1.0000
  S   S249      1.0  0.14821  0.50795  0.73906  1.0000
  C   C1848     1.0  0.19414  0.53686  0.97864  1.0000
  C   C1849     1.0  0.42580  0.74504  0.94794  1.0000
  H   H1462     1.0  0.17352  0.52344  0.96559  1.0000
  C   C1850     1.0  0.22529  0.51938  0.98008  1.0000
  H   H1463     1.0  0.12971  0.52299  0.85311  1.0000
  H   H1464     1.0  0.49337  0.51268  0.73778  1.0000
  H   H1465     1.0  0.22086  0.51084  0.82767  1.0000
  C   C1851     1.0  0.41522  0.70038  0.66424  1.0000
  C   C1852     1.0  0.32038  0.66576  0.96206  1.0000
  C   C1853     1.0  0.07642  0.59105  0.67006  1.0000
  C   C1854     1.0  0.47467  0.73737  0.72681  1.0000
  C   C1855     1.0  0.27766  0.56440  0.97950  1.0000
  H   H1466     1.0  0.01512  0.72300  0.72385  1.0000
  P   P60       1.0  0.47674  0.51672  0.86523  1.0000
  H   H1467     1.0  0.27418  0.50511  0.92252  1.0000
  C   C1856     1.0  0.49699  0.70387  0.94651  1.0000
  H   H1468     1.0  0.27115  0.53617  0.66695  1.0000
  H   H1469     1.0  0.47651  0.66386  0.78948  1.0000
  H   H1470     1.0  0.45444  0.59820  0.66564  1.0000
  H   H1471     1.0  0.01889  0.70013  0.97527  1.0000
  C   C1857     1.0  0.42824  0.74317  0.82647  1.0000
  C   C1858     1.0  0.43912  0.64514  0.66241  1.0000
  C   C1859     1.0  0.41855  0.74698  0.76715  1.0000
  P   P61       1.0  0.24174  0.56852  0.66687  1.0000
  H   H1472     1.0  0.04112  0.61409  0.69794  1.0000
  C   C1860     1.0  0.14769  0.63252  0.99310  1.0000
  C   C1861     1.0  0.48568  0.53946  0.85937  1.0000
  H   H1473     1.0  0.00354  0.72771  0.67158  1.0000
  H   H1474     1.0  0.47194  0.51058  0.71300  1.0000
  C   C1862     1.0  0.30699  0.67187  0.99352  1.0000
  H   H1475     1.0  0.12408  0.67408  0.97768  1.0000
  C   C1863     1.0  0.25731  0.53953  0.99018  1.0000
  C   C1864     1.0  0.36419  0.72309  0.96408  1.0000
  C   C1865     1.0  0.46652  0.51563  0.88933  1.0000
  H   H1476     1.0  0.37105  0.71430  0.95332  1.0000
  C   C1866     1.0  0.06681  0.59895  0.68609  1.0000
  H   H1477     1.0  0.03034  0.65015  0.97679  1.0000
  H   H1478     1.0  0.37071  0.65198  0.97405  1.0000
  H   H1479     1.0  0.45764  0.71205  0.97668  1.0000
  H   H1480     1.0  0.13824  0.50538  0.82458  1.0000
  H   H1481     1.0  0.12963  0.60404  0.67195  1.0000
  P   P62       1.0  0.36035  0.68990  0.98729  1.0000
  C   C1867     1.0  0.34578  0.74649  0.99097  1.0000
  C   C1868     1.0  0.26427  0.50425  0.97000  1.0000
  H   H1482     1.0  0.00494  0.51417  0.77771  1.0000
  C   C1869     1.0  0.46971  0.49930  0.90132  1.0000
  H   H1483     1.0  0.00583  0.59487  0.71211  1.0000
  C   C1870     1.0  0.27494  0.50054  0.93720  1.0000
  C   C1871     1.0  0.27699  0.58320  0.66433  1.0000
  H   H1484     1.0  0.40279  0.74483  0.99216  1.0000
  C   C1872     1.0  0.43089  0.68662  0.66413  1.0000
  H   H1485     1.0  0.26912  0.59703  0.66401  1.0000
  H   H1486     1.0  0.21644  0.50623  0.86422  1.0000
  C   C1873     1.0  0.14172  0.51231  0.85267  1.0000
  C   C1874     1.0  0.18753  0.51420  0.89444  1.0000
  C   C1875     1.0  0.19360  0.51526  0.91234  1.0000
  H   H1487     1.0  0.14902  0.51673  0.88017  1.0000
  C   C1876     1.0  0.49728  0.50274  0.72704  1.0000
  H   H1488     1.0  0.36612  0.64867  0.66255  1.0000
  H   H1489     1.0  0.02537  0.61670  0.66839  1.0000
  H   H1490     1.0  0.31276  0.50153  0.73795  1.0000
  H   H1491     1.0  0.49785  0.55091  0.69899  1.0000
  C   C1877     1.0  0.48889  0.52836  0.66125  1.0000
  Fe  Fe122     1.0  0.13030  0.88808  0.11248  1.0000
  S   S250      1.0  0.11851  0.91152  0.13061  1.0000
  S   S251      1.0  0.16034  0.88422  0.09800  1.0000
  Fe  Fe123     1.0  0.09344  0.86854  0.11767  1.0000
  S   S252      1.0  0.07904  0.89063  0.13647  1.0000
  S   S253      1.0  0.07452  0.84578  0.11232  1.0000
  Fe  Fe124     1.0  0.09212  0.91176  0.11540  1.0000
  S   S254      1.0  0.07449  0.93938  0.10797  1.0000
  Fe  Fe125     1.0  0.10624  0.88874  0.15022  1.0000
  S   S255      1.0  0.10818  0.88417  0.18189  1.0000
  S   S256      1.0  0.10476  0.88994  0.09575  1.0000
  S   S257      1.0  0.11981  0.86500  0.13298  1.0000
  H   H1492     1.0  0.45373  0.82579  0.21441  1.0000
  H   H1493     1.0  0.04163  0.79479  0.31287  1.0000
  S   S258      1.0  0.04709  0.96645  0.02727  1.0000
  Fe  Fe126     1.0  0.10714  0.94867  0.30859  1.0000
  C   C1878     1.0  0.03225  0.82127  0.15258  1.0000
  Fe  Fe127     1.0  0.08452  0.94264  0.27493  1.0000
  S   S259      1.0  0.05725  0.93865  0.29330  1.0000
  S   S260      1.0  0.08513  0.94482  0.24292  1.0000
  Fe  Fe128     1.0  0.06435  0.96360  0.30772  1.0000
  H   H1494     1.0  0.33852  0.75553  0.00137  1.0000
  Fe  Fe129     1.0  0.07600  0.92056  0.31276  1.0000
  H   H1495     1.0  0.02038  0.83212  0.15282  1.0000
  S   S261      1.0  0.09080  0.96853  0.28847  1.0000
  S   S262      1.0  0.10274  0.92320  0.29335  1.0000
  H   H1496     1.0  0.12890  0.75746  0.00101  1.0000
  H   H1497     1.0  0.07009  0.86706  0.19475  1.0000
  Fe  Fe130     1.0  0.37967  0.96636  0.24064  1.0000
  S   S263      1.0  0.37825  0.98621  0.21472  1.0000
  S   S264      1.0  0.40187  0.94089  0.23784  1.0000
  H   H1498     1.0  0.01720  0.87398  0.02867  1.0000
  C   C1879     1.0  0.02778  0.75383  0.17038  1.0000
  H   H1499     1.0  0.04615  0.81617  0.19291  1.0000
  S   S265      1.0  0.34764  0.96511  0.24471  1.0000
  Fe  Fe131     1.0  0.37768  0.77566  0.01725  1.0000
  Fe  Fe132     1.0  0.35864  0.79205  0.05359  1.0000
  S   S266      1.0  0.35676  0.76292  0.06824  1.0000
  S   S267      1.0  0.34835  0.81737  0.07096  1.0000
  P   P63       1.0  0.37460  0.93571  0.32368  1.0000
  H   H1500     1.0  0.45180  0.81513  0.24792  1.0000
  S   S268      1.0  0.38933  0.78588  0.04227  1.0000
  S   S269      1.0  0.34724  0.78417  0.02760  1.0000
  Fe  Fe133     1.0  0.29505  0.94231  0.10519  1.0000
  S   S270      1.0  0.30597  0.94384  0.07447  1.0000
  S   S271      1.0  0.31642  0.94157  0.12742  1.0000
  Fe  Fe134     1.0  0.25450  0.93741  0.09598  1.0000
  S   S272      1.0  0.26251  0.93862  0.06492  1.0000
  S   S273      1.0  0.22407  0.93777  0.10962  1.0000
  Fe  Fe135     1.0  0.28861  0.91946  0.07228  1.0000
  S   S274      1.0  0.29752  0.89519  0.05326  1.0000
  Fe  Fe136     1.0  0.27921  0.96275  0.06915  1.0000
  H   H1501     1.0  0.33772  0.91440  0.26279  1.0000
  S   S275      1.0  0.27927  0.91667  0.10318  1.0000
  S   S276      1.0  0.26960  0.96284  0.10011  1.0000
  C   C1880     1.0  0.15636  0.78976  0.10321  1.0000
  S   S277      1.0  0.47356  0.91622  0.28448  1.0000
  H   H1502     1.0  0.32661  0.91001  0.02621  1.0000
  C   C1881     1.0  0.02932  0.92035  0.08907  1.0000
  H   H1503     1.0  0.36345  0.96825  0.29738  1.0000
  H   H1504     1.0  0.25469  0.87107  0.05611  1.0000
  H   H1505     1.0  0.46753  0.95498  0.24801  1.0000
  H   H1506     1.0  0.29648  0.82526  0.05199  1.0000
  C   C1882     1.0  0.48085  0.87710  0.18971  1.0000
  H   H1507     1.0  0.07243  0.80641  0.31720  1.0000
  H   H1508     1.0  0.46720  0.89697  0.16959  1.0000
  H   H1509     1.0  0.01077  0.89181  0.29127  1.0000
  H   H1510     1.0  0.47395  0.79871  0.14980  1.0000
  C   C1883     1.0  0.07640  0.90227  0.01722  1.0000
  H   H1511     1.0  0.44895  0.76003  0.02066  1.0000
  C   C1884     1.0  0.33428  0.83894  0.06560  1.0000
  C   C1885     1.0  0.32872  0.84421  0.04761  1.0000
  C   C1886     1.0  0.31744  0.86140  0.04412  1.0000
  C   C1887     1.0  0.31183  0.87371  0.05845  1.0000
  C   C1888     1.0  0.31755  0.86853  0.07639  1.0000
  C   C1889     1.0  0.32861  0.85123  0.07993  1.0000
  H   H1512     1.0  0.33314  0.83503  0.03641  1.0000
  H   H1513     1.0  0.31314  0.86524  0.03019  1.0000
  H   H1514     1.0  0.31339  0.87781  0.08756  1.0000
  H   H1515     1.0  0.33288  0.84737  0.09387  1.0000
  C   C1890     1.0  0.42238  0.93544  0.25031  1.0000
  C   C1891     1.0  0.43622  0.92115  0.24419  1.0000
  C   C1892     1.0  0.45214  0.91545  0.25427  1.0000
  C   C1893     1.0  0.45428  0.92377  0.27076  1.0000
  C   C1894     1.0  0.44076  0.93848  0.27657  1.0000
  C   C1895     1.0  0.42493  0.94438  0.26638  1.0000
  H   H1516     1.0  0.43454  0.91440  0.23163  1.0000
  H   H1517     1.0  0.46267  0.90449  0.24943  1.0000
  H   H1518     1.0  0.44248  0.94527  0.28909  1.0000
  H   H1519     1.0  0.41456  0.95556  0.27113  1.0000
  C   C1896     1.0  0.32215  0.97486  0.17904  1.0000
  C   C1897     1.0  0.30622  0.97901  0.16862  1.0000
  C   C1898     1.0  0.30416  0.96903  0.15285  1.0000
  C   C1899     1.0  0.31806  0.95471  0.14724  1.0000
  C   C1900     1.0  0.33398  0.95058  0.15764  1.0000
  C   C1901     1.0  0.33604  0.96055  0.17342  1.0000
  C   C1902     1.0  0.23223  0.76809  0.09618  1.0000
  H   H1520     1.0  0.29184  0.97239  0.14504  1.0000
  C   C1903     1.0  0.31498  0.78181  0.12283  1.0000
  H   H1521     1.0  0.48299  0.88211  0.06672  1.0000
  H   H1522     1.0  0.36946  0.92621  0.25714  1.0000
  H   H1523     1.0  0.48481  0.80531  0.05290  1.0000
  H   H1524     1.0  0.44124  0.81014  0.16178  1.0000
  H   H1525     1.0  0.00222  0.76828  0.31883  1.0000
  C   C1904     1.0  0.06307  0.79350  0.15060  1.0000
  C   C1905     1.0  0.05055  0.86332  0.04616  1.0000
  C   C1906     1.0  0.31594  0.96639  0.30816  1.0000
  C   C1907     1.0  0.49031  0.79232  0.06015  1.0000
  C   C1908     1.0  0.29310  0.81251  0.04639  1.0000
  C   C1909     1.0  0.28153  0.80013  0.05722  1.0000
  C   C1910     1.0  0.46130  0.86035  0.25136  1.0000
  H   H1526     1.0  0.32636  0.95843  0.29914  1.0000
  C   C1911     1.0  0.46263  0.86645  0.23232  1.0000
  C   C1912     1.0  0.06665  0.94633  0.08550  1.0000
  C   C1913     1.0  0.05171  0.96075  0.08378  1.0000
  C   C1914     1.0  0.04521  0.96678  0.06614  1.0000
  C   C1915     1.0  0.05397  0.95877  0.04996  1.0000
  C   C1916     1.0  0.06906  0.94451  0.05167  1.0000
  C   C1917     1.0  0.07525  0.93818  0.06935  1.0000
  H   H1527     1.0  0.04503  0.96721  0.09619  1.0000
  H   H1528     1.0  0.03366  0.97783  0.06502  1.0000
  H   H1529     1.0  0.07603  0.93837  0.03921  1.0000
  H   H1530     1.0  0.08691  0.92728  0.07047  1.0000
  C   C1918     1.0  0.08028  0.82415  0.10145  1.0000
  C   C1919     1.0  0.09886  0.81808  0.09462  1.0000
  C   C1920     1.0  0.10268  0.80080  0.08610  1.0000
  C   C1921     1.0  0.08804  0.78936  0.08436  1.0000
  C   C1922     1.0  0.06947  0.79541  0.09120  1.0000
  C   C1923     1.0  0.06564  0.81271  0.09971  1.0000
  H   H1531     1.0  0.11027  0.82673  0.09583  1.0000
  H   H1532     1.0  0.11708  0.79627  0.08077  1.0000
  H   H1533     1.0  0.05807  0.78689  0.08967  1.0000
  H   H1534     1.0  0.05123  0.81736  0.10487  1.0000
  C   C1924     1.0  0.10213  0.90138  0.19856  1.0000
  C   C1925     1.0  0.10527  0.89650  0.21745  1.0000
  C   C1926     1.0  0.10028  0.90959  0.23124  1.0000
  C   C1927     1.0  0.09193  0.92769  0.22626  1.0000
  C   C1928     1.0  0.08904  0.93262  0.20732  1.0000
  C   C1929     1.0  0.09410  0.91957  0.19353  1.0000
  H   H1535     1.0  0.11164  0.88253  0.22140  1.0000
  H   H1536     1.0  0.10290  0.90568  0.24569  1.0000
  H   H1537     1.0  0.08275  0.94663  0.20327  1.0000
  H   H1538     1.0  0.09165  0.92355  0.17906  1.0000
  C   C1930     1.0  0.17787  0.89943  0.10097  1.0000
  C   C1931     1.0  0.17334  0.91601  0.11023  1.0000
  C   C1932     1.0  0.18762  0.92772  0.11245  1.0000
  C   C1933     1.0  0.20660  0.92290  0.10563  1.0000
  C   C1934     1.0  0.21117  0.90634  0.09636  1.0000
  C   C1935     1.0  0.19682  0.89475  0.09388  1.0000
  H   H1539     1.0  0.15884  0.91982  0.11569  1.0000
  H   H1540     1.0  0.18392  0.94053  0.11958  1.0000
  H   H1541     1.0  0.22577  0.90238  0.09125  1.0000
  H   H1542     1.0  0.20047  0.88198  0.08666  1.0000
  H   H1543     1.0  0.20168  0.80755  0.08986  1.0000
  H   H1544     1.0  0.05334  0.84112  0.15141  1.0000
  H   H1545     1.0  0.08055  0.81661  0.14955  1.0000
  H   H1546     1.0  0.45686  0.83700  0.27167  1.0000
  C   C1936     1.0  0.41453  0.93083  0.32305  1.0000
  C   C1937     1.0  0.05398  0.82370  0.05103  1.0000
  C   C1938     1.0  0.06977  0.77789  0.26795  1.0000
  C   C1939     1.0  0.13886  0.75470  0.04653  1.0000
  H   H1547     1.0  0.35893  0.91321  0.03490  1.0000
  C   C1940     1.0  0.03696  0.81227  0.22233  1.0000
  C   C1941     1.0  0.37105  0.99272  0.30919  1.0000
  C   C1942     1.0  0.16441  0.95087  0.06329  1.0000
  H   H1548     1.0  0.08002  0.82481  0.03308  1.0000
  C   C1943     1.0  0.43396  0.87853  0.17083  1.0000
  H   H1549     1.0  0.42911  0.78297  0.11169  1.0000
  C   C1944     1.0  0.00337  0.91638  0.00669  1.0000
  C   C1945     1.0  0.28610  0.77904  0.03189  1.0000
  H   H1550     1.0  0.34482  0.93954  0.15347  1.0000
  C   C1946     1.0  0.26178  0.92769  0.30590  1.0000
  S   S278      1.0  0.32386  0.98793  0.19890  1.0000
  C   C1947     1.0  0.01723  0.92698  0.01182  1.0000
  C   C1948     1.0  0.13644  0.94762  0.21731  1.0000
  C   C1949     1.0  0.13867  0.93234  0.23059  1.0000
  C   C1950     1.0  0.15169  0.91685  0.22651  1.0000
  C   C1951     1.0  0.16259  0.91667  0.20918  1.0000
  C   C1952     1.0  0.16048  0.93201  0.19578  1.0000
  C   C1953     1.0  0.14738  0.94756  0.20001  1.0000
  P   P64       1.0  0.17466  0.93165  0.17344  1.0000
  C   C1954     1.0  0.17455  0.90870  0.16443  1.0000
  C   C1955     1.0  0.16373  0.94896  0.15700  1.0000
  C   C1956     1.0  0.14806  0.94479  0.14816  1.0000
  C   C1957     1.0  0.13964  0.95800  0.13528  1.0000
  C   C1958     1.0  0.14669  0.97556  0.13124  1.0000
  C   C1959     1.0  0.16201  0.98003  0.14029  1.0000
  C   C1960     1.0  0.17039  0.96687  0.15327  1.0000
  C   C1961     1.0  0.15842  0.89865  0.16823  1.0000
  C   C1962     1.0  0.15779  0.88151  0.16030  1.0000
  C   C1963     1.0  0.17313  0.87429  0.14844  1.0000
  C   C1964     1.0  0.18934  0.88399  0.14485  1.0000
  C   C1965     1.0  0.19010  0.90110  0.15280  1.0000
  C   C1966     1.0  0.19882  0.93660  0.17568  1.0000
  C   C1967     1.0  0.20603  0.93554  0.19330  1.0000
  C   C1968     1.0  0.43224  0.92029  0.32072  1.0000
  C   C1969     1.0  0.33437  0.99674  0.00475  1.0000
  C   C1970     1.0  0.17587  0.97871  0.28201  1.0000
  C   C1971     1.0  0.21073  0.94139  0.15958  1.0000
  C   C1972     1.0  0.47974  0.89309  0.17697  1.0000
  H   H1551     1.0  0.12993  0.93239  0.24386  1.0000
  H   H1552     1.0  0.15310  0.90487  0.23670  1.0000
  H   H1553     1.0  0.17253  0.90450  0.20614  1.0000
  H   H1554     1.0  0.14534  0.95953  0.18993  1.0000
  H   H1555     1.0  0.14231  0.93135  0.15121  1.0000
  H   H1556     1.0  0.12761  0.95456  0.12846  1.0000
  C   C1973     1.0  0.42185  0.98020  0.19186  1.0000
  H   H1557     1.0  0.28408  0.76570  0.02653  1.0000
  H   H1558     1.0  0.18205  0.97074  0.16031  1.0000
  H   H1559     1.0  0.14607  0.90420  0.17691  1.0000
  H   H1560     1.0  0.14519  0.87401  0.16305  1.0000
  H   H1561     1.0  0.17229  0.86140  0.14172  1.0000
  H   H1562     1.0  0.20109  0.87863  0.13531  1.0000
  H   H1563     1.0  0.20263  0.90849  0.14924  1.0000
  H   H1564     1.0  0.19723  0.93198  0.20599  1.0000
  C   C1974     1.0  0.19253  0.96261  0.00910  1.0000
  C   C1975     1.0  0.34583  0.97429  0.07766  1.0000
  H   H1565     1.0  0.02904  0.92392  0.05936  1.0000
  H   H1566     1.0  0.20550  0.94234  0.14586  1.0000
  C   C1976     1.0  0.01780  0.76539  0.18376  1.0000
  H   H1567     1.0  0.26961  0.91627  0.29853  1.0000
  H   H1568     1.0  0.23226  0.75312  0.10017  1.0000
  H   H1569     1.0  0.29539  0.99005  0.17278  1.0000
  C   C1977     1.0  0.27823  0.78325  0.04986  1.0000
  H   H1570     1.0  0.42736  0.98708  0.03053  1.0000
  P   P65       1.0  0.23856  0.98143  0.29265  1.0000
  C   C1978     1.0  0.01743  0.88875  0.02408  1.0000
  S   S279      1.0  0.46189  0.76518  0.12876  1.0000
  C   C1979     1.0  0.32016  0.99615  0.06678  1.0000
  C   C1980     1.0  0.22678  0.90944  0.04926  1.0000
  C   C1981     1.0  0.48376  0.85263  0.07608  1.0000
  H   H1571     1.0  0.18027  0.92309  0.02517  1.0000
  H   H1572     1.0  0.48840  0.82290  0.08339  1.0000
  H   H1573     1.0  0.33646  0.78587  0.09985  1.0000
  C   C1982     1.0  0.44555  0.98512  0.28981  1.0000
  C   C1983     1.0  0.25502  0.98473  0.27198  1.0000
  C   C1984     1.0  0.13699  0.75452  0.01311  1.0000
  C   C1985     1.0  0.40669  0.89990  0.18077  1.0000
  C   C1986     1.0  0.21449  0.97988  0.28704  1.0000
  C   C1987     1.0  0.20599  0.96285  0.29049  1.0000
  C   C1988     1.0  0.18676  0.96232  0.28798  1.0000
  H   H1574     1.0  0.23043  0.93812  0.20826  1.0000
  H   H1575     1.0  0.19935  0.89287  0.01926  1.0000
  H   H1576     1.0  0.15250  0.80146  0.11201  1.0000
  H   H1577     1.0  0.42871  0.78840  0.01032  1.0000
  H   H1578     1.0  0.02775  0.82697  0.06874  1.0000
  H   H1579     1.0  0.23981  0.90565  0.05595  1.0000
  C   C1989     1.0  0.14070  0.93086  0.07828  1.0000
  H   H1580     1.0  0.49520  0.93145  0.24915  1.0000
  C   C1990     1.0  0.20401  0.90229  0.02857  1.0000
  C   C1991     1.0  0.02907  0.80230  0.15219  1.0000
  C   C1992     1.0  0.04984  0.78692  0.20308  1.0000
  C   C1993     1.0  0.41215  0.98612  0.03223  1.0000
  C   C1994     1.0  0.30832  0.79357  0.09135  1.0000
  C   C1995     1.0  0.29945  0.99616  0.31666  1.0000
  H   H1581     1.0  0.03255  0.79017  0.11647  1.0000
  C   C1996     1.0  0.22553  0.99050  0.05311  1.0000
  H   H1582     1.0  0.21393  0.95004  0.29561  1.0000
  H   H1583     1.0  0.18006  0.94931  0.29119  1.0000
  H   H1584     1.0  0.05580  0.78210  0.18965  1.0000
  H   H1585     1.0  0.46386  0.86979  0.26171  1.0000
  C   C1997     1.0  0.28874  0.79531  0.09693  1.0000
  C   C1998     1.0  0.06762  0.86149  0.22478  1.0000
  C   C1999     1.0  0.07090  0.84816  0.23991  1.0000
  C   C2000     1.0  0.07847  0.82973  0.23617  1.0000
  P   P66       1.0  0.06874  0.85501  0.26380  1.0000
  C   C2001     1.0  0.06070  0.83545  0.27910  1.0000
  C   C2002     1.0  0.09157  0.86096  0.26927  1.0000
  C   C2003     1.0  0.09288  0.86893  0.28622  1.0000
  C   C2004     1.0  0.11023  0.87417  0.29064  1.0000
  C   C2005     1.0  0.12639  0.87184  0.27796  1.0000
  C   C2006     1.0  0.12522  0.86402  0.26094  1.0000
  C   C2007     1.0  0.10789  0.85852  0.25660  1.0000
  C   C2008     1.0  0.04350  0.82838  0.27645  1.0000
  C   C2009     1.0  0.03831  0.83415  0.05974  1.0000
  C   C2010     1.0  0.04712  0.80585  0.30322  1.0000
  C   C2011     1.0  0.06449  0.81246  0.30568  1.0000
  C   C2012     1.0  0.07126  0.82725  0.29374  1.0000
  C   C2013     1.0  0.05245  0.87600  0.26706  1.0000
  C   C2014     1.0  0.05734  0.89339  0.25842  1.0000
  C   C2015     1.0  0.04525  0.90988  0.26091  1.0000
  C   C2016     1.0  0.02834  0.90928  0.27256  1.0000
  C   C2017     1.0  0.02490  0.77794  0.11592  1.0000
  C   C2018     1.0  0.03561  0.87561  0.27913  1.0000
  H   H1586     1.0  0.06230  0.87592  0.22696  1.0000
  H   H1587     1.0  0.08176  0.81940  0.24754  1.0000
  H   H1588     1.0  0.08036  0.87121  0.29594  1.0000
  H   H1589     1.0  0.11097  0.88041  0.30378  1.0000
  H   H1590     1.0  0.13974  0.87629  0.28125  1.0000
  H   H1591     1.0  0.13767  0.86243  0.25098  1.0000
  H   H1592     1.0  0.10732  0.85278  0.24322  1.0000
  H   H1593     1.0  0.26445  0.88553  0.08328  1.0000
  C   C2019     1.0  0.06778  0.83296  0.03965  1.0000
  P   P67       1.0  0.04028  0.76390  0.14924  1.0000
  H   H1594     1.0  0.49390  0.91681  0.16407  1.0000
  H   H1595     1.0  0.08454  0.83235  0.29623  1.0000
  H   H1596     1.0  0.07063  0.89426  0.24984  1.0000
  H   H1597     1.0  0.04928  0.92321  0.25412  1.0000
  H   H1598     1.0  0.33628  0.98241  0.00057  1.0000
  H   H1599     1.0  0.30330  0.93817  0.02348  1.0000
  H   H1600     1.0  0.14018  0.98575  0.12122  1.0000
  C   C2020     1.0  0.04440  0.80608  0.20492  1.0000
  H   H1601     1.0  0.00068  0.76634  0.21026  1.0000
  H   H1602     1.0  0.31009  0.81776  0.02031  1.0000
  C   C2021     1.0  0.27472  0.98185  0.27355  1.0000
  H   H1603     1.0  0.31235  0.96963  0.02911  1.0000
  C   C2022     1.0  0.48338  0.97739  0.23428  1.0000
  C   C2023     1.0  0.32044  0.98638  0.09984  1.0000
  C   C2024     1.0  0.49488  0.90440  0.17377  1.0000
  H   H1604     1.0  0.40395  0.90592  0.20989  1.0000
  C   C2025     1.0  0.41685  0.89300  0.31480  1.0000
  H   H1605     1.0  0.26747  0.79246  0.12053  1.0000
  C   C2026     1.0  0.41752  0.89007  0.16670  1.0000
  C   C2027     1.0  0.09439  0.90785  0.01091  1.0000
  C   C2028     1.0  0.39776  0.92241  0.32151  1.0000
  H   H1606     1.0  0.31370  0.98648  0.11405  1.0000
  H   H1607     1.0  0.23187  0.82167  0.08182  1.0000
  H   H1608     1.0  0.36828  0.94450  0.04043  1.0000
  C   C2029     1.0  0.49368  0.83475  0.07477  1.0000
  C   C2030     1.0  0.15668  0.98187  0.00512  1.0000
  C   C2031     1.0  0.45004  0.83303  0.17575  1.0000
  H   H1609     1.0  0.10252  0.76073  0.29820  1.0000
  C   C2032     1.0  0.02358  0.89217  0.28176  1.0000
  C   C2033     1.0  0.24963  0.79540  0.08636  1.0000
  C   C2034     1.0  0.45973  0.85420  0.21876  1.0000
  C   C2035     1.0  0.45566  0.83567  0.22453  1.0000
  C   C2036     1.0  0.45449  0.82955  0.24358  1.0000
  C   C2037     1.0  0.45730  0.84188  0.25698  1.0000
  C   C2038     1.0  0.28765  0.98440  0.25778  1.0000
  H   H1610     1.0  0.41184  0.97229  0.00671  1.0000
  H   H1611     1.0  0.03185  0.86280  0.28703  1.0000
  H   H1612     1.0  0.01729  0.78055  0.18186  1.0000
  C   C2039     1.0  0.10849  0.90696  0.02331  1.0000
  H   H1613     1.0  0.02211  0.93425  0.09116  1.0000
  H   H1614     1.0  0.15825  0.80759  0.07758  1.0000
  S   S280      1.0  0.37952  0.98932  0.26027  1.0000
  C   C2040     1.0  0.28212  0.99709  0.99540  1.0000
  H   H1615     1.0  0.04956  0.88203  0.11353  1.0000
  C   C2041     1.0  0.05079  0.82635  0.15190  1.0000
  S   S281      1.0  0.27625  0.99203  0.05303  1.0000
  C   C2042     1.0  0.20750  0.75044  0.05856  1.0000
  H   H1616     1.0  0.06576  0.79067  0.25959  1.0000
  C   C2043     1.0  0.25636  0.94479  0.29608  1.0000
  C   C2044     1.0  0.34133  0.95959  0.03397  1.0000
  C   C2045     1.0  0.04333  0.89665  0.06799  1.0000
  C   C2046     1.0  0.03136  0.89936  0.02938  1.0000
  C   C2047     1.0  0.49064  0.86825  0.06559  1.0000
  C   C2048     1.0  0.04496  0.89106  0.10167  1.0000
  H   H1617     1.0  0.11557  0.89956  0.05164  1.0000
  H   H1618     1.0  0.28081  0.83072  0.10875  1.0000
  C   C2049     1.0  0.15779  0.93295  0.06716  1.0000
  H   H1619     1.0  0.44238  0.87131  0.15967  1.0000
  C   C2050     1.0  0.07193  0.85647  0.20632  1.0000
  C   C2051     1.0  0.03337  0.91438  0.07093  1.0000
  S   S282      1.0  0.09374  0.76792  0.07314  1.0000
  H   H1620     1.0  0.06577  0.90288  0.00732  1.0000
  H   H1621     1.0  0.03263  0.91369  0.11841  1.0000
  C   C2052     1.0  0.43342  0.90146  0.31645  1.0000
  C   C2053     1.0  0.06617  0.81249  0.15093  1.0000
  C   C2054     1.0  0.33735  0.98500  0.06289  1.0000
  H   H1622     1.0  0.44725  0.89359  0.31402  1.0000
  H   H1623     1.0  0.31367  0.79764  0.07711  1.0000
  C   C2055     1.0  0.21502  0.77945  0.09556  1.0000
  C   C2056     1.0  0.08268  0.82474  0.21767  1.0000
  C   C2057     1.0  0.32288  0.95754  0.02957  1.0000
  P   P68       1.0  0.34738  0.98244  0.03907  1.0000
  H   H1624     1.0  0.08391  0.88974  0.06284  1.0000
  H   H1625     1.0  0.09735  0.91299  0.99641  1.0000
  H   H1626     1.0  0.43566  0.83766  0.18113  1.0000
  P   P69       1.0  0.27202  0.80553  0.08069  1.0000
  C   C2058     1.0  0.27269  0.85887  0.09792  1.0000
  C   C2059     1.0  0.07952  0.83815  0.20275  1.0000
  C   C2060     1.0  0.36237  0.92956  0.30446  1.0000
  Fe  Fe137     1.0  0.34649  0.98650  0.21989  1.0000
  H   H1627     1.0  0.38518  0.93615  0.28329  1.0000
  H   H1628     1.0  0.43241  0.88527  0.21744  1.0000
  C   C2061     1.0  0.26892  0.83087  0.08203  1.0000
  C   C2062     1.0  0.19915  0.93165  0.04409  1.0000
  C   C2063     1.0  0.03653  0.85388  0.05727  1.0000
  H   H1629     1.0  0.05725  0.87152  0.08182  1.0000
  C   C2064     1.0  0.24663  0.95986  0.30562  1.0000
  C   C2065     1.0  0.16227  0.75610  0.09983  1.0000
  C   C2066     1.0  0.45312  0.81740  0.16488  1.0000
  H   H1630     1.0  0.03302  0.82720  0.22382  1.0000
  H   H1631     1.0  0.27751  0.86531  0.10952  1.0000
  C   C2067     1.0  0.21337  0.97983  0.08436  1.0000
  H   H1632     1.0  0.08879  0.81059  0.21489  1.0000
  C   C2068     1.0  0.15393  0.96651  0.07126  1.0000
  C   C2069     1.0  0.42853  0.88641  0.20321  1.0000
  C   C2070     1.0  0.03979  0.87634  0.32721  1.0000
  C   C2071     1.0  0.25707  0.92532  0.32522  1.0000
  C   C2072     1.0  0.10466  0.90031  0.04199  1.0000
  C   C2073     1.0  0.04917  0.88509  0.08356  1.0000
  H   H1633     1.0  0.43093  0.95110  0.19933  1.0000
  H   H1634     1.0  0.07529  0.78315  0.14927  1.0000
  H   H1635     1.0  0.29062  0.78002  0.14304  1.0000
  H   H1636     1.0  0.34384  0.96658  0.10742  1.0000
  H   H1637     1.0  0.01710  0.94185  0.00722  1.0000
  C   C2074     1.0  0.08664  0.89483  0.04834  1.0000
  C   C2075     1.0  0.05913  0.76227  0.26882  1.0000
  C   C2076     1.0  0.00199  0.77185  0.30393  1.0000
  C   C2077     1.0  0.06605  0.85268  0.03712  1.0000
  C   C2078     1.0  0.43275  0.76951  0.10570  1.0000
  C   C2079     1.0  0.43271  0.96569  0.20126  1.0000
  C   C2080     1.0  0.27457  0.83922  0.09737  1.0000
  C   C2081     1.0  0.00114  0.77992  0.26531  1.0000
  H   H1638     1.0  0.08332  0.83454  0.18840  1.0000
  C   C2082     1.0  0.03490  0.79928  0.23788  1.0000
  H   H1639     1.0  0.16576  0.92045  0.06187  1.0000
  C   C2083     1.0  0.37130  0.93092  0.28612  1.0000
  C   C2084     1.0  0.21288  0.98011  0.04551  1.0000
  C   C2085     1.0  0.28105  0.98957  0.24023  1.0000
  C   C2086     1.0  0.25972  0.86212  0.06782  1.0000
  H   H1640     1.0  0.06513  0.75959  0.11449  1.0000
  C   C2087     1.0  0.43958  0.87653  0.18916  1.0000
  H   H1641     1.0  0.47082  0.97842  0.27198  1.0000
  H   H1642     1.0  0.02293  0.80897  0.28712  1.0000
  H   H1643     1.0  0.03509  0.83465  0.26535  1.0000
  H   H1644     1.0  0.15886  0.98042  0.06864  1.0000
  H   H1645     1.0  0.15062  0.97532  0.03452  1.0000
  C   C2088     1.0  0.12856  0.75876  0.03087  1.0000
  H   H1646     1.0  0.02936  0.80434  0.25130  1.0000
  C   C2089     1.0  0.49749  0.87240  0.19878  1.0000
  C   C2090     1.0  0.30538  0.95718  0.32327  1.0000
  H   H1647     1.0  0.38641  0.89665  0.31580  1.0000
  C   C2091     1.0  0.03119  0.91851  0.02303  1.0000
  C   C2092     1.0  0.07226  0.89610  0.03612  1.0000
  C   C2093     1.0  0.40341  0.97776  0.01884  1.0000
  C   C2094     1.0  0.34906  0.92569  0.03300  1.0000
  C   C2095     1.0  0.33081  0.92386  0.02812  1.0000
  H   H1648     1.0  0.20191  0.76433  0.06259  1.0000
  H   H1649     1.0  0.00034  0.78261  0.25034  1.0000
  C   C2096     1.0  0.31176  0.99683  0.08519  1.0000
  H   H1650     1.0  0.13579  0.91697  0.08129  1.0000
  H   H1651     1.0  0.01465  0.79865  0.15204  1.0000
  H   H1652     1.0  0.01919  0.92217  0.27482  1.0000
  C   C2097     1.0  0.46545  0.84240  0.17983  1.0000
  C   C2098     1.0  0.47157  0.81094  0.15809  1.0000
  C   C2099     1.0  0.21592  0.92647  0.05285  1.0000
  H   H1653     1.0  0.07707  0.85953  0.02846  1.0000
  H   H1654     1.0  0.12238  0.91141  0.01846  1.0000
  H   H1655     1.0  0.39401  0.90894  0.17755  1.0000
  C   C2100     1.0  0.41224  0.89812  0.19899  1.0000
  H   H1656     1.0  0.49247  0.80494  0.22415  1.0000
  C   C2101     1.0  0.37655  0.96078  0.32334  1.0000
  H   H1657     1.0  0.30772  0.94203  0.32588  1.0000
  C   C2102     1.0  0.17924  0.96419  0.02490  1.0000
  C   C2103     1.0  0.33750  0.97516  0.09608  1.0000
  H   H1658     1.0  0.28108  0.97409  0.01700  1.0000
  C   C2104     1.0  0.48398  0.83568  0.17311  1.0000
  C   C2105     1.0  0.22083  0.89735  0.03715  1.0000
  C   C2106     1.0  0.48696  0.82010  0.16218  1.0000
  P   P70       1.0  0.04909  0.88885  0.04456  1.0000
  Fe  Fe138     1.0  0.49123  0.75292  0.13701  1.0000
  H   H1659     1.0  0.02453  0.86182  0.06445  1.0000
  C   C2107     1.0  0.23224  0.80669  0.08572  1.0000
  C   C2108     1.0  0.29552  0.78369  0.12858  1.0000
  H   H1660     1.0  0.11676  0.94486  0.09418  1.0000
  H   H1661     1.0  0.16741  0.99370  0.13727  1.0000
  H   H1662     1.0  0.47081  0.85438  0.08539  1.0000
  H   H1663     1.0  0.09358  0.78939  0.27780  1.0000
  H   H1664     1.0  0.21343  0.98008  0.03047  1.0000
  C   C2109     1.0  0.28244  0.79059  0.11573  1.0000
  H   H1665     1.0  0.04178  0.92701  0.02691  1.0000
  H   H1666     1.0  0.30283  0.98241  0.25915  1.0000
  H   H1667     1.0  0.46612  0.88067  0.22815  1.0000
  H   H1668     1.0  0.25133  0.94611  0.17950  1.0000
  H   H1669     1.0  0.48765  0.76886  0.01473  1.0000
  C   C2110     1.0  0.48130  0.95897  0.24215  1.0000
  C   C2111     1.0  0.34463  0.92217  0.30765  1.0000
  C   C2112     1.0  0.20069  0.96941  0.07683  1.0000
  C   C2113     1.0  0.38155  0.99228  0.04993  1.0000
  C   C2114     1.0  0.24947  0.77602  0.09166  1.0000
  C   C2115     1.0  0.47912  0.77714  0.06282  1.0000
  C   C2116     1.0  0.04754  0.77387  0.21852  1.0000
  H   H1670     1.0  0.40920  0.77319  0.08830  1.0000
  C   C2117     1.0  0.16537  0.75945  0.08028  1.0000
  C   C2118     1.0  0.44863  0.75776  0.11136  1.0000
  C   C2119     1.0  0.00459  0.76125  0.09928  1.0000
  H   H1671     1.0  0.22925  0.88416  0.03442  1.0000
  C   C2120     1.0  0.15961  0.79322  0.08380  1.0000
  P   P71       1.0  0.46140  0.86237  0.19420  1.0000
  H   H1672     1.0  0.19178  0.96072  0.08625  1.0000
  H   H1673     1.0  0.27007  0.77302  0.05803  1.0000
  C   C2121     1.0  0.26138  0.84249  0.06730  1.0000
  H   H1674     1.0  0.35861  0.96490  0.07491  1.0000
  C   C2122     1.0  0.13012  0.94654  0.08573  1.0000
  C   C2123     1.0  0.08553  0.77725  0.27833  1.0000
  C   C2124     1.0  0.36247  0.92526  0.27125  1.0000
  H   H1675     1.0  0.33756  0.92042  0.32161  1.0000
  Fe  Fe139     1.0  0.02022  0.98497  0.02001  1.0000
  C   C2125     1.0  0.34460  0.91847  0.27445  1.0000
  C   C2126     1.0  0.22588  0.99025  0.07251  1.0000
  H   H1676     1.0  0.41783  0.87846  0.31123  1.0000
  C   C2127     1.0  0.09060  0.76112  0.28981  1.0000
  H   H1677     1.0  0.41319  0.89148  0.15257  1.0000
  C   C2128     1.0  0.19323  0.91941  0.03196  1.0000
  C   C2129     1.0  0.44528  0.96992  0.21377  1.0000
  H   H1678     1.0  0.22067  0.93545  0.06253  1.0000
  C   C2130     1.0  0.04445  0.78822  0.15128  1.0000
  C   C2131     1.0  0.00350  0.89726  0.01276  1.0000
  H   H1679     1.0  0.12856  0.97647  0.08815  1.0000
  C   C2132     1.0  0.15776  0.77122  0.11122  1.0000
  C   C2133     1.0  0.20036  0.96944  0.05732  1.0000
  H   H1680     1.0  0.16629  0.78106  0.05731  1.0000
  H   H1681     1.0  0.03080  0.77774  0.00723  1.0000
  C   C2134     1.0  0.01776  0.77089  0.27239  1.0000
  S   S283      1.0  0.04385  0.98887  0.31767  1.0000
  C   C2135     1.0  0.16126  0.97394  0.02275  1.0000
  C   C2136     1.0  0.07188  0.75136  0.12576  1.0000
  C   C2137     1.0  0.13680  0.96435  0.08232  1.0000
  H   H1682     1.0  0.45122  0.97751  0.30201  1.0000
  C   C2138     1.0  0.32135  0.78685  0.10426  1.0000
  C   C2139     1.0  0.28041  0.98923  0.01412  1.0000
  C   C2140     1.0  0.03662  0.81383  0.28863  1.0000
  C   C2141     1.0  0.26529  0.87030  0.08315  1.0000
  H   H1683     1.0  0.25978  0.94619  0.28104  1.0000
  C   C2142     1.0  0.01905  0.78258  0.99891  1.0000
  H   H1684     1.0  0.45310  0.95830  0.22101  1.0000
  P   P72       1.0  0.18564  0.95414  0.04764  1.0000
  H   H1685     1.0  0.11394  0.76495  0.03264  1.0000
  H   H1686     1.0  0.12589  0.95934  0.22038  1.0000
  C   C2143     1.0  0.35431  0.94348  0.03602  1.0000
  C   C2144     1.0  0.22488  0.93904  0.19467  1.0000
  H   H1687     1.0  0.21408  0.97912  0.09941  1.0000
  H   H1688     1.0  0.32519  0.77667  0.13277  1.0000
  C   C2145     1.0  0.16410  0.77814  0.07237  1.0000
  C   C2146     1.0  0.03522  0.90877  0.10443  1.0000
  H   H1689     1.0  0.34835  0.95715  0.18123  1.0000
  H   H1690     1.0  0.25722  0.83640  0.05519  1.0000
  C   C2147     1.0  0.36986  0.97330  0.30884  1.0000
  H   H1691     1.0  0.48861  0.76768  0.23596  1.0000
  C   C2148     1.0  0.37276  0.98353  0.03674  1.0000
  Fe  Fe140     1.0  0.34742  0.98989  0.26227  1.0000
  C   C2149     1.0  0.29744  0.79153  0.02118  1.0000
  C   C2150     1.0  0.22956  0.94477  0.16096  1.0000
  H   H1692     1.0  0.23868  0.94811  0.14833  1.0000
  C   C2151     1.0  0.23667  0.94358  0.17850  1.0000
  C   C2152     1.0  0.31769  0.93976  0.02648  1.0000
  H   H1693     1.0  0.41178  0.97686  0.18252  1.0000
  H   H1694     1.0  0.05560  0.80843  0.05327  1.0000
  C   C2153     1.0  0.42141  0.76399  0.09241  1.0000
  C   C2154     1.0  0.45055  0.76541  0.00610  1.0000
  Fe  Fe141     1.0  0.38678  0.75641  0.05520  1.0000
  C   C2155     1.0  0.01797  0.76669  0.29181  1.0000
  H   H1695     1.0  0.03027  0.75916  0.29772  1.0000
  H   H1696     1.0  0.01347  0.78866  0.09004  1.0000
  C   C2156     1.0  0.42721  0.99442  0.29125  1.0000
  H   H1697     1.0  0.46495  0.77857  0.05813  1.0000
  H   H1698     1.0  0.20167  0.77332  0.09915  1.0000
  H   H1699     1.0  0.15503  0.76855  0.12626  1.0000
  H   H1700     1.0  0.32187  0.91154  0.29516  1.0000
  P   P73       1.0  0.03801  0.76335  0.25655  1.0000
  H   H1701     1.0  0.26271  0.76702  0.09228  1.0000
  C   C2157     1.0  0.33569  0.91690  0.29266  1.0000
  H   H1702     1.0  0.28011  0.97772  0.28702  1.0000
  C   C2158     1.0  0.45660  0.98549  0.27256  1.0000
  C   C2159     1.0  0.01411  0.77714  0.10081  1.0000
  C   C2160     1.0  0.43920  0.78161  0.00036  1.0000
  H   H1703     1.0  0.29113  0.99144  0.22798  1.0000
  C   C2161     1.0  0.30090  0.80829  0.02841  1.0000
  C   C2162     1.0  0.02611  0.76291  0.12980  1.0000
  C   C2163     1.0  0.24849  0.98987  0.25428  1.0000
  C   C2164     1.0  0.31330  0.98603  0.30507  1.0000
  P   P74       1.0  0.46274  0.99463  0.23373  1.0000
  C   C2165     1.0  0.39909  0.90339  0.31736  1.0000
  H   H1704     1.0  0.20651  0.95516  0.01038  1.0000
  C   C2166     1.0  0.38376  0.97658  0.02101  1.0000
  C   C2167     1.0  0.44715  0.98878  0.21699  1.0000
  C   C2168     1.0  0.21503  0.79872  0.09030  1.0000
  C   C2169     1.0  0.24163  0.95724  0.32498  1.0000
  C   C2170     1.0  0.04007  0.77992  0.23612  1.0000
  H   H1705     1.0  0.49621  0.84218  0.17646  1.0000
  H   H1706     1.0  0.44523  0.92684  0.32152  1.0000
  C   C2171     1.0  0.44918  0.99474  0.25646  1.0000
  H   H1707     1.0  0.30403  0.78792  0.00751  1.0000
  S   S284      1.0  0.13798  0.94841  0.31673  1.0000
  H   H1708     1.0  0.05165  0.75915  0.21652  1.0000
  H   H1709     1.0  0.16084  0.97829  0.28062  1.0000
  Fe  Fe142     1.0  0.34709  0.75456  0.04136  1.0000
  C   C2172     1.0  0.48618  0.76004  0.07157  1.0000
  H   H1710     1.0  0.23626  0.75817  0.05335  1.0000
  H   H1711     1.0  0.41860  0.99405  0.30456  1.0000
  C   C2173     1.0  0.26150  0.99225  0.23848  1.0000
  H   H1712     1.0  0.13206  0.75790  0.06022  1.0000
  C   C2174     1.0  0.00834  0.75738  0.20002  1.0000
  H   H1713     1.0  0.23344  0.99194  0.25255  1.0000
  H   H1714     1.0  0.14270  0.98909  0.00354  1.0000
  C   C2175     1.0  0.40120  0.99343  0.04773  1.0000
  H   H1715     1.0  0.03419  0.89025  0.32205  1.0000
  H   H1716     1.0  0.41417  0.94555  0.32558  1.0000
  H   H1717     1.0  0.02170  0.98352  0.28602  1.0000
  H   H1718     1.0  0.37710  0.97030  0.01041  1.0000
  C   C2176     1.0  0.49701  0.94555  0.24291  1.0000
  H   H1719     1.0  0.23624  0.99772  0.07831  1.0000
  C   C2177     1.0  0.01512  0.99574  0.29298  1.0000
  C   C2178     1.0  0.18427  0.99564  0.27826  1.0000
  C   C2179     1.0  0.20349  0.99625  0.28077  1.0000
  C   C2180     1.0  0.06279  0.75021  0.14404  1.0000
  C   C2181     1.0  0.00049  0.78416  0.00749  1.0000
  H   H1720     1.0  0.25648  0.99617  0.22480  1.0000
  H   H1721     1.0  0.00446  0.98963  0.22356  1.0000
  H   H1722     1.0  0.20990  0.99755  0.32079  1.0000
  H   H1723     1.0  0.37325  0.99837  0.06182  1.0000
  H   H1724     1.0  0.23557  0.99826  0.04396  1.0000
  Fe  Fe143     1.0  0.25665  0.97095  0.37379  1.0000
  C   C2182     1.0  0.31819  0.75362  0.52639  1.0000
  S   S285      1.0  0.28083  0.95591  0.35556  1.0000
  Fe  Fe144     1.0  0.23169  0.96716  0.41124  1.0000
  H   H1725     1.0  0.31239  0.97689  0.51719  1.0000
  S   S286      1.0  0.22143  0.95257  0.43929  1.0000
  H   H1726     1.0  0.37451  0.77534  0.53515  1.0000
  S   S287      1.0  0.21691  0.99629  0.40619  1.0000
  C   C2183     1.0  0.08657  0.95579  0.41885  1.0000
  S   S288      1.0  0.22852  0.95880  0.38217  1.0000
  S   S289      1.0  0.26077  0.97640  0.40341  1.0000
  C   C2184     1.0  0.25979  0.80277  0.59065  1.0000
  S   S290      1.0  0.02542  0.79195  0.39109  1.0000
  C   C2185     1.0  0.07623  0.82240  0.38200  1.0000
  H   H1727     1.0  0.28581  0.75308  0.59810  1.0000
  Fe  Fe145     1.0  0.02563  0.79700  0.35955  1.0000
  S   S291      1.0  0.01881  0.82560  0.34337  1.0000
  H   H1728     1.0  0.11537  0.81563  0.35099  1.0000
  S   S292      1.0  0.05337  0.77963  0.35364  1.0000
  H   H1729     1.0  0.19525  0.95872  0.34679  1.0000
  C   C2186     1.0  0.17427  0.95427  0.41649  1.0000
  S   S293      1.0  0.26816  0.98628  0.60599  1.0000
  H   H1730     1.0  0.03515  0.84249  0.43720  1.0000
  Fe  Fe146     1.0  0.26435  0.87992  0.51852  1.0000
  S   S294      1.0  0.23707  0.88278  0.53710  1.0000
  S   S295      1.0  0.27062  0.89117  0.48817  1.0000
  Fe  Fe147     1.0  0.28615  0.85644  0.54867  1.0000
  S   S296      1.0  0.26025  0.85779  0.56962  1.0000
  S   S297      1.0  0.31486  0.83824  0.54834  1.0000
  Fe  Fe148     1.0  0.24330  0.85196  0.54608  1.0000
  S   S298      1.0  0.22048  0.83134  0.55438  1.0000
  Fe  Fe149     1.0  0.25540  0.88856  0.55946  1.0000
  S   S299      1.0  0.24140  0.91098  0.57879  1.0000
  S   S300      1.0  0.26941  0.84862  0.52584  1.0000
  S   S301      1.0  0.28244  0.88766  0.54017  1.0000
  Fe  Fe150     1.0  0.43039  0.75980  0.59577  1.0000
  S   S302      1.0  0.41796  0.78013  0.57358  1.0000
  Fe  Fe151     1.0  0.44803  0.79151  0.61303  1.0000
  S   S303      1.0  0.43713  0.81377  0.59152  1.0000
  S   S304      1.0  0.46725  0.79550  0.63607  1.0000
  Fe  Fe152     1.0  0.40975  0.79984  0.59649  1.0000
  S   S305      1.0  0.38115  0.81724  0.60296  1.0000
  Fe  Fe153     1.0  0.44636  0.79232  0.57000  1.0000
  S   S306      1.0  0.45782  0.79882  0.53924  1.0000
  S   S307      1.0  0.42031  0.77856  0.61924  1.0000
  S   S308      1.0  0.45914  0.77106  0.59107  1.0000
  S   S309      1.0  0.11227  0.77089  0.52619  1.0000
  H   H1731     1.0  0.21336  0.99004  0.55302  1.0000
  Fe  Fe154     1.0  0.14423  0.76411  0.52187  1.0000
  S   S310      1.0  0.16669  0.78491  0.51259  1.0000
  H   H1732     1.0  0.24333  0.93812  0.34967  1.0000
  H   H1733     1.0  0.40677  0.77982  0.52070  1.0000
  C   C2187     1.0  0.20573  0.81864  0.54225  1.0000
  C   C2188     1.0  0.19123  0.80923  0.55271  1.0000
  C   C2189     1.0  0.17936  0.79861  0.54398  1.0000
  C   C2190     1.0  0.18165  0.79749  0.52454  1.0000
  C   C2191     1.0  0.19606  0.80703  0.51402  1.0000
  C   C2192     1.0  0.20810  0.81743  0.52281  1.0000
  H   H1734     1.0  0.18903  0.81036  0.56769  1.0000
  H   H1735     1.0  0.16823  0.79157  0.55224  1.0000
  H   H1736     1.0  0.19793  0.80632  0.49896  1.0000
  H   H1737     1.0  0.21926  0.82443  0.51455  1.0000
  C   C2193     1.0  0.33358  0.83383  0.56340  1.0000
  C   C2194     1.0  0.35011  0.82247  0.55735  1.0000
  C   C2195     1.0  0.36478  0.81728  0.56921  1.0000
  C   C2196     1.0  0.36319  0.82355  0.58730  1.0000
  C   C2197     1.0  0.34675  0.83511  0.59329  1.0000
  C   C2198     1.0  0.33208  0.84031  0.58140  1.0000
  H   H1738     1.0  0.35157  0.81760  0.54337  1.0000
  H   H1739     1.0  0.37735  0.80848  0.56435  1.0000
  H   H1740     1.0  0.34540  0.84013  0.60721  1.0000
  H   H1741     1.0  0.31957  0.84920  0.58621  1.0000
  H   H1742     1.0  0.09339  0.89652  0.36071  1.0000
  C   C2199     1.0  0.05057  0.91537  0.39424  1.0000
  C   C2200     1.0  0.07351  0.95183  0.43420  1.0000
  C   C2201     1.0  0.15599  0.99013  0.34512  1.0000
  C   C2202     1.0  0.23824  0.76591  0.58489  1.0000
  H   H1743     1.0  0.18744  0.95654  0.42198  1.0000
  C   C2203     1.0  0.01515  0.77519  0.46186  1.0000
  H   H1744     1.0  0.02787  0.92436  0.64993  1.0000
  C   C2204     1.0  0.03401  0.77093  0.58831  1.0000
  C   C2205     1.0  0.04621  0.77813  0.57346  1.0000
  C   C2206     1.0  0.06452  0.76908  0.56901  1.0000
  P   P75       1.0  0.06294  0.85104  0.40548  1.0000
  H   H1745     1.0  0.49616  0.78474  0.54998  1.0000
  C   C2207     1.0  0.14450  0.97979  0.33553  1.0000
  C   C2208     1.0  0.24896  0.93237  0.58519  1.0000
  C   C2209     1.0  0.26716  0.93786  0.57965  1.0000
  C   C2210     1.0  0.27271  0.95452  0.58595  1.0000
  C   C2211     1.0  0.26013  0.96594  0.59769  1.0000
  C   C2212     1.0  0.24177  0.96073  0.60276  1.0000
  C   C2213     1.0  0.23628  0.94401  0.59659  1.0000
  H   H1746     1.0  0.27707  0.92906  0.57092  1.0000
  H   H1747     1.0  0.28694  0.95846  0.58191  1.0000
  H   H1748     1.0  0.23195  0.96933  0.61178  1.0000
  H   H1749     1.0  0.22218  0.93989  0.60096  1.0000
  H   H1750     1.0  0.04150  0.79092  0.56549  1.0000
  H   H1751     1.0  0.29475  0.82869  0.60043  1.0000
  H   H1752     1.0  0.42782  0.87854  0.63011  1.0000
  C   C2214     1.0  0.13638  0.92473  0.36476  1.0000
  H   H1753     1.0  0.06330  0.83417  0.54385  1.0000
  H   H1754     1.0  0.01606  0.75903  0.55398  1.0000
  C   C2215     1.0  0.03464  0.84353  0.33802  1.0000
  H   H1755     1.0  0.15909  0.82509  0.44444  1.0000
  C   C2216     1.0  0.41815  0.87280  0.64123  1.0000
  P   P76       1.0  0.26006  0.77048  0.57087  1.0000
  C   C2217     1.0  0.07855  0.84054  0.38702  1.0000
  H   H1756     1.0  0.18277  0.84800  0.44488  1.0000
  C   C2218     1.0  0.06581  0.85499  0.33775  1.0000
  H   H1757     1.0  0.11983  0.84766  0.35991  1.0000
  H   H1758     1.0  0.26336  0.96802  0.44446  1.0000
  C   C2219     1.0  0.23555  0.93609  0.45308  1.0000
  C   C2220     1.0  0.22824  0.93000  0.47124  1.0000
  C   C2221     1.0  0.23888  0.91646  0.48237  1.0000
  C   C2222     1.0  0.25685  0.90879  0.47531  1.0000
  C   C2223     1.0  0.26415  0.91496  0.45720  1.0000
  C   C2224     1.0  0.25361  0.92860  0.44615  1.0000
  H   H1759     1.0  0.21428  0.93573  0.47671  1.0000
  H   H1760     1.0  0.23313  0.91184  0.49631  1.0000
  H   H1761     1.0  0.27803  0.90907  0.45165  1.0000
  H   H1762     1.0  0.25935  0.93309  0.43218  1.0000
  C   C2225     1.0  0.17439  0.98268  0.34936  1.0000
  H   H1763     1.0  0.00120  0.78879  0.55571  1.0000
  C   C2226     1.0  0.02883  0.75870  0.52521  1.0000
  H   H1764     1.0  0.19278  0.75994  0.56079  1.0000
  H   H1765     1.0  0.18310  0.96513  0.38857  1.0000
  C   C2227     1.0  0.18117  0.96470  0.34374  1.0000
  C   C2228     1.0  0.09450  0.84950  0.37914  1.0000
  C   C2229     1.0  0.15967  0.94671  0.42826  1.0000
  C   C2230     1.0  0.49412  0.78003  0.45587  1.0000
  H   H1766     1.0  0.40880  0.85317  0.62355  1.0000
  H   H1767     1.0  0.14818  0.82481  0.50427  1.0000
  H   H1768     1.0  0.38111  0.90562  0.35400  1.0000
  S   S311      1.0  0.00793  0.77278  0.35695  1.0000
  C   C2231     1.0  0.26308  0.79258  0.53692  1.0000
  H   H1769     1.0  0.08624  0.97004  0.41237  1.0000
  H   H1770     1.0  0.05440  0.75843  0.46478  1.0000
  H   H1771     1.0  0.09112  0.92019  0.38407  1.0000
  H   H1772     1.0  0.08773  0.79938  0.36543  1.0000
  H   H1773     1.0  0.21001  0.82724  0.46304  1.0000
  C   C2232     1.0  0.38386  0.96806  0.33844  1.0000
  C   C2233     1.0  0.02884  0.84096  0.42439  1.0000
  H   H1774     1.0  0.22933  0.90738  0.42656  1.0000
  H   H1775     1.0  0.33078  0.91508  0.39161  1.0000
  C   C2234     1.0  0.40441  0.76766  0.53039  1.0000
  C   C2235     1.0  0.10072  0.76319  0.45028  1.0000
  H   H1776     1.0  0.08753  0.86789  0.42915  1.0000
  P   P77       1.0  0.27674  0.96235  0.51092  1.0000
  C   C2236     1.0  0.25267  0.95630  0.51674  1.0000
  C   C2237     1.0  0.05983  0.87638  0.40127  1.0000
  C   C2238     1.0  0.26961  0.96558  0.47327  1.0000
  H   H1777     1.0  0.38652  0.83969  0.64842  1.0000
  H   H1778     1.0  0.04695  0.93039  0.39147  1.0000
  H   H1779     1.0  0.10355  0.85498  0.45715  1.0000
  H   H1780     1.0  0.05929  0.78183  0.51992  1.0000
  C   C2239     1.0  0.23743  0.96762  0.50924  1.0000
  C   C2240     1.0  0.21875  0.96312  0.51383  1.0000
  C   C2241     1.0  0.21512  0.94753  0.52623  1.0000
  C   C2242     1.0  0.23015  0.93639  0.53394  1.0000
  C   C2243     1.0  0.24888  0.94071  0.52924  1.0000
  C   C2244     1.0  0.29296  0.94110  0.51249  1.0000
  C   C2245     1.0  0.30174  0.93574  0.52908  1.0000
  C   C2246     1.0  0.31476  0.91968  0.53015  1.0000
  C   C2247     1.0  0.31877  0.90856  0.51486  1.0000
  C   C2248     1.0  0.30972  0.91348  0.49852  1.0000
  C   C2249     1.0  0.29689  0.92967  0.49730  1.0000
  C   C2250     1.0  0.09577  0.96800  0.36712  1.0000
  H   H1781     1.0  0.25981  0.82771  0.60565  1.0000
  H   H1782     1.0  0.48678  0.75932  0.51522  1.0000
  H   H1783     1.0  0.34141  0.99097  0.34234  1.0000
  H   H1784     1.0  0.03860  0.81459  0.45672  1.0000
  H   H1785     1.0  0.26207  0.95310  0.47653  1.0000
  C   C2251     1.0  0.44405  0.93900  0.62278  1.0000
  H   H1786     1.0  0.06248  0.87575  0.37099  1.0000
  C   C2252     1.0  0.02382  0.81554  0.53304  1.0000
  H   H1787     1.0  0.00434  0.83863  0.37887  1.0000
  C   C2253     1.0  0.28880  0.98699  0.33157  1.0000
  H   H1788     1.0  0.20711  0.97173  0.50777  1.0000
  H   H1789     1.0  0.20067  0.94410  0.52999  1.0000
  H   H1790     1.0  0.22732  0.92443  0.54372  1.0000
  H   H1791     1.0  0.26028  0.93192  0.53554  1.0000
  H   H1792     1.0  0.29839  0.94375  0.54135  1.0000
  H   H1793     1.0  0.32128  0.91548  0.54305  1.0000
  H   H1794     1.0  0.32835  0.89574  0.51593  1.0000
  H   H1795     1.0  0.31216  0.90440  0.48697  1.0000
  H   H1796     1.0  0.28983  0.93286  0.48462  1.0000
  H   H1797     1.0  0.19157  0.75815  0.61662  1.0000
  C   C2254     1.0  0.25857  0.79801  0.51863  1.0000
  H   H1798     1.0  0.04574  0.91619  0.42421  1.0000
  H   H1799     1.0  0.36173  0.89684  0.38316  1.0000
  C   C2255     1.0  0.03235  0.79838  0.52650  1.0000
  H   H1800     1.0  0.42648  0.95299  0.60202  1.0000
  C   C2256     1.0  0.42926  0.91593  0.64475  1.0000
  H   H1801     1.0  0.11054  0.91202  0.41613  1.0000
  C   C2257     1.0  0.04032  0.75451  0.59880  1.0000
  C   C2258     1.0  0.33736  0.76412  0.59206  1.0000
  H   H1802     1.0  0.00222  0.83371  0.43899  1.0000
  C   C2259     1.0  0.46375  0.81113  0.65448  1.0000
  S   S312      1.0  0.01138  0.78346  0.59337  1.0000
  C   C2260     1.0  0.29207  0.96750  0.33531  1.0000
  H   H1803     1.0  0.22597  0.76718  0.51470  1.0000
  C   C2261     1.0  0.48093  0.79659  0.52669  1.0000
  H   H1804     1.0  0.13146  0.93835  0.43067  1.0000
  H   H1805     1.0  0.09691  0.86324  0.38325  1.0000
  C   C2262     1.0  0.39479  0.85083  0.65149  1.0000
  H   H1806     1.0  0.31439  0.80470  0.58201  1.0000
  C   C2263     1.0  0.35683  0.90888  0.37411  1.0000
  C   C2264     1.0  0.28812  0.81748  0.59508  1.0000
  C   C2265     1.0  0.00128  0.83536  0.40905  1.0000
  H   H1807     1.0  0.39986  0.91278  0.64096  1.0000
  H   H1808     1.0  0.27307  0.80026  0.54298  1.0000
  H   H1809     1.0  0.09001  0.95500  0.36497  1.0000
  C   C2266     1.0  0.10549  0.90414  0.36215  1.0000
  C   C2267     1.0  0.03496  0.82836  0.53936  1.0000
  C   C2268     1.0  0.46342  0.87343  0.65572  1.0000
  C   C2269     1.0  0.13736  0.91147  0.35131  1.0000
  H   H1810     1.0  0.03111  0.74885  0.61033  1.0000
  H   H1811     1.0  0.38583  0.75749  0.58879  1.0000
  H   H1812     1.0  0.08057  0.85229  0.34043  1.0000
  H   H1813     1.0  0.12661  0.98624  0.39268  1.0000
  C   C2270     1.0  0.27831  0.97329  0.48723  1.0000
  C   C2271     1.0  0.05964  0.88446  0.38280  1.0000
  H   H1814     1.0  0.08737  0.90520  0.44325  1.0000
  H   H1815     1.0  0.06321  0.96296  0.43934  1.0000
  H   H1816     1.0  0.31885  0.97833  0.36764  1.0000
  C   C2272     1.0  0.01006  0.83634  0.42546  1.0000
  C   C2273     1.0  0.40737  0.85847  0.63742  1.0000
  H   H1817     1.0  0.23398  0.75722  0.54690  1.0000
  C   C2274     1.0  0.10000  0.94148  0.41214  1.0000
  H   H1818     1.0  0.02824  0.84128  0.54496  1.0000
  C   C2275     1.0  0.37139  0.76205  0.59399  1.0000
  C   C2276     1.0  0.48249  0.86666  0.65696  1.0000
  C   C2277     1.0  0.11632  0.98548  0.38269  1.0000
  S   S313      1.0  0.07453  0.89137  0.32869  1.0000
  C   C2278     1.0  0.03116  0.80314  0.46358  1.0000
  H   H1819     1.0  0.44865  0.76949  0.46757  1.0000
  C   C2279     1.0  0.10765  0.84063  0.36605  1.0000
  H   H1820     1.0  0.45643  0.94619  0.61752  1.0000
  H   H1821     1.0  0.46896  0.75623  0.54638  1.0000
  C   C2280     1.0  0.32297  0.78450  0.53561  1.0000
  C   C2281     1.0  0.33691  0.77628  0.54697  1.0000
  C   C2282     1.0  0.36833  0.77187  0.61024  1.0000
  H   H1822     1.0  0.38030  0.77520  0.61714  1.0000
  C   C2283     1.0  0.07383  0.93363  0.44303  1.0000
  Fe  Fe155     1.0  0.01023  0.76629  0.38794  1.0000
  Fe  Fe156     1.0  0.21563  0.98854  0.37642  1.0000
  C   C2284     1.0  0.03917  0.84396  0.40689  1.0000
  C   C2285     1.0  0.34989  0.77812  0.61720  1.0000
  H   H1823     1.0  0.16804  0.88357  0.45199  1.0000
  H   H1824     1.0  0.03759  0.84637  0.37691  1.0000
  Fe  Fe157     1.0  0.05227  0.77306  0.38496  1.0000
  H   H1825     1.0  0.30273  0.77958  0.51658  1.0000
  H   H1826     1.0  0.31942  0.79969  0.53486  1.0000
  H   H1827     1.0  0.34395  0.78524  0.55498  1.0000
  C   C2286     1.0  0.27035  0.97400  0.45501  1.0000
  C   C2287     1.0  0.27419  0.99521  0.55550  1.0000
  C   C2288     1.0  0.29059  0.78985  0.57728  1.0000
  H   H1828     1.0  0.05936  0.82646  0.34660  1.0000
  C   C2289     1.0  0.05383  0.84030  0.34125  1.0000
  H   H1829     1.0  0.22856  0.88455  0.45401  1.0000
  C   C2290     1.0  0.10512  0.82264  0.36098  1.0000
  C   C2291     1.0  0.07311  0.82353  0.43322  1.0000
  C   C2292     1.0  0.33306  0.93470  0.36728  1.0000
  C   C2293     1.0  0.12191  0.90122  0.34996  1.0000
  C   C2294     1.0  0.07425  0.84242  0.42634  1.0000
  C   C2295     1.0  0.27979  0.99020  0.45044  1.0000
  H   H1830     1.0  0.15283  0.96110  0.37603  1.0000
  C   C2296     1.0  0.26844  0.81689  0.59805  1.0000
  H   H1831     1.0  0.26144  0.91218  0.33293  1.0000
  C   C2297     1.0  0.10947  0.96824  0.37987  1.0000
  C   C2298     1.0  0.01123  0.83913  0.39160  1.0000
  H   H1832     1.0  0.33895  0.95195  0.34191  1.0000
  H   H1833     1.0  0.24110  0.80874  0.46104  1.0000
  H   H1834     1.0  0.05320  0.88179  0.43052  1.0000
  H   H1835     1.0  0.26908  0.82127  0.47211  1.0000
  C   C2299     1.0  0.10436  0.91752  0.37548  1.0000
  H   H1836     1.0  0.26553  0.85245  0.48536  1.0000
  C   C2300     1.0  0.35592  0.75852  0.58452  1.0000
  C   C2301     1.0  0.08101  0.76842  0.42381  1.0000
  C   C2302     1.0  0.06336  0.80768  0.53151  1.0000
  H   H1837     1.0  0.14830  0.93290  0.36489  1.0000
  H   H1838     1.0  0.39100  0.99292  0.35026  1.0000
  Fe  Fe158     1.0  0.03589  0.75507  0.35282  1.0000
  H   H1839     1.0  0.06377  0.93066  0.45501  1.0000
  H   H1840     1.0  0.26495  0.80978  0.51090  1.0000
  C   C2303     1.0  0.29918  0.80396  0.58469  1.0000
  C   C2304     1.0  0.08948  0.81352  0.36900  1.0000
  C   C2305     1.0  0.05005  0.90736  0.41268  1.0000
  C   C2306     1.0  0.15470  0.95661  0.39053  1.0000
  C   C2307     1.0  0.17182  0.95911  0.39763  1.0000
  C   C2308     1.0  0.02776  0.86158  0.33070  1.0000
  C   C2309     1.0  0.16977  0.95449  0.33392  1.0000
  H   H1841     1.0  0.02566  0.79227  0.43773  1.0000
  C   C2310     1.0  0.42719  0.94283  0.61406  1.0000
  H   H1842     1.0  0.23439  0.87124  0.48789  1.0000
  C   C2311     1.0  0.05226  0.79474  0.52537  1.0000
  C   C2312     1.0  0.10017  0.92319  0.42102  1.0000
  C   C2313     1.0  0.31355  0.77317  0.52536  1.0000
  P   P78       1.0  0.01832  0.78193  0.51767  1.0000
  C   C2314     1.0  0.14257  0.94399  0.42116  1.0000
  H   H1843     1.0  0.45504  0.86609  0.64747  1.0000
  H   H1844     1.0  0.06446  0.81488  0.38838  1.0000
  H   H1845     1.0  0.34772  0.78634  0.62940  1.0000
  C   C2315     1.0  0.09883  0.76766  0.43101  1.0000
  C   C2316     1.0  0.41657  0.87951  0.65924  1.0000
  C   C2317     1.0  0.24540  0.78867  0.51057  1.0000
  C   C2318     1.0  0.33437  0.77404  0.60826  1.0000
  C   C2319     1.0  0.23658  0.77401  0.52082  1.0000
  C   C2320     1.0  0.49349  0.75152  0.47674  1.0000
  H   H1846     1.0  0.29931  0.77980  0.56889  1.0000
  H   H1847     1.0  0.14208  0.81312  0.47419  1.0000
  H   H1848     1.0  0.20058  0.85505  0.51532  1.0000
  H   H1849     1.0  0.17120  0.84788  0.50510  1.0000
  C   C2321     1.0  0.48279  0.80214  0.50736  1.0000
  H   H1850     1.0  0.22180  0.79002  0.57227  1.0000
  C   C2322     1.0  0.03013  0.84335  0.39051  1.0000
  C   C2323     1.0  0.34413  0.93997  0.35087  1.0000
  C   C2324     1.0  0.06687  0.76087  0.45538  1.0000
  C   C2325     1.0  0.08712  0.91931  0.43641  1.0000
  H   H1851     1.0  0.03495  0.81079  0.49097  1.0000
  C   C2326     1.0  0.38517  0.98745  0.33865  1.0000
  C   C2327     1.0  0.04227  0.74875  0.51308  1.0000
  C   C2328     1.0  0.36780  0.91393  0.35753  1.0000
  C   C2329     1.0  0.11990  0.92783  0.37707  1.0000
  C   C2330     1.0  0.36146  0.92947  0.34574  1.0000
  H   H1852     1.0  0.38860  0.95867  0.35004  1.0000
  H   H1853     1.0  0.43492  0.82136  0.64980  1.0000
  H   H1854     1.0  0.24154  0.79316  0.49659  1.0000
  H   H1855     1.0  0.07380  0.77487  0.55764  1.0000
  H   H1856     1.0  0.07866  0.80450  0.53103  1.0000
  C   C2331     1.0  0.33943  0.91919  0.37892  1.0000
  P   P79       1.0  0.11751  0.94663  0.39289  1.0000
  H   H1857     1.0  0.18296  0.92407  0.50885  1.0000
  C   C2332     1.0  0.13993  0.94893  0.40216  1.0000
  H   H1858     1.0  0.18779  0.90617  0.48069  1.0000
  C   C2333     1.0  0.05447  0.88790  0.41621  1.0000
  H   H1859     1.0  0.24448  0.80300  0.59270  1.0000
  H   H1860     1.0  0.19467  0.87295  0.54341  1.0000
  H   H1861     1.0  0.18614  0.90757  0.54040  1.0000
  C   C2334     1.0  0.05471  0.82438  0.53869  1.0000
  C   C2335     1.0  0.47356  0.75314  0.47714  1.0000
  C   C2336     1.0  0.18222  0.90119  0.43057  1.0000
  C   C2337     1.0  0.19945  0.90797  0.42339  1.0000
  C   C2338     1.0  0.21606  0.90176  0.43187  1.0000
  C   C2339     1.0  0.21554  0.88870  0.44745  1.0000
  C   C2340     1.0  0.19836  0.88152  0.45457  1.0000
  C   C2341     1.0  0.18160  0.88824  0.44628  1.0000
  P   P80       1.0  0.19738  0.86548  0.47540  1.0000
  C   C2342     1.0  0.19396  0.87902  0.49589  1.0000
  C   C2343     1.0  0.17858  0.85017  0.47496  1.0000
  C   C2344     1.0  0.17486  0.84358  0.45788  1.0000
  C   C2345     1.0  0.16152  0.83051  0.45756  1.0000
  C   C2346     1.0  0.15184  0.82384  0.47427  1.0000
  C   C2347     1.0  0.15525  0.83047  0.49125  1.0000
  C   C2348     1.0  0.16852  0.84357  0.49164  1.0000
  C   C2349     1.0  0.18917  0.89866  0.49425  1.0000
  C   C2350     1.0  0.18639  0.90892  0.51024  1.0000
  C   C2351     1.0  0.18815  0.89966  0.52798  1.0000
  C   C2352     1.0  0.19292  0.88017  0.52970  1.0000
  C   C2353     1.0  0.19625  0.86999  0.51371  1.0000
  C   C2354     1.0  0.21973  0.85078  0.47557  1.0000
  C   C2355     1.0  0.23554  0.85753  0.48217  1.0000
  C   C2356     1.0  0.25325  0.84690  0.48080  1.0000
  C   C2357     1.0  0.25528  0.82935  0.47322  1.0000
  C   C2358     1.0  0.23955  0.82235  0.46697  1.0000
  C   C2359     1.0  0.22185  0.83298  0.46813  1.0000
  H   H1862     1.0  0.16934  0.90615  0.42406  1.0000
  H   H1863     1.0  0.19994  0.91826  0.41144  1.0000
  C   C2360     1.0  0.20490  0.77528  0.59405  1.0000
  C   C2361     1.0  0.05887  0.87316  0.33096  1.0000
  C   C2362     1.0  0.27087  0.78897  0.58042  1.0000
  H   H1864     1.0  0.19221  0.78484  0.59230  1.0000
  H   H1865     1.0  0.39822  0.93634  0.61396  1.0000
  H   H1866     1.0  0.00858  0.81900  0.53346  1.0000
  H   H1867     1.0  0.14981  0.90983  0.34133  1.0000
  H   H1868     1.0  0.48838  0.85429  0.64977  1.0000
  C   C2363     1.0  0.26906  0.98429  0.54188  1.0000
  C   C2364     1.0  0.02398  0.79050  0.45293  1.0000
  S   S314      1.0  0.07917  0.77421  0.39955  1.0000
  H   H1869     1.0  0.32523  0.76110  0.58524  1.0000
  H   H1870     1.0  0.01294  0.86427  0.32808  1.0000
  H   H1871     1.0  0.23993  0.97992  0.49981  1.0000
  C   C2365     1.0  0.31755  0.99323  0.36318  1.0000
  C   C2366     1.0  0.22166  0.77811  0.58265  1.0000
  C   C2367     1.0  0.23777  0.75083  0.59869  1.0000
  C   C2368     1.0  0.05524  0.90388  0.37931  1.0000
  C   C2369     1.0  0.07107  0.75298  0.57978  1.0000
  C   C2370     1.0  0.44510  0.92563  0.63809  1.0000
  C   C2371     1.0  0.25441  0.77771  0.54725  1.0000
  C   C2372     1.0  0.08554  0.85367  0.43485  1.0000
  C   C2373     1.0  0.41128  0.93345  0.62077  1.0000
  C   C2374     1.0  0.41229  0.92006  0.63606  1.0000
  C   C2375     1.0  0.28268  0.97782  0.52773  1.0000
  H   H1872     1.0  0.00671  0.76056  0.48818  1.0000
  C   C2376     1.0  0.20457  0.76027  0.60777  1.0000
  C   C2377     1.0  0.06504  0.76493  0.43610  1.0000
  C   C2378     1.0  0.02020  0.78546  0.49230  1.0000
  H   H1873     1.0  0.05516  0.90992  0.36493  1.0000
  H   H1874     1.0  0.47033  0.80801  0.50060  1.0000
  C   C2379     1.0  0.46402  0.76815  0.46700  1.0000
  C   C2380     1.0  0.08232  0.81629  0.44894  1.0000
  C   C2381     1.0  0.24104  0.76853  0.53910  1.0000
  C   C2382     1.0  0.01334  0.77260  0.48146  1.0000
  C   C2383     1.0  0.38609  0.76509  0.53875  1.0000
  H   H1875     1.0  0.27856  0.99514  0.34057  1.0000
  H   H1876     1.0  0.32007  0.77887  0.61371  1.0000
  H   H1877     1.0  0.11127  0.77035  0.42159  1.0000
  H   H1878     1.0  0.06536  0.81424  0.42624  1.0000
  H   H1879     1.0  0.31936  0.94245  0.37079  1.0000
  H   H1880     1.0  0.16166  0.94306  0.44292  1.0000
  C   C2384     1.0  0.09480  0.84634  0.45059  1.0000
  C   C2385     1.0  0.08940  0.98459  0.35693  1.0000
  H   H1881     1.0  0.01015  0.76515  0.45346  1.0000
  C   C2386     1.0  0.02918  0.80076  0.48315  1.0000
  H   H1882     1.0  0.10038  0.82191  0.46976  1.0000
  C   C2387     1.0  0.09309  0.82770  0.45768  1.0000
  C   C2388     1.0  0.15136  0.96192  0.32970  1.0000
  H   H1883     1.0  0.08137  0.80168  0.45415  1.0000
  H   H1884     1.0  0.12237  0.89148  0.33909  1.0000
  C   C2389     1.0  0.34173  0.75667  0.54807  1.0000
  H   H1885     1.0  0.46698  0.79327  0.44855  1.0000
  C   C2390     1.0  0.47432  0.78155  0.45631  1.0000
  H   H1886     1.0  0.05130  0.76535  0.43072  1.0000
  C   C2391     1.0  0.49726  0.78909  0.53517  1.0000
  C   C2392     1.0  0.03875  0.89521  0.65304  1.0000
  C   C2393     1.0  0.02564  0.75149  0.54394  1.0000
  C   C2394     1.0  0.08469  0.75974  0.46256  1.0000
  H   H1887     1.0  0.45837  0.92273  0.64450  1.0000
  H   H1888     1.0  0.25462  0.98047  0.54289  1.0000
  S   S315      1.0  0.08580  0.75434  0.48698  1.0000
  C   C2395     1.0  0.28755  0.98975  0.48259  1.0000
  C   C2396     1.0  0.30152  0.98229  0.52760  1.0000
  H   H1889     1.0  0.17531  0.94071  0.32950  1.0000
  H   H1890     1.0  0.11452  0.76242  0.45562  1.0000
  C   C2397     1.0  0.41985  0.75498  0.53505  1.0000
  H   H1891     1.0  0.23381  0.96846  0.33265  1.0000
  H   H1892     1.0  0.03629  0.89246  0.63890  1.0000
  H   H1893     1.0  0.04571  0.75433  0.49885  1.0000
  C   C2398     1.0  0.44649  0.82201  0.65839  1.0000
  H   H1894     1.0  0.07897  0.98426  0.34690  1.0000
  H   H1895     1.0  0.41413  0.97226  0.63947  1.0000
  H   H1896     1.0  0.19513  0.75289  0.52746  1.0000
  S   S316      1.0  0.18809  0.99634  0.36181  1.0000
  Fe  Fe159     1.0  0.11051  0.74917  0.50551  1.0000
  H   H1897     1.0  0.43410  0.75737  0.52903  1.0000
  H   H1898     1.0  0.08771  0.95858  0.64727  1.0000
  C   C2399     1.0  0.30657  0.99322  0.54128  1.0000
  H   H1899     1.0  0.13044  0.98577  0.33241  1.0000
  C   C2400     1.0  0.27657  0.74936  0.57090  1.0000
  S   S317      1.0  0.08117  0.94512  0.32879  1.0000
  C   C2401     1.0  0.24679  0.93998  0.33467  1.0000
  C   C2402     1.0  0.38309  0.74974  0.55187  1.0000
  C   C2403     1.0  0.40980  0.98699  0.64151  1.0000
  C   C2404     1.0  0.39678  0.99192  0.65664  1.0000
  H   H1900     1.0  0.42711  0.99723  0.61720  1.0000
  H   H1901     1.0  0.06294  0.93731  0.65749  1.0000
  C   C2405     1.0  0.28827  0.99816  0.46426  1.0000
  H   H1902     1.0  0.29410  0.99626  0.49299  1.0000
  H   H1903     1.0  0.32117  0.99636  0.54135  1.0000
  H   H1904     1.0  0.28018  0.99680  0.43628  1.0000
  C   C2406     1.0  0.03393  0.91324  0.65936  1.0000
  C   C2407     1.0  0.07671  0.96249  0.65821  1.0000
  H   H1905     1.0  0.05008  0.86664  0.66012  1.0000
  C   C2408     1.0  0.37959  0.97605  0.73108  1.0000
  C   C2409     1.0  0.35389  0.75442  0.97403  1.0000
  Fe  Fe160     1.0  0.47198  0.86017  0.72564  1.0000
  S   S318      1.0  0.45967  0.85517  0.75552  1.0000
  S   S319      1.0  0.45487  0.85022  0.70347  1.0000
  Fe  Fe161     1.0  0.46083  0.88625  0.75791  1.0000
  S   S320      1.0  0.43517  0.90311  0.77210  1.0000
  H   H1906     1.0  0.04711  0.90455  0.70389  1.0000
  C   C2410     1.0  0.07667  0.97959  0.66641  1.0000
  S   S321      1.0  0.47125  0.89159  0.72778  1.0000
  H   H1907     1.0  0.47547  0.85714  0.80442  1.0000
  S   S322      1.0  0.45316  0.78097  0.84635  1.0000
  S   S323      1.0  0.47495  0.75830  0.89428  1.0000
  C   C2411     1.0  0.01784  0.75231  0.67461  1.0000
  C   C2412     1.0  0.46810  0.81750  0.80209  1.0000
  C   C2413     1.0  0.45765  0.80701  0.81626  1.0000
  C   C2414     1.0  0.46683  0.79287  0.82790  1.0000
  H   H1908     1.0  0.46085  0.82853  0.79346  1.0000
  H   H1909     1.0  0.44238  0.81010  0.81843  1.0000
  C   C2415     1.0  0.47281  0.83638  0.90057  1.0000
  H   H1910     1.0  0.40959  0.97318  0.72239  1.0000
  C   C2416     1.0  0.48596  0.89104  0.67749  1.0000
  H   H1911     1.0  0.02869  0.74936  0.66323  1.0000
  H   H1912     1.0  0.99838  0.92718  0.71176  1.0000
  C   C2417     1.0  0.47856  0.81208  0.66599  1.0000
  C   C2418     1.0  0.18795  0.97069  0.99153  1.0000
  C   C2419     1.0  0.42074  0.96716  0.76052  1.0000
  C   C2420     1.0  0.43761  0.95808  0.75211  1.0000
  C   C2421     1.0  0.44198  0.93844  0.75511  1.0000
  C   C2422     1.0  0.42963  0.92767  0.76683  1.0000
  C   C2423     1.0  0.41272  0.93672  0.77520  1.0000
  C   C2424     1.0  0.40824  0.95636  0.77202  1.0000
  H   H1913     1.0  0.44738  0.96632  0.74321  1.0000
  H   H1914     1.0  0.45505  0.93170  0.74858  1.0000
  H   H1915     1.0  0.40310  0.92854  0.78435  1.0000
  H   H1916     1.0  0.39525  0.96318  0.77863  1.0000
  H   H1917     1.0  0.44339  0.79941  0.88319  1.0000
  C   C2425     1.0  0.48657  0.78899  0.82492  1.0000
  C   C2426     1.0  0.01996  0.93302  0.75066  1.0000
  H   H1918     1.0  0.43132  0.80071  0.97711  1.0000
  H   H1919     1.0  0.06229  0.99797  0.68685  1.0000
  H   H1920     1.0  0.00387  0.78494  0.70630  1.0000
  C   C2427     1.0  0.40885  0.77564  0.95393  1.0000
  C   C2428     1.0  0.47595  0.86126  0.81854  1.0000
  C   C2429     1.0  0.40858  0.92469  0.68556  1.0000
  H   H1921     1.0  0.47447  0.75601  0.96372  1.0000
  H   H1922     1.0  0.49463  0.89768  0.68616  1.0000
  C   C2430     1.0  0.00614  0.92863  0.73960  1.0000
  H   H1923     1.0  0.49276  0.90657  0.88882  1.0000
  C   C2431     1.0  0.04001  0.94161  0.72259  1.0000
  C   C2432     1.0  0.46692  0.89795  0.67617  1.0000
  H   H1924     1.0  0.26554  0.97016  0.70955  1.0000
  C   C2433     1.0  0.04840  0.97264  0.68637  1.0000
  H   H1925     1.0  0.41424  0.84803  0.78735  1.0000
  C   C2434     1.0  0.00755  0.94919  0.67696  1.0000
  H   H1926     1.0  0.46122  0.91013  0.68367  1.0000
  H   H1927     1.0  0.48420  0.94347  0.83990  1.0000
  C   C2435     1.0  0.06248  0.98467  0.68047  1.0000
  C   C2436     1.0  0.46329  0.75587  0.99298  1.0000
  H   H1928     1.0  0.01754  0.93133  0.76581  1.0000
  H   H1929     1.0  0.39193  0.94530  0.70228  1.0000
  H   H1930     1.0  0.45975  0.89700  0.84616  1.0000
  H   H1931     1.0  0.38334  0.85145  0.68034  1.0000
  C   C2437     1.0  0.49032  0.98785  0.75090  1.0000
  C   C2438     1.0  0.42662  0.89966  0.70288  1.0000
  H   H1932     1.0  0.49650  0.98726  0.77986  1.0000
  C   C2439     1.0  0.02601  0.93759  0.71137  1.0000
  C   C2440     1.0  0.49556  0.95749  0.73721  1.0000
  H   H1933     1.0  0.42448  0.90125  0.73287  1.0000
  C   C2441     1.0  0.45537  0.88900  0.66551  1.0000
  C   C2442     1.0  0.40249  0.76893  0.97220  1.0000
  C   C2443     1.0  0.17003  0.98033  0.98954  1.0000
  C   C2444     1.0  0.42743  0.76118  0.75614  1.0000
  C   C2445     1.0  0.47620  0.82386  0.68110  1.0000
  H   H1934     1.0  0.40485  0.79014  0.94918  1.0000
  C   C2446     1.0  0.46493  0.76313  0.97418  1.0000
  H   H1935     1.0  0.25778  0.99653  0.72971  1.0000
  H   H1936     1.0  0.21454  0.98604  0.68221  1.0000
  H   H1937     1.0  0.49428  0.75164  0.74031  1.0000
  C   C2447     1.0  0.44403  0.83342  0.67373  1.0000
  H   H1938     1.0  0.01391  0.98417  0.85855  1.0000
  H   H1939     1.0  0.40251  0.87642  0.68738  1.0000
  H   H1940     1.0  0.42105  0.75198  0.83713  1.0000
  C   C2448     1.0  0.43009  0.79431  0.71903  1.0000
  C   C2449     1.0  0.22374  0.98816  0.69289  1.0000
  P   P81       1.0  0.43234  0.79822  0.74324  1.0000
  C   C2450     1.0  0.42019  0.78015  0.75716  1.0000
  C   C2451     1.0  0.45697  0.79618  0.74803  1.0000
  C   C2452     1.0  0.46299  0.78595  0.76427  1.0000
  C   C2453     1.0  0.42053  0.76378  0.94185  1.0000
  C   C2454     1.0  0.04832  0.95537  0.67834  1.0000
  C   C2455     1.0  0.45162  0.80970  0.88813  1.0000
  C   C2456     1.0  0.47016  0.80572  0.73594  1.0000
  C   C2457     1.0  0.40354  0.78465  0.76885  1.0000
  S   S324      1.0  0.01436  0.98671  0.98952  1.0000
  C   C2458     1.0  0.41995  0.90775  0.71966  1.0000
  C   C2459     1.0  0.39570  0.97948  0.71894  1.0000
  C   C2460     1.0  0.47767  0.82965  0.88271  1.0000
  C   C2461     1.0  0.42311  0.82173  0.74925  1.0000
  C   C2462     1.0  0.42161  0.82624  0.76805  1.0000
  C   C2463     1.0  0.41510  0.84454  0.77287  1.0000
  C   C2464     1.0  0.41051  0.85861  0.75891  1.0000
  C   C2465     1.0  0.41239  0.85434  0.74013  1.0000
  C   C2466     1.0  0.41870  0.83601  0.73529  1.0000
  C   C2467     1.0  0.49704  0.79960  0.81087  1.0000
  H   H1941     1.0  0.45295  0.77948  0.77447  1.0000
  H   H1942     1.0  0.45519  0.77613  0.68042  1.0000
  P   P82       1.0  0.49713  0.83814  0.86726  1.0000
  H   H1943     1.0  0.39723  0.79907  0.76944  1.0000
  H   H1944     1.0  0.49277  0.90833  0.85433  1.0000
  C   C2468     1.0  0.25247  0.97925  0.70826  1.0000
  H   H1945     1.0  0.48576  0.98329  0.72226  1.0000
  H   H1946     1.0  0.39095  0.98085  0.66598  1.0000
  H   H1947     1.0  0.42581  0.81569  0.77896  1.0000
  H   H1948     1.0  0.45894  0.78140  0.71323  1.0000
  H   H1949     1.0  0.40617  0.87296  0.76259  1.0000
  H   H1950     1.0  0.40957  0.86538  0.72922  1.0000
  H   H1951     1.0  0.42082  0.83330  0.72059  1.0000
  C   C2469     1.0  0.00349  0.77252  0.69873  1.0000
  C   C2470     1.0  0.24032  0.97611  0.69492  1.0000
  H   H1952     1.0  0.40038  0.80502  0.72015  1.0000
  C   C2471     1.0  0.40760  0.92430  0.71944  1.0000
  H   H1953     1.0  0.49193  0.83556  0.82742  1.0000
  C   C2472     1.0  0.41246  0.79875  0.71162  1.0000
  H   H1954     1.0  0.01290  0.97870  0.67568  1.0000
  C   C2473     1.0  0.00961  0.98993  0.72146  1.0000
  H   H1955     1.0  0.43615  0.88681  0.70335  1.0000
  C   C2474     1.0  0.48211  0.78453  0.76784  1.0000
  H   H1956     1.0  0.45924  0.88783  0.81365  1.0000
  H   H1957     1.0  0.46564  0.81435  0.72377  1.0000
  C   C2475     1.0  0.04470  0.90217  0.68967  1.0000
  H   H1958     1.0  0.44501  0.93874  0.79917  1.0000
  C   C2476     1.0  0.48123  0.93788  0.82706  1.0000
  C   C2477     1.0  0.48792  0.81410  0.79958  1.0000
  S   S325      1.0  0.49003  0.88231  0.76814  1.0000
  C   C2478     1.0  0.45363  0.77943  0.96855  1.0000
  C   C2479     1.0  0.49543  0.92703  0.81650  1.0000
  Fe  Fe162     1.0  0.46436  0.75631  0.86587  1.0000
  C   C2480     1.0  0.00710  0.79196  0.96878  1.0000
  C   C2481     1.0  0.44732  0.81588  0.90615  1.0000
  H   H1959     1.0  0.31758  0.98943  0.66239  1.0000
  C   C2482     1.0  0.03667  0.91681  0.67780  1.0000
  H   H1960     1.0  0.42542  0.76909  0.92787  1.0000
  H   H1961     1.0  0.03757  0.97687  0.69723  1.0000
  H   H1962     1.0  0.46958  0.81187  0.86239  1.0000
  C   C2483     1.0  0.47676  0.87159  0.85511  1.0000
  H   H1963     1.0  0.43574  0.81034  0.91524  1.0000
  H   H1964     1.0  0.34936  0.98281  0.73684  1.0000
  H   H1965     1.0  0.42441  0.78503  0.66729  1.0000
  H   H1966     1.0  0.45416  0.83438  0.92615  1.0000
  H   H1967     1.0  0.49543  0.94899  0.72538  1.0000
  H   H1968     1.0  0.40681  0.99498  0.69422  1.0000
  H   H1969     1.0  0.05555  0.87285  0.69254  1.0000
  C   C2484     1.0  0.03689  0.93948  0.74216  1.0000
  C   C2485     1.0  0.45888  0.83466  0.68502  1.0000
  H   H1970     1.0  0.28437  0.98782  0.98403  1.0000
  C   C2486     1.0  0.39480  0.77042  0.77998  1.0000
  H   H1971     1.0  0.44199  0.76597  0.81135  1.0000
  C   C2487     1.0  0.45779  0.82935  0.91230  1.0000
  C   C2488     1.0  0.40175  0.93264  0.70241  1.0000
  H   H1972     1.0  0.01928  0.99132  0.76187  1.0000
  C   C2489     1.0  0.44533  0.78552  0.70784  1.0000
  H   H1973     1.0  0.40258  0.93060  0.73249  1.0000
  C   C2490     1.0  0.24793  0.99428  0.71975  1.0000
  H   H1974     1.0  0.00988  0.79459  0.95374  1.0000
  H   H1975     1.0  0.35331  0.76964  0.97147  1.0000
  H   H1976     1.0  0.02876  0.77795  0.68067  1.0000
  H   H1977     1.0  0.48041  0.84711  0.90545  1.0000
  H   H1978     1.0  0.19832  0.96947  0.97944  1.0000
  C   C2491     1.0  0.00317  0.96869  0.67323  1.0000
  C   C2492     1.0  0.49141  0.92106  0.79930  1.0000
  C   C2493     1.0  0.42127  0.90822  0.68564  1.0000
  Fe  Fe163     1.0  0.48970  0.85158  0.76311  1.0000
  H   H1979     1.0  0.43053  0.84141  0.67683  1.0000
  H   H1980     1.0  0.40393  0.93146  0.67258  1.0000
  H   H1981     1.0  0.08759  0.98895  0.66187  1.0000
  C   C2494     1.0  0.49608  0.97907  0.76788  1.0000
  H   H1982     1.0  0.03677  0.78517  0.97293  1.0000
  H   H1983     1.0  0.47017  0.92051  0.77993  1.0000
  H   H1984     1.0  0.44008  0.75744  0.74698  1.0000
  H   H1985     1.0  0.16646  0.98655  0.97591  1.0000
  H   H1986     1.0  0.47656  0.87554  0.86937  1.0000
  C   C2495     1.0  0.46720  0.88373  0.84206  1.0000
  C   C2496     1.0  0.47324  0.92515  0.79320  1.0000
  C   C2497     1.0  0.39301  0.85748  0.66942  1.0000
  C   C2498     1.0  0.44320  0.78216  0.68929  1.0000
  C   C2499     1.0  0.45905  0.93550  0.80402  1.0000
  P   P83       1.0  0.43070  0.89800  0.66396  1.0000
  C   C2500     1.0  0.01780  0.76846  0.68438  1.0000
  C   C2501     1.0  0.41040  0.79540  0.69304  1.0000
  C   C2502     1.0  0.02238  0.78664  0.97959  1.0000
  C   C2503     1.0  0.46681  0.87857  0.82376  1.0000
  C   C2504     1.0  0.04956  0.88415  0.68327  1.0000
  P   P84       1.0  0.02982  0.94001  0.68605  1.0000
  H   H1987     1.0  0.05335  0.94633  0.71632  1.0000
  H   H1988     1.0  0.45209  0.95030  0.82906  1.0000
  C   C2505     1.0  0.46306  0.94194  0.82090  1.0000
  C   C2506     1.0  0.42579  0.78719  0.68186  1.0000
  H   H1989     1.0  0.34868  0.98826  0.67535  1.0000
  C   C2507     1.0  0.46657  0.81672  0.87638  1.0000
  H   H1990     1.0  0.39694  0.79934  0.68719  1.0000
  H   H1991     1.0  0.38101  0.96713  0.74390  1.0000
  C   C2508     1.0  0.00551  0.98815  0.84679  1.0000
  C   C2509     1.0  0.48925  0.80431  0.73956  1.0000
  S   S326      1.0  0.38858  0.78457  0.98722  1.0000
  C   C2510     1.0  0.00919  0.93081  0.72005  1.0000
  S   S327      1.0  0.41612  0.99194  0.75619  1.0000
  H   H1992     1.0  0.04766  0.94280  0.75073  1.0000
  C   C2511     1.0  0.49012  0.97692  0.73552  1.0000
  C   C2512     1.0  0.40388  0.87173  0.67333  1.0000
  H   H1993     1.0  0.02074  0.98080  0.72772  1.0000
  C   C2513     1.0  0.48613  0.85424  0.84988  1.0000
  H   H1994     1.0  0.38215  0.77399  0.78923  1.0000
  H   H1995     1.0  0.24392  0.96461  0.68585  1.0000
  H   H1996     1.0  0.45401  0.99454  0.77141  1.0000
  H   H1997     1.0  0.45435  0.78452  0.95390  1.0000
  H   H1998     1.0  0.49197  0.80370  0.66311  1.0000
  C   C2514     1.0  0.06258  0.95043  0.66409  1.0000
  C   C2515     1.0  0.40764  0.75016  0.97818  1.0000
  C   C2516     1.0  0.36179  0.98481  0.72708  1.0000
  H   H1999     1.0  0.49378  0.77804  0.83366  1.0000
  C   C2517     1.0  0.44072  0.78860  0.98160  1.0000
  H   H2000     1.0  0.48663  0.77700  0.78059  1.0000
  C   C2518     1.0  0.40238  0.75161  0.77924  1.0000
  C   C2519     1.0  0.48543  0.84909  0.83158  1.0000
  H   H2001     1.0  0.48779  0.82465  0.68962  1.0000
  C   C2520     1.0  0.49371  0.87534  0.66796  1.0000
  C   C2521     1.0  0.49524  0.79368  0.75547  1.0000
  C   C2522     1.0  0.44015  0.75104  0.81195  1.0000
  C   C2523     1.0  0.04651  0.88065  0.66500  1.0000
  C   C2524     1.0  0.39405  0.99175  0.70290  1.0000
  H   H2002     1.0  0.36919  0.74890  0.94736  1.0000
  C   C2525     1.0  0.36006  0.99688  0.71090  1.0000
  Fe  Fe164     1.0  0.85945  0.11283  0.11266  1.0000
  S   S328      1.0  0.87584  0.12966  0.09003  1.0000
  S   S329      1.0  0.82851  0.10502  0.11444  1.0000
  Fe  Fe165     1.0  0.89279  0.10923  0.13803  1.0000
  S   S330      1.0  0.91166  0.12567  0.11666  1.0000
  S   S331      1.0  0.90065  0.09183  0.16511  1.0000
  Fe  Fe166     1.0  0.88518  0.14555  0.11278  1.0000
  S   S332      1.0  0.88152  0.17753  0.10556  1.0000
  Fe  Fe167     1.0  0.90119  0.10881  0.09519  1.0000
  S   S333      1.0  0.91916  0.09907  0.06888  1.0000
  S   S334      1.0  0.86692  0.13011  0.13541  1.0000
  S   S335      1.0  0.88433  0.09104  0.11645  1.0000
  H   H2003     1.0  0.70089  0.06629  0.01346  1.0000
  S   S336      1.0  0.96381  0.01798  0.05739  1.0000
  C   C2526     1.0  0.73825  0.01254  0.26655  1.0000
  Fe  Fe168     1.0  0.92481  0.09437  0.27317  1.0000
  S   S337      1.0  0.92001  0.06397  0.28162  1.0000
  S   S338      1.0  0.91891  0.11276  0.24623  1.0000
  Fe  Fe169     1.0  0.94093  0.10028  0.31022  1.0000
  H   H2004     1.0  0.83975  0.07102  0.14303  1.0000
  H   H2005     1.0  0.99481  0.11692  0.30876  1.0000
  Fe  Fe170     1.0  0.94921  0.06151  0.29253  1.0000
  S   S339      1.0  0.96965  0.03517  0.28534  1.0000
  Fe  Fe171     1.0  0.90868  0.07429  0.30981  1.0000
  H   H2006     1.0  0.95072  0.12411  0.07029  1.0000
  S   S340      1.0  0.95466  0.09136  0.28217  1.0000
  S   S341      1.0  0.91147  0.10497  0.30080  1.0000
  H   H2007     1.0  0.86389  0.14780  0.28950  1.0000
  C   C2527     1.0  0.94498  0.15701  0.32050  1.0000
  C   C2528     1.0  0.86363  0.13317  0.28670  1.0000
  S   S342      1.0  0.61627  0.02746  0.27357  1.0000
  Fe  Fe172     1.0  0.63151  0.02381  0.22049  1.0000
  S   S343      1.0  0.64038  0.04645  0.23673  1.0000
  S   S344      1.0  0.63841  0.02043  0.18907  1.0000
  Fe  Fe173     1.0  0.64595  0.02359  0.25966  1.0000
  S   S345      1.0  0.67375  0.01805  0.27404  1.0000
  Fe  Fe174     1.0  0.60990  0.04869  0.24961  1.0000
  S   S346      1.0  0.59360  0.07711  0.25557  1.0000
  H   H2008     1.0  0.95741  0.19242  0.02072  1.0000
  S   S347      1.0  0.60055  0.02762  0.23183  1.0000
  C   C2529     1.0  0.92607  0.03616  0.21642  1.0000
  S   S348      1.0  0.61727  0.22225  0.02400  1.0000
  H   H2009     1.0  0.97138  0.07824  0.17734  1.0000
  Fe  Fe175     1.0  0.64937  0.21889  0.02225  1.0000
  S   S349      1.0  0.66992  0.19193  0.01913  1.0000
  C   C2530     1.0  0.98985  0.02214  0.29507  1.0000
  Fe  Fe176     1.0  0.73812  0.07179  0.06939  1.0000
  S   S350      1.0  0.71681  0.08625  0.08996  1.0000
  S   S351      1.0  0.76845  0.08048  0.06191  1.0000
  Fe  Fe177     1.0  0.70932  0.04613  0.05801  1.0000
  S   S352      1.0  0.68613  0.05903  0.07851  1.0000
  S   S353      1.0  0.69952  0.02465  0.03910  1.0000
  Fe  Fe178     1.0  0.69604  0.08736  0.06822  1.0000
  S   S354      1.0  0.67246  0.11188  0.06654  1.0000
  Fe  Fe179     1.0  0.70795  0.05730  0.09928  1.0000
  S   S355      1.0  0.70350  0.05354  0.13146  1.0000
  S   S356      1.0  0.71780  0.07480  0.04656  1.0000
  S   S357      1.0  0.73081  0.04243  0.07979  1.0000
  C   C2531     1.0  0.70643  0.00781  0.02165  1.0000
  C   C2532     1.0  0.67058  0.17007  0.03307  1.0000
  C   C2533     1.0  0.68643  0.15667  0.03031  1.0000
  C   C2534     1.0  0.68737  0.13890  0.04051  1.0000
  C   C2535     1.0  0.67236  0.13424  0.05360  1.0000
  C   C2536     1.0  0.65657  0.14767  0.05651  1.0000
  C   C2537     1.0  0.65570  0.16552  0.04640  1.0000
  H   H2010     1.0  0.69808  0.16003  0.02013  1.0000
  H   H2011     1.0  0.69957  0.12873  0.03808  1.0000
  H   H2012     1.0  0.64489  0.14424  0.06663  1.0000
  H   H2013     1.0  0.64342  0.17563  0.04873  1.0000
  C   C2538     1.0  0.65569  0.03090  0.17297  1.0000
  C   C2539     1.0  0.65834  0.02543  0.15443  1.0000
  C   C2540     1.0  0.67229  0.03286  0.14130  1.0000
  C   C2541     1.0  0.68403  0.04565  0.14666  1.0000
  C   C2542     1.0  0.68124  0.05124  0.16518  1.0000
  C   C2543     1.0  0.66702  0.04414  0.17819  1.0000
  H   H2014     1.0  0.64968  0.01518  0.15024  1.0000
  H   H2015     1.0  0.67435  0.02825  0.12720  1.0000
  H   H2016     1.0  0.69053  0.06066  0.16973  1.0000
  H   H2017     1.0  0.66533  0.04832  0.19243  1.0000
  C   C2544     1.0  0.52881  0.08992  0.25286  1.0000
  C   C2545     1.0  0.53882  0.10106  0.26279  1.0000
  C   C2546     1.0  0.55863  0.09693  0.26357  1.0000
  C   C2547     1.0  0.56855  0.08145  0.25478  1.0000
  C   C2548     1.0  0.55845  0.07017  0.24509  1.0000
  C   C2549     1.0  0.53876  0.07453  0.24399  1.0000
  H   H2018     1.0  0.53139  0.11300  0.26961  1.0000
  H   H2019     1.0  0.56631  0.10578  0.27106  1.0000
  H   H2020     1.0  0.56586  0.05828  0.23816  1.0000
  H   H2021     1.0  0.53122  0.06602  0.23607  1.0000
  C   C2550     1.0  0.96251  0.09729  0.22674  1.0000
  H   H2022     1.0  0.67627  0.00121  0.21480  1.0000
  H   H2023     1.0  0.80134  0.01768  0.10584  1.0000
  C   C2551     1.0  0.68757  0.01002  0.20994  1.0000
  H   H2024     1.0  0.50595  0.05675  0.26929  1.0000
  C   C2552     1.0  0.53946  0.05244  0.31206  1.0000
  C   C2553     1.0  0.91109  0.00208  0.07424  1.0000
  C   C2554     1.0  0.71718  0.22409  0.05513  1.0000
  C   C2555     1.0  0.74277  0.02345  0.28048  1.0000
  C   C2556     1.0  0.67211  0.03995  0.30488  1.0000
  C   C2557     1.0  0.68185  0.02541  0.29478  1.0000
  C   C2558     1.0  0.69898  0.01654  0.30100  1.0000
  H   H2025     1.0  0.96587  0.12456  0.21246  1.0000
  H   H2026     1.0  0.65888  0.04688  0.30038  1.0000
  H   H2027     1.0  0.89469  0.21794  0.05863  1.0000
  C   C2559     1.0  0.53562  0.03136  0.28801  1.0000
  H   H2028     1.0  0.78571  0.03476  0.07912  1.0000
  C   C2560     1.0  0.85584  0.05287  0.31261  1.0000
  H   H2029     1.0  0.86583  0.05248  0.30024  1.0000
  H   H2030     1.0  0.85256  0.09083  0.30771  1.0000
  H   H2031     1.0  0.93816  0.15285  0.30888  1.0000
  C   C2561     1.0  0.93010  0.07587  0.06585  1.0000
  C   C2562     1.0  0.93238  0.06248  0.08099  1.0000
  C   C2563     1.0  0.94254  0.04474  0.07811  1.0000
  C   C2564     1.0  0.95037  0.04014  0.06010  1.0000
  C   C2565     1.0  0.94743  0.05324  0.04487  1.0000
  C   C2566     1.0  0.93749  0.07106  0.04777  1.0000
  H   H2032     1.0  0.92675  0.06599  0.09496  1.0000
  H   H2033     1.0  0.94461  0.03464  0.08996  1.0000
  H   H2034     1.0  0.95317  0.04978  0.03094  1.0000
  H   H2035     1.0  0.93566  0.08125  0.03597  1.0000
  C   C2567     1.0  0.81212  0.09833  0.09939  1.0000
  C   C2568     1.0  0.79429  0.09317  0.10739  1.0000
  C   C2569     1.0  0.78073  0.08782  0.09619  1.0000
  C   C2570     1.0  0.78480  0.08760  0.07675  1.0000
  C   C2571     1.0  0.80256  0.09293  0.06871  1.0000
  C   C2572     1.0  0.81615  0.09821  0.07993  1.0000
  H   H2036     1.0  0.79094  0.09326  0.12240  1.0000
  H   H2037     1.0  0.76718  0.08377  0.10263  1.0000
  H   H2038     1.0  0.80586  0.09292  0.05370  1.0000
  H   H2039     1.0  0.82959  0.10244  0.07347  1.0000
  C   C2573     1.0  0.90506  0.09826  0.18769  1.0000
  C   C2574     1.0  0.90795  0.11670  0.19116  1.0000
  C   C2575     1.0  0.91217  0.12082  0.20912  1.0000
  C   C2576     1.0  0.91367  0.10660  0.22384  1.0000
  C   C2577     1.0  0.91074  0.08816  0.22040  1.0000
  C   C2578     1.0  0.90633  0.08410  0.20249  1.0000
  H   H2040     1.0  0.90702  0.12777  0.17999  1.0000
  H   H2041     1.0  0.91433  0.13514  0.21161  1.0000
  H   H2042     1.0  0.91173  0.07707  0.23154  1.0000
  H   H2043     1.0  0.90380  0.06990  0.20006  1.0000
  C   C2579     1.0  0.89562  0.19637  0.10761  1.0000
  C   C2580     1.0  0.88974  0.21444  0.09967  1.0000
  C   C2581     1.0  0.90044  0.22988  0.10065  1.0000
  C   C2582     1.0  0.91709  0.22746  0.10982  1.0000
  C   C2583     1.0  0.92290  0.20942  0.11792  1.0000
  C   C2584     1.0  0.91224  0.19395  0.11685  1.0000
  H   H2044     1.0  0.87676  0.21652  0.09276  1.0000
  C   C2585     1.0  0.87946  0.24538  0.05654  1.0000
  H   H2045     1.0  0.93571  0.20741  0.12512  1.0000
  H   H2046     1.0  0.91684  0.18019  0.12318  1.0000
  H   H2047     1.0  0.50917  0.03883  0.24172  1.0000
  C   C2586     1.0  0.63268  0.06009  0.13153  1.0000
  C   C2587     1.0  0.63893  0.06314  0.11258  1.0000
  C   C2588     1.0  0.64651  0.08000  0.10606  1.0000
  C   C2589     1.0  0.64810  0.09368  0.11849  1.0000
  C   C2590     1.0  0.64183  0.09074  0.13759  1.0000
  C   C2591     1.0  0.63427  0.07372  0.14404  1.0000
  P   P85       1.0  0.64431  0.10844  0.15359  1.0000
  C   C2592     1.0  0.63977  0.13151  0.14158  1.0000
  C   C2593     1.0  0.62751  0.10592  0.17409  1.0000
  C   C2594     1.0  0.63095  0.09125  0.18797  1.0000
  C   C2595     1.0  0.61798  0.08910  0.20381  1.0000
  C   C2596     1.0  0.60161  0.10163  0.20603  1.0000
  C   C2597     1.0  0.59811  0.11631  0.19235  1.0000
  C   C2598     1.0  0.61096  0.11846  0.17642  1.0000
  C   C2599     1.0  0.62566  0.13462  0.12896  1.0000
  C   C2600     1.0  0.62248  0.15222  0.11915  1.0000
  C   C2601     1.0  0.63322  0.16690  0.12196  1.0000
  C   C2602     1.0  0.64711  0.16401  0.13466  1.0000
  C   C2603     1.0  0.65036  0.14641  0.14448  1.0000
  C   C2604     1.0  0.66812  0.10578  0.16092  1.0000
  C   C2605     1.0  0.67165  0.11268  0.17789  1.0000
  C   C2606     1.0  0.69011  0.11093  0.18350  1.0000
  C   C2607     1.0  0.70517  0.10230  0.17220  1.0000
  C   C2608     1.0  0.70179  0.09555  0.15527  1.0000
  C   C2609     1.0  0.68336  0.09729  0.14961  1.0000
  H   H2048     1.0  0.62709  0.04688  0.13668  1.0000
  H   H2049     1.0  0.63822  0.05228  0.10309  1.0000
  H   H2050     1.0  0.65151  0.08243  0.09140  1.0000
  H   H2051     1.0  0.65440  0.10643  0.11309  1.0000
  H   H2052     1.0  0.62978  0.07065  0.15867  1.0000
  H   H2053     1.0  0.64351  0.08129  0.18643  1.0000
  H   H2054     1.0  0.62049  0.07764  0.21438  1.0000
  H   H2055     1.0  0.59161  0.09988  0.21836  1.0000
  H   H2056     1.0  0.58536  0.12598  0.19412  1.0000
  H   H2057     1.0  0.60787  0.12989  0.16602  1.0000
  H   H2058     1.0  0.61719  0.12340  0.12660  1.0000
  H   H2059     1.0  0.61170  0.15449  0.10930  1.0000
  H   H2060     1.0  0.63076  0.18053  0.11430  1.0000
  H   H2061     1.0  0.65543  0.17542  0.13682  1.0000
  H   H2062     1.0  0.66127  0.14449  0.15413  1.0000
  H   H2063     1.0  0.66014  0.11951  0.18673  1.0000
  H   H2064     1.0  0.69272  0.11620  0.19663  1.0000
  H   H2065     1.0  0.71946  0.10072  0.17654  1.0000
  H   H2066     1.0  0.71337  0.08848  0.14664  1.0000
  H   H2067     1.0  0.68114  0.09161  0.13656  1.0000
  C   C2610     1.0  0.70805  0.21045  0.04761  1.0000
  C   C2611     1.0  0.73767  0.19936  0.07029  1.0000
  C   C2612     1.0  0.72849  0.18551  0.06284  1.0000
  C   C2613     1.0  0.71369  0.19130  0.05141  1.0000
  P   P86       1.0  0.73516  0.16056  0.06815  1.0000
  C   C2614     1.0  0.73786  0.14784  0.04715  1.0000
  C   C2615     1.0  0.75744  0.15679  0.07887  1.0000
  C   C2616     1.0  0.77400  0.14853  0.06916  1.0000
  C   C2617     1.0  0.79067  0.14422  0.07815  1.0000
  C   C2618     1.0  0.79101  0.14810  0.09684  1.0000
  C   C2619     1.0  0.77473  0.15661  0.10651  1.0000
  C   C2620     1.0  0.75801  0.16097  0.09758  1.0000
  C   C2621     1.0  0.73930  0.12802  0.04867  1.0000
  C   C2622     1.0  0.74272  0.11796  0.03259  1.0000
  C   C2623     1.0  0.95262  0.23418  0.04485  1.0000
  H   H2068     1.0  0.69650  0.21464  0.03884  1.0000
  C   C2624     1.0  0.74011  0.15738  0.02928  1.0000
  C   C2625     1.0  0.71709  0.15040  0.08434  1.0000
  C   C2626     1.0  0.69774  0.15683  0.08377  1.0000
  C   C2627     1.0  0.68393  0.14864  0.09615  1.0000
  C   C2628     1.0  0.68928  0.13402  0.10923  1.0000
  C   C2629     1.0  0.70843  0.12753  0.10994  1.0000
  C   C2630     1.0  0.72226  0.13544  0.09739  1.0000
  H   H2069     1.0  0.74467  0.15470  0.99948  1.0000
  H   H2070     1.0  0.74919  0.19549  0.07903  1.0000
  H   H2071     1.0  0.70648  0.18103  0.04532  1.0000
  H   H2072     1.0  0.77409  0.14499  0.05480  1.0000
  H   H2073     1.0  0.80328  0.13746  0.07076  1.0000
  H   H2074     1.0  0.80387  0.14427  0.10387  1.0000
  H   H2075     1.0  0.77504  0.15952  0.12104  1.0000
  H   H2076     1.0  0.74538  0.16719  0.10539  1.0000
  H   H2077     1.0  0.73825  0.12025  0.06227  1.0000
  H   H2078     1.0  0.74438  0.10268  0.03394  1.0000
  H   H2079     1.0  0.81891  0.10608  0.31051  1.0000
  C   C2631     1.0  0.99766  0.02756  0.31071  1.0000
  H   H2080     1.0  0.73982  0.17258  0.02765  1.0000
  H   H2081     1.0  0.69305  0.16779  0.07356  1.0000
  H   H2082     1.0  0.66901  0.15325  0.09518  1.0000
  H   H2083     1.0  0.67855  0.12738  0.11846  1.0000
  H   H2084     1.0  0.71255  0.11586  0.11974  1.0000
  H   H2085     1.0  0.73692  0.12954  0.09769  1.0000
  C   C2632     1.0  0.57515  0.18050  0.02836  1.0000
  C   C2633     1.0  0.58285  0.18618  0.04390  1.0000
  C   C2634     1.0  0.57642  0.20364  0.05087  1.0000
  C   C2635     1.0  0.56267  0.21568  0.04203  1.0000
  C   C2636     1.0  0.55530  0.21032  0.02605  1.0000
  C   C2637     1.0  0.56120  0.19240  0.01963  1.0000
  H   H2086     1.0  0.97188  0.11214  0.18092  1.0000
  C   C2638     1.0  0.85605  0.12023  0.30050  1.0000
  C   C2639     1.0  0.51474  0.21723  0.02625  1.0000
  C   C2640     1.0  0.64545  0.06159  0.05449  1.0000
  H   H2087     1.0  0.94529  0.17590  0.09299  1.0000
  H   H2088     1.0  0.93969  0.23953  0.07269  1.0000
  S   S358      1.0  0.50405  0.09476  0.25050  1.0000
  C   C2641     1.0  0.91805  0.20458  0.27874  1.0000
  C   C2642     1.0  0.55793  0.05479  0.30419  1.0000
  H   H2089     1.0  0.90506  0.02079  0.25882  1.0000
  C   C2643     1.0  0.96322  0.10132  0.00749  1.0000
  H   H2090     1.0  0.98503  0.19839  0.18205  1.0000
  H   H2091     1.0  0.52327  0.03838  0.20919  1.0000
  H   H2092     1.0  0.84771  0.24033  0.03071  1.0000
  S   S359      1.0  0.60052  0.23820  0.07364  1.0000
  C   C2644     1.0  0.88248  0.04481  0.13736  1.0000
  H   H2093     1.0  0.57998  0.16687  0.02311  1.0000
  H   H2094     1.0  0.59376  0.17708  0.05063  1.0000
  H   H2095     1.0  0.65065  0.10128  0.02600  1.0000
  H   H2096     1.0  0.55509  0.18766  0.00782  1.0000
  C   C2645     1.0  0.70653  0.02231  0.31686  1.0000
  C   C2646     1.0  0.90809  0.23513  0.29081  1.0000
  C   C2647     1.0  0.95176  0.24149  0.06249  1.0000
  H   H2097     1.0  0.93907  0.18696  0.31351  1.0000
  C   C2648     1.0  0.94996  0.20090  0.01003  1.0000
  C   C2649     1.0  0.69660  0.00869  0.19186  1.0000
  C   C2650     1.0  0.82905  0.02660  0.09643  1.0000
  C   C2651     1.0  0.98229  0.24828  0.03600  1.0000
  H   H2098     1.0  0.94550  0.20197  0.26299  1.0000
  C   C2652     1.0  0.91192  0.03010  0.22985  1.0000
  C   C2653     1.0  0.72860  0.02106  0.25152  1.0000
  C   C2654     1.0  0.70668  0.03520  0.21502  1.0000
  C   C2655     1.0  0.71542  0.03404  0.19666  1.0000
  C   C2656     1.0  0.71052  0.02068  0.18523  1.0000
  C   C2657     1.0  0.64012  0.00229  0.31767  1.0000
  Fe  Fe180     1.0  0.60877  0.00598  0.25486  1.0000
  C   C2658     1.0  0.69258  0.02320  0.22148  1.0000
  C   C2659     1.0  0.72649  0.08690  0.21781  1.0000
  C   C2660     1.0  0.74051  0.09818  0.20961  1.0000
  C   C2661     1.0  0.93854  0.22990  0.27257  1.0000
  H   H2099     1.0  0.72530  0.01235  0.24088  1.0000
  H   H2100     1.0  0.72559  0.04366  0.19081  1.0000
  C   C2662     1.0  0.83081  0.04666  0.06755  1.0000
  H   H2101     1.0  0.83560  0.01947  0.10839  1.0000
  C   C2663     1.0  0.56451  0.23987  0.09215  1.0000
  H   H2102     1.0  0.68526  0.02425  0.23535  1.0000
  H   H2103     1.0  0.71312  0.09370  0.22360  1.0000
  H   H2104     1.0  0.73776  0.11342  0.20890  1.0000
  C   C2664     1.0  0.86499  0.09516  0.27946  1.0000
  C   C2665     1.0  0.87199  0.10819  0.26562  1.0000
  C   C2666     1.0  0.87144  0.12716  0.26928  1.0000
  C   C2667     1.0  0.82529  0.15740  0.30736  1.0000
  C   C2668     1.0  0.92765  0.22721  0.00074  1.0000
  C   C2669     1.0  0.91606  0.02530  0.24835  1.0000
  H   H2105     1.0  0.95294  0.21205  0.19390  1.0000
  C   C2670     1.0  0.98042  0.07051  0.00403  1.0000
  H   H2106     1.0  0.98109  0.06598  0.04806  1.0000
  H   H2107     1.0  0.92863  0.06320  0.14758  1.0000
  C   C2671     1.0  0.80085  0.03508  0.07997  1.0000
  H   H2108     1.0  0.85136  0.04812  0.02502  1.0000
  H   H2109     1.0  0.86696  0.24088  0.06490  1.0000
  H   H2110     1.0  0.96204  0.11540  0.01230  1.0000
  H   H2111     1.0  0.71269  0.23892  0.05222  1.0000
  C   C2672     1.0  0.52887  0.01617  0.25242  1.0000
  C   C2673     1.0  0.98185  0.21357  0.18191  1.0000
  H   H2112     1.0  0.86592  0.08037  0.27682  1.0000
  H   H2113     1.0  0.87833  0.10351  0.25221  1.0000
  H   H2114     1.0  0.87761  0.13703  0.25871  1.0000
  H   H2115     1.0  0.89152  0.21125  0.29521  1.0000
  H   H2116     1.0  0.90668  0.16092  0.05566  1.0000
  S   S360      1.0  0.97441  0.01218  0.00202  1.0000
  H   H2117     1.0  0.92366  0.15366  0.08412  1.0000
  C   C2674     1.0  0.55437  0.03345  0.28048  1.0000
  H   H2118     1.0  0.98662  0.23462  0.31586  1.0000
  C   C2675     1.0  0.69220  0.99977  0.01342  1.0000
  C   C2676     1.0  0.90459  0.21651  0.28878  1.0000
  C   C2677     1.0  0.52107  0.02861  0.23841  1.0000
  C   C2678     1.0  0.88891  0.06991  0.03997  1.0000
  C   C2679     1.0  0.92606  0.16637  0.07526  1.0000
  C   C2680     1.0  0.96149  0.07812  0.22481  1.0000
  C   C2681     1.0  0.83714  0.04808  0.31189  1.0000
  C   C2682     1.0  0.96471  0.12483  0.06280  1.0000
  C   C2683     1.0  0.73203  0.21856  0.06641  1.0000
  C   C2684     1.0  0.96869  0.08334  0.19122  1.0000
  C   C2685     1.0  0.85047  0.05688  0.11825  1.0000
  C   C2686     1.0  0.54481  0.01574  0.21503  1.0000
  C   C2687     1.0  0.81146  0.04547  0.06617  1.0000
  H   H2119     1.0  0.50805  0.09335  0.17057  1.0000
  H   H2120     1.0  0.99107  0.03974  0.31767  1.0000
  C   C2688     1.0  0.93909  0.05326  0.15408  1.0000
  H   H2121     1.0  0.51400  0.03926  0.31023  1.0000
  H   H2122     1.0  0.82393  0.14816  0.29643  1.0000
  H   H2123     1.0  0.73915  0.22917  0.07220  1.0000
  H   H2124     1.0  0.99602  0.06798  0.26879  1.0000
  H   H2125     1.0  0.72870  0.04369  0.00618  1.0000
  C   C2689     1.0  0.96928  0.10259  0.19320  1.0000
  C   C2690     1.0  0.97127  0.11179  0.04958  1.0000
  H   H2126     1.0  0.88712  0.10008  0.03414  1.0000
  C   C2691     1.0  0.91641  0.17053  0.05921  1.0000
  C   C2692     1.0  0.96429  0.07101  0.20697  1.0000
  H   H2127     1.0  0.83280  0.04416  0.29884  1.0000
  C   C2693     1.0  0.98532  0.03348  0.20870  1.0000
  C   C2694     1.0  0.99449  0.13897  0.05728  1.0000
  C   C2695     1.0  0.93086  0.20016  0.05319  1.0000
  C   C2696     1.0  0.88263  0.08852  0.04368  1.0000
  C   C2697     1.0  0.65348  0.04805  0.04232  1.0000
  H   H2128     1.0  0.86824  0.06045  0.15999  1.0000
  H   H2129     1.0  0.88823  0.04081  0.04910  1.0000
  C   C2698     1.0  0.83625  0.15117  0.32229  1.0000
  H   H2130     1.0  0.71685  0.02022  0.17087  1.0000
  H   H2131     1.0  0.74097  0.05128  0.29038  1.0000
  P   P87       1.0  0.71253  0.05227  0.23026  1.0000
  H   H2132     1.0  0.68954  0.05721  0.26669  1.0000
  H   H2133     1.0  0.75125  0.04370  0.21355  1.0000
  C   C2699     1.0  0.96378  0.22127  0.18861  1.0000
  C   C2700     1.0  0.72342  0.04063  0.25034  1.0000
  C   C2701     1.0  0.73002  0.06713  0.21886  1.0000
  H   H2134     1.0  0.94977  0.20535  0.07381  1.0000
  H   H2135     1.0  0.91100  0.19049  0.03593  1.0000
  C   C2702     1.0  0.56540  0.04517  0.28856  1.0000
  C   C2703     1.0  0.94551  0.17637  0.32318  1.0000
  C   C2704     1.0  0.98086  0.24717  0.30800  1.0000
  H   H2136     1.0  0.97259  0.14518  0.25956  1.0000
  C   C2705     1.0  0.75817  0.08983  0.20253  1.0000
  H   H2137     1.0  0.76905  0.09857  0.19619  1.0000
  H   H2138     1.0  0.83791  0.00493  0.31962  1.0000
  C   C2706     1.0  0.99156  0.24506  0.17440  1.0000
  C   C2707     1.0  0.97889  0.08834  0.01122  1.0000
  C   C2708     1.0  0.66025  0.05360  0.02399  1.0000
  H   H2139     1.0  0.97116  0.14854  0.07689  1.0000
  C   C2709     1.0  0.64441  0.08072  0.04842  1.0000
  H   H2140     1.0  0.96227  0.10098  0.04730  1.0000
  C   C2710     1.0  0.96603  0.10958  0.21094  1.0000
  H   H2141     1.0  0.95184  0.23485  0.26640  1.0000
  C   C2711     1.0  0.95957  0.24085  0.18821  1.0000
  C   C2712     1.0  0.74801  0.05889  0.21224  1.0000
  S   S361      1.0  0.93098  0.24648  0.11170  1.0000
  H   H2142     1.0  0.91543  0.19007  0.27742  1.0000
  C   C2713     1.0  0.96165  0.02548  0.15281  1.0000
  C   C2714     1.0  0.76193  0.07020  0.20391  1.0000
  H   H2143     1.0  0.55129  0.01585  0.20072  1.0000
  C   C2715     1.0  0.94846  0.03281  0.24008  1.0000
  S   S362      1.0  0.80064  0.04197  0.32633  1.0000
  Fe  Fe181     1.0  0.98290  0.00893  0.03141  1.0000
  C   C2716     1.0  0.80966  0.02555  0.09504  1.0000
  H   H2144     1.0  0.65505  0.03325  0.04721  1.0000
  C   C2717     1.0  0.72547  0.00233  0.01568  1.0000
  C   C2718     1.0  0.73769  0.04290  0.27939  1.0000
  C   C2719     1.0  0.72826  0.05150  0.26428  1.0000
  C   C2720     1.0  0.68271  0.06589  0.25577  1.0000
  H   H2145     1.0  0.77573  0.06373  0.19867  1.0000
  C   C2721     1.0  0.65906  0.07279  0.01767  1.0000
  H   H2146     1.0  0.80442  0.05317  0.05475  1.0000
  H   H2147     1.0  0.51870  0.22700  0.05327  1.0000
  H   H2148     1.0  0.51855  0.10615  0.19860  1.0000
  S   S363      1.0  0.65149  0.23741  0.04569  1.0000
  C   C2722     1.0  0.50977  0.21978  0.04536  1.0000
  C   C2723     1.0  0.93824  0.17890  0.08023  1.0000
  C   C2724     1.0  0.69039  0.06594  0.23698  1.0000
  H   H2149     1.0  0.57027  0.22836  0.10130  1.0000
  C   C2725     1.0  0.95712  0.04304  0.18082  1.0000
  C   C2726     1.0  0.52903  0.02838  0.21981  1.0000
  C   C2727     1.0  0.98630  0.01431  0.21510  1.0000
  H   H2150     1.0  0.89505  0.04059  0.14465  1.0000
  C   C2728     1.0  0.85728  0.10113  0.29690  1.0000
  C   C2729     1.0  0.96604  0.02779  0.17102  1.0000
  H   H2151     1.0  0.92428  0.00616  0.01765  1.0000
  C   C2730     1.0  0.94444  0.03772  0.22145  1.0000
  C   C2731     1.0  0.66564  0.07673  0.26063  1.0000
  H   H2152     1.0  0.96243  0.03403  0.24447  1.0000
  H   H2153     1.0  0.72463  0.06664  0.26353  1.0000
  C   C2732     1.0  0.99250  0.12073  0.25486  1.0000
  H   H2154     1.0  0.94493  0.03656  0.13018  1.0000
  H   H2155     1.0  0.65965  0.07636  0.27512  1.0000
  H   H2156     1.0  0.50224  0.23074  0.17095  1.0000
  H   H2157     1.0  0.57959  0.04729  0.28233  1.0000
  H   H2158     1.0  0.99283  0.00164  0.27427  1.0000
  H   H2159     1.0  0.83848  0.05539  0.05704  1.0000
  H   H2160     1.0  0.92642  0.00247  0.07252  1.0000
  H   H2161     1.0  0.58219  0.20790  0.06309  1.0000
  H   H2162     1.0  0.97646  0.01773  0.17728  1.0000
  C   C2733     1.0  0.93701  0.21635  0.01486  1.0000
  C   C2734     1.0  0.89933  0.01839  0.07850  1.0000
  H   H2163     1.0  0.89820  0.06699  0.02744  1.0000
  H   H2164     1.0  0.50703  0.20437  0.00207  1.0000
  C   C2735     1.0  0.74311  0.14725  0.01321  1.0000
  H   H2165     1.0  0.67743  0.00374  0.01784  1.0000
  C   C2736     1.0  0.68037  0.07644  0.22308  1.0000
  H   H2166     1.0  0.85693  0.08080  0.08555  1.0000
  H   H2167     1.0  0.92250  0.03979  0.20222  1.0000
  H   H2168     1.0  0.64054  0.05725  0.06876  1.0000
  C   C2737     1.0  0.93499  0.21129  0.27060  1.0000
  H   H2169     1.0  0.68566  0.07601  0.20843  1.0000
  C   C2738     1.0  0.86446  0.01950  0.02690  1.0000
  H   H2170     1.0  0.93623  0.06739  0.17953  1.0000
  H   H2171     1.0  0.73666  0.00817  0.02182  1.0000
  H   H2172     1.0  0.89376  0.03140  0.11261  1.0000
  H   H2173     1.0  0.86591  0.10669  0.06274  1.0000
  H   H2174     1.0  0.85630  0.00075  0.07987  1.0000
  H   H2175     1.0  0.99271  0.06048  0.00613  1.0000
  C   C2739     1.0  0.91884  0.18732  0.04816  1.0000
  H   H2176     1.0  0.90576  0.03128  0.07985  1.0000
  S   S364      1.0  0.63901  0.00044  0.24244  1.0000
  C   C2740     1.0  0.92516  0.24193  0.28281  1.0000
  H   H2177     1.0  0.66671  0.04285  0.01490  1.0000
  C   C2741     1.0  0.83975  0.03730  0.08276  1.0000
  C   C2742     1.0  0.88170  0.03975  0.11904  1.0000
  C   C2743     1.0  0.70258  0.06006  0.00009  1.0000
  C   C2744     1.0  0.50314  0.20739  0.01652  1.0000
  C   C2745     1.0  0.65603  0.08758  0.24680  1.0000
  C   C2746     1.0  0.87089  0.09227  0.05998  1.0000
  C   C2747     1.0  0.86587  0.07751  0.07291  1.0000
  H   H2178     1.0  0.95970  0.10277  0.24046  1.0000
  P   P88       1.0  0.96265  0.04626  0.20437  1.0000
  C   C2748     1.0  0.88350  0.05506  0.05259  1.0000
  H   H2179     1.0  0.83808  0.06214  0.11101  1.0000
  H   H2180     1.0  0.93757  0.02293  0.26779  1.0000
  H   H2181     1.0  0.63882  0.09129  0.05805  1.0000
  C   C2749     1.0  0.97625  0.13851  0.06656  1.0000
  C   C2750     1.0  0.66339  0.08742  0.22803  1.0000
  C   C2751     1.0  0.94060  0.19578  0.06933  1.0000
  C   C2752     1.0  0.96246  0.24804  0.30248  1.0000
  P   P89       1.0  0.53675  0.22524  0.01521  1.0000
  P   P90       1.0  0.52050  0.01759  0.27693  1.0000
  C   C2753     1.0  0.52837  0.04070  0.30408  1.0000
  H   H2182     1.0  0.69220  0.99895  0.18269  1.0000
  H   H2183     1.0  0.70651  0.00512  0.29348  1.0000
  C   C2754     1.0  0.91191  0.23830  0.04288  1.0000
  H   H2184     1.0  0.64255  0.09560  0.25059  1.0000
  H   H2185     1.0  0.82472  0.24298  0.05895  1.0000
  H   H2186     1.0  0.99465  0.03870  0.06731  1.0000
  H   H2187     1.0  0.65567  0.09545  0.21731  1.0000
  C   C2755     1.0  0.94345  0.05561  0.17225  1.0000
  C   C2756     1.0  0.93436  0.02652  0.25341  1.0000
  S   S365      1.0  0.93748  0.07008  0.32110  1.0000
  C   C2757     1.0  0.65123  0.08635  0.03011  1.0000
  H   H2188     1.0  0.80741  0.18034  0.29498  1.0000
  H   H2189     1.0  0.95815  0.06907  0.23726  1.0000
  H   H2190     1.0  0.96870  0.01382  0.14523  1.0000
  C   C2758     1.0  0.85128  0.06187  0.13655  1.0000
  C   C2759     1.0  0.94823  0.03825  0.14432  1.0000
  H   H2191     1.0  0.97353  0.00701  0.21749  1.0000
  P   P91       1.0  0.93303  0.22212  0.03904  1.0000
  P   P92       1.0  0.86445  0.03965  0.08546  1.0000
  C   C2760     1.0  0.86569  0.04579  0.10927  1.0000
  C   C2761     1.0  0.86730  0.05591  0.14609  1.0000
  C   C2762     1.0  0.87220  0.05875  0.06937  1.0000
  C   C2763     1.0  0.54451  0.00331  0.24740  1.0000
  C   C2764     1.0  0.87945  0.01818  0.08068  1.0000
  C   C2765     1.0  0.96800  0.23774  0.03155  1.0000
  H   H2192     1.0  0.95426  0.23611  0.30645  1.0000
  C   C2766     1.0  0.55251  0.00319  0.22884  1.0000
  H   H2193     1.0  0.56873  0.24793  0.01139  1.0000
  H   H2194     1.0  0.85702  0.01593  0.04043  1.0000
  H   H2195     1.0  0.55783  0.22909  0.04777  1.0000
  H   H2196     1.0  0.56052  0.02644  0.26821  1.0000
  H   H2197     1.0  0.53650  0.24142  0.10739  1.0000
  H   H2198     1.0  0.74995  0.01684  0.29231  1.0000
  C   C2767     1.0  0.74444  0.12754  0.01487  1.0000
  H   H2199     1.0  0.74710  0.11963  0.00248  1.0000
  H   H2200     1.0  0.56642  0.06424  0.31001  1.0000
  C   C2768     1.0  0.99574  0.22546  0.17487  1.0000
  C   C2769     1.0  0.87724  0.00598  0.01810  1.0000
  C   C2770     1.0  0.71836  0.04720  0.99599  1.0000
  C   C2771     1.0  0.67955  0.04560  0.32087  1.0000
  H   H2201     1.0  0.89769  0.02930  0.22595  1.0000
  C   C2772     1.0  0.86127  0.03764  0.01825  1.0000
  C   C2773     1.0  0.81582  0.17559  0.30656  1.0000
  H   H2202     1.0  0.89571  0.24368  0.09449  1.0000
  C   C2774     1.0  0.87154  0.00136  0.07844  1.0000
  C   C2775     1.0  0.98926  0.11263  0.03960  1.0000
  Fe  Fe182     1.0  0.61936  0.24220  0.04623  1.0000
  S   S366      1.0  0.65174  0.24299  0.99983  1.0000
  H   H2203     1.0  0.91762  0.23920  0.00401  1.0000
  C   C2776     1.0  0.98272  0.13242  0.28533  1.0000
  H   H2204     1.0  0.94547  0.24662  0.19335  1.0000
  C   C2777     1.0  0.50061  0.24276  0.17948  1.0000
  H   H2205     1.0  0.98043  0.08687  0.31332  1.0000
  C   C2778     1.0  0.87096  0.04232  0.00089  1.0000
  H   H2206     1.0  0.53363  0.06002  0.32411  1.0000
  C   C2779     1.0  0.50395  0.10912  0.19517  1.0000
  C   C2780     1.0  0.94894  0.09624  0.99733  1.0000
  H   H2207     1.0  0.89757  0.24406  0.29883  1.0000
  H   H2208     1.0  0.71974  0.01537  0.32139  1.0000
  C   C2781     1.0  0.98170  0.13386  0.26595  1.0000
  P   P93       1.0  0.84787  0.12750  0.32365  1.0000
  H   H2209     1.0  0.61323  0.01890  0.32243  1.0000
  H   H2210     1.0  0.53729  0.99869  0.31042  1.0000
  H   H2211     1.0  0.96885  0.23289  0.01761  1.0000
  C   C2782     1.0  0.89531  0.23238  0.05296  1.0000
  C   C2783     1.0  0.88681  0.01046  0.00046  1.0000
  C   C2784     1.0  0.57626  0.24733  0.07700  1.0000
  Fe  Fe183     1.0  0.61979  0.24784  0.00359  1.0000
  C   C2785     1.0  0.54535  0.24725  0.09566  1.0000
  C   C2786     1.0  0.99634  0.06337  0.04809  1.0000
  H   H2212     1.0  0.97452  0.14266  0.29397  1.0000
  C   C2787     1.0  0.81702  0.18755  0.32077  1.0000
  H   H2213     1.0  0.80958  0.20159  0.32019  1.0000
  H   H2214     1.0  0.87735  0.15330  0.32407  1.0000
  H   H2215     1.0  0.99197  0.12203  0.23980  1.0000
  H   H2216     1.0  0.63581  0.05565  0.99648  1.0000
  C   C2788     1.0  0.81775  0.10475  0.32568  1.0000
  H   H2217     1.0  0.64825  0.01265  0.32255  1.0000
  C   C2789     1.0  0.99414  0.11761  0.29371  1.0000
  H   H2218     1.0  0.79451  0.08722  0.32739  1.0000
  C   C2790     1.0  0.99031  0.07960  0.32259  1.0000
  C   C2791     1.0  0.62039  0.00575  0.31771  1.0000
  H   H2219     1.0  0.93678  0.10622  0.99470  1.0000
  P   P94       1.0  0.99798  0.09514  0.02321  1.0000
  H   H2220     1.0  0.70279  0.09843  0.99443  1.0000
  C   C2792     1.0  0.69689  0.03696  0.32690  1.0000
  Fe  Fe184     1.0  0.96468  0.22397  0.36322  1.0000
  H   H2221     1.0  0.83570  0.01275  0.57641  1.0000
  C   C2793     1.0  0.72630  0.01763  0.56525  1.0000
  H   H2222     1.0  0.82829  0.19046  0.34704  1.0000
  C   C2794     1.0  0.91904  0.00267  0.35669  1.0000
  H   H2223     1.0  0.73703  0.03613  0.45095  1.0000
  H   H2224     1.0  0.71484  0.01919  0.66045  1.0000
  S   S367      1.0  0.97183  0.21561  0.39277  1.0000
  C   C2795     1.0  0.84648  0.00566  0.34746  1.0000
  Fe  Fe185     1.0  0.77779  0.03817  0.35081  1.0000
  S   S368      1.0  0.75460  0.06114  0.35764  1.0000
  S   S369      1.0  0.56933  0.23770  0.54594  1.0000
  Fe  Fe186     1.0  0.76086  0.01042  0.38169  1.0000
  S   S370      1.0  0.73663  0.03159  0.39076  1.0000
  Fe  Fe187     1.0  0.73452  0.03828  0.35945  1.0000
  S   S371      1.0  0.70554  0.04466  0.34726  1.0000
  Fe  Fe188     1.0  0.75850  0.05266  0.38809  1.0000
  S   S372      1.0  0.76684  0.07292  0.40837  1.0000
  S   S373      1.0  0.75754  0.01575  0.35072  1.0000
  S   S374      1.0  0.78284  0.03101  0.38088  1.0000
  Fe  Fe189     1.0  0.73327  0.12000  0.50623  1.0000
  S   S375      1.0  0.72139  0.10941  0.53495  1.0000
  S   S376      1.0  0.72266  0.10457  0.48313  1.0000
  Fe  Fe190     1.0  0.75565  0.14892  0.52272  1.0000
  S   S377      1.0  0.74565  0.13945  0.55242  1.0000
  S   S378      1.0  0.77243  0.17472  0.51364  1.0000
  Fe  Fe191     1.0  0.75093  0.10973  0.54313  1.0000
  S   S379      1.0  0.76704  0.08385  0.55710  1.0000
  Fe  Fe192     1.0  0.71664  0.13989  0.54183  1.0000
  S   S380      1.0  0.69037  0.15068  0.56068  1.0000
  S   S381      1.0  0.76323  0.11910  0.51403  1.0000
  S   S382      1.0  0.72618  0.15061  0.51253  1.0000
  H   H2225     1.0  0.98497  0.23403  0.54823  1.0000
  H   H2226     1.0  0.78920  0.00880  0.42671  1.0000
  Fe  Fe193     1.0  0.58760  0.21135  0.55539  1.0000
  S   S383      1.0  0.56300  0.19335  0.55803  1.0000
  S   S384      1.0  0.61636  0.20387  0.53868  1.0000
  Fe  Fe194     1.0  0.54436  0.22010  0.55064  1.0000
  C   C2796     1.0  0.77598  0.00803  0.43556  1.0000
  Fe  Fe195     1.0  0.55880  0.20137  0.58820  1.0000
  S   S385      1.0  0.55555  0.17708  0.61114  1.0000
  C   C2797     1.0  0.79475  0.00840  0.54523  1.0000
  S   S386      1.0  0.58437  0.21816  0.58565  1.0000
  C   C2798     1.0  0.61401  0.13867  0.58602  1.0000
  H   H2227     1.0  0.86795  0.07083  0.40250  1.0000
  S   S387      1.0  0.83928  0.21426  0.54483  1.0000
  C   C2799     1.0  0.83045  0.03756  0.39371  1.0000
  H   H2228     1.0  0.77264  0.04686  0.53748  1.0000
  S   S388      1.0  0.73521  0.02199  0.61807  1.0000
  H   H2229     1.0  0.64036  0.12246  0.57868  1.0000
  H   H2230     1.0  0.78044  0.19719  0.57196  1.0000
  H   H2231     1.0  0.59800  0.06673  0.49954  1.0000
  C   C2800     1.0  0.94247  0.22750  0.52596  1.0000
  C   C2801     1.0  0.69252  0.00927  0.41861  1.0000
  C   C2802     1.0  0.77222  0.04567  0.52260  1.0000
  C   C2803     1.0  0.84137  0.00263  0.36679  1.0000
  C   C2804     1.0  0.86150  0.05827  0.32934  1.0000
  H   H2232     1.0  0.83665  0.11872  0.36351  1.0000
  H   H2233     1.0  0.84254  0.21818  0.49619  1.0000
  H   H2234     1.0  0.67744  0.11023  0.51997  1.0000
  C   C2805     1.0  0.79023  0.18585  0.52352  1.0000
  C   C2806     1.0  0.80165  0.17645  0.53684  1.0000
  C   C2807     1.0  0.81642  0.18543  0.54321  1.0000
  C   C2808     1.0  0.81989  0.20402  0.53663  1.0000
  C   C2809     1.0  0.80816  0.21357  0.52364  1.0000
  C   C2810     1.0  0.79360  0.20448  0.51702  1.0000
  H   H2235     1.0  0.79939  0.16211  0.54193  1.0000
  H   H2236     1.0  0.82533  0.17784  0.55325  1.0000
  H   H2237     1.0  0.81042  0.22788  0.51855  1.0000
  H   H2238     1.0  0.78492  0.21192  0.50672  1.0000
  C   C2811     1.0  0.75748  0.06645  0.57342  1.0000
  C   C2812     1.0  0.76899  0.04975  0.57789  1.0000
  C   C2813     1.0  0.76224  0.03582  0.59121  1.0000
  C   C2814     1.0  0.74401  0.03862  0.60048  1.0000
  C   C2815     1.0  0.73243  0.05523  0.59590  1.0000
  C   C2816     1.0  0.73904  0.06902  0.58231  1.0000
  H   H2239     1.0  0.78329  0.04762  0.57115  1.0000
  H   H2240     1.0  0.77131  0.02312  0.59458  1.0000
  H   H2241     1.0  0.71835  0.05750  0.60305  1.0000
  H   H2242     1.0  0.73012  0.08185  0.57908  1.0000
  C   C2817     1.0  0.66966  0.16492  0.55400  1.0000
  C   C2818     1.0  0.66949  0.17566  0.53686  1.0000
  C   C2819     1.0  0.65310  0.18754  0.53253  1.0000
  C   C2820     1.0  0.63655  0.18860  0.54507  1.0000
  C   C2821     1.0  0.63664  0.17772  0.56217  1.0000
  C   C2822     1.0  0.65316  0.16609  0.56665  1.0000
  H   H2243     1.0  0.68206  0.17493  0.52705  1.0000
  H   H2244     1.0  0.65320  0.19591  0.51930  1.0000
  H   H2245     1.0  0.62405  0.17842  0.57197  1.0000
  H   H2246     1.0  0.65319  0.15800  0.58003  1.0000
  C   C2823     1.0  0.53682  0.19201  0.64363  1.0000
  C   C2824     1.0  0.54636  0.17624  0.63526  1.0000
  C   C2825     1.0  0.54894  0.15916  0.64640  1.0000
  H   H2247     1.0  0.53458  0.20520  0.63528  1.0000
  H   H2248     1.0  0.91242  0.20789  0.40931  1.0000
  H   H2249     1.0  0.73658  0.02467  0.49296  1.0000
  C   C2826     1.0  0.75441  0.08102  0.42941  1.0000
  C   C2827     1.0  0.76321  0.09285  0.43994  1.0000
  C   C2828     1.0  0.75381  0.10001  0.45649  1.0000
  C   C2829     1.0  0.73547  0.09536  0.46277  1.0000
  C   C2830     1.0  0.72675  0.08336  0.45235  1.0000
  C   C2831     1.0  0.73616  0.07618  0.43579  1.0000
  H   H2250     1.0  0.77730  0.09671  0.43512  1.0000
  H   H2251     1.0  0.76065  0.10931  0.46427  1.0000
  H   H2252     1.0  0.71253  0.07975  0.45698  1.0000
  H   H2253     1.0  0.72917  0.06719  0.42780  1.0000
  C   C2832     1.0  0.84840  0.05832  0.34537  1.0000
  C   C2833     1.0  0.82987  0.05311  0.34475  1.0000
  C   C2834     1.0  0.97268  0.22619  0.50701  1.0000
  C   C2835     1.0  0.60579  0.07540  0.50717  1.0000
  H   H2254     1.0  0.85255  0.06254  0.35836  1.0000
  H   H2255     1.0  0.81996  0.05322  0.35718  1.0000
  C   C2836     1.0  0.52871  0.24477  0.48102  1.0000
  C   C2837     1.0  0.65716  0.22867  0.55911  1.0000
  C   C2838     1.0  0.71028  0.02580  0.47999  1.0000
  C   C2839     1.0  0.76723  0.20244  0.56612  1.0000
  C   C2840     1.0  0.65095  0.12839  0.52300  1.0000
  C   C2841     1.0  0.71872  0.05002  0.49874  1.0000
  H   H2256     1.0  0.77062  0.23153  0.56933  1.0000
  C   C2842     1.0  0.86612  0.23982  0.45800  1.0000
  C   C2843     1.0  0.85747  0.06152  0.40007  1.0000
  C   C2844     1.0  0.96262  0.16825  0.35056  1.0000
  C   C2845     1.0  0.96224  0.14891  0.34779  1.0000
  S   S389      1.0  0.88475  0.06477  0.33120  1.0000
  H   H2257     1.0  0.77631  0.01367  0.48932  1.0000
  H   H2258     1.0  0.96951  0.17239  0.36215  1.0000
  H   H2259     1.0  0.96888  0.13836  0.35736  1.0000
  C   C2846     1.0  0.62688  0.12822  0.57387  1.0000
  H   H2260     1.0  0.90796  0.14995  0.33825  1.0000
  H   H2261     1.0  0.55688  0.20979  0.45977  1.0000
  H   H2262     1.0  0.93801  0.15438  0.59658  1.0000
  H   H2263     1.0  0.70359  0.19788  0.57001  1.0000
  H   H2264     1.0  0.93405  0.20582  0.61954  1.0000
  H   H2265     1.0  0.74508  0.19132  0.48382  1.0000
  C   C2847     1.0  0.83420  0.00191  0.33447  1.0000
  C   C2848     1.0  0.86915  0.12605  0.33568  1.0000
  C   C2849     1.0  0.49843  0.21577  0.42603  1.0000
  C   C2850     1.0  0.80999  0.99996  0.57401  1.0000
  H   H2266     1.0  0.86561  0.17462  0.40732  1.0000
  C   C2851     1.0  0.73149  0.19665  0.49067  1.0000
  S   S390      1.0  0.95396  0.11839  0.32987  1.0000
  H   H2267     1.0  0.71752  0.02992  0.57010  1.0000
  C   C2852     1.0  0.69123  0.22100  0.55221  1.0000
  Fe  Fe196     1.0  0.85225  0.24282  0.54231  1.0000
  C   C2853     1.0  0.74075  0.00573  0.45682  1.0000
  C   C2854     1.0  0.84984  0.03131  0.39093  1.0000
  C   C2855     1.0  0.62239  0.12566  0.55569  1.0000
  H   H2268     1.0  0.92122  0.22642  0.46676  1.0000
  C   C2856     1.0  0.77082  0.06120  0.49152  1.0000
  H   H2269     1.0  0.69842  0.07441  0.50152  1.0000
  H   H2270     1.0  0.83353  0.08187  0.40651  1.0000
  C   C2857     1.0  0.83811  0.06776  0.40231  1.0000
  C   C2858     1.0  0.74640  0.02329  0.44926  1.0000
  Fe  Fe197     1.0  0.56445  0.24315  0.57652  1.0000
  H   H2271     1.0  0.87689  0.23735  0.44654  1.0000
  H   H2272     1.0  0.93982  0.18554  0.56402  1.0000
  C   C2859     1.0  0.96731  0.18223  0.61990  1.0000
  H   H2273     1.0  0.89724  0.09427  0.36125  1.0000
  C   C2860     1.0  0.89251  0.10747  0.35383  1.0000
  H   H2274     1.0  0.97227  0.11131  0.56687  1.0000
  C   C2861     1.0  0.68264  0.05719  0.65073  1.0000
  H   H2275     1.0  0.99544  0.16306  0.57410  1.0000
  H   H2276     1.0  0.50484  0.18659  0.48378  1.0000
  C   C2862     1.0  0.67693  0.07586  0.62161  1.0000
  S   S391      1.0  0.51879  0.22750  0.53260  1.0000
  C   C2863     1.0  0.90188  0.20929  0.58722  1.0000
  C   C2864     1.0  0.51093  0.20388  0.50538  1.0000
  C   C2865     1.0  0.75407  0.00414  0.54650  1.0000
  H   H2277     1.0  0.71690  0.01880  0.42878  1.0000
  C   C2866     1.0  0.77442  0.02702  0.49566  1.0000
  C   C2867     1.0  0.90959  0.21106  0.60407  1.0000
  H   H2278     1.0  0.76955  0.07406  0.48246  1.0000
  C   C2868     1.0  0.69090  0.20691  0.56703  1.0000
  C   C2869     1.0  0.87499  0.10942  0.34618  1.0000
  C   C2870     1.0  0.86334  0.04330  0.39458  1.0000
  H   H2279     1.0  0.98667  0.21902  0.50361  1.0000
  H   H2280     1.0  0.68283  0.03171  0.46882  1.0000
  S   S392      1.0  0.88257  0.24385  0.52980  1.0000
  Fe  Fe198     1.0  0.99517  0.23513  0.38774  1.0000
  C   C2871     1.0  0.53523  0.22830  0.44669  1.0000
  C   C2872     1.0  0.83015  0.11326  0.33574  1.0000
  C   C2873     1.0  0.58876  0.20351  0.63346  1.0000
  C   C2874     1.0  0.70470  0.01092  0.43242  1.0000
  C   C2875     1.0  0.71352  0.21262  0.51638  1.0000
  H   H2281     1.0  0.76936  0.07581  0.51676  1.0000
  C   C2876     1.0  0.97518  0.22611  0.45641  1.0000
  H   H2282     1.0  0.96839  0.07629  0.34521  1.0000
  C   C2877     1.0  0.95347  0.13171  0.58195  1.0000
  H   H2283     1.0  0.79063  0.08446  0.36210  1.0000
  C   C2878     1.0  0.61521  0.22160  0.63615  1.0000
  H   H2284     1.0  0.53811  0.22198  0.43338  1.0000
  C   C2879     1.0  0.82426  0.02115  0.54996  1.0000
  H   H2285     1.0  0.81983  0.02843  0.39155  1.0000
  H   H2286     1.0  0.67589  0.16136  0.48449  1.0000
  C   C2880     1.0  0.50563  0.22039  0.51467  1.0000
  H   H2287     1.0  0.91164  0.03008  0.34293  1.0000
  C   C2881     1.0  0.67860  0.13532  0.50170  1.0000
  C   C2882     1.0  0.80365  0.09431  0.33518  1.0000
  C   C2883     1.0  0.86026  0.22498  0.47060  1.0000
  P   P95       1.0  0.87070  0.20097  0.46830  1.0000
  C   C2884     1.0  0.89114  0.19709  0.48174  1.0000
  C   C2885     1.0  0.85303  0.18541  0.47787  1.0000
  C   C2886     1.0  0.85778  0.16989  0.49041  1.0000
  C   C2887     1.0  0.84373  0.15863  0.49860  1.0000
  C   C2888     1.0  0.82491  0.16273  0.49429  1.0000
  C   C2889     1.0  0.82011  0.17804  0.48173  1.0000
  C   C2890     1.0  0.83409  0.18933  0.47351  1.0000
  C   C2891     1.0  0.89040  0.20451  0.49932  1.0000
  C   C2892     1.0  0.90622  0.20170  0.50973  1.0000
  C   C2893     1.0  0.92288  0.19146  0.50269  1.0000
  C   C2894     1.0  0.92360  0.18367  0.48539  1.0000
  C   C2895     1.0  0.90773  0.18625  0.47505  1.0000
  C   C2896     1.0  0.87779  0.19715  0.44386  1.0000
  C   C2897     1.0  0.72241  0.99962  0.57269  1.0000
  S   S393      1.0  0.96310  0.24828  0.63659  1.0000
  H   H2288     1.0  0.87838  0.03870  0.39314  1.0000
  C   C2898     1.0  0.89401  0.20486  0.43482  1.0000
  S   S394      1.0  0.98991  0.24107  0.35736  1.0000
  H   H2289     1.0  0.87219  0.16663  0.49418  1.0000
  H   H2290     1.0  0.84731  0.14694  0.50860  1.0000
  H   H2291     1.0  0.81391  0.15431  0.50097  1.0000
  H   H2292     1.0  0.80538  0.18140  0.47882  1.0000
  H   H2293     1.0  0.83005  0.20138  0.46408  1.0000
  H   H2294     1.0  0.87760  0.21243  0.50506  1.0000
  H   H2295     1.0  0.90552  0.20755  0.52323  1.0000
  H   H2296     1.0  0.93518  0.18950  0.51066  1.0000
  H   H2297     1.0  0.93648  0.17566  0.47993  1.0000
  H   H2298     1.0  0.90853  0.17982  0.46184  1.0000
  C   C2899     1.0  0.62688  0.20972  0.62432  1.0000
  H   H2299     1.0  0.90228  0.21318  0.44229  1.0000
  S   S395      1.0  0.93488  0.23479  0.42847  1.0000
  C   C2900     1.0  0.70149  0.06066  0.49589  1.0000
  C   C2901     1.0  0.97974  0.21229  0.44358  1.0000
  C   C2902     1.0  0.97557  0.21219  0.56843  1.0000
  C   C2903     1.0  0.97101  0.19824  0.62852  1.0000
  C   C2904     1.0  0.59601  0.21852  0.64094  1.0000
  H   H2300     1.0  0.66867  0.07922  0.60967  1.0000
  C   C2905     1.0  0.90429  0.12216  0.35111  1.0000
  C   C2906     1.0  0.54601  0.22149  0.46152  1.0000
  H   H2301     1.0  0.84491  0.15831  0.34869  1.0000
  H   H2302     1.0  0.74483  0.03409  0.54719  1.0000
  H   H2303     1.0  0.64159  0.21232  0.62053  1.0000
  C   C2907     1.0  0.81346  0.10146  0.36489  1.0000
  C   C2908     1.0  0.83709  0.16310  0.33672  1.0000
  P   P96       1.0  0.71298  0.22472  0.53761  1.0000
  H   H2304     1.0  0.56664  0.24244  0.61985  1.0000
  C   C2909     1.0  0.69288  0.03650  0.47733  1.0000
  H   H2305     1.0  0.71573  0.08872  0.63977  1.0000
  P   P97       1.0  0.85706  0.00771  0.38376  1.0000
  C   C2910     1.0  0.87350  0.18312  0.41501  1.0000
  H   H2306     1.0  0.74433  0.20864  0.51208  1.0000
  C   C2911     1.0  0.67400  0.01810  0.65493  1.0000
  Fe  Fe199     1.0  0.95293  0.24160  0.40100  1.0000
  C   C2912     1.0  0.99558  0.06317  0.35275  1.0000
  C   C2913     1.0  0.95135  0.14961  0.58891  1.0000
  C   C2914     1.0  0.50048  0.19936  0.49082  1.0000
  C   C2915     1.0  0.55724  0.23794  0.64937  1.0000
  H   H2307     1.0  0.76783  0.03791  0.43229  1.0000
  H   H2308     1.0  0.99006  0.05812  0.36664  1.0000
  C   C2916     1.0  0.98057  0.19901  0.58313  1.0000
  C   C2917     1.0  0.72308  0.03264  0.49088  1.0000
  C   C2918     1.0  0.92834  0.20385  0.60651  1.0000
  H   H2309     1.0  0.86639  0.09762  0.34784  1.0000
  C   C2919     1.0  0.82767  0.11180  0.35544  1.0000
  H   H2310     1.0  0.96442  0.15220  0.62426  1.0000
  H   H2311     1.0  0.96035  0.23005  0.46082  1.0000
  C   C2920     1.0  0.69265  0.08567  0.62330  1.0000
  C   C2921     1.0  0.91681  0.24113  0.46327  1.0000
  P   P98       1.0  0.77551  0.00669  0.53091  1.0000
  H   H2312     1.0  0.96513  0.20530  0.52910  1.0000
  H   H2313     1.0  0.91812  0.12046  0.35659  1.0000
  H   H2314     1.0  0.64367  0.21197  0.58184  1.0000
  H   H2315     1.0  0.69551  0.01577  0.40458  1.0000
  H   H2316     1.0  0.64392  0.23656  0.55565  1.0000
  C   C2922     1.0  0.52071  0.24306  0.44912  1.0000
  C   C2923     1.0  0.55458  0.24238  0.63037  1.0000
  H   H2317     1.0  0.81158  0.10026  0.38007  1.0000
  H   H2318     1.0  0.50365  0.21195  0.43961  1.0000
  C   C2924     1.0  0.96692  0.24332  0.49721  1.0000
  H   H2319     1.0  0.90118  0.21848  0.61509  1.0000
  C   C2925     1.0  0.59972  0.07874  0.52582  1.0000
  C   C2926     1.0  0.60970  0.09000  0.53565  1.0000
  C   C2927     1.0  0.62569  0.09822  0.52678  1.0000
  P   P99       1.0  0.63889  0.11224  0.53970  1.0000
  C   C2928     1.0  0.65621  0.09697  0.55211  1.0000
  C   C2929     1.0  0.67097  0.10478  0.55942  1.0000
  C   C2930     1.0  0.68502  0.09322  0.56829  1.0000
  C   C2931     1.0  0.68448  0.07366  0.56989  1.0000
  C   C2932     1.0  0.66972  0.06570  0.56281  1.0000
  C   C2933     1.0  0.65561  0.07729  0.55395  1.0000
  C   C2934     1.0  0.65022  0.15717  0.50237  1.0000
  C   C2935     1.0  0.64133  0.14545  0.51636  1.0000
  H   H2320     1.0  0.58725  0.07262  0.53266  1.0000
  H   H2321     1.0  0.60491  0.09232  0.55015  1.0000
  H   H2322     1.0  0.67170  0.11986  0.55795  1.0000
  H   H2323     1.0  0.69652  0.09951  0.57355  1.0000
  H   H2324     1.0  0.69557  0.06470  0.57650  1.0000
  H   H2325     1.0  0.66934  0.05051  0.56400  1.0000
  H   H2326     1.0  0.64446  0.07080  0.54838  1.0000
  H   H2327     1.0  0.64272  0.17038  0.49751  1.0000
  H   H2328     1.0  0.62702  0.14991  0.52191  1.0000
  H   H2329     1.0  0.97039  0.15009  0.65761  1.0000
  C   C2936     1.0  0.54272  0.22970  0.47869  1.0000
  C   C2937     1.0  0.82760  0.18128  0.33588  1.0000
  C   C2938     1.0  0.98565  0.13662  0.56943  1.0000
  C   C2939     1.0  0.60476  0.13367  0.54997  1.0000
  C   C2940     1.0  0.96637  0.16119  0.58613  1.0000
  C   C2941     1.0  0.62191  0.08322  0.49837  1.0000
  C   C2942     1.0  0.63191  0.09451  0.50815  1.0000
  H   H2330     1.0  0.76052  0.17488  0.56057  1.0000
  C   C2943     1.0  0.96051  0.21836  0.52140  1.0000
  C   C2944     1.0  0.66968  0.12339  0.51545  1.0000
  C   C2945     1.0  0.66889  0.15217  0.49513  1.0000
  C   C2946     1.0  0.65701  0.21477  0.57393  1.0000
  C   C2947     1.0  0.68545  0.99867  0.62908  1.0000
  H   H2331     1.0  0.83543  0.03008  0.54503  1.0000
  H   H2332     1.0  0.71558  0.99918  0.50998  1.0000
  H   H2333     1.0  0.60093  0.13201  0.53602  1.0000
  H   H2334     1.0  0.62853  0.18545  0.60800  1.0000
  C   C2948     1.0  0.82459  0.05574  0.39924  1.0000
  S   S396      1.0  0.95494  0.20686  0.34056  1.0000
  C   C2949     1.0  0.86758  0.18620  0.43378  1.0000
  H   H2335     1.0  0.90680  0.19888  0.55978  1.0000
  C   C2950     1.0  0.77353  0.02790  0.51523  1.0000
  C   C2951     1.0  0.75596  0.18985  0.55972  1.0000
  C   C2952     1.0  0.52297  0.24306  0.65696  1.0000
  H   H2336     1.0  0.58669  0.15497  0.58946  1.0000
  C   C2953     1.0  0.70336  0.08131  0.63865  1.0000
  H   H2337     1.0  0.69668  0.09652  0.61262  1.0000
  H   H2338     1.0  0.96847  0.20590  0.43802  1.0000
  C   C2954     1.0  0.59199  0.14417  0.56212  1.0000
  C   C2955     1.0  0.59660  0.14668  0.58013  1.0000
  H   H2339     1.0  0.62665  0.08060  0.48392  1.0000
  H   H2340     1.0  0.64442  0.10035  0.50109  1.0000
  H   H2341     1.0  0.57854  0.15056  0.55754  1.0000
  H   H2342     1.0  0.61762  0.14081  0.59994  1.0000
  C   C2956     1.0  0.84685  0.22917  0.48581  1.0000
  C   C2957     1.0  0.97039  0.16355  0.64948  1.0000
  H   H2343     1.0  0.85640  0.01173  0.42429  1.0000
  C   C2958     1.0  0.80959  0.01953  0.53872  1.0000
  C   C2959     1.0  0.68853  0.05387  0.48528  1.0000
  C   C2960     1.0  0.73933  0.19657  0.55143  1.0000
  H   H2344     1.0  0.68395  0.19700  0.48764  1.0000
  C   C2961     1.0  0.96705  0.16483  0.63051  1.0000
  C   C2962     1.0  0.98358  0.15454  0.57636  1.0000
  C   C2963     1.0  0.89987  0.20180  0.41608  1.0000
  H   H2345     1.0  0.73108  0.18658  0.54605  1.0000
  H   H2346     1.0  0.68289  0.21404  0.51610  1.0000
  C   C2964     1.0  0.69711  0.19972  0.49291  1.0000
  C   C2965     1.0  0.76171  0.22180  0.56454  1.0000
  C   C2966     1.0  0.67386  0.20390  0.57789  1.0000
  C   C2967     1.0  0.60055  0.19142  0.62197  1.0000
  C   C2968     1.0  0.88810  0.02025  0.36100  1.0000
  C   C2969     1.0  0.88963  0.19092  0.40616  1.0000
  H   H2347     1.0  0.89428  0.18852  0.39164  1.0000
  H   H2348     1.0  0.57393  0.20120  0.63638  1.0000
  H   H2349     1.0  0.71500  0.18542  0.47136  1.0000
  C   C2970     1.0  0.91283  0.20006  0.57285  1.0000
  H   H2350     1.0  0.74120  0.24367  0.55514  1.0000
  C   C2971     1.0  0.97061  0.12521  0.57221  1.0000
  C   C2972     1.0  0.80151  0.09266  0.35477  1.0000
  H   H2351     1.0  0.69307  0.13146  0.49606  1.0000
  Fe  Fe200     1.0  0.99552  0.24504  0.63636  1.0000
  H   H2352     1.0  0.67362  0.19259  0.58889  1.0000
  H   H2353     1.0  0.85513  0.17991  0.44033  1.0000
  H   H2354     1.0  0.77343  0.04303  0.46887  1.0000
  H   H2355     1.0  0.67532  0.06232  0.48282  1.0000
  C   C2973     1.0  0.73380  0.21604  0.54953  1.0000
  C   C2974     1.0  0.97389  0.17961  0.65797  1.0000
  C   C2975     1.0  0.97423  0.19694  0.64748  1.0000
  C   C2976     1.0  0.67198  0.06161  0.63521  1.0000
  C   C2977     1.0  0.93151  0.19263  0.57530  1.0000
  H   H2356     1.0  0.55625  0.14684  0.64012  1.0000
  H   H2357     1.0  0.67188  0.05685  0.32857  1.0000
  C   C2978     1.0  0.77292  0.04364  0.48391  1.0000
  C   C2979     1.0  0.77063  0.06220  0.51084  1.0000
  C   C2980     1.0  0.95346  0.14311  0.33276  1.0000
  C   C2981     1.0  0.52049  0.24754  0.63804  1.0000
  H   H2358     1.0  0.65992  0.05394  0.63360  1.0000
  C   C2982     1.0  0.74501  0.22861  0.55638  1.0000
  C   C2983     1.0  0.82442  0.01141  0.56762  1.0000
  C   C2984     1.0  0.95435  0.18216  0.33821  1.0000
  C   C2985     1.0  0.69657  0.20940  0.50914  1.0000
  H   H2359     1.0  0.97138  0.21179  0.62058  1.0000
  C   C2986     1.0  0.98908  0.22345  0.55912  1.0000
  C   C2987     1.0  0.73100  0.20634  0.50687  1.0000
  H   H2360     1.0  0.87876  0.03273  0.35757  1.0000
  C   C2988     1.0  0.93943  0.19446  0.59217  1.0000
  C   C2989     1.0  0.76389  0.02439  0.43861  1.0000
  H   H2361     1.0  0.88751  0.21534  0.58518  1.0000
  H   H2362     1.0  0.55079  0.22428  0.49036  1.0000
  C   C2990     1.0  0.68624  0.01475  0.63869  1.0000
  H   H2363     1.0  0.52319  0.19468  0.50930  1.0000
  H   H2364     1.0  0.80953  0.06050  0.40104  1.0000
  C   C2991     1.0  0.53628  0.24739  0.62483  1.0000
  C   C2992     1.0  0.67672  0.99903  0.42278  1.0000
  H   H2365     1.0  0.93313  0.22178  0.53740  1.0000
  C   C2993     1.0  0.61957  0.19458  0.61729  1.0000
  C   C2994     1.0  0.98335  0.07331  0.34066  1.0000
  P   P100      1.0  0.96341  0.18423  0.59530  1.0000
  H   H2366     1.0  0.59473  0.17989  0.61627  1.0000
  H   H2367     1.0  0.96114  0.21431  0.56452  1.0000
  P   P101      1.0  0.58096  0.23331  0.65687  1.0000
  C   C2995     1.0  0.74202  0.01993  0.55221  1.0000
  H   H2368     1.0  0.69671  0.02440  0.63359  1.0000
  C   C2996     1.0  0.71456  0.19327  0.48371  1.0000
  H   H2369     1.0  0.72890  0.05554  0.50665  1.0000
  H   H2370     1.0  0.94183  0.12285  0.58418  1.0000
  S   S397      1.0  0.53857  0.22669  0.58103  1.0000
  C   C2997     1.0  0.70118  0.00228  0.45053  1.0000
  C   C2998     1.0  0.89857  0.13879  0.34069  1.0000
  C   C2999     1.0  0.93639  0.24414  0.51578  1.0000
  P   P102      1.0  0.71703  0.00426  0.46834  1.0000
  C   C3000     1.0  0.88116  0.14067  0.33281  1.0000
  C   C3001     1.0  0.69833  0.06721  0.65240  1.0000
  C   C3002     1.0  0.67419  0.23184  0.54833  1.0000
  H   H2371     1.0  0.62128  0.23319  0.64133  1.0000
  H   H2372     1.0  0.80982  0.02714  0.52506  1.0000
  H   H2373     1.0  0.72902  0.24617  0.50401  1.0000
  H   H2374     1.0  0.67393  0.24243  0.53666  1.0000
  H   H2375     1.0  0.93350  0.00151  0.35010  1.0000
  C   C3003     1.0  0.98958  0.23531  0.46287  1.0000
  C   C3004     1.0  0.90678  0.01875  0.35265  1.0000
  C   C3005     1.0  0.49886  0.23420  0.41770  1.0000
  H   H2376     1.0  0.97704  0.20943  0.65400  1.0000
  C   C3006     1.0  0.88146  0.00572  0.37349  1.0000
  H   H2377     1.0  0.52733  0.24672  0.39188  1.0000
  H   H2378     1.0  0.85964  0.01140  0.34225  1.0000
  H   H2379     1.0  0.90139  0.24511  0.49036  1.0000
  C   C3007     1.0  0.83906  0.24772  0.48800  1.0000
  C   C3008     1.0  0.82404  0.04815  0.32795  1.0000
  C   C3009     1.0  0.66054  0.00528  0.66102  1.0000
  Fe  Fe201     1.0  0.52268  0.14890  0.72138  1.0000
  S   S398      1.0  0.54177  0.14922  0.74463  1.0000
  S   S399      1.0  0.52379  0.17297  0.69815  1.0000
  H   H2380     1.0  0.51485  0.23473  0.95150  1.0000
  S   S400      1.0  0.51892  0.11507  0.76672  1.0000
  Fe  Fe202     1.0  0.51547  0.14690  0.76436  1.0000
  H   H2381     1.0  0.96293  0.06715  0.82716  1.0000
  Fe  Fe203     1.0  0.54383  0.11737  0.74528  1.0000
  S   S401      1.0  0.57236  0.09959  0.74676  1.0000
  S   S402      1.0  0.52671  0.11722  0.72055  1.0000
  H   H2382     1.0  0.54421  0.14456  0.67390  1.0000
  H   H2383     1.0  0.65095  0.00729  0.67345  1.0000
  H   H2384     1.0  0.92412  0.23121  0.97119  1.0000
  H   H2385     1.0  0.57730  0.12512  0.77794  1.0000
  C   C3010     1.0  0.72542  0.02039  0.70531  1.0000
  S   S403      1.0  0.58197  0.01543  0.78449  1.0000
  C   C3011     1.0  0.54212  0.15781  0.66559  1.0000
  H   H2386     1.0  0.94567  0.09785  0.81749  1.0000
  C   C3012     1.0  0.57463  0.20158  0.68124  1.0000
  H   H2387     1.0  0.97547  0.00277  0.80478  1.0000
  H   H2388     1.0  0.57413  0.19399  0.66892  1.0000
  H   H2389     1.0  0.93963  0.06550  0.70468  1.0000
  C   C3013     1.0  0.62042  0.05517  0.70415  1.0000
  C   C3014     1.0  0.67246  0.10412  0.99222  1.0000
  C   C3015     1.0  0.60573  0.24173  0.94929  1.0000
  H   H2390     1.0  0.53741  0.14980  0.82757  1.0000
  H   H2391     1.0  0.57227  0.19056  0.87221  1.0000
  H   H2392     1.0  0.96957  0.02219  0.69910  1.0000
  C   C3016     1.0  0.63601  0.06403  0.98324  1.0000
  C   C3017     1.0  0.59704  0.11982  0.81928  1.0000
  C   C3018     1.0  0.69066  0.05504  0.97064  1.0000
  C   C3019     1.0  0.51777  0.18088  0.79977  1.0000
  H   H2393     1.0  0.73677  0.01567  0.71414  1.0000
  H   H2394     1.0  0.55662  0.17526  0.81975  1.0000
  C   C3020     1.0  0.53226  0.21209  0.81378  1.0000
  C   C3021     1.0  0.53953  0.20546  0.79630  1.0000
  C   C3022     1.0  0.53245  0.18985  0.78939  1.0000
  H   H2395     1.0  0.55067  0.21247  0.78802  1.0000
  H   H2396     1.0  0.53804  0.18502  0.77586  1.0000
  C   C3023     1.0  0.57480  0.07621  0.75731  1.0000
  C   C3024     1.0  0.59202  0.06486  0.75391  1.0000
  C   C3025     1.0  0.59441  0.04614  0.76188  1.0000
  C   C3026     1.0  0.57973  0.03877  0.77380  1.0000
  C   C3027     1.0  0.56265  0.05027  0.77750  1.0000
  C   C3028     1.0  0.56009  0.06880  0.76912  1.0000
  H   H2397     1.0  0.60357  0.07058  0.74502  1.0000
  H   H2398     1.0  0.60768  0.03752  0.75905  1.0000
  H   H2399     1.0  0.55120  0.04467  0.78662  1.0000
  H   H2400     1.0  0.54671  0.07730  0.77166  1.0000
  C   C3029     1.0  0.53256  0.17358  0.67394  1.0000
  C   C3030     1.0  0.68862  0.06415  0.98745  1.0000
  H   H2401     1.0  0.72887  0.99958  0.77843  1.0000
  H   H2402     1.0  0.76499  0.03379  0.84191  1.0000
  H   H2403     1.0  0.50930  0.10284  0.81529  1.0000
  H   H2404     1.0  0.58542  0.13956  0.74647  1.0000
  C   C3031     1.0  0.50531  0.04388  0.73855  1.0000
  H   H2405     1.0  0.95743  0.01513  0.73930  1.0000
  C   C3032     1.0  0.59430  0.10450  0.83250  1.0000
  C   C3033     1.0  0.50820  0.22121  0.76382  1.0000
  H   H2406     1.0  0.91551  0.00721  0.79828  1.0000
  C   C3034     1.0  0.93473  0.00070  0.75381  1.0000
  C   C3035     1.0  0.59154  0.16589  0.75620  1.0000
  C   C3036     1.0  0.59261  0.17598  0.77187  1.0000
  C   C3037     1.0  0.94421  0.20732  0.97735  1.0000
  H   H2407     1.0  0.88843  0.00290  0.84824  1.0000
  C   C3038     1.0  0.95353  0.19641  0.99134  1.0000
  C   C3039     1.0  0.94949  0.08727  0.80742  1.0000
  C   C3040     1.0  0.95922  0.06997  0.81286  1.0000
  H   H2408     1.0  0.70728  0.03348  0.72734  1.0000
  C   C3041     1.0  0.58609  0.15051  0.84965  1.0000
  H   H2409     1.0  0.65713  0.02080  0.70213  1.0000
  C   C3042     1.0  0.94837  0.01365  0.75225  1.0000
  H   H2410     1.0  0.91821  0.02430  0.92657  1.0000
  C   C3043     1.0  0.72016  0.03798  0.97940  1.0000
  C   C3044     1.0  0.60914  0.09039  0.83534  1.0000
  C   C3045     1.0  0.51810  0.20267  0.82444  1.0000
  H   H2411     1.0  0.52229  0.22352  0.75736  1.0000
  C   C3046     1.0  0.67941  0.14228  0.99018  1.0000
  H   H2412     1.0  0.73194  0.02734  0.97669  1.0000
  C   C3047     1.0  0.62688  0.09161  0.82522  1.0000
  C   C3048     1.0  0.76310  0.00411  0.83984  1.0000
  H   H2413     1.0  0.61743  0.07970  0.68481  1.0000
  H   H2414     1.0  0.68153  0.04434  0.70738  1.0000
  C   C3049     1.0  0.95134  0.05554  0.73064  1.0000
  C   C3050     1.0  0.51093  0.18718  0.81746  1.0000
  H   H2415     1.0  0.52255  0.20289  0.66907  1.0000
  C   C3051     1.0  0.54456  0.22496  0.95065  1.0000
  C   C3052     1.0  0.72751  0.01661  0.68642  1.0000
  H   H2416     1.0  0.50019  0.05542  0.83271  1.0000
  C   C3053     1.0  0.70879  0.03038  0.71273  1.0000
  C   C3054     1.0  0.65440  0.04506  0.68206  1.0000
  H   H2417     1.0  0.55206  0.05078  0.73801  1.0000
  C   C3055     1.0  0.61502  0.12114  0.80944  1.0000
  H   H2418     1.0  0.56576  0.19473  0.72857  1.0000
  S   S404      1.0  0.53613  0.22973  0.87867  1.0000
  H   H2419     1.0  0.56966  0.10151  0.80335  1.0000
  C   C3056     1.0  0.96813  0.07317  0.70509  1.0000
  C   C3057     1.0  0.95993  0.06014  0.78115  1.0000
  H   H2420     1.0  0.55435  0.19787  0.84431  1.0000
  C   C3058     1.0  0.64972  0.08722  0.96082  1.0000
  C   C3059     1.0  0.53847  0.13581  0.82268  1.0000
  H   H2421     1.0  0.64717  0.07114  0.66547  1.0000
  H   H2422     1.0  0.59259  0.16028  0.87571  1.0000
  C   C3060     1.0  0.69574  0.03190  0.68250  1.0000
  C   C3061     1.0  0.55780  0.21993  0.98068  1.0000
  H   H2423     1.0  0.93726  0.10439  0.78474  1.0000
  C   C3062     1.0  0.68723  0.02128  0.76437  1.0000
  H   H2424     1.0  0.97651  0.17862  0.67265  1.0000
  C   C3063     1.0  0.63631  0.08471  0.94845  1.0000
  H   H2425     1.0  0.99583  0.06239  0.74094  1.0000
  C   C3064     1.0  0.92468  0.00911  0.78543  1.0000
  C   C3065     1.0  0.88370  0.02882  0.99201  1.0000
  C   C3066     1.0  0.52675  0.23040  0.95974  1.0000
  H   H2426     1.0  0.55322  0.01797  0.75240  1.0000
  H   H2427     1.0  0.57402  0.21623  0.95403  1.0000
  H   H2428     1.0  0.58064  0.10340  0.84049  1.0000
  H   H2429     1.0  0.59695  0.19016  0.77006  1.0000
  C   C3067     1.0  0.96730  0.05423  0.74097  1.0000
  C   C3068     1.0  0.57027  0.19231  0.69880  1.0000
  C   C3069     1.0  0.49890  0.20649  0.75845  1.0000
  C   C3070     1.0  0.71278  0.02233  0.67504  1.0000
  C   C3071     1.0  0.95030  0.01159  0.95851  1.0000
  C   C3072     1.0  0.98348  0.06287  0.73326  1.0000
  H   H2430     1.0  0.59510  0.13746  0.85149  1.0000
  H   H2431     1.0  0.58986  0.17560  0.80180  1.0000
  H   H2432     1.0  0.61761  0.13296  0.79941  1.0000
  C   C3073     1.0  0.55602  0.12672  0.81592  1.0000
  C   C3074     1.0  0.53982  0.02512  0.74839  1.0000
  H   H2433     1.0  0.93847  0.04948  0.73638  1.0000
  H   H2434     1.0  0.60730  0.05908  0.71263  1.0000
  H   H2435     1.0  0.51071  0.24303  0.66721  1.0000
  H   H2436     1.0  0.54648  0.22522  0.93546  1.0000
  C   C3075     1.0  0.91886  0.00341  0.97099  1.0000
  H   H2437     1.0  0.63654  0.09260  0.93491  1.0000
  C   C3076     1.0  0.57335  0.22082  0.71377  1.0000
  H   H2438     1.0  0.96791  0.05201  0.98763  1.0000
  H   H2439     1.0  0.50822  0.13466  0.82709  1.0000
  C   C3077     1.0  0.62277  0.07188  0.95346  1.0000
  C   C3078     1.0  0.95186  0.06481  0.71270  1.0000
  H   H2440     1.0  0.56665  0.17783  0.69969  1.0000
  H   H2441     1.0  0.63832  0.08058  0.82734  1.0000
  C   C3079     1.0  0.62984  0.10702  0.81235  1.0000
  C   C3080     1.0  0.50580  0.02513  0.74626  1.0000
  S   S405      1.0  0.50709  0.16214  0.79129  1.0000
  C   C3081     1.0  0.98376  0.99855  0.81657  1.0000
  C   C3082     1.0  0.58830  0.16770  0.78993  1.0000
  C   C3083     1.0  0.99610  0.01331  0.76377  1.0000
  C   C3084     1.0  0.56449  0.17174  0.83192  1.0000
  C   C3085     1.0  0.94999  0.02483  0.76711  1.0000
  H   H2442     1.0  0.94614  0.08063  0.76164  1.0000
  Fe  Fe204     1.0  0.53494  0.24499  0.85018  1.0000
  P   P103      1.0  0.96670  0.04259  0.76435  1.0000
  H   H2443     1.0  0.64294  0.11497  0.99069  1.0000
  H   H2444     1.0  0.66036  0.09696  0.95660  1.0000
  H   H2445     1.0  0.96856  0.08037  0.69120  1.0000
  C   C3086     1.0  0.54126  0.23849  0.66265  1.0000
  C   C3087     1.0  0.93815  0.02230  0.78383  1.0000
  C   C3088     1.0  0.93833  0.00350  0.97291  1.0000
  S   S406      1.0  0.58111  0.24266  0.90023  1.0000
  C   C3089     1.0  0.69099  0.10911  0.99288  1.0000
  H   H2446     1.0  0.50197  0.07598  0.77475  1.0000
  C   C3090     1.0  0.98388  0.07232  0.71543  1.0000
  H   H2447     1.0  0.97186  0.04309  0.80422  1.0000
  C   C3091     1.0  0.93128  0.22270  0.98205  1.0000
  C   C3092     1.0  0.98072  0.01306  0.70536  1.0000
  C   C3093     1.0  0.56964  0.20189  0.71505  1.0000
  H   H2448     1.0  0.59501  0.17219  0.74221  1.0000
  C   C3094     1.0  0.52173  0.12712  0.82261  1.0000
  C   C3095     1.0  0.55645  0.10875  0.80908  1.0000
  H   H2449     1.0  0.64361  0.10797  0.80453  1.0000
  H   H2450     1.0  0.60685  0.07843  0.84531  1.0000
  C   C3096     1.0  0.57751  0.23022  0.69619  1.0000
  H   H2451     1.0  0.91576  0.02229  0.84176  1.0000
  H   H2452     1.0  0.51550  0.05473  0.80010  1.0000
  H   H2453     1.0  0.66856  0.00900  0.74795  1.0000
  C   C3097     1.0  0.64305  0.06180  0.67744  1.0000
  C   C3098     1.0  0.77961  0.01676  0.86318  1.0000
  C   C3099     1.0  0.96633  0.06562  0.99355  1.0000
  H   H2454     1.0  0.94707  0.20391  0.96285  1.0000
  H   H2455     1.0  0.61248  0.06982  0.94382  1.0000
  C   C3100     1.0  0.58473  0.16343  0.86348  1.0000
  C   C3101     1.0  0.53002  0.19066  0.66281  1.0000
  C   C3102     1.0  0.94477  0.09096  0.78896  1.0000
  H   H2456     1.0  0.70755  0.03441  0.95407  1.0000
  C   C3103     1.0  0.58143  0.13937  0.77656  1.0000
  C   C3104     1.0  0.58613  0.14754  0.75858  1.0000
  C   C3105     1.0  0.71556  0.00138  0.77202  1.0000
  C   C3106     1.0  0.58238  0.14940  0.79242  1.0000
  C   C3107     1.0  0.56317  0.18460  0.84578  1.0000
  C   C3108     1.0  0.57328  0.18048  0.86154  1.0000
  C   C3109     1.0  0.57597  0.15456  0.83370  1.0000
  H   H2457     1.0  0.95244  0.02521  0.93066  1.0000
  P   P104      1.0  0.57779  0.13798  0.81562  1.0000
  C   C3110     1.0  0.62613  0.06677  0.68843  1.0000
  H   H2458     1.0  0.61827  0.23462  0.95510  1.0000
  H   H2459     1.0  0.50574  0.19743  0.74782  1.0000
  H   H2460     1.0  0.51254  0.20744  0.83801  1.0000
  C   C3111     1.0  0.53918  0.04366  0.74042  1.0000
  C   C3112     1.0  0.52190  0.05311  0.73572  1.0000
  S   S407      1.0  0.54139  0.23207  0.82168  1.0000
  C   C3113     1.0  0.64857  0.03361  0.69803  1.0000
  H   H2461     1.0  0.93905  0.03058  0.79558  1.0000
  C   C3114     1.0  0.69410  0.03634  0.70135  1.0000
  H   H2462     1.0  0.54013  0.08629  0.80376  1.0000
  C   C3115     1.0  0.63169  0.03862  0.70899  1.0000
  C   C3116     1.0  0.70425  0.01859  0.77290  1.0000
  H   H2463     1.0  0.67998  0.05754  0.96077  1.0000
  H   H2464     1.0  0.74054  0.00918  0.68055  1.0000
  H   H2465     1.0  0.57024  0.21677  0.98839  1.0000
  C   C3117     1.0  0.99797  0.02043  0.70798  1.0000
  H   H2466     1.0  0.93962  0.07448  0.98226  1.0000
  H   H2467     1.0  0.51083  0.23555  0.98618  1.0000
  C   C3118     1.0  0.70634  0.04194  0.96671  1.0000
  H   H2468     1.0  0.78405  0.02876  0.86934  1.0000
  C   C3119     1.0  0.94988  0.07743  0.77587  1.0000
  H   H2469     1.0  0.61190  0.24411  0.67678  1.0000
  H   H2470     1.0  0.96362  0.18453  0.98768  1.0000
  C   C3120     1.0  0.64951  0.07708  0.97842  1.0000
  C   C3121     1.0  0.96434  0.05642  0.79980  1.0000
  H   H2471     1.0  0.62739  0.02965  0.72128  1.0000
  H   H2472     1.0  0.96535  0.01151  0.96009  1.0000
  C   C3122     1.0  0.62266  0.06152  0.97082  1.0000
  C   C3123     1.0  0.56008  0.21981  0.96113  1.0000
  C   C3124     1.0  0.60183  0.23857  0.93097  1.0000
  C   C3125     1.0  0.49965  0.23252  0.77793  1.0000
  C   C3126     1.0  0.69442  0.12813  0.99183  1.0000
  C   C3127     1.0  0.53978  0.22466  0.98997  1.0000
  H   H2473     1.0  0.57245  0.22835  0.72636  1.0000
  H   H2474     1.0  0.68198  0.15704  0.98975  1.0000
  C   C3128     1.0  0.76887  0.01959  0.84773  1.0000
  C   C3129     1.0  0.50306  0.06448  0.80334  1.0000
  H   H2475     1.0  0.52130  0.06764  0.72986  1.0000
  H   H2476     1.0  0.61146  0.22896  0.92281  1.0000
  H   H2477     1.0  0.49987  0.18010  0.82576  1.0000
  H   H2478     1.0  0.67837  0.03455  0.76511  1.0000
  C   C3130     1.0  0.53969  0.10003  0.80923  1.0000
  C   C3131     1.0  0.91172  0.01082  0.95408  1.0000
  C   C3132     1.0  0.52233  0.10927  0.81587  1.0000
  Fe  Fe205     1.0  0.50128  0.11650  0.74216  1.0000
  C   C3133     1.0  0.94303  0.01924  0.94189  1.0000
  C   C3134     1.0  0.52445  0.23057  0.97931  1.0000
  C   C3135     1.0  0.99049  0.03207  0.76785  1.0000
  C   C3136     1.0  0.92376  0.01876  0.93962  1.0000
  C   C3137     1.0  0.52322  0.01586  0.75131  1.0000
  H   H2479     1.0  0.59128  0.00715  0.71019  1.0000
  H   H2480     1.0  0.54273  0.23523  0.67742  1.0000
  H   H2481     1.0  0.89688  0.01027  0.95201  1.0000
  H   H2482     1.0  0.70693  0.06402  0.66408  1.0000
  H   H2483     1.0  0.75472  0.00629  0.82791  1.0000
  H   H2484     1.0  0.94744  0.00758  0.83101  1.0000
  P   P105      1.0  0.67633  0.03835  0.66789  1.0000
  H   H2485     1.0  0.62492  0.00002  0.69799  1.0000
  H   H2486     1.0  0.50735  0.24356  0.78204  1.0000
  H   H2487     1.0  0.70868  0.02985  0.78020  1.0000
  H   H2488     1.0  0.52421  0.00148  0.75734  1.0000
  C   C3138     1.0  0.68164  0.00684  0.75477  1.0000
  C   C3139     1.0  0.93574  0.99890  0.83356  1.0000
  C   C3140     1.0  0.58548  0.24753  0.92323  1.0000
  C   C3141     1.0  0.57844  0.22062  0.67974  1.0000
  H   H2489     1.0  0.89108  0.03289  0.97866  1.0000
  H   H2490     1.0  0.86858  0.05645  0.99428  1.0000
  H   H2491     1.0  0.70866  0.13195  0.99271  1.0000
  H   H2492     1.0  0.61233  0.05138  0.97462  1.0000
  H   H2493     1.0  0.98633  0.00485  0.75847  1.0000
  C   C3142     1.0  0.91775  0.00733  0.83968  1.0000
  C   C3143     1.0  0.95050  0.07838  0.99036  1.0000
  H   H2494     1.0  0.99649  0.07895  0.70962  1.0000
  H   H2495     1.0  0.57924  0.24514  0.69548  1.0000
  C   C3144     1.0  0.65742  0.11846  0.99074  1.0000
  H   H2496     1.0  0.64926  0.14848  0.98902  1.0000
  C   C3145     1.0  0.66091  0.13745  0.98976  1.0000
  P   P106      1.0  0.66759  0.07964  0.99380  1.0000
  Fe  Fe206     1.0  0.95939  0.36518  0.26296  1.0000
  H   H2497     1.0  0.72323  0.27434  0.05320  1.0000
  S   S408      1.0  0.94417  0.34350  0.28266  1.0000
  Fe  Fe207     1.0  0.95713  0.40535  0.24352  1.0000
  S   S409      1.0  0.98472  0.39879  0.22568  1.0000
  S   S410      1.0  0.94470  0.43584  0.23705  1.0000
  Fe  Fe208     1.0  0.97337  0.37121  0.22131  1.0000
  S   S411      1.0  0.97835  0.35748  0.19311  1.0000
  C   C3146     1.0  0.97152  0.34558  0.02369  1.0000
  S   S412      1.0  0.94520  0.37853  0.23749  1.0000
  S   S413      1.0  0.96875  0.39271  0.27033  1.0000
  Fe  Fe209     1.0  0.77828  0.37698  0.05276  1.0000
  S   S414      1.0  0.74903  0.38001  0.06836  1.0000
  S   S415      1.0  0.80340  0.36973  0.07071  1.0000
  Fe  Fe210     1.0  0.76194  0.39017  0.01523  1.0000
  S   S416      1.0  0.73176  0.39346  0.02827  1.0000
  H   H2498     1.0  0.80343  0.44792  0.20783  1.0000
  Fe  Fe211     1.0  0.74405  0.40724  0.05093  1.0000
  S   S417      1.0  0.73017  0.43610  0.05889  1.0000
  Fe  Fe212     1.0  0.73906  0.36569  0.04460  1.0000
  S   S418      1.0  0.71931  0.34232  0.05435  1.0000
  S   S419      1.0  0.77384  0.40537  0.03693  1.0000
  S   S420      1.0  0.76870  0.36131  0.03004  1.0000
  Fe  Fe213     1.0  0.92674  0.27687  0.09867  1.0000
  S   S421      1.0  0.92804  0.28576  0.06782  1.0000
  Fe  Fe214     1.0  0.92692  0.31792  0.10957  1.0000
  S   S422      1.0  0.92829  0.32950  0.07923  1.0000
  S   S423      1.0  0.92230  0.33669  0.13458  1.0000
  Fe  Fe215     1.0  0.90608  0.30978  0.07605  1.0000
  S   S424      1.0  0.88135  0.31668  0.05741  1.0000
  Fe  Fe216     1.0  0.95004  0.30471  0.07306  1.0000
  S   S425      1.0  0.97989  0.30660  0.05736  1.0000
  S   S426      1.0  0.90343  0.29947  0.10660  1.0000
  S   S427      1.0  0.94998  0.29463  0.10370  1.0000
  S   S428      1.0  0.73817  0.47315  0.13509  1.0000
  H   H2499     1.0  0.99386  0.25151  0.02558  1.0000
  C   C3147     1.0  0.92298  0.30477  0.23241  1.0000
  H   H2500     1.0  0.78156  0.33676  0.09835  1.0000
  H   H2501     1.0  0.98107  0.34099  0.29840  1.0000
  Fe  Fe217     1.0  0.65224  0.26174  0.02361  1.0000
  S   S429      1.0  0.67403  0.28385  0.01683  1.0000
  S   S430      1.0  0.62024  0.26800  0.02615  1.0000
  C   C3148     1.0  0.53789  0.26248  0.08426  1.0000
  C   C3149     1.0  0.76798  0.48486  0.02380  1.0000
  H   H2502     1.0  0.54413  0.28192  0.06055  1.0000
  H   H2503     1.0  0.97425  0.30553  0.25130  1.0000
  H   H2504     1.0  0.90614  0.31722  0.17570  1.0000
  H   H2505     1.0  0.50616  0.46732  0.23594  1.0000
  C   C3150     1.0  0.93711  0.27230  0.16013  1.0000
  C   C3151     1.0  0.98063  0.29629  0.02036  1.0000
  H   H2506     1.0  0.96556  0.29498  0.02320  1.0000
  C   C3152     1.0  0.70758  0.32567  0.04348  1.0000
  C   C3153     1.0  0.69722  0.31260  0.05495  1.0000
  C   C3154     1.0  0.68697  0.29967  0.04716  1.0000
  C   C3155     1.0  0.68681  0.29969  0.02769  1.0000
  C   C3156     1.0  0.69740  0.31257  0.01621  1.0000
  C   C3157     1.0  0.70773  0.32545  0.02400  1.0000
  H   H2507     1.0  0.69700  0.31259  0.07003  1.0000
  H   H2508     1.0  0.67923  0.28970  0.05624  1.0000
  C   C3158     1.0  0.55605  0.25699  0.01550  1.0000
  H   H2509     1.0  0.71555  0.33538  0.01496  1.0000
  C   C3159     1.0  0.73214  0.44601  0.08034  1.0000
  C   C3160     1.0  0.72673  0.46536  0.08187  1.0000
  C   C3161     1.0  0.72850  0.47390  0.09854  1.0000
  C   C3162     1.0  0.73552  0.46307  0.11390  1.0000
  C   C3163     1.0  0.74050  0.44362  0.11251  1.0000
  C   C3164     1.0  0.73887  0.43512  0.09579  1.0000
  H   H2510     1.0  0.72124  0.47383  0.07009  1.0000
  H   H2511     1.0  0.72440  0.48883  0.09952  1.0000
  H   H2512     1.0  0.74571  0.43508  0.12440  1.0000
  H   H2513     1.0  0.74286  0.42016  0.09486  1.0000
  C   C3165     1.0  0.82485  0.35475  0.06667  1.0000
  C   C3166     1.0  0.83714  0.35119  0.08104  1.0000
  C   C3167     1.0  0.85447  0.33967  0.07846  1.0000
  C   C3168     1.0  0.85967  0.33139  0.06148  1.0000
  C   C3169     1.0  0.84722  0.33471  0.04719  1.0000
  C   C3170     1.0  0.82995  0.34637  0.04973  1.0000
  H   H2514     1.0  0.83318  0.35734  0.09430  1.0000
  H   H2515     1.0  0.86377  0.33714  0.08964  1.0000
  H   H2516     1.0  0.85107  0.32837  0.03401  1.0000
  H   H2517     1.0  0.82062  0.34898  0.03860  1.0000
  C   C3171     1.0  0.92830  0.45077  0.25078  1.0000
  C   C3172     1.0  0.91740  0.44385  0.26664  1.0000
  C   C3173     1.0  0.90374  0.45611  0.27640  1.0000
  C   C3174     1.0  0.90081  0.47537  0.27044  1.0000
  C   C3175     1.0  0.91201  0.48237  0.25483  1.0000
  C   C3176     1.0  0.92567  0.47011  0.24507  1.0000
  H   H2518     1.0  0.91928  0.42901  0.27120  1.0000
  H   H2519     1.0  0.89524  0.45058  0.28854  1.0000
  H   H2520     1.0  0.50832  0.25633  0.02712  1.0000
  H   H2521     1.0  0.93416  0.47561  0.23292  1.0000
  C   C3177     1.0  0.96238  0.35206  0.17702  1.0000
  C   C3178     1.0  0.96982  0.34266  0.16100  1.0000
  C   C3179     1.0  0.95782  0.33764  0.14804  1.0000
  C   C3180     1.0  0.93815  0.34216  0.15077  1.0000
  C   C3181     1.0  0.93068  0.35158  0.16679  1.0000
  C   C3182     1.0  0.94266  0.35638  0.17991  1.0000
  H   H2522     1.0  0.57133  0.28151  0.01468  1.0000
  H   H2523     1.0  0.96381  0.33057  0.13575  1.0000
  H   H2524     1.0  0.91549  0.35519  0.16906  1.0000
  H   H2525     1.0  0.93667  0.36352  0.19215  1.0000
  H   H2526     1.0  0.83427  0.44082  0.22127  1.0000
  S   S431      1.0  0.98691  0.35644  0.24641  1.0000
  C   C3183     1.0  0.97234  0.33114  0.30651  1.0000
  C   C3184     1.0  0.95387  0.32973  0.30186  1.0000
  C   C3185     1.0  0.94269  0.31693  0.31271  1.0000
  H   H2527     1.0  0.92521  0.32747  0.24990  1.0000
  C   C3186     1.0  0.97081  0.27401  0.21885  1.0000
  H   H2528     1.0  0.85681  0.48589  0.18471  1.0000
  C   C3187     1.0  0.85777  0.39919  0.13274  1.0000
  C   C3188     1.0  0.86512  0.38783  0.11826  1.0000
  C   C3189     1.0  0.85564  0.38829  0.10207  1.0000
  C   C3190     1.0  0.83885  0.40014  0.10028  1.0000
  C   C3191     1.0  0.83178  0.41216  0.11445  1.0000
  C   C3192     1.0  0.84106  0.41121  0.13093  1.0000
  P   P107      1.0  0.80963  0.42675  0.11250  1.0000
  C   C3193     1.0  0.80827  0.44799  0.12477  1.0000
  C   C3194     1.0  0.80705  0.43527  0.08848  1.0000
  C   C3195     1.0  0.78888  0.43867  0.08217  1.0000
  C   C3196     1.0  0.78662  0.44512  0.06360  1.0000
  C   C3197     1.0  0.80250  0.44876  0.05126  1.0000
  C   C3198     1.0  0.82067  0.44604  0.05758  1.0000
  C   C3199     1.0  0.82295  0.43940  0.07618  1.0000
  C   C3200     1.0  0.82471  0.45704  0.12603  1.0000
  C   C3201     1.0  0.82338  0.47431  0.13425  1.0000
  C   C3202     1.0  0.80564  0.48274  0.14103  1.0000
  C   C3203     1.0  0.78927  0.47383  0.13980  1.0000
  C   C3204     1.0  0.79050  0.45669  0.13145  1.0000
  C   C3205     1.0  0.79110  0.41189  0.12109  1.0000
  C   C3206     1.0  0.78489  0.39969  0.10913  1.0000
  C   C3207     1.0  0.77058  0.38809  0.11558  1.0000
  C   C3208     1.0  0.76242  0.38849  0.13407  1.0000
  C   C3209     1.0  0.76887  0.40024  0.14623  1.0000
  C   C3210     1.0  0.78334  0.41173  0.13985  1.0000
  H   H2529     1.0  0.86491  0.39845  0.14546  1.0000
  H   H2530     1.0  0.87798  0.37837  0.11970  1.0000
  H   H2531     1.0  0.86112  0.37916  0.09102  1.0000
  H   H2532     1.0  0.83128  0.39968  0.08795  1.0000
  H   H2533     1.0  0.83528  0.41954  0.14247  1.0000
  H   H2534     1.0  0.77644  0.43622  0.09159  1.0000
  H   H2535     1.0  0.77248  0.44713  0.05887  1.0000
  H   H2536     1.0  0.80072  0.45360  0.03683  1.0000
  H   H2537     1.0  0.83298  0.44888  0.04802  1.0000
  H   H2538     1.0  0.83709  0.43736  0.08088  1.0000
  H   H2539     1.0  0.83847  0.45100  0.12030  1.0000
  H   H2540     1.0  0.83605  0.48133  0.13511  1.0000
  H   H2541     1.0  0.69753  0.31269  0.00114  1.0000
  H   H2542     1.0  0.77550  0.48041  0.14501  1.0000
  H   H2543     1.0  0.77747  0.45054  0.12985  1.0000
  H   H2544     1.0  0.79104  0.39917  0.09475  1.0000
  H   H2545     1.0  0.76586  0.37880  0.10615  1.0000
  H   H2546     1.0  0.75117  0.37964  0.13897  1.0000
  H   H2547     1.0  0.76261  0.40048  0.16060  1.0000
  H   H2548     1.0  0.78834  0.42053  0.14954  1.0000
  H   H2549     1.0  0.92826  0.31598  0.30958  1.0000
  C   C3211     1.0  0.83328  0.26347  0.01490  1.0000
  C   C3212     1.0  0.99082  0.30153  0.03451  1.0000
  H   H2550     1.0  0.67050  0.37059  0.00802  1.0000
  H   H2551     1.0  0.64940  0.31756  0.00774  1.0000
  C   C3213     1.0  0.76118  0.45300  0.01908  1.0000
  C   C3214     1.0  0.78979  0.31640  0.01370  1.0000
  C   C3215     1.0  0.99776  0.46596  0.29239  1.0000
  H   H2552     1.0  0.75276  0.44120  0.02288  1.0000
  H   H2553     1.0  0.93762  0.30934  0.18712  1.0000
  C   C3216     1.0  0.97144  0.31269  0.22203  1.0000
  H   H2554     1.0  0.71727  0.26610  0.02158  1.0000
  H   H2555     1.0  0.51564  0.44063  0.10124  1.0000
  H   H2556     1.0  0.95895  0.46603  0.26793  1.0000
  C   C3217     1.0  0.91917  0.27695  0.15367  1.0000
  C   C3218     1.0  0.57152  0.37981  0.04493  1.0000
  C   C3219     1.0  0.79920  0.31860  0.07981  1.0000
  C   C3220     1.0  0.73065  0.27133  0.02374  1.0000
  C   C3221     1.0  0.85517  0.45621  0.27192  1.0000
  C   C3222     1.0  0.90179  0.43296  0.21213  1.0000
  C   C3223     1.0  0.61525  0.28179  0.07999  1.0000
  H   H2557     1.0  0.97488  0.43483  0.26080  1.0000
  H   H2558     1.0  0.96861  0.28487  0.13906  1.0000
  Fe  Fe218     1.0  0.99567  0.38479  0.25212  1.0000
  H   H2559     1.0  0.82621  0.49797  0.25729  1.0000
  C   C3224     1.0  0.81798  0.27750  0.01499  1.0000
  H   H2560     1.0  0.57753  0.26819  0.05371  1.0000
  C   C3225     1.0  0.50209  0.43480  0.10174  1.0000
  C   C3226     1.0  0.95542  0.48646  0.32706  1.0000
  C   C3227     1.0  0.92749  0.28078  0.26504  1.0000
  H   H2561     1.0  0.89692  0.28503  0.03515  1.0000
  P   P108      1.0  0.93042  0.26557  0.28627  1.0000
  H   H2562     1.0  0.75529  0.32134  0.05137  1.0000
  H   H2563     1.0  0.52153  0.49738  0.23207  1.0000
  C   C3228     1.0  0.54968  0.26993  0.06917  1.0000
  C   C3229     1.0  0.73399  0.27602  0.04155  1.0000
  C   C3230     1.0  0.85982  0.46306  0.25342  1.0000
  H   H2564     1.0  0.77179  0.28320  0.99943  1.0000
  H   H2565     1.0  0.92855  0.30669  0.27849  1.0000
  H   H2566     1.0  0.92146  0.31406  0.21983  1.0000
  C   C3231     1.0  0.92715  0.30044  0.26555  1.0000
  C   C3232     1.0  0.83578  0.25111  0.03076  1.0000
  C   C3233     1.0  0.63574  0.31522  0.00333  1.0000
  C   C3234     1.0  0.94387  0.28354  0.17276  1.0000
  C   C3235     1.0  0.98141  0.25524  0.05372  1.0000
  C   C3236     1.0  0.78541  0.48528  0.24285  1.0000
  H   H2567     1.0  0.70572  0.49679  0.99916  1.0000
  H   H2568     1.0  0.98502  0.33926  0.15857  1.0000
  C   C3237     1.0  0.91165  0.41491  0.18514  1.0000
  C   C3238     1.0  0.95464  0.26427  0.29247  1.0000
  C   C3239     1.0  0.91451  0.41961  0.20308  1.0000
  H   H2569     1.0  0.97383  0.27107  0.24858  1.0000
  C   C3240     1.0  0.96757  0.34766  0.00493  1.0000
  C   C3241     1.0  0.52215  0.26161  0.02438  1.0000
  H   H2570     1.0  0.90932  0.46992  0.20647  1.0000
  H   H2571     1.0  0.79763  0.26769  0.05927  1.0000
  H   H2572     1.0  0.90433  0.43652  0.22600  1.0000
  H   H2573     1.0  0.92672  0.41305  0.20996  1.0000
  C   C3242     1.0  0.98087  0.29041  0.14358  1.0000
  H   H2574     1.0  0.87156  0.44393  0.17795  1.0000
  C   C3243     1.0  0.91230  0.25735  0.03636  1.0000
  C   C3244     1.0  0.88606  0.44175  0.20332  1.0000
  H   H2575     1.0  0.81172  0.31870  0.08729  1.0000
  C   C3245     1.0  0.59177  0.35986  0.02390  1.0000
  H   H2576     1.0  0.76121  0.31932  0.00476  1.0000
  H   H2577     1.0  0.81393  0.30201  0.05845  1.0000
  H   H2578     1.0  0.50233  0.42499  0.13073  1.0000
  H   H2579     1.0  0.74658  0.46966  0.04052  1.0000
  H   H2580     1.0  0.92139  0.27944  0.21858  1.0000
  C   C3246     1.0  0.89863  0.28688  0.30257  1.0000
  H   H2581     1.0  0.89430  0.29696  0.15395  1.0000
  C   C3247     1.0  0.84534  0.47743  0.18995  1.0000
  C   C3248     1.0  0.89612  0.42371  0.17618  1.0000
  C   C3249     1.0  0.66461  0.36294  0.02053  1.0000
  H   H2582     1.0  0.51121  0.28982  0.03091  1.0000
  C   C3250     1.0  0.50769  0.49688  0.22714  1.0000
  H   H2583     1.0  0.54252  0.30275  0.02428  1.0000
  C   C3251     1.0  0.49889  0.47977  0.22931  1.0000
  H   H2584     1.0  0.60182  0.34938  0.06923  1.0000
  C   C3252     1.0  0.74442  0.27372  0.00867  1.0000
  H   H2585     1.0  0.77597  0.48145  0.10171  1.0000
  C   C3253     1.0  0.92505  0.31234  0.24931  1.0000
  C   C3254     1.0  0.76634  0.32952  0.07587  1.0000
  H   H2586     1.0  0.89405  0.42014  0.16220  1.0000
  H   H2587     1.0  0.80445  0.49629  0.14710  1.0000
  C   C3255     1.0  0.57729  0.37446  0.02680  1.0000
  H   H2588     1.0  0.77976  0.47342  0.23761  1.0000
  C   C3256     1.0  0.55751  0.27611  0.01724  1.0000
  H   H2589     1.0  0.95393  0.34439  0.00120  1.0000
  C   C3257     1.0  0.93251  0.29976  0.17836  1.0000
  C   C3258     1.0  0.78282  0.48344  0.00934  1.0000
  H   H2590     1.0  0.64129  0.35469  0.00726  1.0000
  P   P109      1.0  0.78572  0.29778  0.03178  1.0000
  H   H2591     1.0  0.90364  0.48297  0.31570  1.0000
  C   C3259     1.0  0.63264  0.28486  0.06988  1.0000
  C   C3260     1.0  0.63384  0.30024  0.05662  1.0000
  C   C3261     1.0  0.61776  0.31286  0.05364  1.0000
  C   C3262     1.0  0.60016  0.30924  0.06329  1.0000
  P   P110      1.0  0.61944  0.33188  0.03563  1.0000
  C   C3263     1.0  0.60037  0.35032  0.03921  1.0000
  C   C3264     1.0  0.64089  0.34333  0.03616  1.0000
  C   C3265     1.0  0.64982  0.34287  0.05281  1.0000
  C   C3266     1.0  0.66616  0.35217  0.05318  1.0000
  C   C3267     1.0  0.67362  0.36209  0.03704  1.0000
  C   C3268     1.0  0.91495  0.27458  0.30570  1.0000
  C   C3269     1.0  0.61878  0.32104  0.01395  1.0000
  H   H2592     1.0  0.99225  0.26379  0.05702  1.0000
  C   C3270     1.0  0.90789  0.29295  0.15954  1.0000
  C   C3271     1.0  0.97293  0.30014  0.23786  1.0000
  H   H2593     1.0  0.57609  0.37499  0.07422  1.0000
  C   C3272     1.0  0.59486  0.35611  0.05732  1.0000
  H   H2594     1.0  0.85191  0.46600  0.28283  1.0000
  C   C3273     1.0  0.51246  0.27074  0.18892  1.0000
  H   H2595     1.0  0.96901  0.31589  0.19247  1.0000
  C   C3274     1.0  0.80528  0.27948  0.03115  1.0000
  C   C3275     1.0  0.85556  0.43681  0.27652  1.0000
  H   H2596     1.0  0.81028  0.48660  0.09757  1.0000
  C   C3276     1.0  0.52367  0.28073  0.02625  1.0000
  H   H2597     1.0  0.97169  0.32771  0.22319  1.0000
  H   H2598     1.0  0.64508  0.27506  0.07199  1.0000
  H   H2599     1.0  0.64720  0.30209  0.04837  1.0000
  H   H2600     1.0  0.58727  0.31801  0.06041  1.0000
  H   H2601     1.0  0.64429  0.33530  0.06551  1.0000
  H   H2602     1.0  0.67341  0.35135  0.06587  1.0000
  H   H2603     1.0  0.68659  0.36885  0.03731  1.0000
  C   C3277     1.0  0.82775  0.48154  0.18266  1.0000
  H   H2604     1.0  0.82562  0.49340  0.17242  1.0000
  H   H2605     1.0  0.91424  0.26843  0.14364  1.0000
  C   C3278     1.0  0.92300  0.28526  0.23174  1.0000
  H   H2606     1.0  0.86082  0.40913  0.26613  1.0000
  C   C3279     1.0  0.97339  0.25289  0.18094  1.0000
  H   H2607     1.0  0.96106  0.34050  0.03446  1.0000
  C   C3280     1.0  0.99347  0.29897  0.13011  1.0000
  H   H2608     1.0  0.94584  0.26021  0.15477  1.0000
  C   C3281     1.0  0.77577  0.45175  0.00457  1.0000
  H   H2609     1.0  0.99221  0.34762  0.04314  1.0000
  H   H2610     1.0  0.95954  0.29289  0.28199  1.0000
  H   H2611     1.0  0.85246  0.43157  0.29096  1.0000
  C   C3282     1.0  0.78228  0.48726  0.08840  1.0000
  C   C3283     1.0  0.58037  0.37069  0.06018  1.0000
  C   C3284     1.0  0.96932  0.28659  0.20283  1.0000
  H   H2612     1.0  0.99356  0.32146  0.32560  1.0000
  C   C3285     1.0  0.76748  0.32006  0.05947  1.0000
  C   C3286     1.0  0.97250  0.46143  0.27337  1.0000
  H   H2613     1.0  0.52339  0.28040  0.18775  1.0000
  C   C3287     1.0  0.59899  0.29388  0.07660  1.0000
  C   C3288     1.0  0.78431  0.30937  0.05336  1.0000
  C   C3289     1.0  0.86471  0.43099  0.24397  1.0000
  C   C3290     1.0  0.91453  0.30431  0.17192  1.0000
  C   C3291     1.0  0.98915  0.34961  0.02858  1.0000
  C   C3292     1.0  0.80036  0.30908  0.06342  1.0000
  H   H2614     1.0  0.92158  0.40453  0.17817  1.0000
  C   C3293     1.0  0.96976  0.30595  0.20462  1.0000
  C   C3294     1.0  0.56864  0.26224  0.06534  1.0000
  H   H2615     1.0  0.79888  0.47452  0.18368  1.0000
  H   H2616     1.0  0.87450  0.30371  0.31521  1.0000
  C   C3295     1.0  0.88339  0.43717  0.18518  1.0000
  C   C3296     1.0  0.78220  0.32882  0.08604  1.0000
  H   H2617     1.0  0.50080  0.37991  0.14062  1.0000
  C   C3297     1.0  0.75747  0.46934  0.02884  1.0000
  C   C3298     1.0  0.89636  0.27024  0.03980  1.0000
  P   P111      1.0  0.96875  0.49560  0.29003  1.0000
  C   C3299     1.0  0.80156  0.49013  0.08603  1.0000
  C   C3300     1.0  0.92526  0.27328  0.24797  1.0000
  C   C3301     1.0  0.53840  0.24960  0.01906  1.0000
  C   C3302     1.0  0.84782  0.46304  0.20429  1.0000
  C   C3303     1.0  0.86465  0.45050  0.23927  1.0000
  C   C3304     1.0  0.91886  0.26886  0.32421  1.0000
  C   C3305     1.0  0.75090  0.28346  0.04424  1.0000
  H   H2618     1.0  0.75313  0.28691  0.05819  1.0000
  C   C3306     1.0  0.98995  0.29283  0.00244  1.0000
  P   P112      1.0  0.86996  0.45920  0.21516  1.0000
  C   C3307     1.0  0.77523  0.32425  0.00269  1.0000
  C   C3308     1.0  0.54132  0.28802  0.02255  1.0000
  C   C3309     1.0  0.81262  0.47098  0.18915  1.0000
  C   C3310     1.0  0.60140  0.31649  0.00860  1.0000
  H   H2619     1.0  0.75324  0.33777  0.08040  1.0000
  C   C3311     1.0  0.81517  0.45614  0.20287  1.0000
  C   C3312     1.0  0.89981  0.48250  0.20889  1.0000
  C   C3313     1.0  0.98095  0.47303  0.28434  1.0000
  P   P113      1.0  0.96767  0.27817  0.17997  1.0000
  C   C3314     1.0  0.98137  0.44363  0.26944  1.0000
  C   C3315     1.0  0.80434  0.48380  0.24706  1.0000
  S   S432      1.0  0.88301  0.49000  0.28299  1.0000
  H   H2620     1.0  0.73052  0.46983  0.99940  1.0000
  C   C3316     1.0  0.88029  0.48146  0.21395  1.0000
  H   H2621     1.0  0.86824  0.42097  0.23334  1.0000
  C   C3317     1.0  0.80722  0.32437  0.01172  1.0000
  H   H2622     1.0  0.92523  0.25826  0.24705  1.0000
  H   H2623     1.0  0.59637  0.35620  0.00972  1.0000
  C   C3318     1.0  0.76134  0.28123  0.01129  1.0000
  C   C3319     1.0  0.80954  0.49752  0.06876  1.0000
  C   C3320     1.0  0.76444  0.28674  0.02898  1.0000
  H   H2624     1.0  0.61423  0.26967  0.09003  1.0000
  H   H2625     1.0  0.77860  0.43893  0.99719  1.0000
  H   H2626     1.0  0.58541  0.29099  0.08398  1.0000
  C   C3321     1.0  0.97940  0.32000  0.32191  1.0000
  C   C3322     1.0  0.96536  0.27984  0.28877  1.0000
  C   C3323     1.0  0.97266  0.28079  0.23627  1.0000
  H   H2627     1.0  0.86003  0.47812  0.25045  1.0000
  S   S433      1.0  0.51427  0.27325  0.08845  1.0000
  H   H2628     1.0  0.58825  0.31992  0.01716  1.0000
  H   H2629     1.0  0.86798  0.27457  0.05325  1.0000
  C   C3324     1.0  0.88685  0.29392  0.31771  1.0000
  H   H2630     1.0  0.57064  0.38173  0.01495  1.0000
  H   H2631     1.0  0.81341  0.47081  0.24511  1.0000
  C   C3325     1.0  0.83269  0.45218  0.21046  1.0000
  C   C3326     1.0  0.80755  0.26665  0.04682  1.0000
  H   H2632     1.0  0.89497  0.29115  0.28848  1.0000
  C   C3327     1.0  0.64819  0.35376  0.02012  1.0000
  C   C3328     1.0  0.93193  0.48863  0.30450  1.0000
  C   C3329     1.0  0.51488  0.25498  0.17830  1.0000
  C   C3330     1.0  0.86032  0.42420  0.26254  1.0000
  C   C3331     1.0  0.88000  0.26432  0.05002  1.0000
  C   C3332     1.0  0.98373  0.27896  0.29440  1.0000
  C   C3333     1.0  0.78662  0.46698  0.99971  1.0000
  H   H2633     1.0  0.99073  0.30009  0.11544  1.0000
  H   H2634     1.0  0.52762  0.25240  0.16888  1.0000
  H   H2635     1.0  0.56033  0.39114  0.04717  1.0000
  H   H2636     1.0  0.79166  0.49491  0.00568  1.0000
  C   C3334     1.0  0.98402  0.28929  0.16264  1.0000
  H   H2637     1.0  0.85348  0.49772  0.22118  1.0000
  H   H2638     1.0  0.92509  0.26238  0.02898  1.0000
  H   H2639     1.0  0.75621  0.48920  0.07556  1.0000
  H   H2640     1.0  0.50645  0.34604  0.13474  1.0000
  C   C3335     1.0  0.96621  0.25174  0.06699  1.0000
  C   C3336     1.0  0.91808  0.48405  0.31891  1.0000
  H   H2641     1.0  0.97068  0.25899  0.21800  1.0000
  H   H2642     1.0  0.81835  0.31908  0.02062  1.0000
  C   C3337     1.0  0.99152  0.26261  0.30394  1.0000
  C   C3338     1.0  0.95063  0.49019  0.30854  1.0000
  H   H2643     1.0  0.99171  0.29122  0.29187  1.0000
  C   C3339     1.0  0.77097  0.49187  0.07357  1.0000
  H   H2644     1.0  0.97599  0.49244  0.24908  1.0000
  H   H2645     1.0  0.92797  0.49080  0.29027  1.0000
  H   H2646     1.0  0.72762  0.49687  0.02507  1.0000
  H   H2647     1.0  0.93117  0.25916  0.32709  1.0000
  H   H2648     1.0  0.96529  0.25746  0.08062  1.0000
  H   H2649     1.0  0.91004  0.49718  0.25020  1.0000
  C   C3340     1.0  0.86855  0.49815  0.21725  1.0000
  C   C3341     1.0  0.82285  0.25263  0.04668  1.0000
  H   H2650     1.0  0.49833  0.44273  0.07266  1.0000
  C   C3342     1.0  0.81020  0.33965  0.99867  1.0000
  H   H2651     1.0  0.84325  0.26223  0.00252  1.0000
  H   H2652     1.0  0.81619  0.28682  0.00251  1.0000
  H   H2653     1.0  0.82351  0.34603  0.99756  1.0000
  H   H2654     1.0  0.74179  0.27006  0.99488  1.0000
  Fe  Fe219     1.0  0.63453  0.39739  0.61424  1.0000
  S   S434      1.0  0.61155  0.41199  0.63353  1.0000
  S   S435      1.0  0.65947  0.41198  0.59893  1.0000
  Fe  Fe220     1.0  0.61259  0.36221  0.61394  1.0000
  S   S436      1.0  0.58827  0.37433  0.63315  1.0000
  S   S437      1.0  0.61738  0.33279  0.60263  1.0000
  Fe  Fe221     1.0  0.59102  0.40180  0.61559  1.0000
  S   S438      1.0  0.56419  0.42069  0.60914  1.0000
  Fe  Fe222     1.0  0.61053  0.38377  0.64959  1.0000
  S   S439      1.0  0.61383  0.38907  0.59524  1.0000
  S   S440      1.0  0.63497  0.36972  0.63156  1.0000
  Fe  Fe223     1.0  0.52312  0.48298  0.52248  1.0000
  S   S441      1.0  0.55114  0.46771  0.53117  1.0000
  C   C3343     1.0  0.55742  0.32201  0.53216  1.0000
  S   S442      1.0  0.97674  0.26040  0.39746  1.0000
  S   S443      1.0  0.97747  0.29415  0.35247  1.0000
  S   S444      1.0  0.56038  0.27296  0.58729  1.0000
  Fe  Fe224     1.0  0.87332  0.27274  0.51761  1.0000
  S   S445      1.0  0.88454  0.28434  0.48855  1.0000
  Fe  Fe225     1.0  0.85044  0.28357  0.55429  1.0000
  H   H2655     1.0  0.69964  0.25829  0.55789  1.0000
  S   S446      1.0  0.83045  0.30480  0.57097  1.0000
  C   C3344     1.0  0.84496  0.26236  0.47540  1.0000
  H   H2656     1.0  0.94347  0.29187  0.63249  1.0000
  S   S447      1.0  0.88027  0.28745  0.54223  1.0000
  S   S448      1.0  0.84241  0.27123  0.52853  1.0000
  Fe  Fe226     1.0  0.76940  0.42918  0.60321  1.0000
  S   S449      1.0  0.78090  0.42464  0.57349  1.0000
  S   S450      1.0  0.74394  0.41695  0.62025  1.0000
  Fe  Fe227     1.0  0.80291  0.45054  0.61048  1.0000
  S   S451      1.0  0.81692  0.44756  0.58103  1.0000
  S   S452      1.0  0.81138  0.46877  0.63272  1.0000
  Fe  Fe228     1.0  0.78773  0.45513  0.57117  1.0000
  S   S453      1.0  0.78118  0.47163  0.54306  1.0000
  Fe  Fe229     1.0  0.80938  0.41730  0.58482  1.0000
  S   S454      1.0  0.83146  0.39432  0.57283  1.0000
  S   S455      1.0  0.77398  0.46000  0.60036  1.0000
  S   S456      1.0  0.79758  0.41992  0.61492  1.0000
  C   C3345     1.0  0.56622  0.45116  0.65398  1.0000
  H   H2657     1.0  0.53048  0.36881  0.52183  1.0000
  H   H2658     1.0  0.90071  0.33965  0.54115  1.0000
  C   C3346     1.0  0.53121  0.28123  0.42106  1.0000
  H   H2659     1.0  0.51136  0.41370  0.39191  1.0000
  C   C3347     1.0  0.90963  0.32658  0.53972  1.0000
  C   C3348     1.0  0.92283  0.48076  0.33738  1.0000
  C   C3349     1.0  0.91240  0.31913  0.52210  1.0000
  H   H2660     1.0  0.50971  0.37826  0.57116  1.0000
  H   H2661     1.0  0.94318  0.26469  0.49352  1.0000
  C   C3350     1.0  0.83139  0.32961  0.57143  1.0000
  C   C3351     1.0  0.81905  0.33952  0.58461  1.0000
  C   C3352     1.0  0.81887  0.35925  0.58528  1.0000
  C   C3353     1.0  0.83096  0.36941  0.57261  1.0000
  C   C3354     1.0  0.84339  0.35948  0.55949  1.0000
  C   C3355     1.0  0.84368  0.33971  0.55892  1.0000
  H   H2662     1.0  0.80961  0.33182  0.59441  1.0000
  H   H2663     1.0  0.80940  0.36662  0.59557  1.0000
  H   H2664     1.0  0.85277  0.36716  0.54957  1.0000
  H   H2665     1.0  0.85325  0.33233  0.54868  1.0000
  C   C3356     1.0  0.52435  0.42163  0.53233  1.0000
  C   C3357     1.0  0.82649  0.46452  0.65134  1.0000
  H   H2666     1.0  0.90552  0.32637  0.51037  1.0000
  C   C3358     1.0  0.89954  0.27069  0.47240  1.0000
  C   C3359     1.0  0.75789  0.44883  0.46901  1.0000
  H   H2667     1.0  0.88207  0.29407  0.34781  1.0000
  C   C3360     1.0  0.95024  0.25132  0.58222  1.0000
  H   H2668     1.0  0.95324  0.31900  0.47708  1.0000
  H   H2669     1.0  0.92475  0.29583  0.50629  1.0000
  C   C3361     1.0  0.60921  0.28886  0.65644  1.0000
  C   C3362     1.0  0.56060  0.43301  0.58708  1.0000
  C   C3363     1.0  0.57504  0.43330  0.57236  1.0000
  C   C3364     1.0  0.57186  0.44388  0.55532  1.0000
  C   C3365     1.0  0.55419  0.45418  0.55274  1.0000
  C   C3366     1.0  0.53963  0.45360  0.56735  1.0000
  C   C3367     1.0  0.54285  0.44311  0.58443  1.0000
  H   H2670     1.0  0.58876  0.42560  0.57419  1.0000
  H   H2671     1.0  0.58320  0.44420  0.54411  1.0000
  H   H2672     1.0  0.52597  0.46144  0.56557  1.0000
  H   H2673     1.0  0.53158  0.44294  0.59572  1.0000
  C   C3368     1.0  0.60118  0.31649  0.59838  1.0000
  C   C3369     1.0  0.60847  0.29891  0.59174  1.0000
  C   C3370     1.0  0.59627  0.28542  0.58828  1.0000
  C   C3371     1.0  0.57655  0.28934  0.59144  1.0000
  C   C3372     1.0  0.56925  0.30687  0.59821  1.0000
  C   C3373     1.0  0.58145  0.32041  0.60157  1.0000
  H   H2674     1.0  0.62370  0.29570  0.58925  1.0000
  H   H2675     1.0  0.60212  0.27202  0.58313  1.0000
  H   H2676     1.0  0.55404  0.31002  0.60085  1.0000
  H   H2677     1.0  0.57559  0.33383  0.60669  1.0000
  C   C3374     1.0  0.68300  0.41292  0.60502  1.0000
  C   C3375     1.0  0.68926  0.40415  0.62172  1.0000
  C   C3376     1.0  0.70809  0.40526  0.62590  1.0000
  C   C3377     1.0  0.72081  0.41522  0.61358  1.0000
  C   C3378     1.0  0.71461  0.42387  0.59682  1.0000
  C   C3379     1.0  0.69579  0.42273  0.59260  1.0000
  H   H2678     1.0  0.67964  0.39644  0.63133  1.0000
  H   H2679     1.0  0.71290  0.39837  0.63875  1.0000
  H   H2680     1.0  0.72425  0.43158  0.58719  1.0000
  H   H2681     1.0  0.69111  0.42951  0.57961  1.0000
  C   C3380     1.0  0.92329  0.30189  0.51978  1.0000
  C   C3381     1.0  0.54868  0.30972  0.54567  1.0000
  C   C3382     1.0  0.93320  0.31689  0.59161  1.0000
  H   H2682     1.0  0.98040  0.32605  0.63847  1.0000
  C   C3383     1.0  0.51767  0.25139  0.46636  1.0000
  C   C3384     1.0  0.88972  0.38015  0.57011  1.0000
  C   C3385     1.0  0.87834  0.32718  0.60061  1.0000
  H   H2683     1.0  0.51313  0.39229  0.50105  1.0000
  H   H2684     1.0  0.88158  0.35249  0.56757  1.0000
  H   H2685     1.0  0.88000  0.34177  0.60241  1.0000
  C   C3386     1.0  0.97142  0.27430  0.46758  1.0000
  C   C3387     1.0  0.96555  0.27414  0.44949  1.0000
  H   H2686     1.0  0.91030  0.27162  0.35354  1.0000
  C   C3388     1.0  0.52906  0.38349  0.52487  1.0000
  C   C3389     1.0  0.92116  0.38166  0.57985  1.0000
  H   H2687     1.0  0.52396  0.49574  0.35632  1.0000
  H   H2688     1.0  0.91607  0.30625  0.61618  1.0000
  H   H2689     1.0  0.93947  0.27849  0.53352  1.0000
  H   H2690     1.0  0.55065  0.26455  0.37215  1.0000
  H   H2691     1.0  0.82873  0.25080  0.49973  1.0000
  H   H2692     1.0  0.95059  0.28968  0.42763  1.0000
  C   C3390     1.0  0.94846  0.25198  0.50136  1.0000
  C   C3391     1.0  0.96737  0.31009  0.59298  1.0000
  H   H2693     1.0  0.73682  0.47002  0.64529  1.0000
  C   C3392     1.0  0.90560  0.25172  0.47675  1.0000
  C   C3393     1.0  0.51840  0.37907  0.58258  1.0000
  H   H2694     1.0  0.93751  0.35522  0.58535  1.0000
  H   H2695     1.0  0.94523  0.47908  0.35574  1.0000
  H   H2696     1.0  0.91983  0.27473  0.42709  1.0000
  H   H2697     1.0  0.78072  0.46144  0.47946  1.0000
  C   C3394     1.0  0.61833  0.46136  0.63563  1.0000
  C   C3395     1.0  0.94541  0.36506  0.64321  1.0000
  H   H2698     1.0  0.51376  0.38661  0.62904  1.0000
  H   H2699     1.0  0.78109  0.28608  0.53886  1.0000
  H   H2700     1.0  0.92314  0.25362  0.63149  1.0000
  C   C3396     1.0  0.85845  0.25839  0.46040  1.0000
  S   S457      1.0  0.91857  0.25147  0.56338  1.0000
  H   H2701     1.0  0.69202  0.37414  0.59861  1.0000
  C   C3397     1.0  0.74028  0.45217  0.46157  1.0000
  H   H2702     1.0  0.50683  0.26299  0.46862  1.0000
  H   H2703     1.0  0.53430  0.25137  0.61026  1.0000
  C   C3398     1.0  0.55743  0.46897  0.65812  1.0000
  C   C3399     1.0  0.99333  0.30835  0.40698  1.0000
  H   H2704     1.0  0.53298  0.30691  0.57272  1.0000
  C   C3400     1.0  0.51912  0.39675  0.51307  1.0000
  H   H2705     1.0  0.68730  0.44499  0.63453  1.0000
  H   H2706     1.0  0.76449  0.43453  0.47112  1.0000
  C   C3401     1.0  0.93027  0.25278  0.58391  1.0000
  C   C3402     1.0  0.75859  0.48242  0.47099  1.0000
  C   C3403     1.0  0.90699  0.27584  0.33931  1.0000
  C   C3404     1.0  0.95078  0.30616  0.45143  1.0000
  S   S458      1.0  0.85869  0.25495  0.56884  1.0000
  H   H2707     1.0  0.83952  0.27684  0.47755  1.0000
  H   H2708     1.0  0.52625  0.28575  0.43489  1.0000
  H   H2709     1.0  0.70132  0.29234  0.54970  1.0000
  H   H2710     1.0  0.91203  0.47719  0.34847  1.0000
  H   H2711     1.0  0.77726  0.32592  0.62393  1.0000
  H   H2712     1.0  0.97617  0.29404  0.61795  1.0000
  H   H2713     1.0  0.96852  0.26178  0.44154  1.0000
  C   C3405     1.0  0.85963  0.30062  0.60775  1.0000
  C   C3406     1.0  0.87368  0.28920  0.59787  1.0000
  C   C3407     1.0  0.71234  0.45779  0.63801  1.0000
  C   C3408     1.0  0.78140  0.49826  0.51289  1.0000
  C   C3409     1.0  0.74077  0.48589  0.46382  1.0000
  H   H2714     1.0  0.78470  0.44137  0.65023  1.0000
  H   H2715     1.0  0.83552  0.43547  0.64663  1.0000
  H   H2716     1.0  0.73324  0.44042  0.45787  1.0000
  H   H2717     1.0  0.52271  0.43644  0.53512  1.0000
  H   H2718     1.0  0.50636  0.25115  0.63356  1.0000
  C   C3410     1.0  0.90391  0.39076  0.57452  1.0000
  H   H2719     1.0  0.54886  0.38277  0.62374  1.0000
  H   H2720     1.0  0.90359  0.39299  0.64149  1.0000
  C   C3411     1.0  0.63411  0.45009  0.62825  1.0000
  C   C3412     1.0  0.54464  0.29117  0.40985  1.0000
  H   H2721     1.0  0.94113  0.29594  0.33620  1.0000
  H   H2722     1.0  0.56433  0.35043  0.52484  1.0000
  C   C3413     1.0  0.95190  0.31809  0.58342  1.0000
  H   H2723     1.0  0.95752  0.36009  0.63394  1.0000
  H   H2724     1.0  0.82049  0.49296  0.65981  1.0000
  H   H2725     1.0  0.93453  0.29120  0.56446  1.0000
  C   C3414     1.0  0.93027  0.30772  0.60958  1.0000
  C   C3415     1.0  0.93073  0.37700  0.63568  1.0000
  H   H2726     1.0  0.60696  0.49124  0.50493  1.0000
  C   C3416     1.0  0.88973  0.29687  0.58874  1.0000
  H   H2727     1.0  0.86348  0.26983  0.45100  1.0000
  C   C3417     1.0  0.89280  0.36047  0.57095  1.0000
  C   C3418     1.0  0.95682  0.30653  0.46932  1.0000
  C   C3419     1.0  0.92868  0.29947  0.55270  1.0000
  H   H2728     1.0  0.87197  0.27444  0.59705  1.0000
  H   H2729     1.0  0.61620  0.30174  0.65578  1.0000
  H   H2730     1.0  0.65988  0.43336  0.63385  1.0000
  C   C3420     1.0  0.92417  0.36192  0.58097  1.0000
  C   C3421     1.0  0.59419  0.28795  0.64550  1.0000
  H   H2731     1.0  0.50918  0.42612  0.50758  1.0000
  C   C3422     1.0  0.53930  0.31663  0.56209  1.0000
  C   C3423     1.0  0.53880  0.33577  0.56516  1.0000
  C   C3424     1.0  0.54762  0.34824  0.55167  1.0000
  C   C3425     1.0  0.55696  0.34118  0.53515  1.0000
  P   P114      1.0  0.54930  0.37251  0.55631  1.0000
  C   C3426     1.0  0.53834  0.37681  0.57950  1.0000
  C   C3427     1.0  0.57440  0.37554  0.55453  1.0000
  C   C3428     1.0  0.58727  0.36066  0.56093  1.0000
  C   C3429     1.0  0.60681  0.36237  0.55881  1.0000
  C   C3430     1.0  0.61369  0.37900  0.55050  1.0000
  C   C3431     1.0  0.60099  0.39398  0.54438  1.0000
  C   C3432     1.0  0.58144  0.39225  0.54629  1.0000
  C   C3433     1.0  0.96718  0.29070  0.47734  1.0000
  H   H2732     1.0  0.54947  0.29474  0.54368  1.0000
  H   H2733     1.0  0.50345  0.44795  0.38603  1.0000
  C   C3434     1.0  0.54036  0.38135  0.61232  1.0000
  C   C3435     1.0  0.54930  0.37795  0.59450  1.0000
  C   C3436     1.0  0.53680  0.38927  0.54047  1.0000
  C   C3437     1.0  0.52433  0.26546  0.41453  1.0000
  C   C3438     1.0  0.86199  0.31959  0.60917  1.0000
  C   C3439     1.0  0.95534  0.29005  0.44147  1.0000
  H   H2734     1.0  0.78094  0.35566  0.63831  1.0000
  C   C3440     1.0  0.53409  0.40842  0.54425  1.0000
  H   H2735     1.0  0.75164  0.43251  0.65442  1.0000
  C   C3441     1.0  0.83659  0.44698  0.65525  1.0000
  C   C3442     1.0  0.96428  0.30078  0.61073  1.0000
  H   H2736     1.0  0.53205  0.34054  0.57832  1.0000
  C   C3443     1.0  0.90505  0.27898  0.45451  1.0000
  H   H2737     1.0  0.58225  0.34771  0.56761  1.0000
  H   H2738     1.0  0.61658  0.35089  0.56401  1.0000
  H   H2739     1.0  0.62881  0.38045  0.54929  1.0000
  H   H2740     1.0  0.60627  0.40704  0.53832  1.0000
  H   H2741     1.0  0.57201  0.40406  0.54134  1.0000
  P   P115      1.0  0.98310  0.25345  0.47907  1.0000
  C   C3444     1.0  0.72342  0.46456  0.65048  1.0000
  C   C3445     1.0  0.96049  0.25022  0.59815  1.0000
  H   H2742     1.0  0.54984  0.30336  0.41496  1.0000
  H   H2743     1.0  0.56469  0.37661  0.59251  1.0000
  C   C3446     1.0  0.90997  0.35113  0.57653  1.0000
  H   H2744     1.0  0.57160  0.44839  0.63968  1.0000
  C   C3447     1.0  0.89208  0.31601  0.58980  1.0000
  C   C3448     1.0  0.52055  0.38367  0.61527  1.0000
  H   H2745     1.0  0.53969  0.41320  0.55637  1.0000
  Fe  Fe230     1.0  0.97029  0.26576  0.36716  1.0000
  H   H2746     1.0  0.85099  0.32850  0.61667  1.0000
  C   C3449     1.0  0.64785  0.44806  0.65815  1.0000
  C   C3450     1.0  0.61704  0.46574  0.65434  1.0000
  H   H2747     1.0  0.71696  0.30342  0.51889  1.0000
  H   H2748     1.0  0.63490  0.44615  0.61389  1.0000
  H   H2749     1.0  0.60457  0.47407  0.66021  1.0000
  Fe  Fe231     1.0  0.88819  0.25834  0.55510  1.0000
  H   H2750     1.0  0.56493  0.31655  0.51957  1.0000
  C   C3451     1.0  0.91618  0.26833  0.44097  1.0000
  C   C3452     1.0  0.94577  0.29965  0.61901  1.0000
  H   H2751     1.0  0.90029  0.28782  0.58089  1.0000
  H   H2752     1.0  0.92234  0.25116  0.51922  1.0000
  C   C3453     1.0  0.91488  0.38360  0.64732  1.0000
  H   H2753     1.0  0.77643  0.48731  0.50568  1.0000
  C   C3454     1.0  0.70626  0.26291  0.54428  1.0000
  H   H2754     1.0  0.98124  0.30013  0.40809  1.0000
  C   C3455     1.0  0.55151  0.28527  0.39215  1.0000
  C   C3456     1.0  0.71613  0.28846  0.52241  1.0000
  C   C3457     1.0  0.69987  0.37039  0.58552  1.0000
  C   C3458     1.0  0.69005  0.36883  0.56992  1.0000
  C   C3459     1.0  0.70008  0.36400  0.55297  1.0000
  C   C3460     1.0  0.71994  0.36076  0.55165  1.0000
  C   C3461     1.0  0.72993  0.36242  0.56728  1.0000
  C   C3462     1.0  0.71973  0.36744  0.58422  1.0000
  P   P116      1.0  0.75565  0.35854  0.56524  1.0000
  C   C3463     1.0  0.76341  0.33602  0.55557  1.0000
  C   C3464     1.0  0.76582  0.37784  0.55102  1.0000
  C   C3465     1.0  0.78535  0.37974  0.55054  1.0000
  C   C3466     1.0  0.79340  0.39453  0.53969  1.0000
  C   C3467     1.0  0.78193  0.40798  0.52964  1.0000
  C   C3468     1.0  0.76238  0.40655  0.53038  1.0000
  C   C3469     1.0  0.75433  0.39156  0.54099  1.0000
  C   C3470     1.0  0.78265  0.33143  0.54947  1.0000
  C   C3471     1.0  0.78891  0.31355  0.54338  1.0000
  C   C3472     1.0  0.77607  0.30001  0.54333  1.0000
  C   C3473     1.0  0.75695  0.30430  0.54954  1.0000
  C   C3474     1.0  0.75065  0.32214  0.55580  1.0000
  C   C3475     1.0  0.76399  0.35753  0.58828  1.0000
  C   C3476     1.0  0.76792  0.34008  0.59836  1.0000
  C   C3477     1.0  0.77399  0.33942  0.61636  1.0000
  C   C3478     1.0  0.77611  0.35613  0.62444  1.0000
  C   C3479     1.0  0.77204  0.37351  0.61458  1.0000
  C   C3480     1.0  0.76596  0.37426  0.59659  1.0000
  C   C3481     1.0  0.69516  0.45053  0.64457  1.0000
  H   H2755     1.0  0.67467  0.37156  0.57101  1.0000
  H   H2756     1.0  0.69243  0.36292  0.54085  1.0000
  H   H2757     1.0  0.72756  0.35715  0.53840  1.0000
  H   H2758     1.0  0.72693  0.36923  0.59645  1.0000
  H   H2759     1.0  0.79435  0.37014  0.55895  1.0000
  H   H2760     1.0  0.80846  0.39601  0.53974  1.0000
  H   H2761     1.0  0.78809  0.41989  0.52190  1.0000
  H   H2762     1.0  0.75342  0.41735  0.52310  1.0000
  H   H2763     1.0  0.73913  0.39114  0.54164  1.0000
  H   H2764     1.0  0.79312  0.34126  0.54989  1.0000
  H   H2765     1.0  0.80389  0.31004  0.53918  1.0000
  C   C3482     1.0  0.72388  0.27538  0.50960  1.0000
  H   H2766     1.0  0.74710  0.29363  0.54988  1.0000
  H   H2767     1.0  0.73596  0.32482  0.56128  1.0000
  H   H2768     1.0  0.76646  0.32695  0.59237  1.0000
  C   C3483     1.0  0.72277  0.25606  0.51406  1.0000
  H   H2769     1.0  0.84677  0.29482  0.61402  1.0000
  H   H2770     1.0  0.77360  0.38647  0.62088  1.0000
  H   H2771     1.0  0.76264  0.38791  0.58929  1.0000
  C   C3484     1.0  0.49972  0.49428  0.34089  1.0000
  H   H2772     1.0  0.90036  0.29362  0.45097  1.0000
  H   H2773     1.0  0.57405  0.27100  0.63687  1.0000
  C   C3485     1.0  0.73172  0.47063  0.45895  1.0000
  S   S459      1.0  0.51864  0.48488  0.49167  1.0000
  C   C3486     1.0  0.93151  0.29213  0.53506  1.0000
  H   H2774     1.0  0.98176  0.31065  0.58645  1.0000
  H   H2775     1.0  0.94248  0.31828  0.44531  1.0000
  H   H2776     1.0  0.97151  0.29107  0.49134  1.0000
  H   H2777     1.0  0.71728  0.45776  0.62321  1.0000
  C   C3487     1.0  0.70734  0.28222  0.53975  1.0000
  C   C3488     1.0  0.92207  0.24932  0.44528  1.0000
  C   C3489     1.0  0.91786  0.31686  0.55519  1.0000
  P   P117      1.0  0.91324  0.32555  0.57839  1.0000
  C   C3490     1.0  0.50955  0.38249  0.60041  1.0000
  C   C3491     1.0  0.89108  0.28848  0.33607  1.0000
  H   H2778     1.0  0.56198  0.29292  0.38350  1.0000
  C   C3492     1.0  0.98997  0.33571  0.64222  1.0000
  C   C3493     1.0  0.76706  0.46396  0.47368  1.0000
  H   H2779     1.0  0.93216  0.38995  0.58317  1.0000
  H   H2780     1.0  0.73079  0.28020  0.49619  1.0000
  H   H2781     1.0  0.95448  0.32479  0.56945  1.0000
  H   H2782     1.0  0.90145  0.40604  0.57383  1.0000
  P   P118      1.0  0.50758  0.25245  0.42959  1.0000
  H   H2783     1.0  0.87621  0.38718  0.56618  1.0000
  C   C3494     1.0  0.95080  0.25078  0.61603  1.0000
  H   H2784     1.0  0.60693  0.46630  0.62693  1.0000
  C   C3495     1.0  0.54508  0.26932  0.38573  1.0000
  C   C3496     1.0  0.92053  0.25417  0.60172  1.0000
  C   C3497     1.0  0.64851  0.44306  0.63958  1.0000
  H   H2785     1.0  0.95783  0.25085  0.56845  1.0000
  C   C3498     1.0  0.53166  0.25933  0.39692  1.0000
  C   C3499     1.0  0.99553  0.32024  0.42096  1.0000
  H   H2786     1.0  0.50794  0.48457  0.38661  1.0000
  C   C3500     1.0  0.71380  0.24969  0.53138  1.0000
  H   H2787     1.0  0.55615  0.48008  0.64698  1.0000
  H   H2788     1.0  0.71810  0.47292  0.45316  1.0000
  H   H2789     1.0  0.58964  0.30009  0.63639  1.0000
  C   C3501     1.0  0.50016  0.48611  0.37424  1.0000
  H   H2790     1.0  0.93164  0.38121  0.62082  1.0000
  C   C3502     1.0  0.58531  0.27132  0.64590  1.0000
  H   H2791     1.0  0.96990  0.48700  0.33037  1.0000
  C   C3503     1.0  0.93077  0.25306  0.61771  1.0000
  H   H2792     1.0  0.90516  0.25535  0.60325  1.0000
  C   C3504     1.0  0.98531  0.34630  0.65797  1.0000
  C   C3505     1.0  0.94151  0.48188  0.34145  1.0000
  H   H2793     1.0  0.98521  0.32112  0.43307  1.0000
  H   H2794     1.0  0.73272  0.49683  0.50080  1.0000
  H   H2795     1.0  0.52610  0.25097  0.49444  1.0000
  C   C3506     1.0  0.51683  0.41582  0.51675  1.0000
  C   C3507     1.0  0.78528  0.49439  0.53176  1.0000
  C   C3508     1.0  0.59135  0.25538  0.65741  1.0000
  C   C3509     1.0  0.96830  0.30703  0.33258  1.0000
  H   H2796     1.0  0.76595  0.49404  0.47448  1.0000
  H   H2797     1.0  0.99670  0.24977  0.51714  1.0000
  C   C3510     1.0  0.50934  0.49238  0.35708  1.0000
  S   S460      1.0  0.94450  0.24922  0.37155  1.0000
  H   H2798     1.0  0.97588  0.24867  0.59660  1.0000
  C   C3511     1.0  0.94993  0.30550  0.32783  1.0000
  S   S461      1.0  0.60750  0.37786  0.68138  1.0000
  H   H2799     1.0  0.98222  0.33000  0.73687  1.0000
  C   C3512     1.0  0.69260  0.44931  0.78508  1.0000
  C   C3513     1.0  0.55010  0.47234  0.67650  1.0000
  Fe  Fe232     1.0  0.89299  0.46805  0.75871  1.0000
  S   S462      1.0  0.90110  0.47708  0.72862  1.0000
  S   S463      1.0  0.91174  0.44950  0.77818  1.0000
  Fe  Fe233     1.0  0.87075  0.47329  0.72375  1.0000
  S   S464      1.0  0.86466  0.45494  0.70058  1.0000
  C   C3514     1.0  0.51189  0.27897  0.96765  1.0000
  S   S465      1.0  0.86338  0.46212  0.75366  1.0000
  P   P119      1.0  0.54097  0.46193  0.71447  1.0000
  C   C3515     1.0  0.64781  0.45393  0.73330  1.0000
  Fe  Fe234     1.0  0.52931  0.28391  0.86663  1.0000
  S   S466      1.0  0.55516  0.26568  0.85624  1.0000
  S   S467      1.0  0.52429  0.31593  0.86017  1.0000
  H   H2800     1.0  0.53794  0.39303  0.78341  1.0000
  H   H2801     1.0  0.72820  0.45428  0.71765  1.0000
  C   C3516     1.0  0.51765  0.43299  0.72596  1.0000
  C   C3517     1.0  0.54650  0.40981  0.74259  1.0000
  S   S468      1.0  0.52940  0.27129  0.89658  1.0000
  Fe  Fe235     1.0  0.73605  0.47544  0.90353  1.0000
  H   H2802     1.0  0.87318  0.46102  0.82359  1.0000
  S   S469      1.0  0.72870  0.46275  0.93332  1.0000
  Fe  Fe236     1.0  0.75995  0.47818  0.86580  1.0000
  S   S470      1.0  0.78574  0.46420  0.84886  1.0000
  H   H2803     1.0  0.60211  0.37454  0.72152  1.0000
  Fe  Fe237     1.0  0.71690  0.48843  0.86739  1.0000
  C   C3518     1.0  0.65655  0.40325  0.66998  1.0000
  S   S471      1.0  0.76262  0.48954  0.89377  1.0000
  S   S472      1.0  0.73480  0.46195  0.87637  1.0000
  Fe  Fe238     1.0  0.59315  0.43300  0.77382  1.0000
  S   S473      1.0  0.56367  0.42785  0.78654  1.0000
  S   S474      1.0  0.60119  0.43855  0.74254  1.0000
  Fe  Fe239     1.0  0.60861  0.43545  0.81237  1.0000
  S   S475      1.0  0.57996  0.43089  0.82774  1.0000
  S   S476      1.0  0.63608  0.43334  0.82719  1.0000
  Fe  Fe240     1.0  0.57844  0.40804  0.80817  1.0000
  S   S477      1.0  0.57643  0.37632  0.81604  1.0000
  Fe  Fe241     1.0  0.56738  0.45114  0.80501  1.0000
  S   S478      1.0  0.54682  0.47739  0.81174  1.0000
  S   S479      1.0  0.60764  0.41182  0.79368  1.0000
  S   S480      1.0  0.59636  0.45710  0.79127  1.0000
  C   C3519     1.0  0.51171  0.27722  0.94846  1.0000
  C   C3520     1.0  0.67548  0.47540  0.84463  1.0000
  C   C3521     1.0  0.67888  0.45599  0.84913  1.0000
  C   C3522     1.0  0.66668  0.44341  0.84365  1.0000
  C   C3523     1.0  0.65077  0.45003  0.83388  1.0000
  C   C3524     1.0  0.64727  0.46947  0.82954  1.0000
  C   C3525     1.0  0.65965  0.48202  0.83474  1.0000
  H   H2804     1.0  0.69091  0.45066  0.85679  1.0000
  H   H2805     1.0  0.66953  0.42843  0.84714  1.0000
  H   H2806     1.0  0.63511  0.47482  0.82208  1.0000
  C   C3526     1.0  0.75958  0.43259  0.66655  1.0000
  C   C3527     1.0  0.53973  0.33245  0.84892  1.0000
  C   C3528     1.0  0.55711  0.32681  0.83903  1.0000
  C   C3529     1.0  0.56819  0.34045  0.82927  1.0000
  C   C3530     1.0  0.56217  0.35990  0.82935  1.0000
  C   C3531     1.0  0.54512  0.36555  0.83977  1.0000
  C   C3532     1.0  0.53395  0.35190  0.84940  1.0000
  H   H2807     1.0  0.56187  0.31195  0.83867  1.0000
  H   H2808     1.0  0.58145  0.33591  0.82148  1.0000
  H   H2809     1.0  0.54033  0.38040  0.84010  1.0000
  H   H2810     1.0  0.54274  0.46526  0.75450  1.0000
  H   H2811     1.0  0.66293  0.47483  0.69102  1.0000
  C   C3533     1.0  0.95495  0.48209  0.75741  1.0000
  C   C3534     1.0  0.55069  0.36511  0.77764  1.0000
  H   H2812     1.0  0.56066  0.26711  0.92810  1.0000
  C   C3535     1.0  0.65984  0.38359  0.67024  1.0000
  C   C3536     1.0  0.52859  0.40341  0.74229  1.0000
  H   H2813     1.0  0.57373  0.35405  0.69319  1.0000
  H   H2814     1.0  0.64814  0.37522  0.66925  1.0000
  C   C3537     1.0  0.55351  0.34425  0.73750  1.0000
  H   H2815     1.0  0.67251  0.42826  0.78900  1.0000
  C   C3538     1.0  0.79665  0.47500  0.82801  1.0000
  C   C3539     1.0  0.81353  0.46612  0.81943  1.0000
  C   C3540     1.0  0.82304  0.47466  0.80328  1.0000
  H   H2816     1.0  0.81949  0.45271  0.82547  1.0000
  H   H2817     1.0  0.83627  0.46791  0.79707  1.0000
  C   C3541     1.0  0.84978  0.45913  0.68177  1.0000
  H   H2818     1.0  0.52426  0.27951  0.93901  1.0000
  C   C3542     1.0  0.85642  0.45064  0.87373  1.0000
  C   C3543     1.0  0.75904  0.41517  0.97008  1.0000
  C   C3544     1.0  0.74234  0.42547  0.97701  1.0000
  C   C3545     1.0  0.73303  0.43957  0.96536  1.0000
  C   C3546     1.0  0.74047  0.44391  0.94680  1.0000
  C   C3547     1.0  0.75715  0.43358  0.93983  1.0000
  C   C3548     1.0  0.76631  0.41923  0.95140  1.0000
  C   C3549     1.0  0.80653  0.44311  0.95091  1.0000
  H   H2819     1.0  0.72005  0.44735  0.97084  1.0000
  H   H2820     1.0  0.76299  0.43665  0.92555  1.0000
  H   H2821     1.0  0.77914  0.41126  0.94584  1.0000
  C   C3550     1.0  0.96720  0.41621  0.75565  1.0000
  C   C3551     1.0  0.96238  0.41679  0.77497  1.0000
  C   C3552     1.0  0.94531  0.42697  0.78171  1.0000
  C   C3553     1.0  0.93297  0.43665  0.76922  1.0000
  C   C3554     1.0  0.93793  0.43616  0.74993  1.0000
  C   C3555     1.0  0.95496  0.42602  0.74320  1.0000
  H   H2822     1.0  0.97172  0.40932  0.78469  1.0000
  H   H2823     1.0  0.94163  0.42732  0.79666  1.0000
  H   H2824     1.0  0.92861  0.44356  0.74017  1.0000
  H   H2825     1.0  0.95862  0.42575  0.72824  1.0000
  C   C3556     1.0  0.60550  0.39512  0.69806  1.0000
  C   C3557     1.0  0.60662  0.41429  0.69277  1.0000
  C   C3558     1.0  0.60527  0.42744  0.70656  1.0000
  C   C3559     1.0  0.60264  0.42157  0.72572  1.0000
  C   C3560     1.0  0.60133  0.40246  0.73102  1.0000
  C   C3561     1.0  0.60285  0.38931  0.71725  1.0000
  H   H2826     1.0  0.60857  0.41901  0.67808  1.0000
  H   H2827     1.0  0.60622  0.44223  0.70238  1.0000
  H   H2828     1.0  0.59938  0.39778  0.74573  1.0000
  H   H2829     1.0  0.91939  0.29416  0.67192  1.0000
  H   H2830     1.0  0.85587  0.43073  0.67323  1.0000
  C   C3562     1.0  0.77712  0.38961  0.75725  1.0000
  C   C3563     1.0  0.76349  0.39996  0.76873  1.0000
  C   C3564     1.0  0.75943  0.41933  0.76459  1.0000
  C   C3565     1.0  0.76907  0.42837  0.74904  1.0000
  C   C3566     1.0  0.78297  0.41812  0.73757  1.0000
  C   C3567     1.0  0.78678  0.39862  0.74168  1.0000
  P   P120      1.0  0.79507  0.42994  0.71730  1.0000
  C   C3568     1.0  0.78065  0.43200  0.69772  1.0000
  C   C3569     1.0  0.80051  0.45269  0.72354  1.0000
  C   C3570     1.0  0.80158  0.46809  0.71013  1.0000
  C   C3571     1.0  0.96265  0.36862  0.70070  1.0000
  C   C3572     1.0  0.74624  0.48012  0.97414  1.0000
  C   C3573     1.0  0.49832  0.26604  0.81133  1.0000
  C   C3574     1.0  0.80469  0.45482  0.74192  1.0000
  C   C3575     1.0  0.78881  0.43697  0.67962  1.0000
  H   H2831     1.0  0.57494  0.42304  0.66507  1.0000
  H   H2832     1.0  0.64820  0.48562  0.78237  1.0000
  C   C3576     1.0  0.75129  0.42763  0.68450  1.0000
  C   C3577     1.0  0.76175  0.42736  0.70007  1.0000
  C   C3578     1.0  0.81720  0.41625  0.71049  1.0000
  C   C3579     1.0  0.81742  0.40159  0.69853  1.0000
  C   C3580     1.0  0.83450  0.39105  0.69306  1.0000
  C   C3581     1.0  0.85148  0.39500  0.69955  1.0000
  C   C3582     1.0  0.85136  0.40948  0.71152  1.0000
  C   C3583     1.0  0.83433  0.42008  0.71698  1.0000
  H   H2833     1.0  0.78027  0.37459  0.76048  1.0000
  H   H2834     1.0  0.75611  0.39298  0.78087  1.0000
  H   H2835     1.0  0.74889  0.42735  0.77351  1.0000
  H   H2836     1.0  0.76587  0.44339  0.74611  1.0000
  H   H2837     1.0  0.79729  0.39033  0.73300  1.0000
  H   H2838     1.0  0.79910  0.46684  0.69571  1.0000
  H   H2839     1.0  0.56133  0.37037  0.76724  1.0000
  H   H2840     1.0  0.98186  0.28886  0.99165  1.0000
  S   S481      1.0  0.59760  0.25889  0.98304  1.0000
  H   H2841     1.0  0.80473  0.44302  0.75239  1.0000
  C   C3584     1.0  0.60656  0.25638  0.66830  1.0000
  H   H2842     1.0  0.52463  0.28261  0.97311  1.0000
  C   C3585     1.0  0.51937  0.47783  0.71375  1.0000
  H   H2843     1.0  0.50483  0.25308  0.81786  1.0000
  H   H2844     1.0  0.75516  0.42313  0.71377  1.0000
  H   H2845     1.0  0.80442  0.39839  0.69327  1.0000
  H   H2846     1.0  0.86011  0.49449  0.87183  1.0000
  H   H2847     1.0  0.86477  0.38709  0.69510  1.0000
  H   H2848     1.0  0.86458  0.41301  0.71613  1.0000
  H   H2849     1.0  0.83483  0.43153  0.72585  1.0000
  C   C3586     1.0  0.97169  0.30490  0.67298  1.0000
  H   H2850     1.0  0.97682  0.32146  0.70545  1.0000
  C   C3587     1.0  0.55673  0.27755  0.79633  1.0000
  H   H2851     1.0  0.53654  0.32455  0.80066  1.0000
  C   C3588     1.0  0.63530  0.30543  0.98734  1.0000
  C   C3589     1.0  0.85582  0.48437  0.90103  1.0000
  H   H2852     1.0  0.90132  0.38327  0.67549  1.0000
  H   H2853     1.0  0.62723  0.27373  0.67613  1.0000
  C   C3590     1.0  0.56064  0.30552  0.77514  1.0000
  H   H2854     1.0  0.52592  0.38945  0.74839  1.0000
  H   H2855     1.0  0.87332  0.43232  0.85472  1.0000
  H   H2856     1.0  0.57647  0.47986  0.70298  1.0000
  H   H2857     1.0  0.52135  0.47038  0.78338  1.0000
  H   H2858     1.0  0.97628  0.46051  0.76604  1.0000
  C   C3591     1.0  0.93828  0.31587  0.67262  1.0000
  C   C3592     1.0  0.95723  0.31988  0.67285  1.0000
  C   C3593     1.0  0.50690  0.28276  0.81168  1.0000
  C   C3594     1.0  0.97245  0.35935  0.73173  1.0000
  H   H2859     1.0  0.99312  0.38921  0.95204  1.0000
  H   H2860     1.0  0.92679  0.32705  0.67259  1.0000
  H   H2861     1.0  0.76131  0.43517  0.83718  1.0000
  C   C3595     1.0  0.81166  0.49554  0.87211  1.0000
  C   C3596     1.0  0.57721  0.26332  0.95213  1.0000
  C   C3597     1.0  0.82535  0.43790  0.94422  1.0000
  C   C3598     1.0  0.68880  0.44999  0.66376  1.0000
  C   C3599     1.0  0.88274  0.48817  0.81452  1.0000
  S   S482      1.0  0.50880  0.26417  0.85886  1.0000
  C   C3600     1.0  0.55493  0.35062  0.71852  1.0000
  C   C3601     1.0  0.64864  0.43531  0.72843  1.0000
  C   C3602     1.0  0.83975  0.47668  0.67780  1.0000
  H   H2862     1.0  0.65626  0.48131  0.96460  1.0000
  H   H2863     1.0  0.50502  0.31264  0.80425  1.0000
  C   C3603     1.0  0.82249  0.44802  0.87650  1.0000
  H   H2864     1.0  0.53982  0.34589  0.74561  1.0000
  C   C3604     1.0  0.82523  0.43423  0.86350  1.0000
  Fe  Fe242     1.0  0.55413  0.25186  0.88568  1.0000
  H   H2865     1.0  0.84556  0.41809  0.84536  1.0000
  C   C3605     1.0  0.73213  0.46247  0.79872  1.0000
  C   C3606     1.0  0.82814  0.47930  0.66275  1.0000
  H   H2866     1.0  0.54962  0.30475  0.74816  1.0000
  H   H2867     1.0  0.70761  0.45792  0.81851  1.0000
  C   C3607     1.0  0.81561  0.49211  0.79547  1.0000
  C   C3608     1.0  0.84351  0.42868  0.85554  1.0000
  C   C3609     1.0  0.65846  0.45622  0.78520  1.0000
  C   C3610     1.0  0.77826  0.43745  0.66415  1.0000
  P   P121      1.0  0.56806  0.32909  0.77080  1.0000
  H   H2868     1.0  0.55844  0.26990  0.80984  1.0000
  H   H2869     1.0  0.97869  0.27491  0.67217  1.0000
  H   H2870     1.0  0.88504  0.49132  0.93425  1.0000
  C   C3611     1.0  0.56071  0.44012  0.68667  1.0000
  C   C3612     1.0  0.96737  0.28632  0.67246  1.0000
  C   C3613     1.0  0.68991  0.40520  0.67330  1.0000
  H   H2871     1.0  0.69668  0.45497  0.69126  1.0000
  C   C3614     1.0  0.52522  0.46939  0.85544  1.0000
  C   C3615     1.0  0.73335  0.44518  0.82924  1.0000
  H   H2872     1.0  0.94533  0.26801  0.67138  1.0000
  C   C3616     1.0  0.80952  0.47208  0.74685  1.0000
  H   H2873     1.0  0.94343  0.47319  0.76064  1.0000
  S   S483      1.0  0.77138  0.39738  0.98432  1.0000
  H   H2874     1.0  0.56919  0.30186  0.80346  1.0000
  H   H2875     1.0  0.77790  0.44793  0.80768  1.0000
  H   H2876     1.0  0.80816  0.45222  0.88242  1.0000
  H   H2877     1.0  0.56432  0.48023  0.77219  1.0000
  C   C3617     1.0  0.72410  0.46372  0.74565  1.0000
  H   H2878     1.0  0.79778  0.35948  0.97796  1.0000
  C   C3618     1.0  0.55068  0.34566  0.78250  1.0000
  H   H2879     1.0  0.70174  0.41332  0.67445  1.0000
  C   C3619     1.0  0.81838  0.49450  0.88992  1.0000
  H   H2880     1.0  0.64433  0.45142  0.78690  1.0000
  C   C3620     1.0  0.83799  0.45665  0.88140  1.0000
  C   C3621     1.0  0.58856  0.34028  0.71601  1.0000
  C   C3622     1.0  0.65922  0.46365  0.70144  1.0000
  H   H2881     1.0  0.70742  0.37868  0.67439  1.0000
  C   C3623     1.0  0.56287  0.29557  0.79262  1.0000
  C   C3624     1.0  0.52738  0.49111  0.80147  1.0000
  C   C3625     1.0  0.86282  0.48381  0.91869  1.0000
  C   C3626     1.0  0.75315  0.44240  0.82629  1.0000
  C   C3627     1.0  0.59865  0.27742  0.86115  1.0000
  C   C3628     1.0  0.60457  0.28552  0.84346  1.0000
  C   C3629     1.0  0.60779  0.30459  0.84130  1.0000
  C   C3630     1.0  0.60510  0.31553  0.85680  1.0000
  C   C3631     1.0  0.59838  0.30764  0.87447  1.0000
  C   C3632     1.0  0.59532  0.28846  0.87654  1.0000
  P   P122      1.0  0.59603  0.32090  0.89504  1.0000
  C   C3633     1.0  0.57323  0.31840  0.90799  1.0000
  C   C3634     1.0  0.61545  0.31075  0.90826  1.0000
  C   C3635     1.0  0.63367  0.31690  0.90419  1.0000
  C   C3636     1.0  0.64885  0.30851  0.91394  1.0000
  C   C3637     1.0  0.64608  0.29354  0.92740  1.0000
  C   C3638     1.0  0.62820  0.28679  0.93093  1.0000
  C   C3639     1.0  0.61296  0.29527  0.92135  1.0000
  C   C3640     1.0  0.57096  0.31989  0.92748  1.0000
  C   C3641     1.0  0.55303  0.31900  0.93737  1.0000
  C   C3642     1.0  0.53720  0.31715  0.92779  1.0000
  C   C3643     1.0  0.53932  0.31596  0.90837  1.0000
  C   C3644     1.0  0.55727  0.31650  0.89849  1.0000
  C   C3645     1.0  0.59613  0.34597  0.88892  1.0000
  C   C3646     1.0  0.58511  0.35458  0.87481  1.0000
  C   C3647     1.0  0.58557  0.37381  0.86945  1.0000
  C   C3648     1.0  0.59656  0.38472  0.87851  1.0000
  C   C3649     1.0  0.60676  0.37650  0.89325  1.0000
  C   C3650     1.0  0.60639  0.35724  0.89860  1.0000
  H   H2882     1.0  0.59652  0.26253  0.86303  1.0000
  H   H2883     1.0  0.60680  0.27697  0.83152  1.0000
  H   H2884     1.0  0.61253  0.31090  0.82766  1.0000
  H   H2885     1.0  0.60838  0.33006  0.85486  1.0000
  H   H2886     1.0  0.59065  0.28192  0.89013  1.0000
  H   H2887     1.0  0.63623  0.32801  0.89333  1.0000
  H   H2888     1.0  0.66283  0.31344  0.91090  1.0000
  H   H2889     1.0  0.65785  0.28692  0.93488  1.0000
  H   H2890     1.0  0.62616  0.27482  0.94098  1.0000
  H   H2891     1.0  0.59938  0.28943  0.92394  1.0000
  H   H2892     1.0  0.58298  0.32190  0.93503  1.0000
  H   H2893     1.0  0.55138  0.31999  0.95241  1.0000
  H   H2894     1.0  0.83462  0.37998  0.68358  1.0000
  C   C3651     1.0  0.55472  0.47165  0.74698  1.0000
  H   H2895     1.0  0.55857  0.31575  0.88341  1.0000
  H   H2896     1.0  0.57635  0.34639  0.86773  1.0000
  H   H2897     1.0  0.57751  0.38024  0.85812  1.0000
  H   H2898     1.0  0.59708  0.39958  0.87413  1.0000
  H   H2899     1.0  0.61503  0.38509  0.90045  1.0000
  H   H2900     1.0  0.61407  0.35127  0.91029  1.0000
  C   C3652     1.0  0.56973  0.33611  0.74597  1.0000
  C   C3653     1.0  0.55136  0.45782  0.69089  1.0000
  H   H2901     1.0  0.54249  0.35722  0.71210  1.0000
  C   C3654     1.0  0.56698  0.48007  0.75707  1.0000
  C   C3655     1.0  0.85911  0.43678  0.86076  1.0000
  C   C3656     1.0  0.84810  0.44432  0.67039  1.0000
  H   H2902     1.0  0.56394  0.43242  0.73487  1.0000
  H   H2903     1.0  0.64386  0.42447  0.73877  1.0000
  C   C3657     1.0  0.67157  0.41420  0.67150  1.0000
  C   C3658     1.0  0.69494  0.46869  0.78279  1.0000
  C   C3659     1.0  0.83372  0.44773  0.92841  1.0000
  H   H2904     1.0  0.89577  0.48224  0.80706  1.0000
  C   C3660     1.0  0.79607  0.45815  0.94179  1.0000
  C   C3661     1.0  0.53674  0.33933  0.79618  1.0000
  C   C3662     1.0  0.49858  0.29965  0.80358  1.0000
  C   C3663     1.0  0.52344  0.37155  0.80004  1.0000
  H   H2905     1.0  0.53661  0.45847  0.85226  1.0000
  H   H2906     1.0  0.78128  0.46176  0.94658  1.0000
  H   H2907     1.0  0.51049  0.46650  0.68930  1.0000
  C   C3664     1.0  0.87001  0.47617  0.82388  1.0000
  H   H2908     1.0  0.86877  0.45649  0.87767  1.0000
  C   C3665     1.0  0.73325  0.46287  0.72750  1.0000
  H   H2909     1.0  0.63019  0.46269  0.68000  1.0000
  C   C3666     1.0  0.72289  0.45525  0.81558  1.0000
  C   C3667     1.0  0.96552  0.37327  0.71867  1.0000
  C   C3668     1.0  0.52951  0.48775  0.85736  1.0000
  H   H2910     1.0  0.58767  0.30288  0.98857  1.0000
  H   H2911     1.0  0.99423  0.40255  0.69841  1.0000
  H   H2912     1.0  0.59848  0.49387  0.72108  1.0000
  H   H2913     1.0  0.95780  0.37977  0.69066  1.0000
  H   H2914     1.0  0.75675  0.46802  0.97398  1.0000
  C   C3669     1.0  0.86551  0.49358  0.88550  1.0000
  C   C3670     1.0  0.73139  0.48112  0.98842  1.0000
  C   C3671     1.0  0.53565  0.43945  0.72612  1.0000
  H   H2915     1.0  0.61761  0.29317  0.96988  1.0000
  H   H2916     1.0  0.73684  0.42373  0.68621  1.0000
  H   H2917     1.0  0.81304  0.42810  0.85941  1.0000
  C   C3672     1.0  0.76250  0.44961  0.80963  1.0000
  C   C3673     1.0  0.97336  0.33594  0.70895  1.0000
  C   C3674     1.0  0.51414  0.41505  0.73409  1.0000
  C   C3675     1.0  0.99376  0.41776  0.95908  1.0000
  C   C3676     1.0  0.78895  0.49218  0.81985  1.0000
  H   H2918     1.0  0.84108  0.48826  0.68624  1.0000
  H   H2919     1.0  0.70477  0.43897  0.78629  1.0000
  H   H2920     1.0  0.54319  0.25549  0.78579  1.0000
  C   C3677     1.0  0.55178  0.29731  0.76162  1.0000
  C   C3678     1.0  0.57247  0.34873  0.70781  1.0000
  H   H2921     1.0  0.52323  0.31682  0.93535  1.0000
  H   H2922     1.0  0.56759  0.27293  0.96029  1.0000
  H   H2923     1.0  0.98740  0.47262  0.79570  1.0000
  H   H2924     1.0  0.99017  0.45054  0.82376  1.0000
  C   C3679     1.0  0.87963  0.49185  0.92061  1.0000
  C   C3680     1.0  0.57322  0.26002  0.93389  1.0000
  H   H2925     1.0  0.84815  0.44320  0.92307  1.0000
  C   C3681     1.0  0.58726  0.33400  0.73502  1.0000
  C   C3682     1.0  0.74886  0.47314  0.72206  1.0000
  C   C3683     1.0  0.50628  0.46533  0.85679  1.0000
  C   C3684     1.0  0.65461  0.43080  0.71007  1.0000
  C   C3685     1.0  0.54807  0.26941  0.78276  1.0000
  C   C3686     1.0  0.59136  0.32952  0.77889  1.0000
  C   C3687     1.0  0.60396  0.31299  0.77990  1.0000
  C   C3688     1.0  0.62201  0.31340  0.78603  1.0000
  C   C3689     1.0  0.62768  0.33032  0.79109  1.0000
  C   C3690     1.0  0.61540  0.34686  0.78976  1.0000
  C   C3691     1.0  0.59745  0.34650  0.78344  1.0000
  H   H2926     1.0  0.64224  0.40981  0.66877  1.0000
  C   C3692     1.0  0.69319  0.38553  0.67336  1.0000
  H   H2927     1.0  0.60001  0.32784  0.74111  1.0000
  H   H2928     1.0  0.60218  0.33918  0.70766  1.0000
  C   C3693     1.0  0.67440  0.44314  0.78641  1.0000
  C   C3694     1.0  0.61793  0.30132  0.98188  1.0000
  H   H2929     1.0  0.80347  0.44020  0.67739  1.0000
  H   H2930     1.0  0.59996  0.29980  0.77580  1.0000
  H   H2931     1.0  0.63163  0.30062  0.78684  1.0000
  H   H2932     1.0  0.64160  0.33068  0.79596  1.0000
  H   H2933     1.0  0.61964  0.36005  0.79372  1.0000
  H   H2934     1.0  0.58841  0.35956  0.78231  1.0000
  H   H2935     1.0  0.85532  0.47736  0.93101  1.0000
  H   H2936     1.0  0.81516  0.48422  0.86290  1.0000
  C   C3695     1.0  0.59341  0.25411  0.95999  1.0000
  C   C3696     1.0  0.81052  0.48734  0.73348  1.0000
  H   H2937     1.0  0.71780  0.49382  0.81777  1.0000
  C   C3697     1.0  0.98131  0.35367  0.99103  1.0000
  H   H2938     1.0  0.65444  0.41636  0.70659  1.0000
  C   C3698     1.0  0.66005  0.44493  0.69642  1.0000
  C   C3699     1.0  0.79576  0.34719  0.98759  1.0000
  H   H2939     1.0  0.52059  0.35645  0.85707  1.0000
  C   C3700     1.0  0.57359  0.47987  0.71804  1.0000
  C   C3701     1.0  0.53728  0.37800  0.78655  1.0000
  H   H2940     1.0  0.64852  0.30041  0.97964  1.0000
  C   C3702     1.0  0.75207  0.45967  0.79590  1.0000
  H   H2941     1.0  0.79988  0.43515  0.96287  1.0000
  C   C3703     1.0  0.94433  0.35964  0.66250  1.0000
  C   C3704     1.0  0.54555  0.27930  0.76544  1.0000
  H   H2942     1.0  0.52702  0.31479  0.90087  1.0000
  H   H2943     1.0  0.53868  0.27302  0.75500  1.0000
  C   C3705     1.0  0.50165  0.49561  0.78084  1.0000
  H   H2944     1.0  0.51982  0.28266  0.81857  1.0000
  C   C3706     1.0  0.80439  0.46802  0.92599  1.0000
  C   C3707     1.0  0.52310  0.35222  0.80477  1.0000
  H   H2945     1.0  0.50633  0.44166  0.71951  1.0000
  H   H2946     1.0  0.96260  0.38774  0.72251  1.0000
  H   H2947     1.0  0.75136  0.49401  0.76251  1.0000
  C   C3708     1.0  0.67816  0.37474  0.67180  1.0000
  C   C3709     1.0  0.82339  0.46303  0.91931  1.0000
  H   H2948     1.0  0.65224  0.48257  0.72358  1.0000
  H   H2949     1.0  0.55785  0.40092  0.74884  1.0000
  H   H2950     1.0  0.79570  0.47912  0.91881  1.0000
  C   C3710     1.0  0.54996  0.42777  0.73465  1.0000
  C   C3711     1.0  0.74690  0.49416  0.95946  1.0000
  H   H2951     1.0  0.97491  0.36311  0.74557  1.0000
  C   C3712     1.0  0.67881  0.48175  0.78156  1.0000
  P   P123      1.0  0.71845  0.47661  0.78181  1.0000
  C   C3713     1.0  0.96627  0.34984  0.69577  1.0000
  H   H2952     1.0  0.83329  0.42596  0.95108  1.0000
  C   C3714     1.0  0.51732  0.48438  0.78799  1.0000
  H   H2953     1.0  0.84316  0.47441  0.84036  1.0000
  C   C3715     1.0  0.85309  0.48374  0.83326  1.0000
  C   C3716     1.0  0.65316  0.46810  0.71983  1.0000
  C   C3717     1.0  0.58273  0.48810  0.74774  1.0000
  H   H2954     1.0  0.68067  0.35952  0.67175  1.0000
  H   H2955     1.0  0.64247  0.45739  0.74739  1.0000
  H   H2956     1.0  0.71200  0.45571  0.74951  1.0000
  H   H2957     1.0  0.52323  0.49226  0.73845  1.0000
  C   C3718     1.0  0.97358  0.47507  0.76064  1.0000
  S   S484      1.0  0.98817  0.40332  0.74627  1.0000
  C   C3719     1.0  0.58609  0.48793  0.72825  1.0000
  C   C3720     1.0  0.98848  0.48674  0.75678  1.0000
  P   P124      1.0  0.83395  0.47459  0.89807  1.0000
  C   C3721     1.0  0.66066  0.47550  0.78270  1.0000
  H   H2958     1.0  0.99654  0.44475  0.96940  1.0000
  C   C3722     1.0  0.97648  0.34072  0.72684  1.0000
  C   C3723     1.0  0.55779  0.47168  0.72736  1.0000
  H   H2959     1.0  0.92681  0.36173  0.68888  1.0000
  H   H2960     1.0  0.72612  0.44003  0.84237  1.0000
  C   C3724     1.0  0.74618  0.48521  0.75288  1.0000
  C   C3725     1.0  0.73048  0.47493  0.75849  1.0000
  H   H2961     1.0  0.56242  0.42873  0.69743  1.0000
  H   H2962     1.0  0.75974  0.46554  0.78342  1.0000
  H   H2963     1.0  0.97796  0.35536  0.97658  1.0000
  C   C3726     1.0  0.71727  0.49627  0.98812  1.0000
  H   H2964     1.0  0.51279  0.34726  0.81574  1.0000
  C   C3727     1.0  0.92817  0.36604  0.67403  1.0000
  H   H2965     1.0  0.51336  0.38155  0.80729  1.0000
  Fe  Fe243     1.0  0.85481  0.49238  0.75951  1.0000
  H   H2966     1.0  0.79802  0.46596  0.98854  1.0000
  C   C3728     1.0  0.56799  0.43682  0.66829  1.0000
  H   H2967     1.0  0.73652  0.42248  0.99131  1.0000
  H   H2968     1.0  0.54336  0.48622  0.67947  1.0000
  P   P125      1.0  0.96312  0.34400  0.67229  1.0000
  H   H2969     1.0  0.98639  0.30752  0.67327  1.0000
  H   H2970     1.0  0.98453  0.42359  0.94848  1.0000
  C   C3729     1.0  0.94854  0.28245  0.67206  1.0000
  H   H2971     1.0  0.99482  0.36718  0.67431  1.0000
  C   C3730     1.0  0.61538  0.27308  0.66787  1.0000
  C   C3731     1.0  0.70049  0.45615  0.67631  1.0000
  P   P126      1.0  0.66708  0.43945  0.67241  1.0000
  H   H2972     1.0  0.59243  0.49422  0.75570  1.0000
  H   H2973     1.0  0.50301  0.45117  0.85489  1.0000
  C   C3732     1.0  0.93398  0.29721  0.67227  1.0000
  C   C3733     1.0  0.51430  0.49099  0.72738  1.0000
  H   H2974     1.0  0.76690  0.34587  0.98150  1.0000
  H   H2975     1.0  0.72642  0.46855  0.67932  1.0000
  H   H2976     1.0  0.54422  0.49092  0.85559  1.0000
  C   C3734     1.0  0.50706  0.47669  0.69980  1.0000
  S   S485      1.0  0.69064  0.49196  0.85067  1.0000
  Fe  Fe244     1.0  0.51111  0.25010  0.88793  1.0000
  H   H2977     1.0  0.75601  0.47245  0.70803  1.0000
  C   C3735     1.0  0.71754  0.46368  0.66964  1.0000
  H   H2978     1.0  0.75794  0.49298  0.94795  1.0000
  H   H2979     1.0  0.68008  0.49677  0.78016  1.0000
  H   H2980     1.0  0.68751  0.49215  0.96713  1.0000
  H   H2981     1.0  0.50022  0.41013  0.73393  1.0000
  H   H2982     1.0  0.81300  0.47347  0.76098  1.0000
  C   C3736     1.0  0.75531  0.48429  0.73477  1.0000
  C   C3737     1.0  0.80657  0.48533  0.71512  1.0000
  C   C3738     1.0  0.77832  0.33945  0.98955  1.0000
  C   C3739     1.0  0.99801  0.35881  0.66232  1.0000
  H   H2983     1.0  0.80786  0.49702  0.70460  1.0000
  C   C3740     1.0  0.65723  0.49589  0.96729  1.0000
  C   C3741     1.0  0.60099  0.30684  0.99249  1.0000
  C   C3742     1.0  0.63175  0.45922  0.66555  1.0000
  S   S486      1.0  0.88376  0.49758  0.76698  1.0000
  H   H2984     1.0  0.76741  0.49228  0.73059  1.0000
  H   H2985     1.0  0.65686  0.49699  0.83119  1.0000
  C   C3743     1.0  0.91360  0.37810  0.66648  1.0000
  H   H2986     1.0  0.80796  0.50784  0.20625  1.0000
  S   S487      1.0  0.71514  0.52850  0.13104  1.0000
  Fe  Fe245     1.0  0.76074  0.53007  0.15753  1.0000
  S   S488      1.0  0.74100  0.55623  0.15047  1.0000
  H   H2987     1.0  0.99301  0.56803  0.22034  1.0000
  Fe  Fe246     1.0  0.71667  0.53845  0.15971  1.0000
  S   S489      1.0  0.69247  0.55293  0.17876  1.0000
  Fe  Fe247     1.0  0.74046  0.54496  0.12200  1.0000
  S   S490      1.0  0.73559  0.56100  0.09362  1.0000
  H   H2988     1.0  0.73541  0.57586  0.19048  1.0000
  C   C3744     1.0  0.98921  0.53676  0.31677  1.0000
  Fe  Fe248     1.0  0.51674  0.72437  0.16062  1.0000
  C   C3745     1.0  0.66065  0.60914  0.12092  1.0000
  H   H2989     1.0  0.68088  0.66132  0.01421  1.0000
  H   H2990     1.0  0.52512  0.64038  0.29182  1.0000
  C   C3746     1.0  0.77767  0.54091  0.03190  1.0000
  H   H2991     1.0  0.72580  0.73828  0.99520  1.0000
  Fe  Fe249     1.0  0.55817  0.56750  0.24823  1.0000
  S   S491      1.0  0.57914  0.57931  0.22570  1.0000
  S   S492      1.0  0.55885  0.56560  0.28022  1.0000
  Fe  Fe250     1.0  0.53575  0.55000  0.22023  1.0000
  S   S493      1.0  0.55528  0.56076  0.19576  1.0000
  C   C3747     1.0  0.77855  0.55578  0.26579  1.0000
  Fe  Fe251     1.0  0.57979  0.55147  0.21310  1.0000
  S   S494      1.0  0.60625  0.53408  0.20036  1.0000
  Fe  Fe252     1.0  0.55351  0.58830  0.20952  1.0000
  S   S495      1.0  0.55386  0.61446  0.18841  1.0000
  S   S496      1.0  0.56045  0.53879  0.23661  1.0000
  S   S497      1.0  0.53235  0.57836  0.23299  1.0000
  Fe  Fe253     1.0  0.87478  0.52147  0.27708  1.0000
  S   S498      1.0  0.88526  0.54014  0.25224  1.0000
  Fe  Fe254     1.0  0.84917  0.55363  0.29554  1.0000
  S   S499      1.0  0.85783  0.57431  0.27164  1.0000
  H   H2992     1.0  0.68485  0.56804  0.32061  1.0000
  Fe  Fe255     1.0  0.85426  0.55182  0.25220  1.0000
  S   S500      1.0  0.83850  0.56135  0.22595  1.0000
  Fe  Fe256     1.0  0.88782  0.56112  0.27357  1.0000
  S   S501      1.0  0.91187  0.57843  0.27925  1.0000
  S   S502      1.0  0.84369  0.53199  0.27596  1.0000
  S   S503      1.0  0.87927  0.54153  0.29851  1.0000
  H   H2993     1.0  0.81294  0.58535  0.25207  1.0000
  S   S504      1.0  0.98312  0.61041  0.22982  1.0000
  H   H2994     1.0  0.60956  0.70790  0.26508  1.0000
  S   S505      1.0  0.78540  0.61140  0.03413  1.0000
  H   H2995     1.0  0.69792  0.56926  0.13758  1.0000
  C   C3748     1.0  0.89549  0.51651  0.21017  1.0000
  H   H2996     1.0  0.52565  0.58073  0.30557  1.0000
  H   H2997     1.0  0.51087  0.71072  0.01169  1.0000
  H   H2998     1.0  0.93923  0.52707  0.28690  1.0000
  H   H2999     1.0  0.76231  0.64524  0.05468  1.0000
  H   H3000     1.0  0.77943  0.53975  0.04678  1.0000
  C   C3749     1.0  0.62119  0.63454  0.26628  1.0000
  C   C3750     1.0  0.93123  0.58754  0.26492  1.0000
  C   C3751     1.0  0.93553  0.58356  0.24613  1.0000
  C   C3752     1.0  0.95147  0.59065  0.23563  1.0000
  C   C3753     1.0  0.96316  0.60195  0.24367  1.0000
  C   C3754     1.0  0.95872  0.60610  0.26238  1.0000
  C   C3755     1.0  0.94292  0.59884  0.27294  1.0000
  H   H3001     1.0  0.92658  0.57509  0.23968  1.0000
  H   H3002     1.0  0.95468  0.58750  0.22113  1.0000
  H   H3003     1.0  0.96755  0.61480  0.26872  1.0000
  H   H3004     1.0  0.93972  0.60203  0.28744  1.0000
  H   H3005     1.0  0.96405  0.55747  0.27337  1.0000
  C   C3756     1.0  0.95347  0.65891  0.02866  1.0000
  H   H3006     1.0  0.57485  0.70540  0.27114  1.0000
  C   C3757     1.0  0.90736  0.49997  0.20710  1.0000
  C   C3758     1.0  0.60174  0.53856  0.28735  1.0000
  C   C3759     1.0  0.61386  0.55271  0.28793  1.0000
  H   H3007     1.0  0.99280  0.60150  0.08588  1.0000
  C   C3760     1.0  0.98776  0.54534  0.18173  1.0000
  C   C3761     1.0  0.52609  0.67620  0.18447  1.0000
  C   C3762     1.0  0.52240  0.66426  0.20076  1.0000
  C   C3763     1.0  0.53069  0.64538  0.20226  1.0000
  C   C3764     1.0  0.54286  0.63815  0.18745  1.0000
  C   C3765     1.0  0.54644  0.65005  0.17111  1.0000
  C   C3766     1.0  0.53810  0.66891  0.16958  1.0000
  C   C3767     1.0  0.71619  0.52515  0.06923  1.0000
  H   H3008     1.0  0.52769  0.63645  0.21488  1.0000
  H   H3009     1.0  0.73459  0.59298  0.21936  1.0000
  H   H3010     1.0  0.54107  0.67784  0.15696  1.0000
  C   C3768     1.0  0.79917  0.53372  0.19048  1.0000
  H   H3011     1.0  0.70858  0.71147  0.99878  1.0000
  C   C3769     1.0  0.82114  0.53105  0.21520  1.0000
  C   C3770     1.0  0.82309  0.55038  0.21283  1.0000
  C   C3771     1.0  0.81268  0.56140  0.19944  1.0000
  C   C3772     1.0  0.80071  0.55318  0.18843  1.0000
  H   H3012     1.0  0.97243  0.63051  0.09426  1.0000
  H   H3013     1.0  0.71643  0.60548  0.02100  1.0000
  H   H3014     1.0  0.81401  0.57640  0.19746  1.0000
  H   H3015     1.0  0.79307  0.56184  0.17804  1.0000
  C   C3773     1.0  0.75037  0.57426  0.07725  1.0000
  C   C3774     1.0  0.74479  0.57856  0.05904  1.0000
  C   C3775     1.0  0.75515  0.59010  0.04579  1.0000
  C   C3776     1.0  0.77153  0.59722  0.05052  1.0000
  C   C3777     1.0  0.77738  0.59261  0.06863  1.0000
  C   C3778     1.0  0.76684  0.58123  0.08197  1.0000
  H   H3016     1.0  0.73246  0.57276  0.05513  1.0000
  H   H3017     1.0  0.75064  0.59328  0.03185  1.0000
  H   H3018     1.0  0.79009  0.59796  0.07240  1.0000
  H   H3019     1.0  0.77135  0.57804  0.09591  1.0000
  C   C3779     1.0  0.66848  0.54748  0.18430  1.0000
  C   C3780     1.0  0.65584  0.55966  0.19519  1.0000
  C   C3781     1.0  0.63662  0.55621  0.19968  1.0000
  C   C3782     1.0  0.62991  0.54009  0.19385  1.0000
  C   C3783     1.0  0.64256  0.52788  0.18298  1.0000
  C   C3784     1.0  0.66165  0.53163  0.17805  1.0000
  H   H3020     1.0  0.66097  0.57187  0.20020  1.0000
  H   H3021     1.0  0.62708  0.56586  0.20786  1.0000
  H   H3022     1.0  0.63755  0.51538  0.17837  1.0000
  H   H3023     1.0  0.67112  0.52210  0.16967  1.0000
  H   H3024     1.0  0.58264  0.62344  0.29870  1.0000
  C   C3785     1.0  0.52206  0.69170  0.09890  1.0000
  C   C3786     1.0  0.57977  0.60906  0.30294  1.0000
  C   C3787     1.0  0.57302  0.59807  0.29003  1.0000
  C   C3788     1.0  0.56894  0.57956  0.29536  1.0000
  C   C3789     1.0  0.57187  0.57215  0.31373  1.0000
  C   C3790     1.0  0.62601  0.60037  0.26556  1.0000
  H   H3025     1.0  0.57034  0.60409  0.27615  1.0000
  H   H3026     1.0  0.50675  0.52961  0.25959  1.0000
  H   H3027     1.0  0.64403  0.61728  0.27847  1.0000
  S   S506      1.0  0.51547  0.70003  0.18365  1.0000
  C   C3791     1.0  0.93748  0.66023  0.01850  1.0000
  H   H3028     1.0  0.60828  0.53186  0.24074  1.0000
  H   H3029     1.0  0.76399  0.51495  0.29076  1.0000
  H   H3030     1.0  0.64549  0.67925  0.07422  1.0000
  C   C3792     1.0  0.72097  0.55664  0.01308  1.0000
  C   C3793     1.0  0.98475  0.55890  0.19496  1.0000
  C   C3794     1.0  0.69024  0.56674  0.22746  1.0000
  C   C3795     1.0  0.70575  0.50819  0.04493  1.0000
  C   C3796     1.0  0.80002  0.51599  0.25619  1.0000
  H   H3031     1.0  0.71303  0.53297  0.08167  1.0000
  C   C3797     1.0  0.70448  0.60903  0.01266  1.0000
  P   P127      1.0  0.63939  0.57816  0.27169  1.0000
  C   C3798     1.0  0.66779  0.55533  0.25231  1.0000
  C   C3799     1.0  0.64672  0.57920  0.29497  1.0000
  C   C3800     1.0  0.63415  0.58785  0.30879  1.0000
  C   C3801     1.0  0.68267  0.58529  0.23013  1.0000
  C   C3802     1.0  0.74591  0.53202  0.27207  1.0000
  C   C3803     1.0  0.73945  0.51084  0.04613  1.0000
  H   H3032     1.0  0.74790  0.57699  0.24762  1.0000
  H   H3033     1.0  0.66207  0.54352  0.26063  1.0000
  H   H3034     1.0  0.61997  0.59359  0.30575  1.0000
  H   H3035     1.0  0.67506  0.56540  0.28895  1.0000
  H   H3036     1.0  0.80956  0.58956  0.28621  1.0000
  C   C3804     1.0  0.67972  0.60900  0.11366  1.0000
  H   H3037     1.0  0.62542  0.64753  0.27067  1.0000
  C   C3805     1.0  0.50646  0.74673  0.22076  1.0000
  C   C3806     1.0  0.51158  0.72485  0.01586  1.0000
  C   C3807     1.0  0.51043  0.68249  0.11283  1.0000
  C   C3808     1.0  0.65296  0.67504  0.06110  1.0000
  H   H3038     1.0  0.96196  0.51036  0.22223  1.0000
  C   C3809     1.0  0.66186  0.68213  0.02809  1.0000
  C   C3810     1.0  0.49895  0.50426  0.27564  1.0000
  C   C3811     1.0  0.51419  0.70167  0.08352  1.0000
  C   C3812     1.0  0.67281  0.66472  0.02732  1.0000
  C   C3813     1.0  0.56710  0.73354  0.25937  1.0000
  H   H3039     1.0  0.55455  0.73980  0.21981  1.0000
  H   H3040     1.0  0.65056  0.62045  0.11613  1.0000
  H   H3041     1.0  0.50582  0.64302  0.12037  1.0000
  H   H3042     1.0  0.53707  0.69194  0.10049  1.0000
  P   P128      1.0  0.76396  0.50547  0.03724  1.0000
  C   C3814     1.0  0.97787  0.72026  0.05211  1.0000
  C   C3815     1.0  0.97849  0.70427  0.04196  1.0000
  H   H3043     1.0  0.58989  0.52051  0.26986  1.0000
  H   H3044     1.0  0.56862  0.55790  0.31808  1.0000
  H   H3045     1.0  0.98769  0.73208  0.07558  1.0000
  C   C3816     1.0  0.68284  0.55179  0.23857  1.0000
  H   H3046     1.0  0.73445  0.56177  0.01504  1.0000
  C   C3817     1.0  0.68850  0.55171  0.02451  1.0000
  H   H3047     1.0  0.75032  0.54303  0.18987  1.0000
  C   C3818     1.0  0.93739  0.67069  0.00120  1.0000
  C   C3819     1.0  0.99245  0.73754  0.00688  1.0000
  C   C3820     1.0  0.78104  0.51770  0.25179  1.0000
  C   C3821     1.0  0.72699  0.53820  0.26879  1.0000
  S   S507      1.0  0.76205  0.52026  0.12815  1.0000
  H   H3048     1.0  0.66122  0.69171  0.01560  1.0000
  H   H3049     1.0  0.70404  0.51609  0.30694  1.0000
  C   C3822     1.0  0.71111  0.63477  0.04675  1.0000
  C   C3823     1.0  0.73687  0.63327  0.06691  1.0000
  H   H3050     1.0  0.61467  0.55867  0.30114  1.0000
  H   H3051     1.0  0.70153  0.56387  0.21644  1.0000
  C   C3824     1.0  0.78241  0.55728  0.02119  1.0000
  C   C3825     1.0  0.68629  0.54315  0.00813  1.0000
  C   C3826     1.0  0.78758  0.57071  0.29234  1.0000
  C   C3827     1.0  0.79817  0.50225  0.05390  1.0000
  S   S508      1.0  0.50703  0.72475  0.13164  1.0000
  H   H3052     1.0  0.78652  0.57229  0.30731  1.0000
  C   C3828     1.0  0.68848  0.62055  0.01948  1.0000
  H   H3053     1.0  0.67687  0.55293  0.03545  1.0000
  H   H3054     1.0  0.62959  0.55676  0.24147  1.0000
  C   C3829     1.0  0.67293  0.62437  0.00865  1.0000
  C   C3830     1.0  0.77949  0.55952  0.00218  1.0000
  Fe  Fe257     1.0  0.77752  0.62197  0.00479  1.0000
  C   C3831     1.0  0.71569  0.52054  0.29724  1.0000
  C   C3832     1.0  0.68410  0.58084  0.07611  1.0000
  C   C3833     1.0  0.66473  0.58137  0.08212  1.0000
  C   C3834     1.0  0.65221  0.59654  0.07600  1.0000
  C   C3835     1.0  0.65910  0.61131  0.06408  1.0000
  C   C3836     1.0  0.67866  0.61122  0.05858  1.0000
  C   C3837     1.0  0.69095  0.59554  0.06417  1.0000
  P   P129      1.0  0.68766  0.62958  0.04232  1.0000
  C   C3838     1.0  0.52252  0.63172  0.32137  1.0000
  C   C3839     1.0  0.67337  0.65202  0.04332  1.0000
  C   C3840     1.0  0.52724  0.72871  0.02480  1.0000
  C   C3841     1.0  0.77061  0.52635  0.02342  1.0000
  P   P130      1.0  0.76560  0.53903  0.25602  1.0000
  H   H3055     1.0  0.76681  0.55082  0.29464  1.0000
  C   C3842     1.0  0.80061  0.58048  0.28045  1.0000
  C   C3843     1.0  0.94281  0.52871  0.23934  1.0000
  C   C3844     1.0  0.59957  0.71971  0.26108  1.0000
  C   C3845     1.0  0.73505  0.52167  0.06174  1.0000
  H   H3056     1.0  0.69391  0.56914  0.08088  1.0000
  H   H3057     1.0  0.65949  0.57004  0.09151  1.0000
  H   H3058     1.0  0.63716  0.59683  0.08048  1.0000
  H   H3059     1.0  0.64914  0.62267  0.05907  1.0000
  H   H3060     1.0  0.70592  0.59474  0.05939  1.0000
  H   H3061     1.0  0.80455  0.50787  0.04057  1.0000
  H   H3062     1.0  0.52319  0.70940  0.07319  1.0000
  C   C3846     1.0  0.52550  0.61021  0.29661  1.0000
  C   C3847     1.0  0.98982  0.54890  0.25642  1.0000
  C   C3848     1.0  0.74847  0.56941  0.23508  1.0000
  H   H3063     1.0  0.52312  0.61792  0.13966  1.0000
  C   C3849     1.0  0.74950  0.51995  0.28802  1.0000
  H   H3064     1.0  0.78817  0.56838  0.02766  1.0000
  H   H3065     1.0  0.71658  0.64941  0.01940  1.0000
  C   C3850     1.0  0.80930  0.52280  0.20414  1.0000
  C   C3851     1.0  0.52458  0.59498  0.31004  1.0000
  C   C3852     1.0  0.58002  0.71830  0.26449  1.0000
  C   C3853     1.0  0.66746  0.58889  0.24373  1.0000
  H   H3066     1.0  0.66018  0.63273  0.01384  1.0000
  P   P131      1.0  0.99024  0.66675  0.03462  1.0000
  H   H3067     1.0  0.55198  0.73229  0.26221  1.0000
  C   C3854     1.0  0.64057  0.60962  0.19536  1.0000
  C   C3855     1.0  0.62249  0.61615  0.20307  1.0000
  C   C3856     1.0  0.60676  0.61607  0.19284  1.0000
  C   C3857     1.0  0.60913  0.60957  0.17485  1.0000
  C   C3858     1.0  0.62730  0.60304  0.16691  1.0000
  C   C3859     1.0  0.64299  0.60306  0.17738  1.0000
  P   P132      1.0  0.63023  0.59457  0.14363  1.0000
  C   C3860     1.0  0.65486  0.59476  0.13414  1.0000
  C   C3861     1.0  0.62271  0.57102  0.14453  1.0000
  C   C3862     1.0  0.63263  0.55730  0.13329  1.0000
  C   C3863     1.0  0.62662  0.53919  0.13393  1.0000
  C   C3864     1.0  0.61037  0.53478  0.14536  1.0000
  C   C3865     1.0  0.60005  0.54849  0.15603  1.0000
  C   C3866     1.0  0.60624  0.56647  0.15578  1.0000
  C   C3867     1.0  0.66851  0.58048  0.14013  1.0000
  C   C3868     1.0  0.52855  0.74692  0.02998  1.0000
  C   C3869     1.0  0.75745  0.54127  0.21836  1.0000
  C   C3870     1.0  0.60999  0.53754  0.25396  1.0000
  S   S509      1.0  0.78585  0.52205  0.17578  1.0000
  C   C3871     1.0  0.61532  0.61017  0.12894  1.0000
  C   C3872     1.0  0.60608  0.60303  0.11502  1.0000
  C   C3873     1.0  0.59437  0.61518  0.10384  1.0000
  C   C3874     1.0  0.59184  0.63450  0.10645  1.0000
  C   C3875     1.0  0.60109  0.64172  0.12018  1.0000
  C   C3876     1.0  0.61284  0.62963  0.13135  1.0000
  H   H3068     1.0  0.65272  0.60941  0.20339  1.0000
  H   H3069     1.0  0.62068  0.62122  0.21696  1.0000
  H   H3070     1.0  0.59264  0.62094  0.19885  1.0000
  H   H3071     1.0  0.59669  0.60969  0.16720  1.0000
  H   H3072     1.0  0.65713  0.59786  0.17189  1.0000
  H   H3073     1.0  0.64509  0.56041  0.12415  1.0000
  H   H3074     1.0  0.63470  0.52848  0.12578  1.0000
  H   H3075     1.0  0.60589  0.52065  0.14623  1.0000
  H   H3076     1.0  0.58761  0.54496  0.16514  1.0000
  H   H3077     1.0  0.59816  0.57659  0.16458  1.0000
  H   H3078     1.0  0.66449  0.56941  0.15054  1.0000
  H   H3079     1.0  0.68411  0.62004  0.10342  1.0000
  C   C3877     1.0  0.74784  0.64278  0.05270  1.0000
  H   H3080     1.0  0.82895  0.52247  0.22543  1.0000
  H   H3081     1.0  0.60770  0.58809  0.11294  1.0000
  H   H3082     1.0  0.58704  0.60957  0.09331  1.0000
  H   H3083     1.0  0.58258  0.64387  0.09794  1.0000
  H   H3084     1.0  0.59897  0.65667  0.12233  1.0000
  H   H3085     1.0  0.61985  0.63546  0.14199  1.0000
  H   H3086     1.0  0.71012  0.62257  0.07550  1.0000
  H   H3087     1.0  0.75898  0.50287  0.24249  1.0000
  C   C3878     1.0  0.50702  0.62494  0.16549  1.0000
  S   S510      1.0  0.54807  0.73177  0.09451  1.0000
  C   C3879     1.0  0.65185  0.68726  0.04493  1.0000
  C   C3880     1.0  0.98427  0.51139  0.29769  1.0000
  C   C3881     1.0  0.97721  0.52453  0.31082  1.0000
  C   C3882     1.0  0.99091  0.64593  0.05070  1.0000
  H   H3088     1.0  0.68847  0.53740  0.23613  1.0000
  S   S511      1.0  0.50853  0.53571  0.21610  1.0000
  H   H3089     1.0  0.98136  0.68594  0.99849  1.0000
  H   H3090     1.0  0.75566  0.72550  0.00822  1.0000
  C   C3883     1.0  0.70156  0.51826  0.06096  1.0000
  H   H3091     1.0  0.97105  0.65871  0.07201  1.0000
  H   H3092     1.0  0.69742  0.53706  0.27862  1.0000
  C   C3884     1.0  0.67067  0.57347  0.31728  1.0000
  C   C3885     1.0  0.69312  0.59453  0.11950  1.0000
  H   H3093     1.0  0.69442  0.50287  0.03848  1.0000
  S   S512      1.0  0.73632  0.51321  0.16833  1.0000
  H   H3094     1.0  0.97445  0.57107  0.19306  1.0000
  C   C3886     1.0  0.74136  0.56894  0.20287  1.0000
  C   C3887     1.0  0.87608  0.51559  0.21518  1.0000
  C   C3888     1.0  0.56899  0.73641  0.06055  1.0000
  H   H3095     1.0  0.97116  0.70534  0.02937  1.0000
  H   H3096     1.0  0.79352  0.56384  0.23905  1.0000
  C   C3889     1.0  0.70583  0.55838  0.02700  1.0000
  C   C3890     1.0  0.75671  0.55064  0.23487  1.0000
  H   H3097     1.0  0.51310  0.66968  0.21235  1.0000
  C   C3891     1.0  0.75377  0.74026  0.00318  1.0000
  H   H3098     1.0  0.74283  0.62848  0.07998  1.0000
  H   H3099     1.0  0.73737  0.50507  0.31290  1.0000
  H   H3100     1.0  0.74620  0.52713  0.06839  1.0000
  C   C3892     1.0  0.72205  0.64479  0.03275  1.0000
  H   H3101     1.0  0.95315  0.65080  0.04204  1.0000
  H   H3102     1.0  0.96241  0.52545  0.31635  1.0000
  H   H3103     1.0  0.66487  0.64846  0.07310  1.0000
  H   H3104     1.0  0.70755  0.56472  0.03981  1.0000
  H   H3105     1.0  0.68835  0.59681  0.22132  1.0000
  C   C3893     1.0  0.98770  0.57129  0.28027  1.0000
  H   H3106     1.0  0.72368  0.54728  0.25652  1.0000
  H   H3107     1.0  0.82451  0.49965  0.06691  1.0000
  H   H3108     1.0  0.52155  0.64605  0.32555  1.0000
  H   H3109     1.0  0.51478  0.61401  0.17391  1.0000
  H   H3110     1.0  0.59332  0.53391  0.29995  1.0000
  H   H3111     1.0  0.68700  0.52068  0.06701  1.0000
  H   H3112     1.0  0.93671  0.53671  0.22755  1.0000
  H   H3113     1.0  0.80606  0.52765  0.26135  1.0000
  C   C3894     1.0  0.63168  0.61735  0.27073  1.0000
  C   C3895     1.0  0.52506  0.73895  0.21627  1.0000
  C   C3896     1.0  0.74085  0.57851  0.21914  1.0000
  C   C3897     1.0  0.99219  0.61384  0.07603  1.0000
  C   C3898     1.0  0.65978  0.57390  0.25482  1.0000
  C   C3899     1.0  0.68751  0.58034  0.13280  1.0000
  C   C3900     1.0  0.71197  0.53242  0.28132  1.0000
  C   C3901     1.0  0.60994  0.60093  0.25555  1.0000
  H   H3114     1.0  0.95261  0.65730  0.31597  1.0000
  H   H3115     1.0  0.62137  0.73748  0.24992  1.0000
  C   C3902     1.0  0.56423  0.74351  0.07829  1.0000
  H   H3116     1.0  0.83541  0.69488  0.99941  1.0000
  H   H3117     1.0  0.55574  0.64463  0.15952  1.0000
  H   H3118     1.0  0.97927  0.57937  0.29080  1.0000
  C   C3903     1.0  0.60508  0.63493  0.25649  1.0000
  H   H3119     1.0  0.60512  0.58810  0.25156  1.0000
  C   C3904     1.0  0.93649  0.53331  0.25758  1.0000
  C   C3905     1.0  0.62422  0.55934  0.27147  1.0000
  H   H3120     1.0  0.86684  0.52843  0.21753  1.0000
  C   C3906     1.0  0.49852  0.51332  0.21878  1.0000
  C   C3907     1.0  0.96926  0.67862  0.00419  1.0000
  H   H3121     1.0  0.74873  0.65638  0.02481  1.0000
  C   C3908     1.0  0.59950  0.61814  0.25109  1.0000
  H   H3122     1.0  0.59680  0.64820  0.25322  1.0000
  H   H3123     1.0  0.92555  0.54481  0.25994  1.0000
  C   C3909     1.0  0.66504  0.57198  0.29935  1.0000
  C   C3910     1.0  0.98002  0.64615  0.06813  1.0000
  C   C3911     1.0  0.95702  0.51391  0.23638  1.0000
  H   H3124     1.0  0.92510  0.65317  0.02403  1.0000
  C   C3912     1.0  0.95841  0.50813  0.27007  1.0000
  C   C3913     1.0  0.71842  0.62959  0.06412  1.0000
  H   H3125     1.0  0.90130  0.53006  0.20882  1.0000
  H   H3126     1.0  0.58690  0.61836  0.24363  1.0000
  H   H3127     1.0  0.51665  0.67594  0.12522  1.0000
  C   C3914     1.0  0.73446  0.51431  0.30058  1.0000
  C   C3915     1.0  0.77654  0.55840  0.28508  1.0000
  Fe  Fe258     1.0  0.53235  0.74105  0.12212  1.0000
  H   H3128     1.0  0.52734  0.60766  0.28183  1.0000
  C   C3916     1.0  0.66381  0.65755  0.06036  1.0000
  H   H3129     1.0  0.50964  0.74494  0.08494  1.0000
  C   C3917     1.0  0.54022  0.74591  0.22364  1.0000
  H   H3130     1.0  0.97017  0.73334  0.04728  1.0000
  C   C3918     1.0  0.98071  0.63017  0.08075  1.0000
  C   C3919     1.0  0.94429  0.52315  0.27289  1.0000
  H   H3131     1.0  0.66160  0.60331  0.24534  1.0000
  C   C3920     1.0  0.80253  0.57809  0.26125  1.0000
  H   H3132     1.0  0.64343  0.70081  0.04546  1.0000
  H   H3133     1.0  0.98959  0.70832  0.30910  1.0000
  S   S513      1.0  0.82739  0.56669  0.31788  1.0000
  C   C3921     1.0  0.74031  0.64882  0.03576  1.0000
  C   C3922     1.0  0.59974  0.53104  0.27038  1.0000
  H   H3134     1.0  0.98290  0.53961  0.24873  1.0000
  C   C3923     1.0  0.62213  0.55165  0.25446  1.0000
  C   C3924     1.0  0.76722  0.52893  0.00441  1.0000
  C   C3925     1.0  0.79153  0.56583  0.25393  1.0000
  C   C3926     1.0  0.60621  0.73638  0.25255  1.0000
  C   C3927     1.0  0.74967  0.55037  0.20253  1.0000
  H   H3135     1.0  0.56265  0.72415  0.05712  1.0000
  H   H3136     1.0  0.70788  0.59423  0.11376  1.0000
  H   H3137     1.0  0.76421  0.52708  0.21737  1.0000
  H   H3138     1.0  0.89226  0.58423  0.31666  1.0000
  C   C3928     1.0  0.96955  0.66806  0.02153  1.0000
  C   C3929     1.0  0.63980  0.58930  0.32667  1.0000
  S   S514      1.0  0.54305  0.73892  0.15087  1.0000
  H   H3139     1.0  0.97964  0.54689  0.16960  1.0000
  C   C3930     1.0  0.77372  0.50206  0.24546  1.0000
  Fe  Fe259     1.0  0.73684  0.50466  0.13879  1.0000
  C   C3931     1.0  0.50206  0.64157  0.13535  1.0000
  C   C3932     1.0  0.72461  0.50467  0.03743  1.0000
  H   H3140     1.0  0.53851  0.71767  0.02752  1.0000
  C   C3933     1.0  0.98891  0.68741  0.04783  1.0000
  C   C3934     1.0  0.57895  0.58301  0.32655  1.0000
  H   H3141     1.0  0.67297  0.53753  0.00682  1.0000
  C   C3935     1.0  0.58187  0.74506  0.04717  1.0000
  H   H3142     1.0  0.58527  0.73951  0.03355  1.0000
  C   C3936     1.0  0.58262  0.60168  0.32134  1.0000
  H   H3143     1.0  0.92246  0.50064  0.20346  1.0000
  H   H3144     1.0  0.52772  0.72760  0.20690  1.0000
  H   H3145     1.0  0.76087  0.51832  0.99779  1.0000
  C   C3937     1.0  0.96489  0.50371  0.25168  1.0000
  C   C3938     1.0  0.51177  0.62722  0.14616  1.0000
  C   C3939     1.0  0.97912  0.55890  0.27044  1.0000
  C   C3940     1.0  0.98777  0.71958  0.06804  1.0000
  H   H3146     1.0  0.98351  0.66733  0.32238  1.0000
  C   C3941     1.0  0.99527  0.55704  0.21055  1.0000
  C   C3942     1.0  0.52439  0.62859  0.30227  1.0000
  H   H3147     1.0  0.78143  0.74621  0.00965  1.0000
  C   C3943     1.0  0.73680  0.74758  0.99584  1.0000
  H   H3148     1.0  0.98497  0.74801  0.01565  1.0000
  C   C3944     1.0  0.71875  0.54828  0.99659  1.0000
  C   C3945     1.0  0.81157  0.49908  0.25390  1.0000
  S   S515      1.0  0.74834  0.62169  0.99576  1.0000
  H   H3149     1.0  0.51357  0.49866  0.27700  1.0000
  H   H3150     1.0  0.86749  0.70624  0.99603  1.0000
  C   C3946     1.0  0.77870  0.49978  0.05636  1.0000
  H   H3151     1.0  0.98368  0.54689  0.32687  1.0000
  H   H3152     1.0  0.50685  0.49915  0.32759  1.0000
  C   C3947     1.0  0.70536  0.60230  0.99481  1.0000
  C   C3948     1.0  0.95313  0.66673  0.32697  1.0000
  Fe  Fe260     1.0  0.59573  0.61178  0.36833  1.0000
  S   S516      1.0  0.57344  0.61265  0.39302  1.0000
  S   S517      1.0  0.59100  0.61633  0.33701  1.0000
  Fe  Fe261     1.0  0.62860  0.60823  0.39393  1.0000
  S   S518      1.0  0.60879  0.60868  0.42040  1.0000
  S   S519      1.0  0.66117  0.60505  0.38989  1.0000
  Fe  Fe262     1.0  0.59213  0.58921  0.40672  1.0000
  S   S520      1.0  0.58367  0.56098  0.42076  1.0000
  Fe  Fe263     1.0  0.59133  0.63232  0.40515  1.0000
  S   S521      1.0  0.57469  0.65706  0.42008  1.0000
  S   S522      1.0  0.61329  0.58708  0.38113  1.0000
  S   S523      1.0  0.61225  0.63317  0.37950  1.0000
  C   C3949     1.0  0.51714  0.59405  0.39056  1.0000
  C   C3950     1.0  0.74062  0.52167  0.43999  1.0000
  C   C3951     1.0  0.69655  0.51121  0.44262  1.0000
  H   H3153     1.0  0.86191  0.65014  0.35690  1.0000
  S   S524      1.0  0.89446  0.72526  0.46877  1.0000
  C   C3952     1.0  0.96289  0.74572  0.47999  1.0000
  H   H3154     1.0  0.99338  0.68712  0.46937  1.0000
  S   S525      1.0  0.85560  0.72704  0.49692  1.0000
  S   S526      1.0  0.51102  0.54127  0.47581  1.0000
  H   H3155     1.0  0.84416  0.53834  0.34511  1.0000
  Fe  Fe264     1.0  0.86468  0.71700  0.46815  1.0000
  S   S527      1.0  0.86364  0.68702  0.45860  1.0000
  C   C3953     1.0  0.71891  0.72177  0.44050  1.0000
  Fe  Fe265     1.0  0.75506  0.58365  0.44708  1.0000
  S   S528      1.0  0.77317  0.55579  0.44964  1.0000
  S   S529      1.0  0.72241  0.58526  0.44994  1.0000
  Fe  Fe266     1.0  0.78949  0.60650  0.44914  1.0000
  S   S530      1.0  0.80965  0.58019  0.45196  1.0000
  S   S531      1.0  0.79472  0.63774  0.44987  1.0000
  Fe  Fe267     1.0  0.79445  0.56994  0.42908  1.0000
  S   S532      1.0  0.81220  0.55255  0.40701  1.0000
  Fe  Fe268     1.0  0.78694  0.56770  0.47223  1.0000
  S   S533      1.0  0.79267  0.55369  0.50152  1.0000
  S   S534      1.0  0.77539  0.59697  0.42503  1.0000
  S   S535      1.0  0.76779  0.59490  0.47091  1.0000
  H   H3156     1.0  0.76512  0.54882  0.39645  1.0000
  C   C3954     1.0  0.78991  0.53058  0.51263  1.0000
  C   C3955     1.0  0.78375  0.51614  0.50336  1.0000
  H   H3157     1.0  0.51614  0.57372  0.41453  1.0000
  C   C3956     1.0  0.79394  0.52668  0.53147  1.0000
  C   C3957     1.0  0.93183  0.68853  0.39775  1.0000
  H   H3158     1.0  0.83003  0.61674  0.35218  1.0000
  H   H3159     1.0  0.79877  0.53764  0.53883  1.0000
  H   H3160     1.0  0.78058  0.51887  0.48893  1.0000
  C   C3958     1.0  0.67326  0.50445  0.47572  1.0000
  P   P133      1.0  0.51939  0.62054  0.35957  1.0000
  H   H3161     1.0  0.54633  0.55543  0.40396  1.0000
  C   C3959     1.0  0.82171  0.62032  0.36506  1.0000
  C   C3960     1.0  0.84422  0.67328  0.45715  1.0000
  C   C3961     1.0  0.84802  0.65407  0.45352  1.0000
  C   C3962     1.0  0.83314  0.64281  0.45164  1.0000
  C   C3963     1.0  0.81420  0.65063  0.45339  1.0000
  C   C3964     1.0  0.81042  0.66973  0.45728  1.0000
  C   C3965     1.0  0.82527  0.68098  0.45920  1.0000
  H   H3162     1.0  0.86259  0.64785  0.45207  1.0000
  H   H3163     1.0  0.83630  0.62818  0.44855  1.0000
  H   H3164     1.0  0.79584  0.67584  0.45869  1.0000
  H   H3165     1.0  0.82209  0.69569  0.46196  1.0000
  Fe  Fe269     1.0  0.88467  0.73725  0.49653  1.0000
  C   C3966     1.0  0.81020  0.57476  0.35275  1.0000
  C   C3967     1.0  0.80671  0.57215  0.37244  1.0000
  C   C3968     1.0  0.81655  0.55715  0.38231  1.0000
  C   C3969     1.0  0.83010  0.54507  0.37227  1.0000
  C   C3970     1.0  0.83374  0.54780  0.35261  1.0000
  H   H3166     1.0  0.80235  0.58625  0.34523  1.0000
  H   H3167     1.0  0.79626  0.58158  0.37994  1.0000
  H   H3168     1.0  0.83780  0.53342  0.37975  1.0000
  C   C3971     1.0  0.53501  0.74216  0.50926  1.0000
  Fe  Fe270     1.0  0.50691  0.51492  0.49560  1.0000
  H   H3169     1.0  0.92290  0.66924  0.33430  1.0000
  C   C3972     1.0  0.54355  0.73493  0.47694  1.0000
  C   C3973     1.0  0.86736  0.60692  0.36132  1.0000
  H   H3170     1.0  0.79474  0.50611  0.55544  1.0000
  H   H3171     1.0  0.91381  0.67250  0.41766  1.0000
  C   C3974     1.0  0.53204  0.54675  0.46173  1.0000
  C   C3975     1.0  0.54706  0.53301  0.45757  1.0000
  C   C3976     1.0  0.56294  0.53774  0.44535  1.0000
  C   C3977     1.0  0.56410  0.55626  0.43728  1.0000
  C   C3978     1.0  0.54931  0.57012  0.44180  1.0000
  C   C3979     1.0  0.53331  0.56533  0.45381  1.0000
  H   H3172     1.0  0.54628  0.51865  0.46349  1.0000
  H   H3173     1.0  0.57432  0.52693  0.44197  1.0000
  H   H3174     1.0  0.54999  0.58440  0.43564  1.0000
  H   H3175     1.0  0.52178  0.57607  0.45693  1.0000
  H   H3176     1.0  0.73278  0.73818  0.41767  1.0000
  C   C3980     1.0  0.58051  0.68068  0.42079  1.0000
  C   C3981     1.0  0.56648  0.69441  0.42784  1.0000
  C   C3982     1.0  0.57061  0.71317  0.42918  1.0000
  C   C3983     1.0  0.58895  0.71836  0.42379  1.0000
  C   C3984     1.0  0.60294  0.70466  0.41668  1.0000
  C   C3985     1.0  0.59873  0.68599  0.41503  1.0000
  H   H3177     1.0  0.55234  0.69050  0.43235  1.0000
  H   H3178     1.0  0.55969  0.72354  0.43456  1.0000
  H   H3179     1.0  0.61718  0.70848  0.41249  1.0000
  H   H3180     1.0  0.60969  0.67562  0.40965  1.0000
  C   C3986     1.0  0.67793  0.60035  0.40696  1.0000
  C   C3987     1.0  0.69749  0.59954  0.40104  1.0000
  C   C3988     1.0  0.71130  0.59547  0.41402  1.0000
  C   C3989     1.0  0.70570  0.59173  0.43307  1.0000
  C   C3990     1.0  0.68614  0.59275  0.43902  1.0000
  C   C3991     1.0  0.67233  0.59722  0.42609  1.0000
  H   H3181     1.0  0.70199  0.60216  0.38631  1.0000
  H   H3182     1.0  0.72626  0.59512  0.40925  1.0000
  H   H3183     1.0  0.68162  0.59028  0.45376  1.0000
  H   H3184     1.0  0.65740  0.59842  0.43090  1.0000
  H   H3185     1.0  0.70122  0.70786  0.46237  1.0000
  H   H3186     1.0  0.67270  0.72981  0.45773  1.0000
  H   H3187     1.0  0.55344  0.59453  0.35585  1.0000
  P   P134      1.0  0.72977  0.50982  0.46104  1.0000
  C   C3992     1.0  0.76735  0.52457  0.41622  1.0000
  C   C3993     1.0  0.86323  0.63964  0.38592  1.0000
  H   H3188     1.0  0.53945  0.66564  0.40058  1.0000
  C   C3994     1.0  0.54482  0.58965  0.36822  1.0000
  S   S536      1.0  0.51364  0.51378  0.52572  1.0000
  C   C3995     1.0  0.54208  0.65949  0.38715  1.0000
  H   H3189     1.0  0.66429  0.50178  0.48856  1.0000
  H   H3190     1.0  0.73137  0.71195  0.44254  1.0000
  H   H3191     1.0  0.90001  0.57878  0.64569  1.0000
  C   C3996     1.0  0.99425  0.71123  0.37121  1.0000
  C   C3997     1.0  0.83484  0.58050  0.49041  1.0000
  C   C3998     1.0  0.84977  0.58488  0.47716  1.0000
  C   C3999     1.0  0.85678  0.60251  0.47643  1.0000
  C   C4000     1.0  0.84895  0.61574  0.48908  1.0000
  C   C4001     1.0  0.83395  0.61143  0.50251  1.0000
  C   C4002     1.0  0.82676  0.59377  0.50286  1.0000
  P   P135      1.0  0.82370  0.62832  0.51903  1.0000
  C   C4003     1.0  0.80245  0.64118  0.51087  1.0000
  C   C4004     1.0  0.81782  0.61550  0.54124  1.0000
  C   C4005     1.0  0.82996  0.59989  0.54736  1.0000
  C   C4006     1.0  0.82516  0.58948  0.56419  1.0000
  C   C4007     1.0  0.80831  0.59465  0.57511  1.0000
  C   C4008     1.0  0.79627  0.61029  0.56924  1.0000
  C   C4009     1.0  0.80098  0.62070  0.55237  1.0000
  C   C4010     1.0  0.79122  0.63290  0.49942  1.0000
  C   C4011     1.0  0.77454  0.64281  0.49358  1.0000
  C   C4012     1.0  0.76901  0.66106  0.49897  1.0000
  C   C4013     1.0  0.78003  0.66937  0.51047  1.0000
  C   C4014     1.0  0.79662  0.65945  0.51650  1.0000
  C   C4015     1.0  0.84063  0.64495  0.52177  1.0000
  C   C4016     1.0  0.85109  0.64340  0.53753  1.0000
  C   C4017     1.0  0.86394  0.65659  0.53946  1.0000
  C   C4018     1.0  0.86647  0.67134  0.52569  1.0000
  C   C4019     1.0  0.85617  0.67289  0.50997  1.0000
  C   C4020     1.0  0.84328  0.65981  0.50802  1.0000
  H   H3192     1.0  0.82925  0.56688  0.49082  1.0000
  H   H3193     1.0  0.85565  0.57465  0.46730  1.0000
  H   H3194     1.0  0.86813  0.60604  0.46594  1.0000
  H   H3195     1.0  0.85458  0.62931  0.48817  1.0000
  H   H3196     1.0  0.81487  0.59017  0.51271  1.0000
  H   H3197     1.0  0.84301  0.59560  0.53899  1.0000
  H   H3198     1.0  0.83440  0.57723  0.56866  1.0000
  H   H3199     1.0  0.80451  0.58643  0.58805  1.0000
  H   H3200     1.0  0.78315  0.61422  0.57766  1.0000
  H   H3201     1.0  0.79134  0.63262  0.54800  1.0000
  H   H3202     1.0  0.79533  0.61891  0.49473  1.0000
  H   H3203     1.0  0.76617  0.63643  0.48442  1.0000
  H   H3204     1.0  0.75621  0.66872  0.49415  1.0000
  H   H3205     1.0  0.77572  0.68351  0.51473  1.0000
  H   H3206     1.0  0.80487  0.66604  0.52557  1.0000
  H   H3207     1.0  0.84937  0.63214  0.54837  1.0000
  C   C4021     1.0  0.79082  0.62911  0.38117  1.0000
  H   H3208     1.0  0.85820  0.68423  0.49922  1.0000
  H   H3209     1.0  0.83541  0.66126  0.49573  1.0000
  C   C4022     1.0  0.90661  0.58811  0.65369  1.0000
  C   C4023     1.0  0.61378  0.51811  0.49126  1.0000
  C   C4024     1.0  0.60664  0.53635  0.48487  1.0000
  C   C4025     1.0  0.58686  0.54119  0.48663  1.0000
  P   P136      1.0  0.62263  0.55263  0.47298  1.0000
  C   C4026     1.0  0.64537  0.54993  0.48293  1.0000
  C   C4027     1.0  0.62627  0.54865  0.44831  1.0000
  C   C4028     1.0  0.62181  0.53184  0.44164  1.0000
  C   C4029     1.0  0.62540  0.52877  0.42257  1.0000
  C   C4030     1.0  0.63345  0.54243  0.41006  1.0000
  C   C4031     1.0  0.63775  0.55923  0.41659  1.0000
  C   C4032     1.0  0.63385  0.56247  0.43556  1.0000
  C   C4033     1.0  0.66216  0.55400  0.47189  1.0000
  C   C4034     1.0  0.67949  0.55275  0.47986  1.0000
  C   C4035     1.0  0.68027  0.54732  0.49889  1.0000
  C   C4036     1.0  0.66368  0.54331  0.51003  1.0000
  C   C4037     1.0  0.64627  0.54476  0.50215  1.0000
  C   C4038     1.0  0.61221  0.57665  0.47525  1.0000
  C   C4039     1.0  0.59780  0.58420  0.46399  1.0000
  C   C4040     1.0  0.58970  0.60277  0.46548  1.0000
  C   C4041     1.0  0.59613  0.61409  0.47801  1.0000
  C   C4042     1.0  0.61048  0.60673  0.48928  1.0000
  C   C4043     1.0  0.61847  0.58807  0.48798  1.0000
  H   H3210     1.0  0.94029  0.67608  0.39285  1.0000
  H   H3211     1.0  0.58071  0.55480  0.48126  1.0000
  H   H3212     1.0  0.61524  0.52125  0.45099  1.0000
  C   C4044     1.0  0.91019  0.74261  0.53752  1.0000
  H   H3213     1.0  0.63588  0.54025  0.39524  1.0000
  H   H3214     1.0  0.64378  0.56997  0.40691  1.0000
  H   H3215     1.0  0.63677  0.57577  0.44031  1.0000
  H   H3216     1.0  0.66210  0.55836  0.45715  1.0000
  H   H3217     1.0  0.69231  0.55618  0.47126  1.0000
  H   H3218     1.0  0.69374  0.54641  0.50501  1.0000
  H   H3219     1.0  0.66428  0.53934  0.52486  1.0000
  H   H3220     1.0  0.63349  0.54214  0.51112  1.0000
  H   H3221     1.0  0.59287  0.57575  0.45396  1.0000
  H   H3222     1.0  0.57869  0.60850  0.45658  1.0000
  H   H3223     1.0  0.59010  0.62861  0.47881  1.0000
  H   H3224     1.0  0.61553  0.61557  0.49892  1.0000
  H   H3225     1.0  0.62959  0.58275  0.49681  1.0000
  C   C4045     1.0  0.55806  0.66372  0.37520  1.0000
  H   H3226     1.0  0.74022  0.56541  0.49419  1.0000
  H   H3227     1.0  0.61079  0.73900  0.47006  1.0000
  H   H3228     1.0  0.58145  0.57699  0.34049  1.0000
  C   C4046     1.0  0.93644  0.67349  0.33729  1.0000
  H   H3229     1.0  0.98640  0.74526  0.51287  1.0000
  H   H3230     1.0  0.51835  0.64287  0.39206  1.0000
  C   C4047     1.0  0.77671  0.71653  0.45407  1.0000
  H   H3231     1.0  0.97493  0.70874  0.56210  1.0000
  C   C4048     1.0  0.55377  0.74581  0.51075  1.0000
  H   H3232     1.0  0.87193  0.65543  0.55165  1.0000
  C   C4049     1.0  0.92914  0.74579  0.56371  1.0000
  H   H3233     1.0  0.97986  0.66325  0.45305  1.0000
  C   C4050     1.0  0.97772  0.70640  0.38216  1.0000
  P   P137      1.0  0.97755  0.72357  0.48282  1.0000
  C   C4051     1.0  0.96716  0.70553  0.47204  1.0000
  C   C4052     1.0  0.97787  0.71806  0.50780  1.0000
  C   C4053     1.0  0.55152  0.57364  0.37902  1.0000
  H   H3234     1.0  0.57489  0.65783  0.34932  1.0000
  C   C4054     1.0  0.73486  0.54133  0.48004  1.0000
  H   H3235     1.0  0.78155  0.51966  0.41046  1.0000
  C   C4055     1.0  0.94992  0.65168  0.66047  1.0000
  C   C4056     1.0  0.97857  0.68927  0.46658  1.0000
  C   C4057     1.0  0.97096  0.67571  0.45730  1.0000
  C   C4058     1.0  0.95190  0.67823  0.45350  1.0000
  C   C4059     1.0  0.94040  0.69423  0.45911  1.0000
  C   C4060     1.0  0.94794  0.70780  0.46842  1.0000
  C   C4061     1.0  0.93584  0.70660  0.39013  1.0000
  C   C4062     1.0  0.52978  0.73665  0.49234  1.0000
  H   H3236     1.0  0.52986  0.69655  0.49350  1.0000
  H   H3237     1.0  0.84827  0.58500  0.36212  1.0000
  H   H3238     1.0  0.79537  0.62299  0.35211  1.0000
  C   C4063     1.0  0.92643  0.58709  0.65323  1.0000
  H   H3239     1.0  0.71793  0.54440  0.43823  1.0000
  P   P138      1.0  0.50564  0.73205  0.48988  1.0000
  C   C4064     1.0  0.79168  0.50875  0.54096  1.0000
  H   H3240     1.0  0.56521  0.56615  0.37498  1.0000
  H   H3241     1.0  0.93424  0.72340  0.54478  1.0000
  C   C4065     1.0  0.56207  0.65519  0.35825  1.0000
  H   H3242     1.0  0.86343  0.63472  0.41610  1.0000
  H   H3243     1.0  0.94288  0.73892  0.50378  1.0000
  H   H3244     1.0  0.77441  0.70323  0.44878  1.0000
  H   H3245     1.0  0.51584  0.66673  0.44809  1.0000
  C   C4066     1.0  0.62209  0.74821  0.46949  1.0000
  C   C4067     1.0  0.70453  0.50905  0.45990  1.0000
  H   H3246     1.0  0.94597  0.66776  0.44632  1.0000
  H   H3247     1.0  0.92558  0.69612  0.45628  1.0000
  H   H3248     1.0  0.93870  0.72005  0.47260  1.0000
  H   H3249     1.0  0.76632  0.73307  0.43041  1.0000
  H   H3250     1.0  0.52464  0.74413  0.52119  1.0000
  C   C4068     1.0  0.69274  0.50547  0.47642  1.0000
  C   C4069     1.0  0.71971  0.73655  0.42654  1.0000
  C   C4070     1.0  0.73310  0.52187  0.48152  1.0000
  H   H3251     1.0  0.86390  0.57111  0.33350  1.0000
  H   H3252     1.0  0.73316  0.56089  0.41025  1.0000
  H   H3253     1.0  0.87608  0.68997  0.39373  1.0000
  C   C4071     1.0  0.53017  0.64663  0.38224  1.0000
  C   C4072     1.0  0.52386  0.57798  0.40135  1.0000
  H   H3254     1.0  0.96830  0.69017  0.50800  1.0000
  P   P139      1.0  0.85578  0.61684  0.38237  1.0000
  C   C4073     1.0  0.86158  0.59958  0.40117  1.0000
  C   C4074     1.0  0.67700  0.51046  0.44200  1.0000
  C   C4075     1.0  0.60143  0.50525  0.49988  1.0000
  C   C4076     1.0  0.97140  0.68474  0.34456  1.0000
  C   C4077     1.0  0.97600  0.71121  0.54695  1.0000
  C   C4078     1.0  0.97148  0.69743  0.53582  1.0000
  H   H3255     1.0  0.92784  0.73666  0.39171  1.0000
  C   C4079     1.0  0.84877  0.58644  0.40816  1.0000
  C   C4080     1.0  0.85395  0.57215  0.42170  1.0000
  C   C4081     1.0  0.87193  0.57084  0.42830  1.0000
  C   C4082     1.0  0.88480  0.58383  0.42135  1.0000
  C   C4083     1.0  0.87972  0.59805  0.40769  1.0000
  C   C4084     1.0  0.83034  0.62116  0.38172  1.0000
  C   C4085     1.0  0.81903  0.62647  0.39796  1.0000
  C   C4086     1.0  0.79938  0.63052  0.39762  1.0000
  C   C4087     1.0  0.53391  0.63827  0.36507  1.0000
  C   C4088     1.0  0.92485  0.72252  0.39695  1.0000
  H   H3256     1.0  0.50423  0.60218  0.39566  1.0000
  C   C4089     1.0  0.78434  0.71662  0.47128  1.0000
  H   H3257     1.0  0.99230  0.72690  0.44346  1.0000
  C   C4090     1.0  0.86570  0.64457  0.40400  1.0000
  C   C4091     1.0  0.98244  0.73179  0.51910  1.0000
  C   C4092     1.0  0.95464  0.74448  0.42703  1.0000
  C   C4093     1.0  0.95069  0.66894  0.64985  1.0000
  H   H3258     1.0  0.53493  0.66868  0.47476  1.0000
  C   C4094     1.0  0.52288  0.59803  0.32912  1.0000
  H   H3259     1.0  0.62144  0.51605  0.41739  1.0000
  C   C4095     1.0  0.87262  0.67593  0.39150  1.0000
  H   H3260     1.0  0.83493  0.58683  0.40289  1.0000
  H   H3261     1.0  0.84407  0.56186  0.42678  1.0000
  H   H3262     1.0  0.87594  0.55955  0.43859  1.0000
  H   H3263     1.0  0.89883  0.58263  0.42627  1.0000
  H   H3264     1.0  0.89002  0.60767  0.40197  1.0000
  H   H3265     1.0  0.82534  0.62751  0.41093  1.0000
  H   H3266     1.0  0.79075  0.63459  0.41023  1.0000
  H   H3267     1.0  0.79353  0.73391  0.49131  1.0000
  H   H3268     1.0  0.56770  0.67309  0.37943  1.0000
  C   C4096     1.0  0.95262  0.73228  0.35986  1.0000
  H   H3269     1.0  0.55932  0.53213  0.49651  1.0000
  H   H3270     1.0  0.73404  0.54946  0.46679  1.0000
  H   H3271     1.0  0.66241  0.58350  0.34480  1.0000
  C   C4097     1.0  0.75868  0.51487  0.43195  1.0000
  C   C4098     1.0  0.82370  0.56262  0.34270  1.0000
  H   H3272     1.0  0.78804  0.70344  0.47927  1.0000
  C   C4099     1.0  0.73958  0.54036  0.51303  1.0000
  H   H3273     1.0  0.96211  0.73144  0.43219  1.0000
  C   C4100     1.0  0.74017  0.54791  0.41615  1.0000
  C   C4101     1.0  0.70192  0.71947  0.45169  1.0000
  H   H3274     1.0  0.74297  0.54733  0.52495  1.0000
  C   C4102     1.0  0.52109  0.69576  0.48212  1.0000
  C   C4103     1.0  0.77227  0.73353  0.44359  1.0000
  H   H3275     1.0  0.87639  0.68160  0.52715  1.0000
  S   S537      1.0  0.59548  0.74143  0.42623  1.0000
  C   C4104     1.0  0.73820  0.55050  0.49568  1.0000
  C   C4105     1.0  0.57457  0.52829  0.49522  1.0000
  H   H3276     1.0  0.94080  0.74055  0.57191  1.0000
  H   H3277     1.0  0.96689  0.68426  0.54236  1.0000
  C   C4106     1.0  0.87052  0.66261  0.40673  1.0000
  C   C4107     1.0  0.86968  0.67131  0.37354  1.0000
  H   H3278     1.0  0.98514  0.68889  0.34676  1.0000
  H   H3279     1.0  0.57268  0.73773  0.46635  1.0000
  H   H3280     1.0  0.73887  0.51312  0.52816  1.0000
  C   C4108     1.0  0.65806  0.58216  0.33093  1.0000
  S   S538      1.0  0.97111  0.71699  0.65461  1.0000
  H   H3281     1.0  0.87217  0.66647  0.42073  1.0000
  C   C4109     1.0  0.88551  0.59041  0.32925  1.0000
  C   C4110     1.0  0.97058  0.67234  0.33063  1.0000
  C   C4111     1.0  0.95469  0.69174  0.35497  1.0000
  H   H3282     1.0  0.87083  0.68179  0.36181  1.0000
  H   H3283     1.0  0.93629  0.72424  0.33835  1.0000
  C   C4112     1.0  0.90593  0.70235  0.41840  1.0000
  S   S539      1.0  0.90563  0.72936  0.51878  1.0000
  C   C4113     1.0  0.97235  0.70083  0.51629  1.0000
  C   C4114     1.0  0.86947  0.58304  0.33872  1.0000
  S   S540      1.0  0.85480  0.74472  0.45310  1.0000
  H   H3284     1.0  0.62886  0.51380  0.48954  1.0000
  C   C4115     1.0  0.73403  0.51186  0.49914  1.0000
  P   P140      1.0  0.95519  0.70910  0.37197  1.0000
  C   C4116     1.0  0.96006  0.74746  0.36689  1.0000
  C   C4117     1.0  0.73728  0.52109  0.51481  1.0000
  C   C4118     1.0  0.56733  0.74417  0.49533  1.0000
  H   H3285     1.0  0.96785  0.74529  0.37921  1.0000
  H   H3286     1.0  0.58163  0.74768  0.49633  1.0000
  C   C4119     1.0  0.58184  0.51035  0.50191  1.0000
  C   C4120     1.0  0.50745  0.71071  0.47761  1.0000
  H   H3287     1.0  0.93756  0.69732  0.64534  1.0000
  H   H3288     1.0  0.76639  0.50235  0.43791  1.0000
  C   C4121     1.0  0.88404  0.61370  0.35222  1.0000
  C   C4122     1.0  0.52738  0.59969  0.37364  1.0000
  C   C4123     1.0  0.86477  0.65332  0.37079  1.0000
  C   C4124     1.0  0.98147  0.72840  0.53859  1.0000
  C   C4125     1.0  0.92541  0.73612  0.54828  1.0000
  C   C4126     1.0  0.52402  0.67994  0.47154  1.0000
  C   C4127     1.0  0.78738  0.73372  0.47809  1.0000
  C   C4128     1.0  0.54094  0.56769  0.39547  1.0000
  H   H3289     1.0  0.77553  0.63189  0.38109  1.0000
  C   C4129     1.0  0.93718  0.68600  0.35116  1.0000
  C   C4130     1.0  0.91691  0.68644  0.41182  1.0000
  C   C4131     1.0  0.51327  0.67885  0.45647  1.0000
  H   H3290     1.0  0.67868  0.73964  0.39991  1.0000
  H   H3291     1.0  0.89440  0.70077  0.42937  1.0000
  H   H3292     1.0  0.70535  0.51340  0.42959  1.0000
  H   H3293     1.0  0.63352  0.74070  0.44210  1.0000
  C   C4132     1.0  0.66538  0.50703  0.45853  1.0000
  H   H3294     1.0  0.65029  0.50631  0.45800  1.0000
  Fe  Fe271     1.0  0.96526  0.74659  0.63988  1.0000
  C   C4133     1.0  0.80199  0.62409  0.36489  1.0000
  C   C4134     1.0  0.75811  0.54108  0.40832  1.0000
  H   H3295     1.0  0.96633  0.69716  0.41019  1.0000
  C   C4135     1.0  0.73153  0.53840  0.43201  1.0000
  H   H3296     1.0  0.90150  0.73271  0.41621  1.0000
  C   C4136     1.0  0.86056  0.59109  0.35482  1.0000
  H   H3297     1.0  0.89032  0.62511  0.35753  1.0000
  C   C4137     1.0  0.68574  0.73198  0.44900  1.0000
  C   C4138     1.0  0.99642  0.69843  0.40878  1.0000
  C   C4139     1.0  0.90989  0.72035  0.41095  1.0000
  C   C4140     1.0  0.52217  0.61642  0.33494  1.0000
  H   H3298     1.0  0.96227  0.67101  0.63911  1.0000
  H   H3299     1.0  0.52224  0.58598  0.33923  1.0000
  H   H3300     1.0  0.53975  0.73102  0.46366  1.0000
  H   H3301     1.0  0.67086  0.51252  0.42867  1.0000
  C   C4141     1.0  0.56225  0.73868  0.47844  1.0000
  C   C4142     1.0  0.93670  0.68382  0.65332  1.0000
  H   H3302     1.0  0.93516  0.57703  0.64477  1.0000
  C   C4143     1.0  0.89290  0.60561  0.33609  1.0000
  H   H3303     1.0  0.92781  0.73819  0.44193  1.0000
  C   C4144     1.0  0.94237  0.73560  0.34398  1.0000
  H   H3304     1.0  0.92402  0.69148  0.35864  1.0000
  C   C4145     1.0  0.65528  0.74101  0.38313  1.0000
  H   H3305     1.0  0.55382  0.63556  0.34033  1.0000
  C   C4146     1.0  0.97888  0.70025  0.40114  1.0000
  H   H3306     1.0  0.98460  0.73923  0.54725  1.0000
  H   H3307     1.0  0.96079  0.64026  0.65752  1.0000
  H   H3308     1.0  0.66264  0.73136  0.37335  1.0000
  H   H3309     1.0  0.99722  0.69397  0.42347  1.0000
  H   H3310     1.0  0.63002  0.59613  0.33721  1.0000
  H   H3311     1.0  0.69854  0.50346  0.48988  1.0000
  H   H3312     1.0  0.57225  0.50035  0.50853  1.0000
  H   H3313     1.0  0.99362  0.71678  0.35680  1.0000
  C   C4147     1.0  0.55004  0.64252  0.35319  1.0000
  H   H3314     1.0  0.62929  0.74414  0.36948  1.0000
  C   C4148     1.0  0.66432  0.74576  0.39830  1.0000
  C   C4149     1.0  0.49949  0.69355  0.45203  1.0000
  C   C4150     1.0  0.93513  0.74824  0.43257  1.0000
  C   C4151     1.0  0.68649  0.74698  0.43511  1.0000
  C   C4152     1.0  0.63653  0.74826  0.38087  1.0000
  H   H3315     1.0  0.90555  0.61103  0.32883  1.0000
  H   H3316     1.0  0.97918  0.57497  0.71217  1.0000
  C   C4153     1.0  0.51489  0.50212  0.86060  1.0000
  S   S541      1.0  0.90720  0.53130  0.72640  1.0000
  H   H3317     1.0  0.82135  0.52905  0.81126  1.0000
  C   C4154     1.0  0.83100  0.64945  0.89903  1.0000
  H   H3318     1.0  0.77643  0.73520  0.96823  1.0000
  S   S542      1.0  0.64899  0.71127  0.96858  1.0000
  Fe  Fe272     1.0  0.96582  0.64327  0.79421  1.0000
  S   S543      1.0  0.98304  0.65607  0.76902  1.0000
  S   S544      1.0  0.96613  0.64670  0.82570  1.0000
  Fe  Fe273     1.0  0.94814  0.61682  0.77048  1.0000
  S   S545      1.0  0.96329  0.62792  0.74346  1.0000
  S   S546      1.0  0.92757  0.59406  0.77730  1.0000
  C   C4155     1.0  0.92103  0.66418  0.67794  1.0000
  Fe  Fe274     1.0  0.95646  0.65689  0.75404  1.0000
  S   S547      1.0  0.94470  0.68372  0.73747  1.0000
  S   S548      1.0  0.97438  0.61347  0.78599  1.0000
  S   S549      1.0  0.93889  0.64598  0.77994  1.0000
  Fe  Fe275     1.0  0.75145  0.65112  0.98279  1.0000
  S   S550      1.0  0.76410  0.64091  0.95490  1.0000
  C   C4156     1.0  0.83870  0.70617  0.98895  1.0000
  S   S551      1.0  0.79263  0.61033  0.97850  1.0000
  Fe  Fe276     1.0  0.79263  0.64057  0.96665  1.0000
  S   S552      1.0  0.81606  0.65385  0.94719  1.0000
  Fe  Fe277     1.0  0.76331  0.61132  0.96872  1.0000
  S   S553      1.0  0.75369  0.58347  0.96098  1.0000
  H   H3319     1.0  0.85438  0.73492  0.87327  1.0000
  Fe  Fe278     1.0  0.91342  0.70126  0.94941  1.0000
  S   S554      1.0  0.94218  0.69198  0.93487  1.0000
  S   S555      1.0  0.89421  0.68147  0.96707  1.0000
  H   H3320     1.0  0.76950  0.54735  0.97912  1.0000
  S   S556      1.0  0.94732  0.73699  0.92467  1.0000
  Fe  Fe279     1.0  0.93427  0.71402  0.91196  1.0000
  S   S557      1.0  0.93717  0.71281  0.87996  1.0000
  Fe  Fe280     1.0  0.95333  0.71554  0.94875  1.0000
  H   H3321     1.0  0.91106  0.59835  0.81703  1.0000
  S   S558      1.0  0.90479  0.72193  0.92584  1.0000
  S   S559      1.0  0.92520  0.72298  0.96490  1.0000
  H   H3322     1.0  0.92994  0.56250  0.71828  1.0000
  C   C4157     1.0  0.93535  0.64933  0.67494  1.0000
  C   C4158     1.0  0.76410  0.71076  0.96140  1.0000
  S   S560      1.0  0.74775  0.54541  0.88485  1.0000
  C   C4159     1.0  0.91913  0.62299  0.82841  1.0000
  C   C4160     1.0  0.68254  0.71186  0.98557  1.0000
  C   C4161     1.0  0.69014  0.60679  0.98380  1.0000
  H   H3323     1.0  0.70797  0.56959  0.96576  1.0000
  H   H3324     1.0  0.87402  0.61941  0.86323  1.0000
  C   C4162     1.0  0.86462  0.63897  0.89773  1.0000
  C   C4163     1.0  0.75503  0.57306  0.93914  1.0000
  C   C4164     1.0  0.75418  0.55344  0.93925  1.0000
  C   C4165     1.0  0.75302  0.54475  0.92254  1.0000
  C   C4166     1.0  0.75198  0.55562  0.90559  1.0000
  C   C4167     1.0  0.75354  0.57514  0.90528  1.0000
  C   C4168     1.0  0.75519  0.58383  0.92196  1.0000
  H   H3325     1.0  0.75390  0.54494  0.95238  1.0000
  H   H3326     1.0  0.75238  0.52969  0.92270  1.0000
  H   H3327     1.0  0.75287  0.58368  0.89217  1.0000
  H   H3328     1.0  0.75571  0.59893  0.92163  1.0000
  C   C4169     1.0  0.83737  0.66197  0.95330  1.0000
  C   C4170     1.0  0.84374  0.65802  0.97114  1.0000
  C   C4171     1.0  0.86115  0.66407  0.97509  1.0000
  C   C4172     1.0  0.87223  0.67444  0.96142  1.0000
  C   C4173     1.0  0.86571  0.67867  0.94368  1.0000
  C   C4174     1.0  0.84848  0.67232  0.93961  1.0000
  H   H3329     1.0  0.87404  0.68671  0.93309  1.0000
  H   H3330     1.0  0.84374  0.67543  0.92575  1.0000
  C   C4175     1.0  0.95782  0.66534  0.84040  1.0000
  C   C4176     1.0  0.94954  0.68281  0.83345  1.0000
  C   C4177     1.0  0.94341  0.69714  0.84575  1.0000
  C   C4178     1.0  0.94520  0.69416  0.86516  1.0000
  C   C4179     1.0  0.95341  0.67666  0.87209  1.0000
  C   C4180     1.0  0.95978  0.66242  0.85976  1.0000
  H   H3331     1.0  0.94795  0.68532  0.81862  1.0000
  H   H3332     1.0  0.93719  0.71065  0.84019  1.0000
  H   H3333     1.0  0.95500  0.67417  0.88693  1.0000
  H   H3334     1.0  0.96628  0.64902  0.86528  1.0000
  C   C4181     1.0  0.67207  0.70224  0.97459  1.0000
  C   C4182     1.0  0.97083  0.73012  0.74213  1.0000
  H   H3335     1.0  0.93109  0.71666  0.71512  1.0000
  S   S561      1.0  0.60317  0.74100  0.99142  1.0000
  C   C4183     1.0  0.69834  0.67703  0.97261  1.0000
  C   C4184     1.0  0.68005  0.68475  0.96823  1.0000
  C   C4185     1.0  0.91110  0.61444  0.71978  1.0000
  H   H3336     1.0  0.50543  0.69607  0.83620  1.0000
  H   H3337     1.0  0.70431  0.66363  0.96753  1.0000
  H   H3338     1.0  0.67205  0.67717  0.95978  1.0000
  C   C4186     1.0  0.85165  0.72193  0.90138  1.0000
  C   C4187     1.0  0.70235  0.54506  0.95201  1.0000
  C   C4188     1.0  0.89592  0.69178  0.86911  1.0000
  H   H3339     1.0  0.95221  0.63032  0.89924  1.0000
  C   C4189     1.0  0.96291  0.70764  0.67739  1.0000
  C   C4190     1.0  0.94810  0.71696  0.68847  1.0000
  C   C4191     1.0  0.94245  0.70925  0.70665  1.0000
  C   C4192     1.0  0.95152  0.69218  0.71401  1.0000
  C   C4193     1.0  0.96591  0.68257  0.70273  1.0000
  C   C4194     1.0  0.97156  0.69025  0.68454  1.0000
  C   C4195     1.0  0.71774  0.51031  0.97329  1.0000
  H   H3340     1.0  0.77578  0.49899  0.82606  1.0000
  H   H3341     1.0  0.97278  0.66935  0.70816  1.0000
  H   H3342     1.0  0.93048  0.65648  0.71535  1.0000
  H   H3343     1.0  0.52421  0.71387  0.94864  1.0000
  C   C4196     1.0  0.89053  0.67906  0.84005  1.0000
  C   C4197     1.0  0.91464  0.54741  0.74114  1.0000
  C   C4198     1.0  0.90938  0.54654  0.76044  1.0000
  C   C4199     1.0  0.91400  0.56062  0.77138  1.0000
  C   C4200     1.0  0.92435  0.57545  0.76330  1.0000
  C   C4201     1.0  0.93067  0.57568  0.74422  1.0000
  C   C4202     1.0  0.92562  0.56185  0.73316  1.0000
  H   H3344     1.0  0.90121  0.53536  0.76684  1.0000
  H   H3345     1.0  0.90921  0.56021  0.78613  1.0000
  H   H3346     1.0  0.93883  0.58691  0.73792  1.0000
  C   C4203     1.0  0.90811  0.65016  0.88959  1.0000
  H   H3347     1.0  0.51859  0.51629  0.86162  1.0000
  H   H3348     1.0  0.50327  0.58919  0.84673  1.0000
  C   C4204     1.0  0.92111  0.62932  0.71126  1.0000
  C   C4205     1.0  0.96014  0.59753  0.70080  1.0000
  H   H3349     1.0  0.99774  0.66988  0.83149  1.0000
  C   C4206     1.0  0.97280  0.62788  0.69459  1.0000
  C   C4207     1.0  0.92209  0.64523  0.72123  1.0000
  C   C4208     1.0  0.91271  0.64651  0.73920  1.0000
  C   C4209     1.0  0.90275  0.63167  0.74757  1.0000
  C   C4210     1.0  0.90191  0.61567  0.73784  1.0000
  H   H3350     1.0  0.87558  0.73109  0.97131  1.0000
  H   H3351     1.0  0.94844  0.58880  0.70156  1.0000
  C   C4211     1.0  0.64220  0.52745  0.97146  1.0000
  C   C4212     1.0  0.51928  0.68684  0.79087  1.0000
  H   H3352     1.0  0.88834  0.51686  0.80669  1.0000
  H   H3353     1.0  0.71336  0.52657  0.82626  1.0000
  H   H3354     1.0  0.89620  0.63231  0.76181  1.0000
  C   C4213     1.0  0.95109  0.50057  0.74985  1.0000
  C   C4214     1.0  0.79833  0.50059  0.80360  1.0000
  H   H3355     1.0  0.68810  0.72361  0.93363  1.0000
  H   H3356     1.0  0.70171  0.54429  0.90463  1.0000
  C   C4215     1.0  0.91453  0.65567  0.92124  1.0000
  C   C4216     1.0  0.70252  0.54986  0.91810  1.0000
  C   C4217     1.0  0.50383  0.72225  0.97147  1.0000
  H   H3357     1.0  0.86605  0.66068  0.98886  1.0000
  C   C4218     1.0  0.71149  0.53446  0.77906  1.0000
  C   C4219     1.0  0.52158  0.50930  0.80748  1.0000
  H   H3358     1.0  0.81474  0.50058  0.73729  1.0000
  H   H3359     1.0  0.81675  0.64893  0.90598  1.0000
  H   H3360     1.0  0.93105  0.63396  0.87393  1.0000
  C   C4220     1.0  0.50200  0.69199  0.78313  1.0000
  C   C4221     1.0  0.98350  0.73179  0.99184  1.0000
  Fe  Fe281     1.0  0.89008  0.50639  0.73660  1.0000
  H   H3361     1.0  0.90924  0.66257  0.68853  1.0000
  C   C4222     1.0  0.76631  0.69502  0.95079  1.0000
  H   H3362     1.0  0.78727  0.53876  0.81948  1.0000
  H   H3363     1.0  0.89481  0.60386  0.74461  1.0000
  C   C4223     1.0  0.79445  0.72033  0.94699  1.0000
  C   C4224     1.0  0.81730  0.53969  0.82123  1.0000
  C   C4225     1.0  0.71147  0.53840  0.79781  1.0000
  C   C4226     1.0  0.79668  0.70430  0.93660  1.0000
  C   C4227     1.0  0.84615  0.63810  0.90631  1.0000
  H   H3364     1.0  0.91004  0.66173  0.93450  1.0000
  H   H3365     1.0  0.66207  0.62115  0.98224  1.0000
  C   C4228     1.0  0.78258  0.69179  0.93843  1.0000
  H   H3366     1.0  0.87619  0.63010  0.90364  1.0000
  H   H3367     1.0  0.97097  0.64285  0.69072  1.0000
  C   C4229     1.0  0.84643  0.73517  0.88695  1.0000
  H   H3368     1.0  0.93181  0.62386  0.81873  1.0000
  C   C4230     1.0  0.84145  0.72222  0.91904  1.0000
  H   H3369     1.0  0.85499  0.67220  0.86219  1.0000
  H   H3370     1.0  0.78459  0.67916  0.93075  1.0000
  S   S562      1.0  0.98256  0.71040  0.96086  1.0000
  H   H3371     1.0  0.72198  0.72172  0.94009  1.0000
  H   H3372     1.0  0.53388  0.68424  0.81604  1.0000
  H   H3373     1.0  0.51382  0.73015  0.97724  1.0000
  H   H3374     1.0  0.50411  0.57454  0.87928  1.0000
  P   P141      1.0  0.89211  0.65302  0.87122  1.0000
  H   H3375     1.0  0.56653  0.73615  0.89862  1.0000
  P   P142      1.0  0.93449  0.62706  0.68871  1.0000
  H   H3376     1.0  0.96282  0.52631  0.73925  1.0000
  C   C4231     1.0  0.93245  0.64571  0.91852  1.0000
  C   C4232     1.0  0.98834  0.72122  0.76923  1.0000
  H   H3377     1.0  0.94190  0.64423  0.92962  1.0000
  C   C4233     1.0  0.71379  0.52364  0.81162  1.0000
  H   H3378     1.0  0.89839  0.69011  0.88378  1.0000
  C   C4234     1.0  0.70613  0.56390  0.95267  1.0000
  C   C4235     1.0  0.73264  0.50915  0.95900  1.0000
  H   H3379     1.0  0.86362  0.71141  0.89893  1.0000
  C   C4236     1.0  0.67643  0.52102  0.97225  1.0000
  C   C4237     1.0  0.70040  0.53817  0.93459  1.0000
  C   C4238     1.0  0.95767  0.61668  0.69447  1.0000
  H   H3380     1.0  0.92500  0.67173  0.99331  1.0000
  C   C4239     1.0  0.99258  0.60083  0.70676  1.0000
  C   C4240     1.0  0.92368  0.61168  0.67509  1.0000
  H   H3381     1.0  0.96933  0.73783  0.98922  1.0000
  C   C4241     1.0  0.85677  0.71258  0.98708  1.0000
  C   C4242     1.0  0.49842  0.53296  0.67616  1.0000
  H   H3382     1.0  0.79447  0.51187  0.85241  1.0000
  H   H3383     1.0  0.88990  0.50833  0.87531  1.0000
  C   C4243     1.0  0.99298  0.71834  0.98019  1.0000
  C   C4244     1.0  0.71202  0.73304  0.94534  1.0000
  H   H3384     1.0  0.78286  0.57234  0.99396  1.0000
  H   H3385     1.0  0.89867  0.72162  0.86753  1.0000
  Fe  Fe282     1.0  0.98915  0.62638  0.75972  1.0000
  C   C4245     1.0  0.90747  0.60855  0.82755  1.0000
  H   H3386     1.0  0.99249  0.71077  0.78025  1.0000
  H   H3387     1.0  0.73304  0.51952  0.94729  1.0000
  H   H3388     1.0  0.69102  0.60195  0.96981  1.0000
  H   H3389     1.0  0.91112  0.69304  0.67003  1.0000
  C   C4246     1.0  0.89086  0.69707  0.83086  1.0000
  C   C4247     1.0  0.50613  0.52063  0.80009  1.0000
  C   C4248     1.0  0.97755  0.58963  0.70684  1.0000
  H   H3390     1.0  0.91369  0.65880  0.74684  1.0000
  C   C4249     1.0  0.80189  0.52546  0.89514  1.0000
  H   H3391     1.0  0.90248  0.50676  0.90651  1.0000
  P   P143      1.0  0.69933  0.52966  0.97308  1.0000
  H   H3392     1.0  0.53166  0.68149  0.78212  1.0000
  C   C4250     1.0  0.98920  0.74428  0.69345  1.0000
  C   C4251     1.0  0.90244  0.65794  0.90685  1.0000
  H   H3393     1.0  0.98284  0.68277  0.67601  1.0000
  C   C4252     1.0  0.99506  0.73907  0.76774  1.0000
  C   C4253     1.0  0.82966  0.72764  0.96260  1.0000
  H   H3394     1.0  0.89428  0.72633  0.83361  1.0000
  H   H3395     1.0  0.52926  0.51478  0.81778  1.0000
  C   C4254     1.0  0.89596  0.70981  0.85992  1.0000
  C   C4255     1.0  0.87899  0.55112  0.87095  1.0000
  C   C4256     1.0  0.89670  0.55707  0.86413  1.0000
  C   C4257     1.0  0.90217  0.55790  0.84487  1.0000
  C   C4258     1.0  0.88979  0.55319  0.83240  1.0000
  C   C4259     1.0  0.87166  0.54797  0.83906  1.0000
  C   C4260     1.0  0.86664  0.54627  0.85850  1.0000
  P   P144      1.0  0.85612  0.54076  0.82312  1.0000
  C   C4261     1.0  0.83129  0.54784  0.82950  1.0000
  C   C4262     1.0  0.86060  0.55163  0.79975  1.0000
  C   C4263     1.0  0.86492  0.57047  0.79700  1.0000
  C   C4264     1.0  0.86802  0.57891  0.77883  1.0000
  C   C4265     1.0  0.86633  0.56877  0.76333  1.0000
  C   C4266     1.0  0.86145  0.55022  0.76599  1.0000
  C   C4267     1.0  0.85856  0.54169  0.78412  1.0000
  H   H3396     1.0  0.95033  0.59811  0.66304  1.0000
  H   H3397     1.0  0.50240  0.53478  0.80437  1.0000
  C   C4268     1.0  0.79255  0.55928  0.83817  1.0000
  C   C4269     1.0  0.80639  0.56789  0.84603  1.0000
  C   C4270     1.0  0.82570  0.56238  0.84155  1.0000
  S   S563      1.0  0.73205  0.67799  0.98930  1.0000
  H   H3398     1.0  0.75561  0.68506  0.95254  1.0000
  C   C4271     1.0  0.70134  0.54159  0.99392  1.0000
  C   C4272     1.0  0.90382  0.61309  0.67498  1.0000
  C   C4273     1.0  0.96590  0.51206  0.74535  1.0000
  H   H3399     1.0  0.73060  0.54707  0.98587  1.0000
  H   H3400     1.0  0.87490  0.55009  0.88591  1.0000
  H   H3401     1.0  0.90630  0.56082  0.87375  1.0000
  H   H3402     1.0  0.91606  0.56215  0.83957  1.0000
  H   H3403     1.0  0.89451  0.55346  0.81758  1.0000
  H   H3404     1.0  0.85320  0.54114  0.86403  1.0000
  H   H3405     1.0  0.86605  0.57859  0.80885  1.0000
  H   H3406     1.0  0.87205  0.59321  0.77674  1.0000
  H   H3407     1.0  0.86913  0.57511  0.74923  1.0000
  H   H3408     1.0  0.86027  0.54228  0.75398  1.0000
  H   H3409     1.0  0.85471  0.52734  0.78588  1.0000
  H   H3410     1.0  0.84560  0.71178  0.93000  1.0000
  H   H3411     1.0  0.79226  0.51385  0.79734  1.0000
  H   H3412     1.0  0.77757  0.56341  0.84181  1.0000
  H   H3413     1.0  0.80209  0.57887  0.85557  1.0000
  H   H3414     1.0  0.83615  0.56966  0.84733  1.0000
  C   C4274     1.0  0.84787  0.73404  0.96090  1.0000
  C   C4275     1.0  0.82611  0.73593  0.92255  1.0000
  C   C4276     1.0  0.97637  0.71672  0.75632  1.0000
  H   H3415     1.0  0.64301  0.74744  0.90398  1.0000
  C   C4277     1.0  0.70882  0.68670  0.98351  1.0000
  C   C4278     1.0  0.52055  0.68836  0.80998  1.0000
  H   H3416     1.0  0.58080  0.74668  0.92586  1.0000
  C   C4279     1.0  0.88666  0.62060  0.85364  1.0000
  S   S564      1.0  0.74208  0.50370  0.85513  1.0000
  H   H3417     1.0  0.88865  0.66579  0.90923  1.0000
  H   H3418     1.0  0.79773  0.53697  0.90411  1.0000
  C   C4280     1.0  0.89327  0.67622  0.85924  1.0000
  C   C4281     1.0  0.89123  0.60736  0.84015  1.0000
  C   C4282     1.0  0.71383  0.51574  0.77413  1.0000
  H   H3419     1.0  0.80948  0.70104  0.92749  1.0000
  C   C4283     1.0  0.50978  0.71320  0.95505  1.0000
  C   C4284     1.0  0.79522  0.52631  0.87743  1.0000
  H   H3420     1.0  0.99667  0.74059  0.93203  1.0000
  P   P145      1.0  0.81306  0.73604  0.94551  1.0000
  H   H3421     1.0  0.75169  0.71280  0.97138  1.0000
  C   C4285     1.0  0.82518  0.71361  0.97676  1.0000
  H   H3422     1.0  0.91091  0.60156  0.71285  1.0000
  C   C4286     1.0  0.99021  0.61993  0.70064  1.0000
  C   C4287     1.0  0.89360  0.71244  0.84079  1.0000
  Fe  Fe283     1.0  0.63229  0.73945  0.97537  1.0000
  H   H3423     1.0  0.92357  0.64762  0.84197  1.0000
  C   C4288     1.0  0.77813  0.72336  0.95956  1.0000
  H   H3424     1.0  0.82248  0.67041  0.87748  1.0000
  H   H3425     1.0  0.88819  0.66740  0.83211  1.0000
  C   C4289     1.0  0.83427  0.66163  0.88308  1.0000
  Fe  Fe284     1.0  0.74297  0.51426  0.88375  1.0000
  H   H3426     1.0  0.66089  0.54854  0.97476  1.0000
  C   C4290     1.0  0.77190  0.54537  0.99381  1.0000
  S   S565      1.0  0.52793  0.73518  0.88992  1.0000
  H   H3427     1.0  0.69763  0.52364  0.93370  1.0000
  C   C4291     1.0  0.81356  0.50967  0.90133  1.0000
  C   C4292     1.0  0.89824  0.63527  0.85447  1.0000
  C   C4293     1.0  0.70633  0.56856  0.91887  1.0000
  C   C4294     1.0  0.86120  0.51546  0.82320  1.0000
  C   C4295     1.0  0.86813  0.65155  0.88197  1.0000
  C   C4296     1.0  0.80004  0.51136  0.86596  1.0000
  H   H3428     1.0  0.70947  0.54591  0.76839  1.0000
  H   H3429     1.0  0.88923  0.69905  0.81598  1.0000
  C   C4297     1.0  0.85276  0.66264  0.87450  1.0000
  H   H3430     1.0  0.88215  0.59621  0.83941  1.0000
  H   H3431     1.0  0.62953  0.53733  0.97208  1.0000
  H   H3432     1.0  0.84355  0.62897  0.91894  1.0000
  H   H3433     1.0  0.71170  0.58991  0.93665  1.0000
  H   H3434     1.0  0.70945  0.55287  0.80170  1.0000
  H   H3435     1.0  0.96193  0.72611  0.73202  1.0000
  H   H3436     1.0  0.78603  0.53844  0.87274  1.0000
  C   C4298     1.0  0.70808  0.57559  0.93614  1.0000
  H   H3437     1.0  0.97146  0.70274  0.75718  1.0000
  H   H3438     1.0  0.81865  0.50919  0.91510  1.0000
  C   C4299     1.0  0.79801  0.54529  0.82569  1.0000
  C   C4300     1.0  0.93821  0.63785  0.90145  1.0000
  C   C4301     1.0  0.91448  0.63638  0.84170  1.0000
  Fe  Fe285     1.0  0.91858  0.74317  0.94010  1.0000
  C   C4302     1.0  0.86135  0.72654  0.97308  1.0000
  H   H3439     1.0  0.83542  0.65002  0.98180  1.0000
  H   H3440     1.0  0.81154  0.70787  0.97813  1.0000
  S   S566      1.0  0.71641  0.50111  0.89520  1.0000
  H   H3441     1.0  0.87997  0.60207  0.66471  1.0000
  H   H3442     1.0  0.71337  0.51291  0.75962  1.0000
  H   H3443     1.0  0.70855  0.57740  0.90600  1.0000
  C   C4303     1.0  0.92610  0.64002  0.88704  1.0000
  H   H3444     1.0  0.94106  0.73012  0.68304  1.0000
  S   S567      1.0  0.86033  0.50340  0.72926  1.0000
  C   C4304     1.0  0.88234  0.50152  0.88744  1.0000
  H   H3445     1.0  0.97826  0.73478  0.69684  1.0000
  C   C4305     1.0  0.53749  0.74208  0.91011  1.0000
  C   C4306     1.0  0.56553  0.74730  0.92583  1.0000
  C   C4307     1.0  0.64083  0.50853  0.96863  1.0000
  H   H3446     1.0  0.99588  0.51409  0.74453  1.0000
  C   C4308     1.0  0.92186  0.68142  0.66731  1.0000
  C   C4309     1.0  0.49898  0.56701  0.86861  1.0000
  H   H3447     1.0  0.62712  0.50370  0.96711  1.0000
  C   C4310     1.0  0.70074  0.70406  0.99007  1.0000
  C   C4311     1.0  0.65995  0.53372  0.97310  1.0000
  C   C4312     1.0  0.93497  0.59896  0.66373  1.0000
  H   H3448     1.0  0.89490  0.62324  0.68317  1.0000
  C   C4313     1.0  0.67499  0.50210  0.96895  1.0000
  H   H3449     1.0  0.93663  0.50591  0.74725  1.0000
  C   C4314     1.0  0.98456  0.50512  0.74858  1.0000
  C   C4315     1.0  0.71651  0.50083  0.78793  1.0000
  H   H3450     1.0  0.71803  0.59390  0.98934  1.0000
  C   C4316     1.0  0.84869  0.50331  0.83297  1.0000
  C   C4317     1.0  0.71630  0.50495  0.80673  1.0000
  H   H3451     1.0  0.73287  0.74510  0.95893  1.0000
  C   C4318     1.0  0.55737  0.74133  0.91042  1.0000
  H   H3452     1.0  0.60987  0.74436  0.89739  1.0000
  H   H3453     1.0  0.50117  0.69047  0.76837  1.0000
  H   H3454     1.0  0.50147  0.69742  0.93344  1.0000
  H   H3455     1.0  0.51191  0.52528  0.67907  1.0000
  C   C4319     1.0  0.71806  0.74617  0.95634  1.0000
  S   S568      1.0  0.82743  0.50405  0.77583  1.0000
  C   C4320     1.0  0.87841  0.50776  0.81422  1.0000
  C   C4321     1.0  0.89533  0.60120  0.66446  1.0000
  H   H3456     1.0  0.83549  0.50886  0.84022  1.0000
  C   C4322     1.0  0.50456  0.69505  0.82134  1.0000
  H   H3457     1.0  0.67659  0.72529  0.99062  1.0000
  C   C4323     1.0  0.69298  0.73414  0.94159  1.0000
  H   H3458     1.0  0.95324  0.68800  0.98066  1.0000
  C   C4324     1.0  0.67387  0.61767  0.99078  1.0000
  H   H3459     1.0  0.85188  0.74441  0.94980  1.0000
  C   C4325     1.0  0.88942  0.50063  0.90499  1.0000
  C   C4326     1.0  0.49868  0.57522  0.85029  1.0000
  C   C4327     1.0  0.95329  0.67987  0.99406  1.0000
  S   S569      1.0  0.78003  0.65214  0.99368  1.0000
  C   C4328     1.0  0.97680  0.74837  0.74101  1.0000
  C   C4329     1.0  0.53475  0.81228  0.27774  1.0000
  H   H3460     1.0  0.65067  0.78251  0.03785  1.0000
  S   S570      1.0  0.51587  0.76923  0.12596  1.0000
  Fe  Fe286     1.0  0.52444  0.76618  0.15557  1.0000
  C   C4330     1.0  0.76828  0.75191  0.00395  1.0000
  Fe  Fe287     1.0  0.53159  0.86800  0.29173  1.0000
  S   S571      1.0  0.54514  0.86322  0.26246  1.0000
  H   H3461     1.0  0.49872  0.86006  0.20848  1.0000
  H   H3462     1.0  0.99800  0.78052  0.02242  1.0000
  S   S572      1.0  0.50997  0.89126  0.24609  1.0000
  Fe  Fe288     1.0  0.51568  0.86026  0.25484  1.0000
  Fe  Fe289     1.0  0.49862  0.89475  0.27604  1.0000
  Fe  Fe290     1.0  0.53846  0.89454  0.25630  1.0000
  S   S573      1.0  0.55914  0.91309  0.23920  1.0000
  C   C4331     1.0  0.66264  0.78159  0.02720  1.0000
  S   S574      1.0  0.52691  0.89959  0.28578  1.0000
  S   S575      1.0  0.58907  0.98500  0.26975  1.0000
  S   S576      1.0  0.60686  0.77204  0.03520  1.0000
  H   H3463     1.0  0.56497  0.99360  0.22527  1.0000
  C   C4332     1.0  0.50167  0.98217  0.22745  1.0000
  H   H3464     1.0  0.51983  0.80379  0.10217  1.0000
  H   H3465     1.0  0.56922  0.76484  0.09623  1.0000
  C   C4333     1.0  0.56689  0.93338  0.24773  1.0000
  C   C4334     1.0  0.56239  0.93788  0.26634  1.0000
  C   C4335     1.0  0.56937  0.95370  0.27279  1.0000
  C   C4336     1.0  0.58093  0.96519  0.26077  1.0000
  C   C4337     1.0  0.58525  0.96087  0.24210  1.0000
  C   C4338     1.0  0.57817  0.94508  0.23560  1.0000
  H   H3466     1.0  0.55369  0.92909  0.27581  1.0000
  H   H3467     1.0  0.56585  0.95704  0.28721  1.0000
  H   H3468     1.0  0.59416  0.96958  0.23272  1.0000
  H   H3469     1.0  0.58172  0.94174  0.22118  1.0000
  H   H3470     1.0  0.55091  0.99375  0.25799  1.0000
  H   H3471     1.0  0.72099  0.93439  0.29001  1.0000
  H   H3472     1.0  0.57866  0.80246  0.24617  1.0000
  C   C4339     1.0  0.52687  0.80391  0.18744  1.0000
  C   C4340     1.0  0.51260  0.88368  0.19556  1.0000
  C   C4341     1.0  0.53007  0.82920  0.20786  1.0000
  C   C4342     1.0  0.51438  0.82399  0.21977  1.0000
  H   H3473     1.0  0.51514  0.78026  0.24886  1.0000
  H   H3474     1.0  0.52772  0.82639  0.27571  1.0000
  C   C4343     1.0  0.70916  0.94414  0.28586  1.0000
  H   H3475     1.0  0.58101  0.92282  0.30949  1.0000
  C   C4344     1.0  0.57266  0.75928  0.08261  1.0000
  C   C4345     1.0  0.53039  0.98850  0.30381  1.0000
  C   C4346     1.0  0.53114  0.96982  0.31154  1.0000
  H   H3476     1.0  0.55056  0.78102  0.31229  1.0000
  C   C4347     1.0  0.57806  0.80003  0.23156  1.0000
  H   H3477     1.0  0.59276  0.77951  0.07298  1.0000
  H   H3478     1.0  0.99660  0.76050  0.08734  1.0000
  C   C4348     1.0  0.50302  0.76148  0.23268  1.0000
  C   C4349     1.0  0.65119  0.93323  0.31696  1.0000
  C   C4350     1.0  0.59054  0.76065  0.05157  1.0000
  S   S577      1.0  0.50225  0.86348  0.28454  1.0000
  H   H3479     1.0  0.52722  0.93994  0.23657  1.0000
  H   H3480     1.0  0.56996  0.89072  0.31276  1.0000
  H   H3481     1.0  0.53849  0.96579  0.32398  1.0000
  C   C4351     1.0  0.58689  0.80878  0.19882  1.0000
  C   C4352     1.0  0.98515  0.78940  0.99674  1.0000
  C   C4353     1.0  0.63425  0.93794  0.24642  1.0000
  C   C4354     1.0  0.53864  0.80494  0.29571  1.0000
  C   C4355     1.0  0.50428  0.75815  0.07793  1.0000
  C   C4356     1.0  0.52677  0.81408  0.02238  1.0000
  H   H3482     1.0  0.53721  0.80758  0.24846  1.0000
  C   C4357     1.0  0.98524  0.78526  0.27753  1.0000
  H   H3483     1.0  0.59453  0.82319  0.22176  1.0000
  H   H3484     1.0  0.91224  0.97276  0.06882  1.0000
  H   H3485     1.0  0.77703  0.77992  0.99801  1.0000
  H   H3486     1.0  0.94756  0.95477  0.04532  1.0000
  C   C4358     1.0  0.90310  0.98540  0.07210  1.0000
  H   H3487     1.0  0.91207  0.95228  0.00085  1.0000
  S   S578      1.0  0.50613  0.83566  0.24050  1.0000
  P   P146      1.0  0.55685  0.76998  0.24445  1.0000
  C   C4359     1.0  0.54730  0.80610  0.11139  1.0000
  C   C4360     1.0  0.54003  0.80152  0.26233  1.0000
  H   H3488     1.0  0.91166  0.81070  0.00676  1.0000
  H   H3489     1.0  0.66707  0.97957  0.27140  1.0000
  H   H3490     1.0  0.57668  0.79203  0.17898  1.0000
  H   H3491     1.0  0.61092  0.96577  0.29942  1.0000
  H   H3492     1.0  0.53149  0.97230  0.22300  1.0000
  H   H3493     1.0  0.53083  0.84669  0.04376  1.0000
  C   C4361     1.0  0.56808  0.78550  0.22649  1.0000
  C   C4362     1.0  0.53452  0.80602  0.09778  1.0000
  H   H3494     1.0  0.59475  0.99541  0.31057  1.0000
  C   C4363     1.0  0.73010  0.98917  0.00176  1.0000
  C   C4364     1.0  0.88335  0.98504  0.07416  1.0000
  H   H3495     1.0  0.50595  0.98370  0.26629  1.0000
  C   C4365     1.0  0.62279  0.93095  0.28445  1.0000
  C   C4366     1.0  0.56618  0.80942  0.10602  1.0000
  H   H3496     1.0  0.65414  0.90876  0.30056  1.0000
  C   C4367     1.0  0.98570  0.78126  0.29685  1.0000
  C   C4368     1.0  0.55802  0.78701  0.01820  1.0000
  H   H3497     1.0  0.52966  0.77138  0.08003  1.0000
  H   H3498     1.0  0.52298  0.90851  0.18075  1.0000
  H   H3499     1.0  0.50719  0.95074  0.28017  1.0000
  C   C4369     1.0  0.57367  0.75031  0.25074  1.0000
  C   C4370     1.0  0.67736  0.76715  0.02881  1.0000
  H   H3500     1.0  0.65518  0.95389  0.25526  1.0000
  H   H3501     1.0  0.74205  0.99745  0.26753  1.0000
  H   H3502     1.0  0.51533  0.77534  0.03009  1.0000
  H   H3503     1.0  0.52529  0.87998  0.20284  1.0000
  H   H3504     1.0  0.59380  0.81798  0.18811  1.0000
  C   C4371     1.0  0.54908  0.78319  0.26475  1.0000
  P   P147      1.0  0.52366  0.80947  0.06152  1.0000
  H   H3505     1.0  0.58684  0.81565  0.08289  1.0000
  C   C4372     1.0  0.64947  0.98561  0.31101  1.0000
  C   C4373     1.0  0.51504  0.95036  0.23591  1.0000
  C   C4374     1.0  0.55948  0.81279  0.07341  1.0000
  C   C4375     1.0  0.57736  0.79412  0.19368  1.0000
  C   C4376     1.0  0.54066  0.80877  0.07868  1.0000
  C   C4377     1.0  0.58725  0.81173  0.21776  1.0000
  C   C4378     1.0  0.52113  0.99372  0.28753  1.0000
  C   C4379     1.0  0.57222  0.81296  0.08705  1.0000
  C   C4380     1.0  0.55012  0.79593  0.00236  1.0000
  C   C4381     1.0  0.51739  0.96865  0.22823  1.0000
  C   C4382     1.0  0.51750  0.84815  0.05253  1.0000
  H   H3506     1.0  0.54071  0.75000  0.03678  1.0000
  H   H3507     1.0  0.97337  0.78522  0.30636  1.0000
  H   H3508     1.0  0.97247  0.79226  0.27202  1.0000
  H   H3509     1.0  0.50363  0.78718  0.19608  1.0000
  H   H3510     1.0  0.63839  0.94099  0.23164  1.0000
  H   H3511     1.0  0.53485  0.81351  0.30759  1.0000
  C   C4383     1.0  0.51551  0.77329  0.07533  1.0000
  C   C4384     1.0  0.58598  0.76759  0.06941  1.0000
  C   C4385     1.0  0.64371  0.94532  0.25993  1.0000
  H   H3512     1.0  0.61193  0.92118  0.24143  1.0000
  C   C4386     1.0  0.76579  0.77088  0.99737  1.0000
  C   C4387     1.0  0.61928  0.97573  0.30457  1.0000
  C   C4388     1.0  0.92539  0.99088  0.01937  1.0000
  C   C4389     1.0  0.69732  0.97271  0.26859  1.0000
  C   C4390     1.0  0.67516  0.95363  0.28761  1.0000
  H   H3513     1.0  0.54817  0.82364  0.18256  1.0000
  C   C4391     1.0  0.69246  0.76561  0.01476  1.0000
  H   H3514     1.0  0.55617  0.78401  0.04823  1.0000
  C   C4392     1.0  0.54756  0.78666  0.29831  1.0000
  S   S579      1.0  0.53572  0.79146  0.16730  1.0000
  H   H3515     1.0  0.57608  0.80932  0.11658  1.0000
  H   H3516     1.0  0.72697  0.96267  0.26864  1.0000
  H   H3517     1.0  0.67688  0.75697  0.04083  1.0000
  H   H3518     1.0  0.51426  0.82407  0.02373  1.0000
  C   C4393     1.0  0.65307  0.91378  0.31449  1.0000
  C   C4394     1.0  0.50476  0.80895  0.21518  1.0000
  H   H3519     1.0  0.65135  0.80543  0.01016  1.0000
  C   C4395     1.0  0.50852  0.79056  0.06659  1.0000
  C   C4396     1.0  0.53693  0.76088  0.23548  1.0000
  C   C4397     1.0  0.53485  0.80537  0.03836  1.0000
  C   C4398     1.0  0.71255  0.96006  0.27382  1.0000
  C   C4399     1.0  0.69054  0.94091  0.29275  1.0000
  C   C4400     1.0  0.66301  0.79450  0.01154  1.0000
  C   C4401     1.0  0.56794  0.78256  0.20742  1.0000
  S   S580      1.0  0.99088  0.97764  0.03026  1.0000
  H   H3520     1.0  0.53759  0.84078  0.21110  1.0000
  C   C4402     1.0  0.60999  0.99250  0.31112  1.0000
  C   C4403     1.0  0.69684  0.98655  0.99954  1.0000
  C   C4404     1.0  0.51283  0.97999  0.27902  1.0000
  C   C4405     1.0  0.55273  0.77577  0.28292  1.0000
  C   C4406     1.0  0.52272  0.95626  0.30304  1.0000
  C   C4407     1.0  0.59333  0.75166  0.24742  1.0000
  H   H3521     1.0  0.55976  0.76174  0.28529  1.0000
  H   H3522     1.0  0.74488  0.98510  0.99740  1.0000
  C   C4408     1.0  0.51103  0.79886  0.19924  1.0000
  C   C4409     1.0  0.63824  0.94164  0.27911  1.0000
  H   H3523     1.0  0.69985  0.98526  0.25950  1.0000
  C   C4410     1.0  0.67872  0.96950  0.27543  1.0000
  C   C4411     1.0  0.51128  0.89973  0.18312  1.0000
  H   H3524     1.0  0.70344  0.75413  0.01631  1.0000
  C   C4412     1.0  0.53448  0.80944  0.00445  1.0000
  H   H3525     1.0  0.68829  0.92859  0.30218  1.0000
  H   H3526     1.0  0.87719  0.97209  0.07247  1.0000
  C   C4413     1.0  0.51355  0.96135  0.28680  1.0000
  C   C4414     1.0  0.93843  0.96192  0.03520  1.0000
  Fe  Fe291     1.0  0.61253  0.76562  0.00442  1.0000
  H   H3527     1.0  0.93127  0.93620  0.02518  1.0000
  C   C4415     1.0  0.53609  0.81937  0.19170  1.0000
  H   H3528     1.0  0.50129  0.81490  0.15712  1.0000
  H   H3529     1.0  0.54256  0.80355  0.12613  1.0000
  H   H3530     1.0  0.57002  0.77637  0.01659  1.0000
  C   C4416     1.0  0.55031  0.79156  0.03612  1.0000
  H   H3531     1.0  0.66479  0.98331  0.31107  1.0000
  P   P148      1.0  0.65105  0.95013  0.29682  1.0000
  H   H3532     1.0  0.60144  0.91537  0.27504  1.0000
  C   C4417     1.0  0.61930  0.92684  0.25191  1.0000
  S   S581      1.0  0.54975  0.85407  0.31483  1.0000
  C   C4418     1.0  0.67793  0.79285  0.99733  1.0000
  C   C4419     1.0  0.63911  0.97220  0.30434  1.0000
  H   H3533     1.0  0.56444  0.81571  0.05883  1.0000
  H   H3534     1.0  0.51310  0.87820  0.04606  1.0000
  H   H3535     1.0  0.90138  0.77850  0.00688  1.0000
  H   H3536     1.0  0.59877  0.76445  0.24089  1.0000
  C   C4420     1.0  0.61343  0.92351  0.27091  1.0000
  H   H3537     1.0  0.61797  0.92835  0.29908  1.0000
  C   C4421     1.0  0.92924  0.95146  0.02385  1.0000
  C   C4422     1.0  0.57864  0.89501  0.32300  1.0000
  C   C4423     1.0  0.91841  0.96067  0.00997  1.0000
  H   H3538     1.0  0.56028  0.77166  0.20292  1.0000
  H   H3539     1.0  0.52348  0.94174  0.30888  1.0000
  H   H3540     1.0  0.50405  0.99627  0.22178  1.0000
  C   C4424     1.0  0.69295  0.77849  0.99888  1.0000
  C   C4425     1.0  0.51038  0.83233  0.06263  1.0000
  H   H3541     1.0  0.99271  0.88910  0.00874  1.0000
  C   C4426     1.0  0.51818  0.76858  0.24000  1.0000
  C   C4427     1.0  0.91656  0.98046  0.00753  1.0000
  H   H3542     1.0  0.97089  0.78990  0.00367  1.0000
  C   C4428     1.0  0.51423  0.76124  0.02623  1.0000
  C   C4429     1.0  0.93646  0.98162  0.03298  1.0000
  Fe  Fe292     1.0  0.98436  0.98136  0.00006  1.0000
  C   C4430     1.0  0.58488  0.91304  0.32117  1.0000
  H   H3543     1.0  0.93192  0.75624  0.32293  1.0000
  H   H3544     1.0  0.99250  0.92305  0.99805  1.0000
  C   C4431     1.0  0.92001  0.80027  0.99845  1.0000
  C   C4432     1.0  0.91424  0.78214  0.99858  1.0000
  C   C4433     1.0  0.50756  0.86603  0.05390  1.0000
  C   C4434     1.0  0.49850  0.75745  0.01744  1.0000
  H   H3545     1.0  0.87960  0.99199  0.02503  1.0000
  H   H3546     1.0  0.94395  0.98971  0.04149  1.0000
  S   S582      1.0  0.49875  0.75166  0.16696  1.0000
  H   H3547     1.0  0.62518  0.82490  0.32526  1.0000
  H   H3548     1.0  0.86392  0.98128  0.99571  1.0000
  H   H3549     1.0  0.73380  0.78916  0.42231  1.0000
  C   C4435     1.0  0.54428  0.84325  0.33774  1.0000
  S   S583      1.0  0.81852  0.77066  0.49190  1.0000
  Fe  Fe293     1.0  0.84738  0.75548  0.48188  1.0000
  C   C4436     1.0  0.77059  0.99054  0.44315  1.0000
  S   S584      1.0  0.95974  0.79529  0.61168  1.0000
  C   C4437     1.0  0.65068  0.87399  0.39405  1.0000
  S   S585      1.0  0.93757  0.76506  0.64001  1.0000
  Fe  Fe294     1.0  0.94425  0.76990  0.60871  1.0000
  C   C4438     1.0  0.62688  0.76040  0.39367  1.0000
  Fe  Fe295     1.0  0.95499  0.78936  0.64283  1.0000
  S   S586      1.0  0.98246  0.77049  0.64445  1.0000
  S   S587      1.0  0.73285  0.96861  0.62095  1.0000
  Fe  Fe296     1.0  0.78397  0.96574  0.63836  1.0000
  S   S588      1.0  0.76868  0.94017  0.63560  1.0000
  H   H3550     1.0  0.96825  0.79055  0.57013  1.0000
  Fe  Fe297     1.0  0.76016  0.95415  0.60801  1.0000
  S   S589      1.0  0.76744  0.94220  0.57928  1.0000
  Fe  Fe298     1.0  0.74258  0.95694  0.64891  1.0000
  S   S590      1.0  0.77666  0.97899  0.61005  1.0000
  Fe  Fe299     1.0  0.70531  0.86350  0.47593  1.0000
  S   S591      1.0  0.72652  0.87133  0.45181  1.0000
  S   S592      1.0  0.68421  0.84109  0.47590  1.0000
  Fe  Fe300     1.0  0.72347  0.88689  0.50296  1.0000
  S   S593      1.0  0.74575  0.89623  0.48073  1.0000
  S   S594      1.0  0.71836  0.89567  0.53304  1.0000
  Fe  Fe301     1.0  0.72204  0.90079  0.46181  1.0000
  S   S595      1.0  0.71402  0.92806  0.44435  1.0000
  Fe  Fe302     1.0  0.74862  0.86593  0.47271  1.0000
  S   S596      1.0  0.77791  0.85087  0.46402  1.0000
  S   S597      1.0  0.69934  0.89321  0.48463  1.0000
  S   S598      1.0  0.72784  0.85637  0.49625  1.0000
  Fe  Fe303     1.0  0.57858  0.76957  0.43305  1.0000
  S   S599      1.0  0.54699  0.77709  0.43762  1.0000
  C   C4439     1.0  0.88782  0.92159  0.63325  1.0000
  Fe  Fe304     1.0  0.58782  0.81008  0.43872  1.0000
  S   S600      1.0  0.55666  0.82021  0.44409  1.0000
  S   S601      1.0  0.61023  0.83155  0.43439  1.0000
  Fe  Fe305     1.0  0.55344  0.79300  0.46183  1.0000
  S   S602      1.0  0.53991  0.78968  0.49233  1.0000
  Fe  Fe306     1.0  0.55234  0.80389  0.41949  1.0000
  S   S603      1.0  0.53176  0.81650  0.39804  1.0000
  S   S604      1.0  0.58512  0.78396  0.45813  1.0000
  S   S605      1.0  0.58343  0.79518  0.41322  1.0000
  C   C4440     1.0  0.51694  0.79266  0.50509  1.0000
  H   H3551     1.0  0.74872  0.97550  0.45817  1.0000
  C   C4441     1.0  0.51509  0.78714  0.52443  1.0000
  H   H3552     1.0  0.51397  0.84985  0.33863  1.0000
  C   C4442     1.0  0.93372  0.76509  0.48919  1.0000
  H   H3553     1.0  0.92210  0.97558  0.37214  1.0000
  C   C4443     1.0  0.61932  0.81142  0.35285  1.0000
  S   S606      1.0  0.75845  0.98176  0.65329  1.0000
  C   C4444     1.0  0.66283  0.83965  0.46512  1.0000
  C   C4445     1.0  0.65274  0.82368  0.46975  1.0000
  C   C4446     1.0  0.63636  0.82120  0.46089  1.0000
  C   C4447     1.0  0.62988  0.83464  0.44714  1.0000
  C   C4448     1.0  0.63974  0.85081  0.44274  1.0000
  C   C4449     1.0  0.65607  0.85336  0.45169  1.0000
  H   H3554     1.0  0.65768  0.81313  0.48028  1.0000
  H   H3555     1.0  0.62879  0.80885  0.46454  1.0000
  H   H3556     1.0  0.63470  0.86139  0.43230  1.0000
  H   H3557     1.0  0.66355  0.86578  0.44803  1.0000
  H   H3558     1.0  0.81536  0.91953  0.65827  1.0000
  C   C4450     1.0  0.55926  0.83460  0.34787  1.0000
  C   C4451     1.0  0.55574  0.82636  0.36628  1.0000
  C   C4452     1.0  0.53712  0.82649  0.37477  1.0000
  C   C4453     1.0  0.52212  0.83494  0.36456  1.0000
  C   C4454     1.0  0.75256  0.78617  0.45281  1.0000
  H   H3559     1.0  0.56741  0.81991  0.37391  1.0000
  C   C4455     1.0  0.61446  0.84516  0.34532  1.0000
  C   C4456     1.0  0.75333  0.92974  0.56644  1.0000
  C   C4457     1.0  0.73582  0.92398  0.57411  1.0000
  C   C4458     1.0  0.72536  0.91358  0.56363  1.0000
  C   C4459     1.0  0.73221  0.90890  0.54538  1.0000
  C   C4460     1.0  0.74967  0.91482  0.53761  1.0000
  C   C4461     1.0  0.76016  0.92519  0.54812  1.0000
  H   H3560     1.0  0.73045  0.92732  0.58820  1.0000
  H   H3561     1.0  0.71189  0.90904  0.56975  1.0000
  H   H3562     1.0  0.75510  0.91133  0.52358  1.0000
  H   H3563     1.0  0.77370  0.92960  0.54209  1.0000
  C   C4462     1.0  0.91583  0.93754  0.63585  1.0000
  H   H3564     1.0  0.71688  0.96395  0.46363  1.0000
  H   H3565     1.0  0.71442  0.81381  0.48554  1.0000
  C   C4463     1.0  0.83096  0.95750  0.66073  1.0000
  H   H3566     1.0  0.98673  0.83179  0.40980  1.0000
  C   C4464     1.0  0.98984  0.78761  0.54699  1.0000
  H   H3567     1.0  0.73138  0.96982  0.57292  1.0000
  C   C4465     1.0  0.80779  0.79335  0.48448  1.0000
  C   C4466     1.0  0.81683  0.80522  0.47075  1.0000
  C   C4467     1.0  0.80753  0.82281  0.46483  1.0000
  C   C4468     1.0  0.78923  0.82894  0.47277  1.0000
  C   C4469     1.0  0.78045  0.81737  0.48700  1.0000
  C   C4470     1.0  0.78962  0.79961  0.49267  1.0000
  H   H3568     1.0  0.83093  0.80078  0.46457  1.0000
  H   H3569     1.0  0.81453  0.83167  0.45392  1.0000
  H   H3570     1.0  0.76650  0.82196  0.49345  1.0000
  H   H3571     1.0  0.78255  0.79064  0.50344  1.0000
  H   H3572     1.0  0.69635  0.78152  0.44573  1.0000
  C   C4471     1.0  0.91128  0.86372  0.63651  1.0000
  C   C4472     1.0  0.75948  0.77063  0.41586  1.0000
  H   H3573     1.0  0.64951  0.97925  0.65624  1.0000
  P   P149      1.0  0.76980  0.77309  0.43740  1.0000
  C   C4473     1.0  0.72991  0.94293  0.43140  1.0000
  C   C4474     1.0  0.74959  0.93818  0.42969  1.0000
  C   C4475     1.0  0.76163  0.95022  0.41886  1.0000
  C   C4476     1.0  0.75416  0.96718  0.40979  1.0000
  C   C4477     1.0  0.73453  0.97212  0.41183  1.0000
  C   C4478     1.0  0.72248  0.96001  0.42253  1.0000
  H   H3574     1.0  0.75547  0.92509  0.43645  1.0000
  H   H3575     1.0  0.77680  0.94630  0.41735  1.0000
  H   H3576     1.0  0.72864  0.98513  0.40494  1.0000
  H   H3577     1.0  0.70729  0.96383  0.42383  1.0000
  H   H3578     1.0  0.84743  0.94503  0.41579  1.0000
  H   H3579     1.0  0.89356  0.78129  0.56129  1.0000
  C   C4479     1.0  0.90256  0.76871  0.55765  1.0000
  S   S607      1.0  0.97068  0.74961  0.60814  1.0000
  C   C4480     1.0  0.65129  0.92613  0.35063  1.0000
  H   H3580     1.0  0.51889  0.76484  0.46635  1.0000
  C   C4481     1.0  0.76609  0.98095  0.50713  1.0000
  C   C4482     1.0  0.73742  0.77707  0.46242  1.0000
  H   H3581     1.0  0.65377  0.89671  0.36003  1.0000
  C   C4483     1.0  0.91979  0.84687  0.62945  1.0000
  H   H3582     1.0  0.52757  0.78134  0.53119  1.0000
  H   H3583     1.0  0.78792  0.88624  0.47734  1.0000
  C   C4484     1.0  0.95450  0.77415  0.40830  1.0000
  H   H3584     1.0  0.93505  0.84499  0.62597  1.0000
  H   H3585     1.0  0.50182  0.80504  0.48198  1.0000
  H   H3586     1.0  0.57372  0.83427  0.34147  1.0000
  H   H3587     1.0  0.73622  0.76229  0.46084  1.0000
  H   H3588     1.0  0.94516  0.78293  0.33565  1.0000
  C   C4485     1.0  0.89853  0.93691  0.62833  1.0000
  C   C4486     1.0  0.78342  0.95042  0.50250  1.0000
  H   H3589     1.0  0.75898  0.97356  0.55014  1.0000
  C   C4487     1.0  0.61520  0.89502  0.39398  1.0000
  C   C4488     1.0  0.71659  0.94973  0.49105  1.0000
  C   C4489     1.0  0.81666  0.99526  0.34061  1.0000
  C   C4490     1.0  0.52565  0.84330  0.34619  1.0000
  C   C4491     1.0  0.72496  0.80608  0.47636  1.0000
  H   H3590     1.0  0.81068  0.76455  0.44386  1.0000
  C   C4492     1.0  0.71634  0.95156  0.51028  1.0000
  C   C4493     1.0  0.85417  0.99129  0.40409  1.0000
  H   H3591     1.0  0.50766  0.83512  0.37096  1.0000
  H   H3592     1.0  0.92413  0.94941  0.63208  1.0000
  H   H3593     1.0  0.86327  0.88177  0.61808  1.0000
  S   S608      1.0  0.98944  0.75274  0.41006  1.0000
  C   C4494     1.0  0.74188  0.78042  0.41212  1.0000
  S   S609      1.0  0.81607  0.96268  0.64194  1.0000
  C   C4495     1.0  0.61282  0.81407  0.37152  1.0000
  H   H3594     1.0  0.68185  0.98570  0.46861  1.0000
  C   C4496     1.0  0.95423  0.77524  0.46216  1.0000
  C   C4497     1.0  0.73977  0.81525  0.46659  1.0000
  H   H3595     1.0  0.78455  0.90364  0.58325  1.0000
  H   H3596     1.0  0.72865  0.85565  0.54087  1.0000
  H   H3597     1.0  0.78176  0.86220  0.50312  1.0000
  C   C4498     1.0  0.82561  0.91067  0.64983  1.0000
  H   H3598     1.0  0.93583  0.92329  0.65416  1.0000
  C   C4499     1.0  0.50366  0.76522  0.46624  1.0000
  C   C4500     1.0  0.79073  0.78538  0.43055  1.0000
  H   H3599     1.0  0.71622  0.93910  0.51998  1.0000
  H   H3600     1.0  0.62780  0.77405  0.41900  1.0000
  C   C4501     1.0  0.85196  0.97230  0.40188  1.0000
  C   C4502     1.0  0.63794  0.77129  0.48339  1.0000
  C   C4503     1.0  0.65291  0.90684  0.34805  1.0000
  H   H3601     1.0  0.67349  0.93300  0.62766  1.0000
  Fe  Fe307     1.0  0.75007  0.99264  0.62452  1.0000
  H   H3602     1.0  0.66431  0.86567  0.39444  1.0000
  H   H3603     1.0  0.80899  0.94441  0.51660  1.0000
  C   C4504     1.0  0.82311  0.80419  0.41840  1.0000
  C   C4505     1.0  0.66765  0.93788  0.65693  1.0000
  C   C4506     1.0  0.88066  0.85106  0.63974  1.0000
  H   H3604     1.0  0.94164  0.78849  0.55083  1.0000
  C   C4507     1.0  0.79753  0.85007  0.57811  1.0000
  C   C4508     1.0  0.75363  0.80535  0.45503  1.0000
  H   H3605     1.0  0.92065  0.76707  0.49832  1.0000
  C   C4509     1.0  0.65969  0.98923  0.65129  1.0000
  C   C4510     1.0  0.62353  0.75924  0.48440  1.0000
  H   H3606     1.0  0.72821  0.82139  0.53786  1.0000
  H   H3607     1.0  0.61210  0.76546  0.39233  1.0000
  H   H3608     1.0  0.57844  0.86852  0.33914  1.0000
  C   C4511     1.0  0.79060  0.87642  0.59775  1.0000
  C   C4512     1.0  0.97113  0.78880  0.55523  1.0000
  H   H3609     1.0  0.63892  0.78002  0.49485  1.0000
  H   H3610     1.0  0.95695  0.78506  0.45011  1.0000
  H   H3611     1.0  0.78855  0.89150  0.55193  1.0000
  H   H3612     1.0  0.75711  0.96004  0.49075  1.0000
  C   C4513     1.0  0.77555  0.75075  0.45026  1.0000
  C   C4514     1.0  0.56118  0.86958  0.38184  1.0000
  Fe  Fe308     1.0  0.98597  0.77460  0.61285  1.0000
  C   C4515     1.0  0.95742  0.76562  0.35815  1.0000
  H   H3613     1.0  0.75854  0.80061  0.53550  1.0000
  C   C4516     1.0  0.65374  0.90066  0.33001  1.0000
  H   H3614     1.0  0.64088  0.92490  0.62434  1.0000
  H   H3615     1.0  0.78452  0.93675  0.49672  1.0000
  H   H3616     1.0  0.75905  0.86945  0.54067  1.0000
  H   H3617     1.0  0.60099  0.93237  0.33295  1.0000
  H   H3618     1.0  0.78898  0.81382  0.53630  1.0000
  H   H3619     1.0  0.83556  0.81160  0.41404  1.0000
  C   C4517     1.0  0.99383  0.78487  0.52779  1.0000
  H   H3620     1.0  0.71585  0.97080  0.53189  1.0000
  H   H3621     1.0  0.85981  0.81831  0.55482  1.0000
  C   C4518     1.0  0.97857  0.78408  0.51687  1.0000
  C   C4519     1.0  0.94640  0.74908  0.49225  1.0000
  C   C4520     1.0  0.80524  0.81183  0.41338  1.0000
  C   C4521     1.0  0.66285  0.93329  0.63959  1.0000
  C   C4522     1.0  0.91755  0.76202  0.56865  1.0000
  H   H3622     1.0  0.64956  0.95418  0.33746  1.0000
  H   H3623     1.0  0.91555  0.81894  0.62245  1.0000
  H   H3624     1.0  0.77546  0.80840  0.41504  1.0000
  H   H3625     1.0  0.63979  0.85574  0.37635  1.0000
  H   H3626     1.0  0.77962  0.97779  0.44004  1.0000
  C   C4523     1.0  0.84944  0.96568  0.43559  1.0000
  C   C4524     1.0  0.96681  0.75907  0.46504  1.0000
  H   H3627     1.0  0.67180  0.97330  0.62803  1.0000
  H   H3628     1.0  0.72117  0.78709  0.39201  1.0000
  H   H3629     1.0  0.79619  0.84749  0.60831  1.0000
  C   C4525     1.0  0.85086  0.95541  0.65652  1.0000
  C   C4526     1.0  0.84948  0.95959  0.41759  1.0000
  C   C4527     1.0  0.96063  0.84353  0.65745  1.0000
  C   C4528     1.0  0.93484  0.77770  0.41349  1.0000
  C   C4529     1.0  0.76793  0.96356  0.49916  1.0000
  C   C4530     1.0  0.76254  0.75893  0.38475  1.0000
  H   H3630     1.0  0.78513  0.76387  0.47328  1.0000
  C   C4531     1.0  0.62018  0.82696  0.33976  1.0000
  C   C4532     1.0  0.91149  0.90780  0.65372  1.0000
  H   H3631     1.0  0.85192  0.96736  0.38801  1.0000
  C   C4533     1.0  0.65460  0.75775  0.41141  1.0000
  C   C4534     1.0  0.63583  0.76514  0.40887  1.0000
  C   C4535     1.0  0.72373  0.78700  0.47423  1.0000
  H   H3632     1.0  0.86558  0.85221  0.64419  1.0000
  C   C4536     1.0  0.85201  0.98447  0.43790  1.0000
  C   C4537     1.0  0.93983  0.75379  0.33518  1.0000
  C   C4538     1.0  0.63086  0.92871  0.65326  1.0000
  S   S610      1.0  0.76990  0.98171  0.39613  1.0000
  H   H3633     1.0  0.80040  0.83499  0.57693  1.0000
  H   H3634     1.0  0.84740  0.95584  0.44775  1.0000
  C   C4539     1.0  0.85270  0.88935  0.62732  1.0000
  C   C4540     1.0  0.75872  0.81561  0.53673  1.0000
  H   H3635     1.0  0.83244  0.84209  0.55999  1.0000
  H   H3636     1.0  0.66079  0.98252  0.44402  1.0000
  H   H3637     1.0  0.80812  0.91214  0.62687  1.0000
  C   C4541     1.0  0.96453  0.75756  0.41518  1.0000
  H   H3638     1.0  0.55756  0.75075  0.52360  1.0000
  C   C4542     1.0  0.75919  0.85437  0.53956  1.0000
  H   H3639     1.0  0.87445  0.92152  0.62724  1.0000
  H   H3640     1.0  0.53165  0.86582  0.38973  1.0000
  H   H3641     1.0  0.96191  0.78434  0.39917  1.0000
  H   H3642     1.0  0.65088  0.93090  0.36463  1.0000
  C   C4543     1.0  0.90880  0.83214  0.62754  1.0000
  H   H3643     1.0  0.68201  0.94114  0.65847  1.0000
  C   C4544     1.0  0.71660  0.98377  0.48498  1.0000
  C   C4545     1.0  0.75295  0.98933  0.45350  1.0000
  H   H3644     1.0  0.55903  0.87122  0.36712  1.0000
  H   H3645     1.0  0.60963  0.91036  0.35946  1.0000
  C   C4546     1.0  0.64699  0.89009  0.40415  1.0000
  H   H3646     1.0  0.83876  0.78122  0.43317  1.0000
  H   H3647     1.0  0.62625  0.91280  0.41234  1.0000
  C   C4547     1.0  0.74190  0.84659  0.53973  1.0000
  H   H3648     1.0  0.65773  0.89419  0.41236  1.0000
  H   H3649     1.0  0.83849  0.80430  0.50436  1.0000
  S   S611      1.0  0.92113  0.77461  0.58823  1.0000
  Fe  Fe309     1.0  0.88405  0.75348  0.45589  1.0000
  H   H3650     1.0  0.82880  0.90798  0.50805  1.0000
  P   P150      1.0  0.66581  0.76344  0.43153  1.0000
  C   C4548     1.0  0.77979  0.98543  0.51843  1.0000
  C   C4549     1.0  0.79502  0.85708  0.59591  1.0000
  H   H3651     1.0  0.82326  0.88355  0.53384  1.0000
  C   C4550     1.0  0.82370  0.99583  0.37282  1.0000
  H   H3652     1.0  0.81093  0.82802  0.50925  1.0000
  C   C4551     1.0  0.92510  0.76488  0.42584  1.0000
  C   C4552     1.0  0.82156  0.90656  0.63207  1.0000
  C   C4553     1.0  0.85689  0.89331  0.64525  1.0000
  C   C4554     1.0  0.64447  0.92873  0.63775  1.0000
  C   C4555     1.0  0.78851  0.88871  0.58179  1.0000
  H   H3653     1.0  0.97900  0.75675  0.45500  1.0000
  H   H3654     1.0  0.85670  0.95679  0.64205  1.0000
  H   H3655     1.0  0.98091  0.78237  0.50201  1.0000
  H   H3656     1.0  0.97483  0.86909  0.65303  1.0000
  C   C4556     1.0  0.95613  0.78760  0.54436  1.0000
  C   C4557     1.0  0.93757  0.77813  0.47408  1.0000
  C   C4558     1.0  0.77605  0.82326  0.53695  1.0000
  C   C4559     1.0  0.95984  0.78534  0.52518  1.0000
  H   H3657     1.0  0.92741  0.79021  0.47134  1.0000
  H   H3658     1.0  0.81908  0.99368  0.38760  1.0000
  C   C4560     1.0  0.62925  0.90059  0.40412  1.0000
  C   C4561     1.0  0.64923  0.76176  0.45220  1.0000
  H   H3659     1.0  0.50213  0.79060  0.44786  1.0000
  C   C4562     1.0  0.61884  0.87897  0.38361  1.0000
  H   H3660     1.0  0.89330  0.94837  0.61879  1.0000
  H   H3661     1.0  0.60133  0.90300  0.39452  1.0000
  C   C4563     1.0  0.76992  0.76019  0.40190  1.0000
  H   H3662     1.0  0.96998  0.83617  0.64704  1.0000
  C   C4564     1.0  0.78278  0.75071  0.46775  1.0000
  C   C4565     1.0  0.73410  0.98382  0.56691  1.0000
  C   C4566     1.0  0.54771  0.86346  0.41380  1.0000
  C   C4567     1.0  0.56568  0.86350  0.42012  1.0000
  C   C4568     1.0  0.58143  0.86637  0.40733  1.0000
  C   C4569     1.0  0.57934  0.86963  0.38805  1.0000
  P   P151      1.0  0.60014  0.87130  0.37146  1.0000
  C   C4570     1.0  0.60738  0.84788  0.36397  1.0000
  H   H3663     1.0  0.83200  0.89294  0.60694  1.0000
  H   H3664     1.0  0.92028  0.87461  0.63834  1.0000
  H   H3665     1.0  0.79772  0.98724  0.36450  1.0000
  C   C4571     1.0  0.63669  0.86842  0.38382  1.0000
  C   C4572     1.0  0.60682  0.83220  0.37709  1.0000
  H   H3666     1.0  0.53564  0.86043  0.42364  1.0000
  H   H3667     1.0  0.56759  0.86058  0.43490  1.0000
  H   H3668     1.0  0.59529  0.86538  0.41260  1.0000
  H   H3669     1.0  0.61336  0.75863  0.49666  1.0000
  H   H3670     1.0  0.86281  0.79920  0.52717  1.0000
  H   H3671     1.0  0.81111  0.90937  0.47970  1.0000
  H   H3672     1.0  0.74076  0.83005  0.46814  1.0000
  H   H3673     1.0  0.60178  0.83391  0.39167  1.0000
  H   H3674     1.0  0.61229  0.80207  0.38171  1.0000
  H   H3675     1.0  0.94812  0.78447  0.51683  1.0000
  C   C4573     1.0  0.74490  0.76848  0.38124  1.0000
  C   C4574     1.0  0.65051  0.93930  0.33515  1.0000
  C   C4575     1.0  0.67299  0.78716  0.42813  1.0000
  C   C4576     1.0  0.68858  0.79190  0.43683  1.0000
  C   C4577     1.0  0.69382  0.81035  0.43473  1.0000
  C   C4578     1.0  0.68352  0.82424  0.42401  1.0000
  C   C4579     1.0  0.66785  0.81973  0.41553  1.0000
  C   C4580     1.0  0.66255  0.80131  0.41762  1.0000
  C   C4581     1.0  0.78917  0.80234  0.41920  1.0000
  H   H3676     1.0  0.85201  0.98919  0.45185  1.0000
  H   H3677     1.0  0.80383  0.82520  0.40512  1.0000
  C   C4582     1.0  0.71673  0.96572  0.47848  1.0000
  C   C4583     1.0  0.79540  0.97217  0.52165  1.0000
  H   H3678     1.0  0.81023  0.99233  0.58767  1.0000
  H   H3679     1.0  0.71659  0.93587  0.48585  1.0000
  C   C4584     1.0  0.92237  0.92290  0.64839  1.0000
  C   C4585     1.0  0.74165  0.82727  0.53810  1.0000
  C   C4586     1.0  0.88923  0.83425  0.63262  1.0000
  C   C4587     1.0  0.79719  0.95476  0.51368  1.0000
  S   S612      1.0  0.90039  0.76991  0.43211  1.0000
  C   C4588     1.0  0.81147  0.99212  0.35976  1.0000
  H   H3680     1.0  0.70534  0.81417  0.44205  1.0000
  H   H3681     1.0  0.68713  0.83869  0.42308  1.0000
  H   H3682     1.0  0.65922  0.83070  0.40808  1.0000
  H   H3683     1.0  0.64994  0.79845  0.41151  1.0000
  H   H3684     1.0  0.88081  0.82267  0.63138  1.0000
  H   H3685     1.0  0.76519  0.81280  0.44818  1.0000
  H   H3686     1.0  0.75377  0.99079  0.50486  1.0000
  H   H3687     1.0  0.96313  0.77724  0.36380  1.0000
  H   H3688     1.0  0.92716  0.79056  0.40812  1.0000
  H   H3689     1.0  0.66179  0.78200  0.46684  1.0000
  H   H3690     1.0  0.88718  0.76429  0.53403  1.0000
  C   C4589     1.0  0.67222  0.98587  0.63539  1.0000
  C   C4590     1.0  0.79103  0.88176  0.56398  1.0000
  C   C4591     1.0  0.81514  0.88433  0.52176  1.0000
  C   C4592     1.0  0.77642  0.84278  0.53808  1.0000
  C   C4593     1.0  0.59446  0.88771  0.35167  1.0000
  H   H3691     1.0  0.70425  0.76034  0.41285  1.0000
  S   S613      1.0  0.87592  0.76622  0.48362  1.0000
  C   C4594     1.0  0.81837  0.89813  0.50714  1.0000
  C   C4595     1.0  0.71606  0.96945  0.51695  1.0000
  H   H3692     1.0  0.78839  0.88187  0.61153  1.0000
  H   H3693     1.0  0.62365  0.79730  0.34854  1.0000
  C   C4596     1.0  0.54547  0.86655  0.39468  1.0000
  C   C4597     1.0  0.91260  0.98809  0.36910  1.0000
  C   C4598     1.0  0.84897  0.82037  0.54504  1.0000
  C   C4599     1.0  0.85075  0.80966  0.52941  1.0000
  C   C4600     1.0  0.83702  0.81252  0.51656  1.0000
  C   C4601     1.0  0.82134  0.82585  0.51948  1.0000
  C   C4602     1.0  0.81897  0.83607  0.53560  1.0000
  C   C4603     1.0  0.83326  0.83369  0.54804  1.0000
  P   P152      1.0  0.79844  0.85309  0.53911  1.0000
  C   C4604     1.0  0.79607  0.86242  0.56196  1.0000
  C   C4605     1.0  0.80162  0.87151  0.52071  1.0000
  C   C4606     1.0  0.79179  0.87232  0.50461  1.0000
  C   C4607     1.0  0.79525  0.88598  0.48992  1.0000
  C   C4608     1.0  0.80843  0.89893  0.49120  1.0000
  H   H3694     1.0  0.80685  0.99309  0.33053  1.0000
  C   C4609     1.0  0.83505  0.89581  0.62085  1.0000
  H   H3695     1.0  0.71215  0.77996  0.48175  1.0000
  H   H3696     1.0  0.61698  0.92455  0.65154  1.0000
  C   C4610     1.0  0.89387  0.98957  0.37747  1.0000
  C   C4611     1.0  0.82490  0.78705  0.42920  1.0000
  C   C4612     1.0  0.89422  0.90690  0.64603  1.0000
  H   H3697     1.0  0.88917  0.97806  0.38692  1.0000
  H   H3698     1.0  0.78413  0.98950  0.56818  1.0000
  C   C4613     1.0  0.58343  0.88242  0.33811  1.0000
  C   C4614     1.0  0.60091  0.90581  0.34954  1.0000
  H   H3699     1.0  0.78386  0.75316  0.40425  1.0000
  H   H3700     1.0  0.95850  0.96876  0.65984  1.0000
  C   C4615     1.0  0.89160  0.86600  0.64165  1.0000
  C   C4616     1.0  0.67295  0.99060  0.44083  1.0000
  H   H3701     1.0  0.61549  0.85701  0.33501  1.0000
  C   C4617     1.0  0.65082  0.77248  0.46739  1.0000
  C   C4618     1.0  0.89893  0.75913  0.54215  1.0000
  P   P153      1.0  0.88060  0.88696  0.65251  1.0000
  H   H3702     1.0  0.80591  0.97495  0.53075  1.0000
  H   H3703     1.0  0.69539  0.99603  0.61692  1.0000
  C   C4619     1.0  0.84317  0.90412  0.65642  1.0000
  C   C4620     1.0  0.71599  0.98553  0.50440  1.0000
  C   C4621     1.0  0.94731  0.76880  0.34230  1.0000
  C   C4622     1.0  0.80880  0.77769  0.43535  1.0000
  C   C4623     1.0  0.59609  0.91840  0.33439  1.0000
  H   H3704     1.0  0.73930  0.76768  0.36785  1.0000
  C   C4624     1.0  0.73466  0.77934  0.39486  1.0000
  C   C4625     1.0  0.74982  0.98604  0.55388  1.0000
  C   C4626     1.0  0.50064  0.80033  0.49668  1.0000
  C   C4627     1.0  0.68504  0.99233  0.45471  1.0000
  C   C4628     1.0  0.70356  0.74908  0.42384  1.0000
  H   H3705     1.0  0.71062  0.99793  0.58325  1.0000
  C   C4629     1.0  0.85446  0.99723  0.42221  1.0000
  C   C4630     1.0  0.63495  0.74937  0.45349  1.0000
  H   H3706     1.0  0.77065  0.75078  0.37406  1.0000
  C   C4631     1.0  0.79518  0.99844  0.56290  1.0000
  H   H3707     1.0  0.66748  0.99756  0.41196  1.0000
  C   C4632     1.0  0.96336  0.86223  0.66091  1.0000
  H   H3708     1.0  0.65511  0.88568  0.32804  1.0000
  Fe  Fe310     1.0  0.91336  0.91945  0.91050  1.0000
  S   S614      1.0  0.92023  0.90204  0.88546  1.0000
  S   S615      1.0  0.93526  0.93904  0.91651  1.0000
  Fe  Fe311     1.0  0.87197  0.90950  0.91538  1.0000
  S   S616      1.0  0.87581  0.89177  0.89068  1.0000
  S   S617      1.0  0.84440  0.91576  0.93392  1.0000
  Fe  Fe312     1.0  0.90343  0.88012  0.90213  1.0000
  S   S618      1.0  0.91581  0.84959  0.89887  1.0000
  Fe  Fe313     1.0  0.89240  0.91471  0.87580  1.0000
  S   S619      1.0  0.88678  0.92796  0.84662  1.0000
  S   S620      1.0  0.89877  0.89655  0.92802  1.0000
  S   S621      1.0  0.88629  0.93348  0.89978  1.0000
  C   C4633     1.0  0.96805  0.78959  0.72737  1.0000
  H   H3709     1.0  0.67289  0.92484  0.78037  1.0000
  H   H3710     1.0  0.92260  0.83734  0.68907  1.0000
  Fe  Fe314     1.0  0.94216  0.95707  0.71106  1.0000
  S   S622      1.0  0.91675  0.95427  0.73235  1.0000
  S   S623      1.0  0.95571  0.98548  0.70674  1.0000
  Fe  Fe315     1.0  0.94028  0.91651  0.69882  1.0000
  S   S624      1.0  0.91543  0.91107  0.71970  1.0000
  S   S625      1.0  0.95602  0.89557  0.67848  1.0000
  Fe  Fe316     1.0  0.90326  0.94050  0.71034  1.0000
  S   S626      1.0  0.87092  0.94630  0.70856  1.0000
  Fe  Fe317     1.0  0.93047  0.92524  0.74003  1.0000
  S   S627      1.0  0.93633  0.91227  0.76929  1.0000
  S   S628      1.0  0.92753  0.94544  0.68839  1.0000
  S   S629      1.0  0.95651  0.92863  0.71977  1.0000
  C   C4634     1.0  0.61409  0.75805  0.89981  1.0000
  S   S630      1.0  0.52163  0.90706  0.72650  1.0000
  H   H3711     1.0  0.66472  0.88214  0.71625  1.0000
  Fe  Fe318     1.0  0.63723  0.97514  0.75032  1.0000
  H   H3712     1.0  0.96498  0.95850  0.74524  1.0000
  Fe  Fe319     1.0  0.60710  0.95022  0.77025  1.0000
  S   S631      1.0  0.60570  0.96507  0.79683  1.0000
  S   S632      1.0  0.59045  0.92424  0.77136  1.0000
  Fe  Fe320     1.0  0.63767  0.96380  0.79270  1.0000
  S   S633      1.0  0.65962  0.95030  0.81256  1.0000
  S   S634      1.0  0.60512  0.97697  0.75150  1.0000
  S   S635      1.0  0.63916  0.94727  0.76702  1.0000
  H   H3713     1.0  0.58186  0.94912  0.70825  1.0000
  Fe  Fe321     1.0  0.63101  0.78254  0.96710  1.0000
  S   S636      1.0  0.62227  0.75909  0.95137  1.0000
  S   S637      1.0  0.64834  0.80426  0.94916  1.0000
  Fe  Fe322     1.0  0.59392  0.76226  0.96834  1.0000
  S   S638      1.0  0.56329  0.76386  0.96000  1.0000
  S   S639      1.0  0.60179  0.78725  0.98232  1.0000
  H   H3714     1.0  0.54349  0.88479  0.86960  1.0000
  Fe  Fe323     1.0  0.73305  0.91667  0.92767  1.0000
  S   S640      1.0  0.72399  0.91283  0.95847  1.0000
  S   S641      1.0  0.76117  0.90403  0.91319  1.0000
  Fe  Fe324     1.0  0.69508  0.93883  0.91898  1.0000
  S   S642      1.0  0.68369  0.93677  0.94964  1.0000
  S   S643      1.0  0.67729  0.95682  0.89764  1.0000
  Fe  Fe325     1.0  0.71255  0.94375  0.95639  1.0000
  S   S644      1.0  0.72286  0.96443  0.97594  1.0000
  Fe  Fe326     1.0  0.69585  0.90607  0.94951  1.0000
  S   S645      1.0  0.67998  0.88204  0.96556  1.0000
  S   S646      1.0  0.72312  0.94765  0.92567  1.0000
  S   S647      1.0  0.70569  0.90799  0.91868  1.0000
  S   S648      1.0  0.90318  0.77182  0.94675  1.0000
  H   H3715     1.0  0.56048  0.84595  0.84749  1.0000
  P   P154      1.0  0.51919  0.92272  0.82386  1.0000
  C   C4635     1.0  0.67990  0.95298  0.71324  1.0000
  C   C4636     1.0  0.93399  0.84426  0.68111  1.0000
  C   C4637     1.0  0.53694  0.78930  0.84239  1.0000
  H   H3716     1.0  0.67232  0.94479  0.72434  1.0000
  C   C4638     1.0  0.97783  0.99401  0.71057  1.0000
  C   C4639     1.0  0.65632  0.82627  0.95381  1.0000
  C   C4640     1.0  0.65307  0.83356  0.97147  1.0000
  C   C4641     1.0  0.66032  0.85061  0.97468  1.0000
  C   C4642     1.0  0.67058  0.86094  0.96025  1.0000
  C   C4643     1.0  0.67331  0.85397  0.94240  1.0000
  C   C4644     1.0  0.66637  0.83670  0.93929  1.0000
  H   H3717     1.0  0.88636  0.85208  0.67740  1.0000
  C   C4645     1.0  0.57443  0.89905  0.69883  1.0000
  H   H3718     1.0  0.68103  0.86173  0.93109  1.0000
  H   H3719     1.0  0.66888  0.83135  0.92551  1.0000
  C   C4646     1.0  0.66358  0.95204  0.83651  1.0000
  C   C4647     1.0  0.65492  0.96680  0.84699  1.0000
  C   C4648     1.0  0.65923  0.96794  0.86565  1.0000
  C   C4649     1.0  0.67200  0.95423  0.87422  1.0000
  C   C4650     1.0  0.68037  0.93929  0.86383  1.0000
  C   C4651     1.0  0.67637  0.93836  0.84506  1.0000
  H   H3720     1.0  0.71395  0.84532  0.97659  1.0000
  H   H3721     1.0  0.65263  0.97955  0.87351  1.0000
  H   H3722     1.0  0.68991  0.92848  0.87027  1.0000
  H   H3723     1.0  0.68314  0.92685  0.83715  1.0000
  H   H3724     1.0  0.80740  0.92315  0.95333  1.0000
  C   C4652     1.0  0.83611  0.95204  0.69388  1.0000
  C   C4653     1.0  0.60068  0.77386  0.89973  1.0000
  H   H3725     1.0  0.55921  0.83152  0.87983  1.0000
  C   C4654     1.0  0.54058  0.91189  0.73920  1.0000
  C   C4655     1.0  0.54925  0.92875  0.73477  1.0000
  C   C4656     1.0  0.56451  0.93285  0.74448  1.0000
  C   C4657     1.0  0.57154  0.91987  0.75836  1.0000
  C   C4658     1.0  0.56302  0.90293  0.76256  1.0000
  C   C4659     1.0  0.54744  0.89908  0.75328  1.0000
  H   H3726     1.0  0.54404  0.93875  0.72389  1.0000
  H   H3727     1.0  0.57078  0.94602  0.74132  1.0000
  H   H3728     1.0  0.56852  0.89272  0.77306  1.0000
  H   H3729     1.0  0.54102  0.88599  0.75674  1.0000
  H   H3730     1.0  0.89790  0.94570  0.94383  1.0000
  C   C4660     1.0  0.70473  0.95453  0.68689  1.0000
  C   C4661     1.0  0.69962  0.97389  0.68415  1.0000
  C   C4662     1.0  0.68476  0.98268  0.69581  1.0000
  C   C4663     1.0  0.67464  0.97235  0.71026  1.0000
  H   H3731     1.0  0.71656  0.94910  0.87660  1.0000
  C   C4664     1.0  0.93300  0.75616  0.72811  1.0000
  H   H3732     1.0  0.50572  0.93389  0.75533  1.0000
  H   H3733     1.0  0.55724  0.85270  0.80165  1.0000
  C   C4665     1.0  0.85601  0.95025  0.68969  1.0000
  H   H3734     1.0  0.73010  0.93316  0.73610  1.0000
  H   H3735     1.0  0.51927  0.87013  0.85496  1.0000
  H   H3736     1.0  0.68323  0.90167  0.75655  1.0000
  C   C4666     1.0  0.95151  0.87208  0.67454  1.0000
  C   C4667     1.0  0.93668  0.86299  0.68454  1.0000
  H   H3737     1.0  0.95888  0.84250  0.73822  1.0000
  H   H3738     1.0  0.92735  0.87032  0.69500  1.0000
  H   H3739     1.0  0.93578  0.95301  0.76589  1.0000
  C   C4668     1.0  0.94387  0.94408  0.93780  1.0000
  C   C4669     1.0  0.95560  0.95886  0.93749  1.0000
  C   C4670     1.0  0.96287  0.96340  0.95396  1.0000
  C   C4671     1.0  0.95843  0.95321  0.97100  1.0000
  C   C4672     1.0  0.94673  0.93840  0.97133  1.0000
  C   C4673     1.0  0.93947  0.93384  0.95485  1.0000
  H   H3740     1.0  0.95916  0.96683  0.92438  1.0000
  H   H3741     1.0  0.97205  0.97463  0.95343  1.0000
  H   H3742     1.0  0.82438  0.96494  0.92491  1.0000
  H   H3743     1.0  0.93051  0.92242  0.95533  1.0000
  C   C4674     1.0  0.90105  0.92372  0.82536  1.0000
  C   C4675     1.0  0.91790  0.91168  0.82488  1.0000
  C   C4676     1.0  0.92857  0.90845  0.80762  1.0000
  C   C4677     1.0  0.92256  0.91720  0.79067  1.0000
  C   C4678     1.0  0.90590  0.92954  0.79119  1.0000
  C   C4679     1.0  0.89523  0.93279  0.80846  1.0000
  H   H3744     1.0  0.92263  0.90473  0.83778  1.0000
  H   H3745     1.0  0.94147  0.89894  0.80737  1.0000
  H   H3746     1.0  0.90111  0.93639  0.77828  1.0000
  H   H3747     1.0  0.88227  0.94221  0.80869  1.0000
  C   C4680     1.0  0.91198  0.82827  0.91260  1.0000
  C   C4681     1.0  0.89957  0.82770  0.92899  1.0000
  C   C4682     1.0  0.89713  0.81033  0.93938  1.0000
  C   C4683     1.0  0.90703  0.79340  0.93349  1.0000
  C   C4684     1.0  0.91951  0.79401  0.91719  1.0000
  C   C4685     1.0  0.92194  0.81135  0.90682  1.0000
  H   H3748     1.0  0.89195  0.84061  0.93371  1.0000
  H   H3749     1.0  0.88754  0.81002  0.95204  1.0000
  H   H3750     1.0  0.92723  0.78112  0.91251  1.0000
  H   H3751     1.0  0.93162  0.81165  0.89420  1.0000
  C   C4686     1.0  0.82148  0.91150  0.92828  1.0000
  C   C4687     1.0  0.81879  0.90321  0.91187  1.0000
  C   C4688     1.0  0.80023  0.90105  0.90746  1.0000
  C   C4689     1.0  0.78421  0.90698  0.91945  1.0000
  C   C4690     1.0  0.78695  0.91472  0.93612  1.0000
  C   C4691     1.0  0.80548  0.91690  0.94051  1.0000
  H   H3752     1.0  0.83097  0.89878  0.90244  1.0000
  H   H3753     1.0  0.79825  0.89493  0.89461  1.0000
  H   H3754     1.0  0.77476  0.91917  0.94557  1.0000
  C   C4692     1.0  0.85728  0.78533  0.93781  1.0000
  C   C4693     1.0  0.86238  0.77502  0.92206  1.0000
  C   C4694     1.0  0.85775  0.78270  0.90442  1.0000
  C   C4695     1.0  0.84821  0.80079  0.90248  1.0000
  C   C4696     1.0  0.84357  0.81148  0.91817  1.0000
  C   C4697     1.0  0.84795  0.80350  0.93591  1.0000
  P   P155      1.0  0.83231  0.83527  0.91531  1.0000
  C   C4698     1.0  0.80700  0.83505  0.91416  1.0000
  C   C4699     1.0  0.83622  0.84824  0.93494  1.0000
  C   C4700     1.0  0.82368  0.84751  0.95135  1.0000
  C   C4701     1.0  0.82617  0.85811  0.96631  1.0000
  C   C4702     1.0  0.84137  0.86924  0.96511  1.0000
  C   C4703     1.0  0.85419  0.86959  0.94908  1.0000
  C   C4704     1.0  0.85163  0.85922  0.93399  1.0000
  C   C4705     1.0  0.79462  0.85109  0.91845  1.0000
  C   C4706     1.0  0.77503  0.85106  0.91770  1.0000
  C   C4707     1.0  0.76761  0.83509  0.91250  1.0000
  C   C4708     1.0  0.77981  0.81910  0.90809  1.0000
  C   C4709     1.0  0.79944  0.81902  0.90896  1.0000
  C   C4710     1.0  0.84307  0.84656  0.89400  1.0000
  C   C4711     1.0  0.86255  0.84237  0.88860  1.0000
  C   C4712     1.0  0.87092  0.85084  0.87203  1.0000
  C   C4713     1.0  0.86001  0.86377  0.86084  1.0000
  C   C4714     1.0  0.84071  0.86826  0.86626  1.0000
  C   C4715     1.0  0.83224  0.85969  0.88276  1.0000
  H   H3755     1.0  0.86146  0.77955  0.95138  1.0000
  H   H3756     1.0  0.82689  0.75890  0.87897  1.0000
  H   H3757     1.0  0.86206  0.77482  0.89220  1.0000
  H   H3758     1.0  0.84498  0.80666  0.88865  1.0000
  H   H3759     1.0  0.84481  0.81145  0.94820  1.0000
  H   H3760     1.0  0.81179  0.83903  0.95250  1.0000
  H   H3761     1.0  0.81615  0.85800  0.97870  1.0000
  H   H3762     1.0  0.84308  0.87785  0.97645  1.0000
  H   H3763     1.0  0.86578  0.87846  0.94809  1.0000
  H   H3764     1.0  0.86159  0.86009  0.92161  1.0000
  H   H3765     1.0  0.80008  0.86370  0.92237  1.0000
  H   H3766     1.0  0.76562  0.86356  0.92100  1.0000
  H   H3767     1.0  0.75242  0.83526  0.91177  1.0000
  H   H3768     1.0  0.77405  0.80678  0.90391  1.0000
  H   H3769     1.0  0.80860  0.80649  0.90554  1.0000
  H   H3770     1.0  0.87143  0.83280  0.89732  1.0000
  H   H3771     1.0  0.88606  0.84785  0.86824  1.0000
  H   H3772     1.0  0.86668  0.87070  0.84826  1.0000
  H   H3773     1.0  0.83237  0.87860  0.85778  1.0000
  H   H3774     1.0  0.81734  0.86351  0.88677  1.0000
  P   P156      1.0  0.96161  0.96815  0.82349  1.0000
  C   C4716     1.0  0.70709  0.91635  0.74458  1.0000
  C   C4717     1.0  0.53014  0.86842  0.80810  1.0000
  C   C4718     1.0  0.73408  0.76666  0.98925  1.0000
  C   C4719     1.0  0.61029  0.95603  0.69791  1.0000
  C   C4720     1.0  0.59139  0.96010  0.70551  1.0000
  P   P157      1.0  0.61867  0.93236  0.69144  1.0000
  C   C4721     1.0  0.50170  0.95974  0.76942  1.0000
  C   C4722     1.0  0.53821  0.80786  0.83488  1.0000
  H   H3775     1.0  0.97199  0.92924  0.81185  1.0000
  H   H3776     1.0  0.54808  0.90289  0.68594  1.0000
  H   H3777     1.0  0.71180  0.90613  0.73434  1.0000
  H   H3778     1.0  0.87440  0.91198  0.68343  1.0000
  C   C4723     1.0  0.65407  0.93794  0.67241  1.0000
  C   C4724     1.0  0.80716  0.96259  0.90227  1.0000
  C   C4725     1.0  0.59217  0.90566  0.69967  1.0000
  C   C4726     1.0  0.55119  0.95753  0.78841  1.0000
  H   H3779     1.0  0.70704  0.98207  0.67294  1.0000
  C   C4727     1.0  0.63065  0.91892  0.70995  1.0000
  C   C4728     1.0  0.62446  0.92140  0.72882  1.0000
  C   C4729     1.0  0.63266  0.90963  0.74300  1.0000
  C   C4730     1.0  0.64722  0.89560  0.73852  1.0000
  H   H3780     1.0  0.50088  0.79668  0.87638  1.0000
  H   H3781     1.0  0.52488  0.75991  0.95272  1.0000
  H   H3782     1.0  0.79730  0.96401  0.94953  1.0000
  H   H3783     1.0  0.91662  0.89678  0.66378  1.0000
  H   H3784     1.0  0.93343  0.99233  0.74215  1.0000
  C   C4731     1.0  0.51926  0.91892  0.88823  1.0000
  S   S649      1.0  0.50238  0.85469  0.73294  1.0000
  C   C4732     1.0  0.96873  0.92870  0.82691  1.0000
  H   H3785     1.0  0.80892  0.75964  0.91011  1.0000
  H   H3786     1.0  0.71584  0.78907  0.93988  1.0000
  H   H3787     1.0  0.50541  0.88707  0.81529  1.0000
  H   H3788     1.0  0.51301  0.83089  0.90360  1.0000
  H   H3789     1.0  0.53275  0.80705  0.94928  1.0000
  H   H3790     1.0  0.66528  0.74939  0.94566  1.0000
  C   C4733     1.0  0.96523  0.82248  0.95478  1.0000
  H   H3791     1.0  0.61300  0.93203  0.73262  1.0000
  H   H3792     1.0  0.62760  0.91125  0.75756  1.0000
  H   H3793     1.0  0.65342  0.88653  0.74959  1.0000
  C   C4734     1.0  0.98460  0.76154  0.91211  1.0000
  C   C4735     1.0  0.99245  0.98253  0.71869  1.0000
  C   C4736     1.0  0.96151  0.82776  0.73524  1.0000
  H   H3794     1.0  0.67743  0.80253  0.98495  1.0000
  C   C4737     1.0  0.64512  0.90455  0.70554  1.0000
  C   C4738     1.0  0.51195  0.81879  0.85699  1.0000
  C   C4739     1.0  0.76584  0.97560  0.70796  1.0000
  H   H3795     1.0  0.58632  0.77205  0.89701  1.0000
  H   H3796     1.0  0.93219  0.85400  0.93487  1.0000
  C   C4740     1.0  0.56515  0.80583  0.91088  1.0000
  H   H3797     1.0  0.95569  0.92525  0.88079  1.0000
  C   C4741     1.0  0.73444  0.92372  0.87029  1.0000
  H   H3798     1.0  0.65825  0.94105  0.68583  1.0000
  H   H3799     1.0  0.64978  0.90191  0.69110  1.0000
  P   P158      1.0  0.96869  0.79778  0.96274  1.0000
  C   C4742     1.0  0.75095  0.94506  0.81630  1.0000
  C   C4743     1.0  0.63277  0.75979  0.90345  1.0000
  C   C4744     1.0  0.98885  0.76062  0.70309  1.0000
  C   C4745     1.0  0.98057  0.96494  0.76784  1.0000
  H   H3800     1.0  0.99265  0.82957  0.96145  1.0000
  C   C4746     1.0  0.55469  0.79699  0.89908  1.0000
  C   C4747     1.0  0.90491  0.97712  0.84090  1.0000
  C   C4748     1.0  0.71503  0.83286  0.96868  1.0000
  C   C4749     1.0  0.68601  0.76165  0.95961  1.0000
  H   H3801     1.0  0.50991  0.79321  0.75863  1.0000
  C   C4750     1.0  0.51098  0.80010  0.86461  1.0000
  H   H3802     1.0  0.62076  0.83048  0.84052  1.0000
  H   H3803     1.0  0.55952  0.90890  0.81789  1.0000
  H   H3804     1.0  0.89618  0.76069  0.70060  1.0000
  H   H3805     1.0  0.49933  0.81183  0.73024  1.0000
  C   C4751     1.0  0.53864  0.80483  0.93505  1.0000
  C   C4752     1.0  0.90234  0.99645  0.84334  1.0000
  H   H3806     1.0  0.98762  0.75959  0.95909  1.0000
  C   C4753     1.0  0.96459  0.96011  0.76014  1.0000
  H   H3807     1.0  0.94084  0.81904  0.98772  1.0000
  H   H3808     1.0  0.99260  0.97034  0.79279  1.0000
  H   H3809     1.0  0.67576  0.77272  0.96485  1.0000
  H   H3810     1.0  0.69010  0.95281  0.78135  1.0000
  C   C4754     1.0  0.53642  0.79212  0.90528  1.0000
  H   H3811     1.0  0.84607  0.90815  0.66993  1.0000
  C   C4755     1.0  0.54128  0.86681  0.89514  1.0000
  C   C4756     1.0  0.78897  0.96007  0.89730  1.0000
  H   H3812     1.0  0.84743  0.95880  0.98040  1.0000
  P   P159      1.0  0.78478  0.95917  0.87295  1.0000
  C   C4757     1.0  0.80559  0.94850  0.85967  1.0000
  C   C4758     1.0  0.76512  0.94529  0.87158  1.0000
  C   C4759     1.0  0.98932  0.75459  0.92997  1.0000
  H   H3813     1.0  0.87051  0.76133  0.92346  1.0000
  H   H3814     1.0  0.96138  0.80382  0.92264  1.0000
  C   C4760     1.0  0.75309  0.91541  0.86738  1.0000
  C   C4761     1.0  0.76840  0.92611  0.86812  1.0000
  C   C4762     1.0  0.97656  0.94386  0.66778  1.0000
  C   C4763     1.0  0.58509  0.92985  0.67502  1.0000
  C   C4764     1.0  0.83793  0.93184  0.83921  1.0000
  C   C4765     1.0  0.83394  0.92619  0.85814  1.0000
  C   C4766     1.0  0.81775  0.93436  0.86828  1.0000
  C   C4767     1.0  0.76085  0.94059  0.79918  1.0000
  C   C4768     1.0  0.94137  0.77341  0.97670  1.0000
  H   H3815     1.0  0.96986  0.80049  0.69818  1.0000
  C   C4769     1.0  0.98021  0.98222  0.82818  1.0000
  C   C4770     1.0  0.56204  0.90777  0.68613  1.0000
  C   C4771     1.0  0.96914  0.91105  0.83694  1.0000
  C   C4772     1.0  0.96361  0.94526  0.83628  1.0000
  C   C4773     1.0  0.76802  0.98580  0.84743  1.0000
  C   C4774     1.0  0.98833  0.79318  0.97724  1.0000
  C   C4775     1.0  0.52787  0.96003  0.82196  1.0000
  H   H3816     1.0  0.53662  0.84636  0.91845  1.0000
  C   C4776     1.0  0.62235  0.97060  0.69541  1.0000
  H   H3817     1.0  0.97033  0.78445  0.89590  1.0000
  H   H3818     1.0  0.75569  0.90046  0.86546  1.0000
  H   H3819     1.0  0.78269  0.91917  0.86663  1.0000
  C   C4777     1.0  0.75316  0.94688  0.78231  1.0000
  C   C4778     1.0  0.94530  0.84864  0.94086  1.0000
  H   H3820     1.0  0.85062  0.92563  0.83143  1.0000
  H   H3821     1.0  0.84361  0.91571  0.86502  1.0000
  H   H3822     1.0  0.81485  0.92981  0.88289  1.0000
  C   C4779     1.0  0.89997  0.96618  0.96380  1.0000
  P   P160      1.0  0.72485  0.96489  0.76087  1.0000
  C   C4780     1.0  0.71428  0.79895  0.96780  1.0000
  C   C4781     1.0  0.92284  0.96865  0.83482  1.0000
  C   C4782     1.0  0.87156  0.95090  0.96114  1.0000
  C   C4783     1.0  0.94597  0.83435  0.66761  1.0000
  H   H3823     1.0  0.97266  0.89830  0.82961  1.0000
  H   H3824     1.0  0.87855  0.95035  0.66736  1.0000
  C   C4784     1.0  0.60667  0.82229  0.86747  1.0000
  P   P161      1.0  0.97056  0.76517  0.72187  1.0000
  H   H3825     1.0  0.68827  0.97855  0.74646  1.0000
  C   C4785     1.0  0.52077  0.88555  0.81364  1.0000
  C   C4786     1.0  0.94803  0.95722  0.77172  1.0000
  C   C4787     1.0  0.95885  0.94384  0.85577  1.0000
  C   C4788     1.0  0.93843  0.97946  0.83103  1.0000
  C   C4789     1.0  0.63810  0.77738  0.90693  1.0000
  C   C4790     1.0  0.53118  0.90057  0.81657  1.0000
  H   H3826     1.0  0.89305  0.96855  0.84393  1.0000
  C   C4791     1.0  0.88309  0.86401  0.68591  1.0000
  H   H3827     1.0  0.52887  0.78434  0.89658  1.0000
  C   C4792     1.0  0.58933  0.82234  0.87873  1.0000
  H   H3828     1.0  0.61976  0.81598  0.87288  1.0000
  C   C4793     1.0  0.52261  0.86504  0.86898  1.0000
  C   C4794     1.0  0.80454  0.79054  0.96140  1.0000
  H   H3829     1.0  0.83027  0.95081  0.70836  1.0000
  C   C4795     1.0  0.98402  0.76539  0.94534  1.0000
  C   C4796     1.0  0.77202  0.97672  0.72569  1.0000
  C   C4797     1.0  0.94307  0.76797  0.69651  1.0000
  H   H3830     1.0  0.55200  0.87326  0.90151  1.0000
  H   H3831     1.0  0.79281  0.99660  0.88282  1.0000
  C   C4798     1.0  0.69099  0.91385  0.75704  1.0000
  C   C4799     1.0  0.97641  0.85370  0.94941  1.0000
  C   C4800     1.0  0.89050  0.95351  0.95517  1.0000
  C   C4801     1.0  0.86332  0.95175  0.67086  1.0000
  C   C4802     1.0  0.96797  0.80392  0.71273  1.0000
  C   C4803     1.0  0.73574  0.95818  0.78244  1.0000
  C   C4804     1.0  0.55000  0.86585  0.80631  1.0000
  H   H3832     1.0  0.59123  0.84547  0.82768  1.0000
  H   H3833     1.0  0.99300  0.92353  0.74615  1.0000
  C   C4805     1.0  0.69483  0.94413  0.70154  1.0000
  C   C4806     1.0  0.69281  0.98955  0.75403  1.0000
  H   H3834     1.0  0.54620  0.93298  0.84878  1.0000
  C   C4807     1.0  0.72572  0.96230  0.79974  1.0000
  C   C4808     1.0  0.92458  0.76759  0.69151  1.0000
  H   H3835     1.0  0.95376  0.77329  0.68616  1.0000
  H   H3836     1.0  0.60095  0.80818  0.94068  1.0000
  C   C4809     1.0  0.57270  0.83104  0.87141  1.0000
  H   H3837     1.0  0.55549  0.98658  0.79100  1.0000
  C   C4810     1.0  0.53432  0.92741  0.85736  1.0000
  C   C4811     1.0  0.94720  0.79162  0.97643  1.0000
  H   H3838     1.0  0.51056  0.74922  0.92565  1.0000
  C   C4812     1.0  0.53258  0.85169  0.90470  1.0000
  C   C4813     1.0  0.73104  0.94278  0.87378  1.0000
  H   H3839     1.0  0.52242  0.77101  0.86313  1.0000
  C   C4814     1.0  0.88265  0.86073  0.70540  1.0000
  C   C4815     1.0  0.87871  0.87580  0.71687  1.0000
  C   C4816     1.0  0.87541  0.89416  0.70884  1.0000
  C   C4817     1.0  0.87632  0.89755  0.68935  1.0000
  C   C4818     1.0  0.99401  0.93684  0.67427  1.0000
  H   H3840     1.0  0.51926  0.91811  0.90337  1.0000
  C   C4819     1.0  0.71667  0.83487  0.94912  1.0000
  H   H3841     1.0  0.80843  0.95704  0.68303  1.0000
  H   H3842     1.0  0.72531  0.95874  0.82987  1.0000
  H   H3843     1.0  0.54599  0.93116  0.88323  1.0000
  C   C4820     1.0  0.87975  0.88247  0.67771  1.0000
  C   C4821     1.0  0.96492  0.82290  0.71668  1.0000
  C   C4822     1.0  0.53667  0.97577  0.81387  1.0000
  C   C4823     1.0  0.86210  0.96094  0.97578  1.0000
  H   H3844     1.0  0.92034  0.75478  0.98778  1.0000
  C   C4824     1.0  0.50431  0.91355  0.86050  1.0000
  C   C4825     1.0  0.74876  0.77827  0.99012  1.0000
  C   C4826     1.0  0.68006  0.74861  0.94848  1.0000
  H   H3845     1.0  0.88555  0.84651  0.71159  1.0000
  H   H3846     1.0  0.87847  0.87332  0.73197  1.0000
  H   H3847     1.0  0.87254  0.90590  0.71771  1.0000
  C   C4827     1.0  0.53644  0.87334  0.87720  1.0000
  C   C4828     1.0  0.54842  0.97448  0.79715  1.0000
  H   H3848     1.0  0.72263  0.91523  0.87042  1.0000
  C   C4829     1.0  0.71712  0.81901  0.93883  1.0000
  C   C4830     1.0  0.54243  0.94175  0.79643  1.0000
  H   H3849     1.0  0.95713  0.87541  0.93688  1.0000
  C   C4831     1.0  0.52584  0.82255  0.84221  1.0000
  H   H3850     1.0  0.81208  0.79985  0.96853  1.0000
  C   C4832     1.0  0.73475  0.96897  0.72246  1.0000
  C   C4833     1.0  0.70491  0.76018  0.96412  1.0000
  H   H3851     1.0  0.54457  0.92886  0.78925  1.0000
  C   C4834     1.0  0.98952  0.75252  0.75352  1.0000
  H   H3852     1.0  0.71769  0.82072  0.92368  1.0000
  H   H3853     1.0  0.54640  0.77785  0.83665  1.0000
  C   C4835     1.0  0.95951  0.92620  0.86575  1.0000
  C   C4836     1.0  0.62477  0.79322  0.90680  1.0000
  C   C4837     1.0  0.60582  0.79156  0.90347  1.0000
  C   C4838     1.0  0.56047  0.88039  0.81019  1.0000
  P   P162      1.0  0.58877  0.81224  0.90268  1.0000
  P   P163      1.0  0.71186  0.77603  0.98005  1.0000
  C   C4839     1.0  0.59586  0.82901  0.91759  1.0000
  C   C4840     1.0  0.60126  0.82286  0.93553  1.0000
  C   C4841     1.0  0.60774  0.83547  0.94678  1.0000
  C   C4842     1.0  0.60915  0.85424  0.94015  1.0000
  C   C4843     1.0  0.60363  0.86055  0.92239  1.0000
  C   C4844     1.0  0.59692  0.84803  0.91115  1.0000
  C   C4845     1.0  0.77673  0.96131  0.93008  1.0000
  C   C4846     1.0  0.77377  0.95964  0.91136  1.0000
  C   C4847     1.0  0.59066  0.83904  0.84189  1.0000
  H   H3854     1.0  0.51436  0.79197  0.92807  1.0000
  C   C4848     1.0  0.60730  0.83057  0.84912  1.0000
  H   H3855     1.0  0.61489  0.86377  0.94867  1.0000
  C   C4849     1.0  0.71594  0.80109  0.94811  1.0000
  H   H3856     1.0  0.82902  0.95009  0.81576  1.0000
  H   H3857     1.0  0.77427  0.93183  0.79899  1.0000
  C   C4850     1.0  0.55700  0.80953  0.92901  1.0000
  H   H3858     1.0  0.74229  0.97097  0.69267  1.0000
  H   H3859     1.0  0.62932  0.80665  0.90960  1.0000
  H   H3860     1.0  0.51869  0.96133  0.83485  1.0000
  C   C4851     1.0  0.82577  0.94568  0.83042  1.0000
  C   C4852     1.0  0.97988  0.96709  0.78708  1.0000
  H   H3861     1.0  0.94926  0.76286  0.96822  1.0000
  H   H3862     1.0  0.60500  0.87508  0.91721  1.0000
  H   H3863     1.0  0.59304  0.85315  0.89733  1.0000
  C   C4853     1.0  0.74110  0.96915  0.74034  1.0000
  H   H3864     1.0  0.56480  0.81567  0.93875  1.0000
  C   C4854     1.0  0.73334  0.95583  0.81658  1.0000
  C   C4855     1.0  0.74717  0.97184  0.70638  1.0000
  H   H3865     1.0  0.72024  0.96633  0.72091  1.0000
  H   H3866     1.0  0.93417  0.95705  0.79947  1.0000
  H   H3867     1.0  0.95438  0.95634  0.86328  1.0000
  C   C4856     1.0  0.69494  0.94282  0.77091  1.0000
  H   H3868     1.0  0.69866  0.92911  0.70377  1.0000
  H   H3869     1.0  0.95787  0.81741  0.76422  1.0000
  C   C4857     1.0  0.74629  0.95354  0.87442  1.0000
  H   H3870     1.0  0.71690  0.84886  0.94201  1.0000
  C   C4858     1.0  0.50138  0.94891  0.75414  1.0000
  H   H3871     1.0  0.75667  0.93979  0.82938  1.0000
  H   H3872     1.0  0.98833  0.75294  0.90030  1.0000
  H   H3873     1.0  0.80051  0.96473  0.83349  1.0000
  C   C4859     1.0  0.79495  0.96330  0.93495  1.0000
  C   C4860     1.0  0.52337  0.78544  0.85726  1.0000
  C   C4861     1.0  0.53100  0.94278  0.81349  1.0000
  C   C4862     1.0  0.99115  0.97718  0.84339  1.0000
  C   C4863     1.0  0.71730  0.93194  0.74545  1.0000
  C   C4864     1.0  0.52829  0.79629  0.92313  1.0000
  H   H3874     1.0  0.77550  0.97769  0.69544  1.0000
  H   H3875     1.0  0.50238  0.91362  0.79033  1.0000
  C   C4865     1.0  0.96455  0.90980  0.85635  1.0000
  C   C4866     1.0  0.75965  0.97367  0.74185  1.0000
  C   C4867     1.0  0.94716  0.95962  0.79087  1.0000
  H   H3876     1.0  0.81911  0.96338  0.89173  1.0000
  C   C4868     1.0  0.80282  0.75987  0.94949  1.0000
  H   H3877     1.0  0.56075  0.79349  0.88522  1.0000
  H   H3878     1.0  0.77763  0.75757  0.93538  1.0000
  H   H3879     1.0  0.75963  0.95782  0.90802  1.0000
  C   C4869     1.0  0.51358  0.85002  0.87863  1.0000
  C   C4870     1.0  0.96295  0.96496  0.79868  1.0000
  H   H3880     1.0  0.64509  0.82600  0.98270  1.0000
  S   S650      1.0  0.72322  0.94283  0.67227  1.0000
  H   H3881     1.0  0.50834  0.86976  0.66925  1.0000
  H   H3882     1.0  0.52704  0.83684  0.83631  1.0000
  H   H3883     1.0  0.74717  0.79303  0.98525  1.0000
  H   H3884     1.0  0.61239  0.83046  0.96040  1.0000
  C   C4871     1.0  0.91044  0.76106  0.70461  1.0000
  H   H3885     1.0  0.99063  0.96788  0.72260  1.0000
  C   C4872     1.0  0.81017  0.96386  0.92106  1.0000
  Fe  Fe327     1.0  0.60553  0.99192  0.77778  1.0000
  Fe  Fe328     1.0  0.50062  0.88576  0.73765  1.0000
  C   C4873     1.0  0.59648  0.99297  0.70661  1.0000
  C   C4874     1.0  0.57337  0.83930  0.85305  1.0000
  H   H3886     1.0  0.93712  0.82047  0.94619  1.0000
  H   H3887     1.0  0.51234  0.79676  0.80894  1.0000
  H   H3888     1.0  0.56998  0.88751  0.70848  1.0000
  C   C4875     1.0  0.56743  0.92306  0.67410  1.0000
  H   H3889     1.0  0.65797  0.85587  0.98851  1.0000
  H   H3890     1.0  0.96283  0.78384  0.75743  1.0000
  C   C4876     1.0  0.58450  0.97849  0.70965  1.0000
  C   C4877     1.0  0.80965  0.95400  0.84058  1.0000
  H   H3891     1.0  0.76461  0.97489  0.75542  1.0000
  H   H3892     1.0  0.82596  0.76735  0.96412  1.0000
  H   H3893     1.0  0.99520  0.76612  0.75227  1.0000
  C   C4878     1.0  0.97937  0.83465  0.95577  1.0000
  C   C4879     1.0  0.94817  0.82964  0.94727  1.0000
  C   C4880     1.0  0.92499  0.76872  0.98784  1.0000
  H   H3894     1.0  0.71170  0.96999  0.80031  1.0000
  C   C4881     1.0  0.81240  0.77202  0.95884  1.0000
  C   C4882     1.0  0.98563  0.97565  0.66686  1.0000
  C   C4883     1.0  0.78700  0.79704  0.95478  1.0000
  C   C4884     1.0  0.77730  0.78503  0.94559  1.0000
  C   C4885     1.0  0.78522  0.76658  0.94281  1.0000
  C   C4886     1.0  0.71109  0.94548  0.75843  1.0000
  H   H3895     1.0  0.76342  0.97396  0.84115  1.0000
  C   C4887     1.0  0.65352  0.89312  0.71978  1.0000
  H   H3896     1.0  0.99347  0.96698  0.75884  1.0000
  H   H3897     1.0  0.63717  0.96794  0.69047  1.0000
  C   C4888     1.0  0.87153  0.97369  0.98442  1.0000
  C   C4889     1.0  0.82365  0.95558  0.67953  1.0000
  S   S651      1.0  0.65524  0.98441  0.72350  1.0000
  H   H3898     1.0  0.86425  0.94104  0.95442  1.0000
  C   C4890     1.0  0.68508  0.92696  0.77034  1.0000
  C   C4891     1.0  0.55112  0.89768  0.81531  1.0000
  C   C4892     1.0  0.96100  0.81360  0.74987  1.0000
  H   H3899     1.0  0.76059  0.94253  0.76923  1.0000
  C   C4893     1.0  0.96406  0.79457  0.74597  1.0000
  H   H3900     1.0  0.57589  0.87857  0.80854  1.0000
  H   H3901     1.0  0.78093  0.81141  0.95674  1.0000
  H   H3902     1.0  0.76364  0.79006  0.94057  1.0000
  C   C4894     1.0  0.95939  0.86068  0.94194  1.0000
  H   H3903     1.0  0.94330  0.93036  0.98442  1.0000
  H   H3904     1.0  0.52198  0.85722  0.80488  1.0000
  H   H3905     1.0  0.54864  0.81080  0.82323  1.0000
  C   C4895     1.0  0.53431  0.92629  0.87689  1.0000
  H   H3906     1.0  0.92449  0.95357  0.83327  1.0000
  H   H3907     1.0  0.74333  0.96816  0.87770  1.0000
  S   S652      1.0  0.96728  0.95810  0.99222  1.0000
  C   C4896     1.0  0.70966  0.98658  0.76297  1.0000
  H   H3908     1.0  0.96483  0.83385  0.70528  1.0000
  H   H3909     1.0  0.55768  0.92996  0.66444  1.0000
  H   H3910     1.0  0.76493  0.96060  0.94088  1.0000
  H   H3911     1.0  0.64512  0.97748  0.84066  1.0000
  H   H3912     1.0  0.56037  0.95660  0.77547  1.0000
  C   C4897     1.0  0.59765  0.92121  0.68781  1.0000
  H   H3913     1.0  0.92118  0.77268  0.67751  1.0000
  C   C4898     1.0  0.51903  0.84309  0.89635  1.0000
  C   C4899     1.0  0.51911  0.92139  0.84905  1.0000
  H   H3914     1.0  0.91470  0.96791  0.95906  1.0000
  C   C4900     1.0  0.89052  0.97653  0.97835  1.0000
  H   H3915     1.0  0.50640  0.95320  0.78245  1.0000
  C   C4901     1.0  0.94745  0.76214  0.71483  1.0000
  C   C4902     1.0  0.96925  0.79018  0.92498  1.0000
  H   H3916     1.0  0.98203  0.99075  0.66473  1.0000
  H   H3917     1.0  0.53456  0.98897  0.82058  1.0000
  H   H3918     1.0  0.65246  0.77872  0.91023  1.0000
  C   C4903     1.0  0.97416  0.78341  0.94294  1.0000
  C   C4904     1.0  0.97442  0.77925  0.90966  1.0000
  C   C4905     1.0  0.77870  0.98284  0.86304  1.0000
  H   H3919     1.0  0.96458  0.89611  0.86409  1.0000
  C   C4906     1.0  0.61541  0.98898  0.69963  1.0000
  S   S653      1.0  0.63749  0.99186  0.77566  1.0000
  H   H3920     1.0  0.98883  0.96475  0.85264  1.0000
  H   H3921     1.0  0.60115  0.89897  0.71010  1.0000
  H   H3922     1.0  0.56994  0.98145  0.71555  1.0000
  H   H3923     1.0  0.58865  0.94230  0.66627  1.0000
  H   H3924     1.0  0.68108  0.99762  0.69356  1.0000
  C   C4907     1.0  0.91465  0.75534  0.72292  1.0000
  H   H3925     1.0  0.78648  0.97983  0.72685  1.0000
  S   S654      1.0  0.50199  0.82846  0.78361  1.0000
  C   C4908     1.0  0.93648  0.80497  0.98752  1.0000
  H   H3926     1.0  0.96617  0.93422  0.66597  1.0000
  H   H3927     1.0  0.68566  0.98055  0.99352  1.0000
  H   H3928     1.0  0.55600  0.79214  0.98850  1.0000
  S   S655      1.0  0.64244  0.76250  0.99013  1.0000
  H   H3929     1.0  0.93580  0.75233  0.74253  1.0000
  H   H3930     1.0  0.52819  0.81608  0.99214  1.0000
  C   C4909     1.0  0.63550  0.93347  0.67074  1.0000
  C   C4910     1.0  0.50432  0.91246  0.88003  1.0000
  S   S656      1.0  0.94227  0.81046  0.66444  1.0000
  C   C4911     1.0  0.83096  0.74868  0.89019  1.0000
  H   H3931     1.0  0.98733  0.86308  0.95018  1.0000
  H   H3932     1.0  0.91238  0.98829  0.77153  1.0000
  H   H3933     1.0  0.90364  0.75046  0.73314  1.0000
  C   C4912     1.0  0.55390  0.75432  0.94107  1.0000
  C   C4913     1.0  0.53403  0.75463  0.94097  1.0000
  C   C4914     1.0  0.97231  0.96327  0.66418  1.0000
  C   C4915     1.0  0.82080  0.74906  0.90791  1.0000
  H   H3934     1.0  0.94451  0.99684  0.98522  1.0000
  C   C4916     1.0  0.71396  0.81498  0.97801  1.0000
  H   H3935     1.0  0.71237  0.81375  0.99321  1.0000
  C   C4917     1.0  0.71588  0.98107  0.99356  1.0000
  P   P164      1.0  0.90321  0.99269  0.98934  1.0000
  C   C4918     1.0  0.52586  0.74864  0.92558  1.0000
  C   C4919     1.0  0.78454  0.99846  0.87081  1.0000
  H   H3936     1.0  0.99666  0.92176  0.67748  1.0000
  C   C4920     1.0  0.92286  0.99845  0.77036  1.0000
