data_image0
_chemical_formula_structural       FeS2FeS2FeSFeS3FeS2FeS2FeCFeHS2FeC2FeS2FeHFeCS2C2HC5HC2H2CSCPC3HC7H4CHC2H4C8H4C6H2CH2CH3CHCH2CH3C2HC9H3CPCHC2H5CHC3H2CHCHC2H3CH2CHC3HC2H2C2SH2C3H2C3H2C4H2C2H5C2HC2H4CHC2HC2HCH2C2HCHC3HCHC2HC3HC3HC5HC3H4CH3CH4C3PC9H3C5HCH6C2SH4C2H4CH2PCHC2HC2HCHC6HPH7C2H2C3HCH2PC2HCHCH2CH4C2HCHSH2FeHFeS2FeHFeCS2HFeS2CHFeSFeCS2FeSCHCFeSFeS3CHC4HCH3C3H2C2H2C3H3CHSC3H3C9H4PC8HC2HC2HCH2C2H3CH4C3HC2H2C4H4CHC3HCHC2H2CHCHC3HCHSCH2CHC2HCPC3SC2HPCH2C3H3CHC3HCH2C7H4C2H5C2HC2SCH6CHC3HC2SH2CSHC2HCH2CHC3H3C4H4PSHSC2H2C3HC2HC3FeS2FeS2FeSFeS3FeS2FeS2FeCFeCS2FeHSFeS2FeHFeCS2C3H4CH6C2HCHC9H4C2HCHC3H2C6H4C6H2CHC10HCH2CHC2H4SH2C2HC3HC2HCH2CH2CH4CHC2H3CH2CHC3HSPC3PC3H2C3HCHCHC16HCHCH8C6PC3HC9H3CH12SH2C4SHC3HCH3CHC2HCH2C2HPHSC2HC6PC18H6CH8PH3C2HC2H2C2HC2H2CH4C3H2C2HCHC3SC3HPC5HCH2C3HC3SC2HC2FeHFeS2FeC3S2CFeS2H2FeHFeCSFe2SCH2FeSFeS3C6H4CH2C2HCH3C4H2CSH2CSC2HSHC6H3PH2C4H4CHCH3C5HCHC2FeHC3HCHC2HC4PCH2C3H2CSC3H2CH2C3H2CH2CH5CHC3HC2H2C4SHCH3CH5SCHC2HCHCHC4H2C10PC2HC2HCH2CH4CH2CH2CH4CH4C4HCSHCH5CSCHC3HCHSFeSFeS2CHFeHS3CFeS2FeS2FeCFeS3C6H4C6H4CH4CHCH2C3HCH2CH3CHC2HC2H3C6PC12HCSHC5H8CH4CH2CPCH2CHC3SHCHCHC4HCH4C3HC2H2CHCH4CH2CHC3PC4HCHCH3C8HCH2C2HC3H6C4HCH2CHCH2PC2HC2HC2HFeCH2CHC2HCH2CHCH2CHC2HC2HC2H3C4PC3H2C9HC4H6C2SHC2H2C3H4C2SH2SC2H3C3H2C3H2CHCHCS2FeS2FeS2FeCFeS3CHFeS2H2C2S2C2H2CH3CHSC2H2C2H4C8H5C2H5C7H2CH3CFeS2HCHC3HC4H2C3H4SH3C10HC13FeH2CHC2H4CPHCPH2C3H4CHC6PC18H21C3HCFeH5CHCH4C2PC3H2CH2PSC6HC9H2PH2CHCHC2FeH2C5HCHCH4CHC4H5C2SH4C3HC2H3CFeCHFeCFeS2FeCFeS5FeSHFeS2FeHFeS3C6H4C6H5CH2SPH3C2HCHC5HCH3CHPCPCH3C3HCHC2H2C9HCH4C2H3C5PC15HC4H15CH2C6PC3SC10HC3H7CH8CH5C6HCH2C2HC7H2C4HC2H3CH6C4H2C9H2C3H2C3H2CHSH3CHC2H3CHC3HCHCHC2H3SCH3PCHCH4C2SCH2CSCHCHCHCH3CHS2FeS2FeS2FeHFeS3FeHFeS2CHC2S2H2C5HCH3CHCSCHPC2HC7H4CH2CHCH3C6H3C5HCPCHC2H2FeC6PC3HC2HCSHC3H2C3HCHCH3C2HC3HC6PC18H22C3HCHPHC2HCH2C2HC5HFeH3C4H2C3H4C4HC2HC2HFeC6HCH3C2HCH2CHC2H2CHC6HCH4CHCHC3H3CH3C4PC2HC2HCHCHCHC3H2C2H3CHCHCHC3H2C4H4C2H2C5HCH3C2H5C4SC2H2CHC2HSHCHC3H3C2H2C2HC2SHCHSH2SCFeSC2FeS2HCFeSFeS3HSFeSCFeSFeS3C2HCH5C7H4C6H7C2HC2HC2H3CHC3H2C7PCHC4H2CHCHC2H2C2HCH2CH2C2SH5C4PCHC4FeCHCHCHC2H3CH2C8HCHCHC4H2CSH2CH2CH2C2HC2HFeC3PH2CPHCHC2FeCHCH2C3HC2HCHCH5C2HC2H2CHSHC2H2CSFeCFeCH2C5H3C2HFeS2FeS2FeSFeS3FeSCFeSHFeSFeS3FeHCFeS2FeHFeS3C2H3CHCH2C6H4C6H4C6HCH2C2HC4H4SH2C9HC3H2CHC2SC8PC16H18C6PC12H2CHCHSH4C7SH2CHCH2CH2CH3CH3CHCHCH2C2H2C3HC2HC3HCHC5H2C2HC6PC2HCHCHC2HC8H5C3HCHCHC2H8PH4CHCH2CH2PHPH3CH2CH3C3HC2HCHC2HCH3C2PC3H2C2HC3H3CH2C3HC2HCSHC2HC3HSCH7C3HCH2C2HCH2CH2CS2CHCHCPSH2SCFeSHPFeS2CHFeSFeS3HSFeSCFeSFeS3C2HCHCH4C6H3C6SH3C2H3C2SCFeH3CH3C5PC2HCH2C7H2C5HC2H2CH2C4HCH3CFeC2H3CH2CHC6H2CHC2HCHCH3C5HC2HC4H2CHCH6C4HPHC2HFeC5HCH2C4HCH2FeC2HC4H2C2HC2HCSCH2FeC2H2C2HCHCHCHC2HCHCH2C2HCH2CH4CH2CHCH2C3H6CFeS2FeS2FeSFeS3FeSCFeSHFeSFeS3FeSCFeS2FeCFeS2C3HCH3CHC7H4C6H4C4HCH4CHCH2CH4CH2CH2CHPC2H3C2HC4HCHCH2C3HC2H2C3HC3H2C3H2C4HCH2C4H2CS2HC3HSCHC2HPHCHC5HC2HC3PC17H3C2H4CHC2HCHC2HC2HPHC2H2C3H2C4H3CH2CPH2C2H3C3HC3PH4C2HCHCH7C2HCHC3SH3C2HCHCH2C4H2C2H2CHC2SHCHC2H3CHC2HCH3C2H2CHC2SH2SC2H2CH2S
_chemical_formula_sum              "Fe128 S256 C1920 H1536 P64"
_cell_length_a       83.2482
_cell_length_b       47.8884
_cell_length_c       34.7186
_cell_angle_alpha    90.2385
_cell_angle_beta     90.0146
_cell_angle_gamma    90.1446

_space_group_name_H-M_alt    "P 1"
_space_group_IT_number       1

loop_
  _space_group_symop_operation_xyz
  'x, y, z'

loop_
  _atom_site_type_symbol
  _atom_site_label
  _atom_site_symmetry_multiplicity
  _atom_site_fract_x
  _atom_site_fract_y
  _atom_site_fract_z
  _atom_site_occupancy
  Fe  Fe1       1.0  0.15983  0.13050  0.27621  1.0000
  S   S1        1.0  0.16446  0.12083  0.21361  1.0000
  S   S2        1.0  0.13453  0.14336  0.29800  1.0000
  Fe  Fe2       1.0  0.19678  0.12891  0.29533  1.0000
  S   S3        1.0  0.20307  0.11912  0.23321  1.0000
  S   S4        1.0  0.21449  0.13763  0.34639  1.0000
  Fe  Fe3       1.0  0.18473  0.15229  0.21687  1.0000
  S   S5        1.0  0.18857  0.18240  0.16525  1.0000
  Fe  Fe4       1.0  0.18218  0.08864  0.23412  1.0000
  S   S6        1.0  0.18014  0.04207  0.21579  1.0000
  S   S7        1.0  0.17944  0.16341  0.27862  1.0000
  S   S8        1.0  0.17668  0.09706  0.29726  1.0000
  Fe  Fe5       1.0  0.17999  0.40840  0.05762  1.0000
  S   S9        1.0  0.18261  0.40306  0.99334  1.0000
  S   S10       1.0  0.17246  0.45243  0.07819  1.0000
  Fe  Fe6       1.0  0.18272  0.34418  0.07091  1.0000
  S   S11       1.0  0.18534  0.33536  0.00730  1.0000
  S   S12       1.0  0.18174  0.31306  0.12199  1.0000
  Fe  Fe7       1.0  0.20239  0.37224  0.00529  1.0000
  C   C1        1.0  0.11432  0.02693  0.25591  1.0000
  Fe  Fe8       1.0  0.16538  0.36696  0.99929  1.0000
  H   H1        1.0  0.17978  0.99987  0.30985  1.0000
  S   S13       1.0  0.20083  0.37972  0.06994  1.0000
  S   S14       1.0  0.16171  0.37365  0.06269  1.0000
  Fe  Fe9       1.0  0.01398  0.06945  0.41961  1.0000
  C   C2        1.0  0.12918  0.09759  0.13852  1.0000
  C   C3        1.0  0.28655  0.20628  0.19435  1.0000
  Fe  Fe10      1.0  0.03984  0.10145  0.37052  1.0000
  S   S15       1.0  0.02160  0.13237  0.34728  1.0000
  S   S16       1.0  0.06570  0.09286  0.34811  1.0000
  Fe  Fe11      1.0  0.01186  0.13433  0.40846  1.0000
  H   H2        1.0  0.12288  0.48806  0.11717  1.0000
  Fe  Fe12      1.0  0.00556  0.09487  0.33939  1.0000
  C   C4        1.0  0.27699  0.20242  0.41516  1.0000
  S   S17       1.0  0.03100  0.10545  0.43226  1.0000
  S   S18       1.0  0.02395  0.06379  0.35980  1.0000
  C   C5        1.0  0.12404  0.44150  0.21496  1.0000
  C   C6        1.0  0.24061  0.19901  0.28268  1.0000
  H   H3        1.0  0.23470  0.14396  0.27536  1.0000
  C   C7        1.0  0.21979  0.21640  0.23992  1.0000
  C   C8        1.0  0.20883  0.21632  0.27037  1.0000
  C   C9        1.0  0.14277  0.45348  0.16426  1.0000
  C   C10       1.0  0.11768  0.00523  0.14342  1.0000
  C   C11       1.0  0.06959  0.25397  0.02799  1.0000
  H   H4        1.0  0.06258  0.06950  0.23740  1.0000
  C   C12       1.0  0.06189  0.05777  0.17735  1.0000
  C   C13       1.0  0.26063  0.14831  0.27831  1.0000
  H   H5        1.0  0.02435  0.23646  0.04946  1.0000
  H   H6        1.0  0.11757  0.10606  0.23201  1.0000
  C   C14       1.0  0.19368  0.47349  0.13417  1.0000
  S   S19       1.0  0.99468  0.09843  0.39844  1.0000
  C   C15       1.0  0.03522  0.29848  0.00901  1.0000
  P   P1        1.0  0.11717  0.05509  0.18574  1.0000
  C   C16       1.0  0.11730  0.36610  0.99528  1.0000
  C   C17       1.0  0.13260  0.14561  0.15942  1.0000
  C   C18       1.0  0.02399  0.25826  0.04161  1.0000
  H   H7        1.0  0.12473  0.36663  0.02083  1.0000
  C   C19       1.0  0.00914  0.22661  0.44209  1.0000
  C   C20       1.0  0.18574  0.21868  0.15366  1.0000
  C   C21       1.0  0.18782  0.22754  0.11524  1.0000
  C   C22       1.0  0.18623  0.25600  0.10475  1.0000
  C   C23       1.0  0.18292  0.27636  0.13274  1.0000
  C   C24       1.0  0.18069  0.26746  0.17107  1.0000
  C   C25       1.0  0.18191  0.23893  0.18139  1.0000
  H   H8        1.0  0.19069  0.21223  0.09333  1.0000
  H   H9        1.0  0.18781  0.26224  0.07509  1.0000
  H   H10       1.0  0.17799  0.28281  0.19307  1.0000
  H   H11       1.0  0.18000  0.23268  0.21089  1.0000
  C   C26       1.0  0.18041  0.47829  0.11036  1.0000
  H   H12       1.0  0.11678  0.48137  0.00040  1.0000
  C   C27       1.0  0.19287  0.02486  0.14442  1.0000
  C   C28       1.0  0.18463  0.01747  0.17808  1.0000
  H   H13       1.0  0.03350  0.19286  0.36135  1.0000
  H   H14       1.0  0.01645  0.26999  0.44346  1.0000
  H   H15       1.0  0.00115  0.19996  0.07103  1.0000
  H   H16       1.0  0.19686  0.04618  0.14067  1.0000
  C   C29       1.0  0.17317  0.14339  0.39300  1.0000
  C   C30       1.0  0.15075  0.11174  0.38429  1.0000
  C   C31       1.0  0.11549  0.12868  0.31170  1.0000
  C   C32       1.0  0.10284  0.14676  0.32209  1.0000
  C   C33       1.0  0.08761  0.13633  0.33330  1.0000
  C   C34       1.0  0.08471  0.10751  0.33425  1.0000
  C   C35       1.0  0.09734  0.08943  0.32359  1.0000
  C   C36       1.0  0.11259  0.09987  0.31258  1.0000
  H   H17       1.0  0.10488  0.16907  0.32173  1.0000
  H   H18       1.0  0.07815  0.15060  0.34147  1.0000
  H   H19       1.0  0.09534  0.06710  0.32424  1.0000
  H   H20       1.0  0.12212  0.08563  0.30499  1.0000
  C   C37       1.0  0.23237  0.12936  0.37365  1.0000
  C   C38       1.0  0.24275  0.10749  0.36357  1.0000
  C   C39       1.0  0.25668  0.10190  0.38575  1.0000
  C   C40       1.0  0.26052  0.11771  0.41891  1.0000
  C   C41       1.0  0.25012  0.13954  0.42914  1.0000
  C   C42       1.0  0.23626  0.14531  0.40667  1.0000
  H   H21       1.0  0.24005  0.09472  0.33872  1.0000
  H   H22       1.0  0.26449  0.08494  0.37730  1.0000
  C   C43       1.0  0.04649  0.21184  0.99915  1.0000
  H   H23       1.0  0.22844  0.16226  0.41514  1.0000
  H   H24       1.0  0.20241  0.01836  0.27145  1.0000
  C   C44       1.0  0.09717  0.26300  0.07300  1.0000
  H   H25       1.0  0.08026  0.20473  0.08967  1.0000
  H   H26       1.0  0.99457  0.16185  0.19774  1.0000
  H   H27       1.0  0.10793  0.40340  0.09158  1.0000
  C   C45       1.0  0.02694  0.20404  0.33926  1.0000
  H   H28       1.0  0.15536  0.06854  0.39578  1.0000
  C   C46       1.0  0.23543  0.06930  0.45867  1.0000
  H   H29       1.0  0.20216  0.01080  0.08949  1.0000
  H   H30       1.0  0.23192  0.99653  0.00952  1.0000
  C   C47       1.0  0.00993  0.23375  0.28347  1.0000
  H   H31       1.0  0.22085  0.31633  0.99662  1.0000
  H   H32       1.0  0.21518  0.47652  0.30455  1.0000
  H   H33       1.0  0.08470  0.42500  0.05969  1.0000
  C   C48       1.0  0.03764  0.15510  0.00169  1.0000
  C   C49       1.0  0.01141  0.27479  0.05544  1.0000
  H   H34       1.0  0.14949  0.04986  0.15273  1.0000
  C   C50       1.0  0.00751  0.19656  0.09788  1.0000
  C   C51       1.0  0.01265  0.20911  0.16437  1.0000
  C   C52       1.0  0.05377  0.48410  0.04270  1.0000
  C   C53       1.0  0.22357  0.24853  0.02537  1.0000
  C   C54       1.0  0.22334  0.25285  0.06527  1.0000
  C   C55       1.0  0.22224  0.27992  0.08025  1.0000
  C   C56       1.0  0.22145  0.30270  0.05538  1.0000
  C   C57       1.0  0.99525  0.49068  0.35914  1.0000
  C   C58       1.0  0.22173  0.29847  0.01553  1.0000
  H   H35       1.0  0.16177  0.45722  0.40813  1.0000
  H   H36       1.0  0.20467  0.48877  0.36877  1.0000
  H   H37       1.0  0.06364  0.41963  0.00781  1.0000
  C   C59       1.0  0.11989  0.01804  0.29183  1.0000
  P   P2        1.0  0.08219  0.47131  0.00306  1.0000
  C   C60       1.0  0.09656  0.43322  0.05403  1.0000
  H   H38       1.0  0.19527  0.12514  0.41159  1.0000
  C   C61       1.0  0.02673  0.23328  0.28263  1.0000
  C   C62       1.0  0.99791  0.20674  0.45442  1.0000
  H   H39       1.0  0.22391  0.22735  0.01459  1.0000
  H   H40       1.0  0.22348  0.23519  0.08470  1.0000
  H   H41       1.0  0.22148  0.28322  0.11112  1.0000
  H   H42       1.0  0.22026  0.32365  0.06698  1.0000
  H   H43       1.0  0.17386  0.01956  0.37427  1.0000
  C   C63       1.0  0.08195  0.26804  0.08851  1.0000
  H   H44       1.0  0.08084  0.27579  0.11776  1.0000
  C   C64       1.0  0.02675  0.17503  0.98856  1.0000
  C   C65       1.0  0.18276  0.12116  0.40506  1.0000
  C   C66       1.0  0.09889  0.45533  0.02814  1.0000
  H   H45       1.0  0.02212  0.33687  0.01578  1.0000
  H   H46       1.0  0.16178  0.01478  0.10994  1.0000
  C   C67       1.0  0.16602  0.04923  0.47359  1.0000
  H   H47       1.0  0.00078  0.31582  0.05583  1.0000
  C   C68       1.0  0.03524  0.21837  0.31048  1.0000
  H   H48       1.0  0.06508  0.04648  0.11774  1.0000
  C   C69       1.0  0.13888  0.40507  0.18191  1.0000
  C   C70       1.0  0.12770  0.41320  0.20980  1.0000
  H   H49       1.0  0.09679  0.46800  0.18920  1.0000
  H   H50       1.0  0.11240  0.00486  0.30970  1.0000
  H   H51       1.0  0.00195  0.26556  0.07256  1.0000
  C   C71       1.0  0.20701  0.07529  0.44469  1.0000
  H   H52       1.0  0.01041  0.22252  0.18896  1.0000
  H   H53       1.0  0.31899  0.02927  0.44877  1.0000
  C   C72       1.0  0.20608  0.06004  0.35058  1.0000
  H   H54       1.0  0.10558  0.00164  0.15365  1.0000
  C   C73       1.0  0.13123  0.46182  0.19150  1.0000
  C   C74       1.0  0.01078  0.30313  0.04624  1.0000
  C   C75       1.0  0.00080  0.00223  0.47717  1.0000
  H   H55       1.0  0.26462  0.24157  0.40947  1.0000
  C   C76       1.0  0.00757  0.25502  0.45304  1.0000
  C   C77       1.0  0.01283  0.08336  0.07708  1.0000
  H   H56       1.0  0.99627  0.23104  0.12719  1.0000
  H   H57       1.0  0.14699  0.06488  0.22804  1.0000
  C   C78       1.0  0.19587  0.00464  0.11537  1.0000
  C   C79       1.0  0.17639  0.09405  0.40706  1.0000
  S   S20       1.0  0.00878  0.03660  0.46763  1.0000
  H   H58       1.0  0.14193  0.38320  0.17823  1.0000
  H   H59       1.0  0.06879  0.48001  0.20547  1.0000
  C   C80       1.0  0.18731  0.01625  0.32175  1.0000
  C   C81       1.0  0.22168  0.06163  0.43797  1.0000
  C   C82       1.0  0.09553  0.05588  0.18242  1.0000
  H   H60       1.0  0.20940  0.49060  0.17798  1.0000
  H   H61       1.0  0.15555  0.41906  0.13856  1.0000
  C   C83       1.0  0.14491  0.04259  0.28126  1.0000
  C   C84       1.0  0.00150  0.21880  0.31180  1.0000
  C   C85       1.0  0.29420  0.23858  0.24492  1.0000
  H   H62       1.0  0.15696  0.04795  0.29041  1.0000
  H   H63       1.0  0.28267  0.23317  0.29944  1.0000
  C   C86       1.0  0.15715  0.13871  0.38283  1.0000
  C   C87       1.0  0.03249  0.45057  0.05447  1.0000
  C   C88       1.0  0.03848  0.47778  0.05715  1.0000
  C   C89       1.0  0.05689  0.43594  0.02230  1.0000
  H   H64       1.0  0.23269  0.19049  0.34092  1.0000
  H   H65       1.0  0.30128  0.25626  0.25473  1.0000
  C   C90       1.0  0.13921  0.05213  0.24579  1.0000
  C   C91       1.0  0.02452  0.06884  0.05635  1.0000
  H   H66       1.0  0.08627  0.24118  0.98343  1.0000
  H   H67       1.0  0.05652  0.26774  0.07860  1.0000
  H   H68       1.0  0.13845  0.10815  0.37528  1.0000
  H   H69       1.0  0.16598  0.44977  0.47807  1.0000
  H   H70       1.0  0.24377  0.20738  0.22176  1.0000
  C   C92       1.0  0.02278  0.31500  0.02346  1.0000
  C   C93       1.0  0.13389  0.12510  0.13083  1.0000
  H   H71       1.0  0.99959  0.13784  0.26002  1.0000
  C   C94       1.0  0.06956  0.06434  0.21205  1.0000
  C   C95       1.0  0.27551  0.10595  0.26350  1.0000
  H   H72       1.0  0.03705  0.40858  0.03489  1.0000
  H   H73       1.0  0.06950  0.19730  0.02043  1.0000
  H   H74       1.0  0.17832  0.16410  0.39054  1.0000
  H   H75       1.0  0.01918  0.22007  0.42454  1.0000
  C   C96       1.0  0.20006  0.02674  0.29996  1.0000
  H   H76       1.0  0.09473  0.04597  0.12149  1.0000
  C   C97       1.0  0.08781  0.05072  0.14710  1.0000
  C   C98       1.0  0.06819  0.26350  0.06616  1.0000
  H   H77       1.0  0.24686  0.42802  0.02147  1.0000
  C   C99       1.0  0.23563  0.20774  0.24597  1.0000
  C   C100      1.0  0.17883  0.04048  0.45023  1.0000
  H   H78       1.0  0.06149  0.14784  0.02316  1.0000
  C   C101      1.0  0.07809  0.18515  0.10430  1.0000
  H   H79       1.0  0.19972  0.45353  0.13302  1.0000
  H   H80       1.0  0.13877  0.13045  0.10289  1.0000
  C   C102      1.0  0.02311  0.18643  0.16782  1.0000
  C   C103      1.0  0.28107  0.17731  0.39717  1.0000
  H   H81       1.0  0.22379  0.44278  0.06192  1.0000
  C   C104      1.0  0.18429  0.01284  0.45277  1.0000
  H   H82       1.0  0.00297  0.02223  0.32703  1.0000
  C   C105      1.0  0.12618  0.02946  0.15414  1.0000
  C   C106      1.0  0.26786  0.22216  0.39539  1.0000
  C   C107      1.0  0.19364  0.04907  0.37320  1.0000
  H   H83       1.0  0.21301  0.07771  0.36075  1.0000
  C   C108      1.0  0.16918  0.47164  0.42451  1.0000
  H   H84       1.0  0.02099  0.05224  0.03673  1.0000
  C   C109      1.0  0.12529  0.43049  0.06498  1.0000
  C   C110      1.0  0.09865  0.25322  0.03519  1.0000
  H   H85       1.0  0.09496  0.36693  0.02691  1.0000
  C   C111      1.0  0.14650  0.42524  0.15941  1.0000
  C   C112      1.0  0.16036  0.08942  0.39602  1.0000
  C   C113      1.0  0.04071  0.07588  0.06061  1.0000
  H   H86       1.0  0.00356  0.24612  0.26243  1.0000
  C   C114      1.0  0.17156  0.46743  0.46389  1.0000
  C   C115      1.0  0.18404  0.02744  0.35822  1.0000
  C   C116      1.0  0.27595  0.19299  0.21963  1.0000
  H   H87       1.0  0.05786  0.10226  0.08865  1.0000
  C   C117      1.0  0.27584  0.17163  0.35965  1.0000
  C   C118      1.0  0.10973  0.42089  0.07235  1.0000
  C   C119      1.0  0.24620  0.13376  0.27189  1.0000
  C   C120      1.0  0.24647  0.10558  0.26119  1.0000
  C   C121      1.0  0.26109  0.09162  0.25724  1.0000
  H   H88       1.0  0.30389  0.23937  0.18739  1.0000
  C   C122      1.0  0.21363  0.20730  0.30678  1.0000
  C   C123      1.0  0.07103  0.05131  0.14475  1.0000
  C   C124      1.0  0.09107  0.16893  0.11642  1.0000
  H   H89       1.0  0.28765  0.19894  0.16491  1.0000
  H   H90       1.0  0.10328  0.17591  0.11123  1.0000
  H   H91       1.0  0.13668  0.16675  0.15390  1.0000
  H   H92       1.0  0.19649  0.22251  0.26552  1.0000
  C   C125      1.0  0.08631  0.06402  0.21439  1.0000
  H   H93       1.0  0.27874  0.15158  0.34718  1.0000
  H   H94       1.0  0.23528  0.09449  0.25654  1.0000
  H   H95       1.0  0.26123  0.06969  0.24944  1.0000
  C   C126      1.0  0.29568  0.22906  0.20699  1.0000
  H   H96       1.0  0.21889  0.05754  0.29683  1.0000
  H   H97       1.0  0.21584  0.22253  0.21140  1.0000
  H   H98       1.0  0.28796  0.16184  0.41277  1.0000
  H   H99       1.0  0.03319  0.24484  0.26077  1.0000
  C   C127      1.0  0.01730  0.10491  0.10220  1.0000
  C   C128      1.0  0.03356  0.11211  0.10683  1.0000
  C   C129      1.0  0.04525  0.09735  0.08585  1.0000
  P   P3        1.0  0.03926  0.13926  0.14066  1.0000
  C   C130      1.0  0.02576  0.16855  0.13631  1.0000
  C   C131      1.0  0.03858  0.12577  0.18926  1.0000
  C   C132      1.0  0.02803  0.10397  0.19894  1.0000
  C   C133      1.0  0.02813  0.09276  0.23604  1.0000
  C   C134      1.0  0.03854  0.10348  0.26393  1.0000
  C   C135      1.0  0.04881  0.12559  0.25495  1.0000
  C   C136      1.0  0.04880  0.13682  0.21783  1.0000
  C   C137      1.0  0.01811  0.17411  0.10110  1.0000
  C   C138      1.0  0.08830  0.14373  0.13545  1.0000
  H   H100      1.0  0.00477  0.47780  0.37073  1.0000
  H   H101      1.0  0.11583  0.44753  0.23770  1.0000
  H   H102      1.0  0.20497  0.20610  0.33002  1.0000
  C   C139      1.0  0.05948  0.15098  0.13063  1.0000
  C   C140      1.0  0.07261  0.13480  0.14262  1.0000
  C   C141      1.0  0.06233  0.17620  0.11121  1.0000
  C   C142      1.0  0.22288  0.27141  0.00017  1.0000
  C   C143      1.0  0.22941  0.19852  0.31288  1.0000
  H   H103      1.0  0.00802  0.11594  0.11797  1.0000
  C   C144      1.0  0.12773  0.45248  0.03939  1.0000
  H   H104      1.0  0.01961  0.09551  0.17823  1.0000
  H   H105      1.0  0.01999  0.07588  0.24339  1.0000
  H   H106      1.0  0.03874  0.09448  0.29248  1.0000
  H   H107      1.0  0.05688  0.13374  0.27688  1.0000
  H   H108      1.0  0.05686  0.15397  0.21151  1.0000
  H   H109      1.0  0.02004  0.16083  0.07623  1.0000
  C   C145      1.0  0.27530  0.13423  0.27368  1.0000
  C   C146      1.0  0.22403  0.44776  0.03149  1.0000
  S   S21       1.0  0.27837  0.10903  0.44600  1.0000
  H   H110      1.0  0.13554  0.42058  0.07848  1.0000
  H   H111      1.0  0.07072  0.11531  0.15768  1.0000
  H   H112      1.0  0.05246  0.18903  0.10144  1.0000
  H   H113      1.0  0.25276  0.15204  0.45438  1.0000
  C   C147      1.0  0.20938  0.04875  0.31427  1.0000
  C   C148      1.0  0.03109  0.20324  0.98740  1.0000
  H   H114      1.0  0.12561  0.15448  0.21799  1.0000
  H   H115      1.0  0.04826  0.21817  0.31017  1.0000
  H   H116      1.0  0.02888  0.18264  0.19524  1.0000
  H   H117      1.0  0.26888  0.17547  0.20926  1.0000
  C   C149      1.0  0.12380  0.04464  0.23303  1.0000
  H   H118      1.0  0.28685  0.09511  0.26056  1.0000
  H   H119      1.0  0.20087  0.46755  0.03239  1.0000
  P   P4        1.0  0.26054  0.18511  0.29007  1.0000
  C   C150      1.0  0.27438  0.20242  0.25783  1.0000
  H   H120      1.0  0.00757  0.44984  0.98100  1.0000
  C   C151      1.0  0.06311  0.46315  0.02523  1.0000
  C   C152      1.0  0.12361  0.09027  0.17533  1.0000
  H   H121      1.0  0.28657  0.14513  0.27815  1.0000
  C   C153      1.0  0.00475  0.21402  0.12952  1.0000
  C   C154      1.0  0.26678  0.19144  0.33937  1.0000
  H   H122      1.0  0.04969  0.06464  0.04417  1.0000
  C   C155      1.0  0.23707  0.43966  0.00875  1.0000
  H   H123      1.0  0.13003  0.08213  0.11580  1.0000
  C   C156      1.0  0.28359  0.22537  0.27027  1.0000
  C   C157      1.0  0.12203  0.11111  0.20359  1.0000
  C   C158      1.0  0.12644  0.13868  0.19559  1.0000
  C   C159      1.0  0.13519  0.02587  0.30451  1.0000
  C   C160      1.0  0.26284  0.21679  0.35760  1.0000
  C   C161      1.0  0.08492  0.24862  0.01277  1.0000
  H   H124      1.0  0.13989  0.45948  0.03338  1.0000
  P   P5        1.0  0.18903  0.06481  0.41917  1.0000
  H   H125      1.0  0.19450  0.00596  0.43587  1.0000
  H   H126      1.0  0.14979  0.15586  0.37279  1.0000
  H   H127      1.0  0.24687  0.05948  0.45253  1.0000
  H   H128      1.0  0.04889  0.05782  0.17569  1.0000
  H   H129      1.0  0.09831  0.13113  0.14496  1.0000
  H   H130      1.0  0.09199  0.06981  0.24138  1.0000
  H   H131      1.0  0.25587  0.23242  0.34261  1.0000
  C   C162      1.0  0.99725  0.48907  0.99996  1.0000
  C   C163      1.0  0.10038  0.36629  0.99863  1.0000
  H   H132      1.0  0.99735  0.26707  0.35088  1.0000
  H   H133      1.0  0.12211  0.39758  0.22793  1.0000
  C   C164      1.0  0.03579  0.26984  0.01749  1.0000
  C   C165      1.0  0.21108  0.46167  0.01478  1.0000
  C   C166      1.0  0.11461  0.46482  0.02094  1.0000
  H   H134      1.0  0.10785  0.26691  0.09015  1.0000
  C   C167      1.0  0.20614  0.09549  0.47406  1.0000
  H   H135      1.0  0.22261  0.04520  0.41663  1.0000
  H   H136      1.0  0.02053  0.44579  0.06498  1.0000
  P   P6        1.0  0.05190  0.24857  0.99866  1.0000
  C   C168      1.0  0.04174  0.42965  0.03733  1.0000
  C   C169      1.0  0.01015  0.20417  0.33990  1.0000
  H   H137      1.0  0.14923  0.46871  0.14729  1.0000
  C   C170      1.0  0.05748  0.19155  0.01175  1.0000
  H   H138      1.0  0.03412  0.13326  0.00259  1.0000
  C   C171      1.0  0.14229  0.03235  0.14278  1.0000
  H   H139      1.0  0.13959  0.01879  0.33215  1.0000
  H   H140      1.0  0.28078  0.20635  0.44458  1.0000
  C   C172      1.0  0.09432  0.48777  0.20316  1.0000
  H   H141      1.0  0.10269  0.01977  0.24605  1.0000
  H   H142      1.0  0.11047  0.24959  0.02306  1.0000
  H   H143      1.0  0.16198  0.07071  0.47320  1.0000
  H   H144      1.0  0.00400  0.19313  0.36274  1.0000
  C   C173      1.0  0.05301  0.16336  0.01326  1.0000
  C   C174      1.0  0.14941  0.01229  0.11896  1.0000
  H   H145      1.0  0.04422  0.30822  0.99101  1.0000
  C   C175      1.0  0.99475  0.26426  0.47639  1.0000
  H   H146      1.0  0.00025  0.07803  0.07331  1.0000
  S   S22       1.0  0.99926  0.17028  0.44198  1.0000
  H   H147      1.0  0.03106  0.49401  0.06968  1.0000
  H   H148      1.0  0.19484  0.10553  0.48081  1.0000
  Fe  Fe13      1.0  0.04802  0.36881  0.93025  1.0000
  H   H149      1.0  0.00681  0.33900  0.66243  1.0000
  Fe  Fe14      1.0  0.02966  0.36314  0.85308  1.0000
  S   S23       1.0  0.00683  0.38020  0.87764  1.0000
  S   S24       1.0  0.03201  0.34997  0.79011  1.0000
  Fe  Fe15      1.0  0.02259  0.41227  0.90672  1.0000
  H   H150      1.0  0.02675  0.29734  0.83653  1.0000
  Fe  Fe16      1.0  0.01223  0.35246  0.92832  1.0000
  C   C176      1.0  0.11458  0.36387  0.92609  1.0000
  S   S25       1.0  0.04532  0.39676  0.87875  1.0000
  S   S26       1.0  0.03428  0.33339  0.90238  1.0000
  H   H151      1.0  0.21495  0.31208  0.89354  1.0000
  Fe  Fe17      1.0  0.29266  0.37402  0.78663  1.0000
  S   S27       1.0  0.29103  0.37040  0.72121  1.0000
  S   S28       1.0  0.26826  0.36786  0.81872  1.0000
  C   C177      1.0  0.02138  0.26983  0.78917  1.0000
  H   H152      1.0  0.18299  0.39046  0.89456  1.0000
  Fe  Fe18      1.0  0.30744  0.40827  0.71945  1.0000
  S   S29       1.0  0.30897  0.44231  0.67228  1.0000
  Fe  Fe19      1.0  0.31314  0.34333  0.72522  1.0000
  C   C178      1.0  0.00355  0.37339  0.76377  1.0000
  S   S30       1.0  0.30797  0.41334  0.78405  1.0000
  S   S31       1.0  0.31425  0.34521  0.79036  1.0000
  Fe  Fe20      1.0  0.29365  0.12021  0.50056  1.0000
  S   S32       1.0  0.28386  0.12338  0.56104  1.0000
  C   C179      1.0  0.18951  0.31803  0.89574  1.0000
  H   H153      1.0  0.01490  0.16856  0.97905  1.0000
  C   C180      1.0  0.25262  0.44333  0.87422  1.0000
  Fe  Fe21      1.0  0.30423  0.09500  0.57917  1.0000
  S   S33       1.0  0.30132  0.06201  0.62726  1.0000
  Fe  Fe22      1.0  0.30117  0.15961  0.56943  1.0000
  S   S34       1.0  0.29207  0.19940  0.60035  1.0000
  S   S35       1.0  0.31330  0.08970  0.51855  1.0000
  S   S36       1.0  0.31004  0.15793  0.50787  1.0000
  C   C181      1.0  0.31352  0.27515  0.66704  1.0000
  H   H154      1.0  0.06311  0.28838  0.84635  1.0000
  C   C182      1.0  0.31753  0.23227  0.62876  1.0000
  C   C183      1.0  0.30090  0.22791  0.62652  1.0000
  C   C184      1.0  0.29070  0.24720  0.64512  1.0000
  C   C185      1.0  0.29694  0.27049  0.66543  1.0000
  H   H155      1.0  0.00051  0.47699  0.57899  1.0000
  C   C186      1.0  0.23043  0.02521  0.94128  1.0000
  H   H156      1.0  0.27784  0.24406  0.64378  1.0000
  H   H157      1.0  0.28890  0.28498  0.67955  1.0000
  H   H158      1.0  0.24720  0.43808  0.95219  1.0000
  C   C187      1.0  0.15838  0.03026  0.49810  1.0000
  C   C188      1.0  0.27483  0.47021  0.84874  1.0000
  C   C189      1.0  0.30627  0.02603  0.63533  1.0000
  H   H159      1.0  0.32556  0.21773  0.61469  1.0000
  H   H160      1.0  0.24707  0.22466  0.95552  1.0000
  C   C190      1.0  0.22419  0.45925  0.95217  1.0000
  C   C191      1.0  0.32376  0.25577  0.64874  1.0000
  H   H161      1.0  0.00322  0.48669  0.70872  1.0000
  H   H162      1.0  0.22575  0.44095  0.82323  1.0000
  C   C192      1.0  0.01661  0.35604  0.75560  1.0000
  C   C193      1.0  0.01774  0.34385  0.71874  1.0000
  C   C194      1.0  0.25452  0.41710  0.75753  1.0000
  H   H163      1.0  0.27872  0.42060  0.55659  1.0000
  H   H164      1.0  0.02777  0.33036  0.71212  1.0000
  H   H165      1.0  0.07873  0.43158  0.84833  1.0000
  C   C195      1.0  0.24395  0.46787  0.88134  1.0000
  H   H166      1.0  0.22068  0.06671  0.94574  1.0000
  S   S37       1.0  0.01812  0.45915  0.90151  1.0000
  C   C196      1.0  0.12453  0.36456  0.95894  1.0000
  C   C197      1.0  0.02849  0.42850  0.75683  1.0000
  C   C198      1.0  0.18908  0.27513  0.95007  1.0000
  H   H167      1.0  0.21081  0.40274  0.79160  1.0000
  H   H168      1.0  0.00255  0.38312  0.79179  1.0000
  H   H169      1.0  0.05711  0.47378  0.94411  1.0000
  C   C199      1.0  0.01336  0.01716  0.95784  1.0000
  C   C200      1.0  0.26635  0.43229  0.69751  1.0000
  C   C201      1.0  0.23877  0.37198  0.93296  1.0000
  C   C202      1.0  0.25554  0.37638  0.93323  1.0000
  C   C203      1.0  0.26475  0.37523  0.89889  1.0000
  C   C204      1.0  0.25734  0.36948  0.86343  1.0000
  C   C205      1.0  0.24056  0.36515  0.86316  1.0000
  C   C206      1.0  0.23136  0.36656  0.89748  1.0000
  C   C207      1.0  0.21164  0.40236  0.60046  1.0000
  H   H170      1.0  0.27759  0.37864  0.89993  1.0000
  H   H171      1.0  0.23460  0.36075  0.83613  1.0000
  H   H172      1.0  0.21853  0.36333  0.89654  1.0000
  H   H173      1.0  0.23250  0.26710  0.86855  1.0000
  P   P7        1.0  0.25954  0.40868  0.62570  1.0000
  C   C208      1.0  0.20094  0.42289  0.89725  1.0000
  C   C209      1.0  0.02524  0.37479  0.60488  1.0000
  C   C210      1.0  0.04172  0.37459  0.59744  1.0000
  C   C211      1.0  0.05091  0.39851  0.60455  1.0000
  C   C212      1.0  0.04360  0.42267  0.61893  1.0000
  C   C213      1.0  0.02696  0.42320  0.62566  1.0000
  C   C214      1.0  0.01786  0.39897  0.61902  1.0000
  C   C215      1.0  0.26631  0.30454  0.88757  1.0000
  H   H174      1.0  0.25660  0.34754  0.62497  1.0000
  C   C216      1.0  0.01915  0.45174  0.69878  1.0000
  C   C217      1.0  0.02807  0.43051  0.71664  1.0000
  H   H175      1.0  0.29464  0.40861  0.61774  1.0000
  C   C218      1.0  0.29682  0.33790  0.61628  1.0000
  C   C219      1.0  0.30363  0.01449  0.67212  1.0000
  H   H176      1.0  0.22608  0.42236  0.64383  1.0000
  C   C220      1.0  0.00142  0.29657  0.82417  1.0000
  H   H177      1.0  0.22484  0.15153  0.90707  1.0000
  H   H178      1.0  0.07197  0.29390  0.96767  1.0000
  C   C221      1.0  0.27406  0.38100  0.62008  1.0000
  C   C222      1.0  0.00475  0.47112  0.97317  1.0000
  H   H179      1.0  0.01815  0.35612  0.59977  1.0000
  H   H180      1.0  0.04733  0.35581  0.58637  1.0000
  H   H181      1.0  0.06372  0.39825  0.59915  1.0000
  C   C223      1.0  0.09045  0.36532  0.96580  1.0000
  H   H182      1.0  0.00510  0.39859  0.62494  1.0000
  H   H183      1.0  0.03447  0.41502  0.69986  1.0000
  H   H184      1.0  0.27224  0.44978  0.75299  1.0000
  H   H185      1.0  0.28674  0.47099  0.83611  1.0000
  C   C224      1.0  0.27488  0.44026  0.56896  1.0000
  C   C225      1.0  0.24060  0.38329  0.56932  1.0000
  C   C226      1.0  0.21156  0.38589  0.56711  1.0000
  H   H186      1.0  0.27190  0.06170  0.93174  1.0000
  C   C227      1.0  0.02783  0.48435  0.62764  1.0000
  C   C228      1.0  0.30183  0.36575  0.61577  1.0000
  H   H187      1.0  0.20112  0.48345  0.84055  1.0000
  H   H188      1.0  0.27456  0.42533  0.85245  1.0000
  C   C229      1.0  0.09303  0.43332  0.90005  1.0000
  C   C230      1.0  0.09391  0.44268  0.93821  1.0000
  C   C231      1.0  0.00935  0.25870  0.76561  1.0000
  C   C232      1.0  0.25095  0.49373  0.87216  1.0000
  H   H189      1.0  0.02011  0.44558  0.81073  1.0000
  H   H190      1.0  0.25175  0.37624  0.55646  1.0000
  H   H191      1.0  0.10442  0.43738  0.95492  1.0000
  H   H192      1.0  0.18925  0.37762  0.82678  1.0000
  C   C233      1.0  0.24138  0.27845  0.88526  1.0000
  H   H193      1.0  0.21878  0.01528  0.94430  1.0000
  C   C234      1.0  0.17498  0.30973  0.91232  1.0000
  C   C235      1.0  0.21110  0.46730  0.97530  1.0000
  C   C236      1.0  0.22619  0.40917  0.61841  1.0000
  H   H194      1.0  0.25373  0.41847  0.78862  1.0000
  C   C237      1.0  0.99881  0.24574  0.93013  1.0000
  H   H195      1.0  0.27339  0.31973  0.94348  1.0000
  C   C238      1.0  0.99682  0.45527  0.63321  1.0000
  C   C239      1.0  0.20371  0.28313  0.93318  1.0000
  H   H196      1.0  0.32074  0.28558  0.80282  1.0000
  H   H197      1.0  0.10276  0.42105  0.88805  1.0000
  C   C240      1.0  0.06671  0.45412  0.89369  1.0000
  H   H198      1.0  0.16392  0.32046  0.90504  1.0000
  C   C241      1.0  0.21312  0.43730  0.87761  1.0000
  H   H199      1.0  0.25277  0.46775  0.64253  1.0000
  C   C242      1.0  0.08114  0.45791  0.95437  1.0000
  C   C243      1.0  0.07950  0.43920  0.87771  1.0000
  C   C244      1.0  0.06739  0.46298  0.93202  1.0000
  H   H200      1.0  0.99868  0.31141  0.84684  1.0000
  C   C245      1.0  0.21020  0.18855  0.90823  1.0000
  H   H201      1.0  0.19850  0.22818  0.91212  1.0000
  S   S38       1.0  0.32056  0.13158  0.59158  1.0000
  C   C246      1.0  0.20938  0.21681  0.91844  1.0000
  H   H202      1.0  0.27669  0.30983  0.62013  1.0000
  H   H203      1.0  0.09022  0.36362  0.90391  1.0000
  C   C247      1.0  0.25721  0.41249  0.67717  1.0000
  H   H204      1.0  0.01245  0.24426  0.74270  1.0000
  C   C248      1.0  0.23459  0.09018  0.48679  1.0000
  C   C249      1.0  0.26491  0.43476  0.73748  1.0000
  H   H205      1.0  0.24072  0.37769  0.68289  1.0000
  C   C250      1.0  0.27940  0.46518  0.55101  1.0000
  P   P8        1.0  0.22383  0.46569  0.90083  1.0000
  C   C251      1.0  0.24718  0.39421  0.69767  1.0000
  C   C252      1.0  0.00593  0.34888  0.69039  1.0000
  C   C253      1.0  0.24581  0.39661  0.73773  1.0000
  S   S39       1.0  0.22788  0.37329  0.97773  1.0000
  C   C254      1.0  0.21652  0.43002  0.83920  1.0000
  C   C255      1.0  0.24074  0.39903  0.60352  1.0000
  H   H206      1.0  0.19998  0.17846  0.89466  1.0000
  P   P9        1.0  0.01781  0.45378  0.64674  1.0000
  C   C256      1.0  0.26562  0.44085  0.60277  1.0000
  H   H207      1.0  0.25601  0.28780  0.83558  1.0000
  H   H208      1.0  0.16353  0.28242  0.95303  1.0000
  C   C257      1.0  0.19233  0.40152  0.87894  1.0000
  C   C258      1.0  0.00138  0.46447  0.49126  1.0000
  C   C259      1.0  0.09766  0.36438  0.92943  1.0000
  H   H209      1.0  0.12001  0.36268  0.89783  1.0000
  H   H210      1.0  0.26150  0.38063  0.96033  1.0000
  H   H211      1.0  0.23850  0.38194  0.75372  1.0000
  C   C260      1.0  0.26029  0.46669  0.61717  1.0000
  H   H212      1.0  0.19806  0.42799  0.92676  1.0000
  C   C261      1.0  0.22258  0.23002  0.93603  1.0000
  C   C262      1.0  0.03154  0.48566  0.58815  1.0000
  C   C263      1.0  0.20799  0.40848  0.82103  1.0000
  H   H213      1.0  0.00419  0.48297  0.77984  1.0000
  C   C264      1.0  0.29050  0.38721  0.61753  1.0000
  H   H214      1.0  0.29889  0.02764  0.69480  1.0000
  H   H215      1.0  0.20042  0.40994  0.61234  1.0000
  C   C265      1.0  0.22604  0.37650  0.55143  1.0000
  C   C266      1.0  0.05091  0.25772  0.88114  1.0000
  C   C267      1.0  0.06129  0.28027  0.87515  1.0000
  C   C268      1.0  0.06897  0.29294  0.90648  1.0000
  C   C269      1.0  0.06630  0.28305  0.94377  1.0000
  C   C270      1.0  0.05608  0.26007  0.95005  1.0000
  C   C271      1.0  0.04823  0.24773  0.91842  1.0000
  H   H216      1.0  0.18971  0.33507  0.87541  1.0000
  H   H217      1.0  0.02237  0.21832  0.97737  1.0000
  H   H218      1.0  0.02455  0.48497  0.48938  1.0000
  H   H219      1.0  0.05095  0.44084  0.62504  1.0000
  C   C272      1.0  0.31238  0.00860  0.60638  1.0000
  C   C273      1.0  0.23718  0.44534  0.96925  1.0000
  H   H220      1.0  0.05600  0.45811  0.87676  1.0000
  H   H221      1.0  0.00263  0.00716  0.53876  1.0000
  H   H222      1.0  0.27645  0.31396  0.87286  1.0000
  H   H223      1.0  0.24739  0.42330  0.88112  1.0000
  H   H224      1.0  0.03383  0.26435  0.78429  1.0000
  C   C274      1.0  0.28048  0.33148  0.61903  1.0000
  C   C275      1.0  0.30929  0.48922  0.62601  1.0000
  H   H225      1.0  0.28691  0.46468  0.52554  1.0000
  C   C276      1.0  0.01738  0.28843  0.81870  1.0000
  C   C277      1.0  0.25471  0.28990  0.86653  1.0000
  S   S40       1.0  0.14581  0.36264  0.95300  1.0000
  C   C278      1.0  0.23667  0.21469  0.94254  1.0000
  H   H226      1.0  0.00560  0.23389  0.90916  1.0000
  H   H227      1.0  0.04472  0.24821  0.85695  1.0000
  H   H228      1.0  0.31663  0.47664  0.60702  1.0000
  H   H229      1.0  0.07665  0.31098  0.90211  1.0000
  H   H230      1.0  0.20028  0.38056  0.55325  1.0000
  H   H231      1.0  0.03990  0.23064  0.92227  1.0000
  C   C279      1.0  0.26798  0.44447  0.85800  1.0000
  H   H232      1.0  0.31436  0.01701  0.57793  1.0000
  C   C280      1.0  0.00858  0.48076  0.93631  1.0000
  C   C281      1.0  0.23746  0.18646  0.93228  1.0000
  C   C282      1.0  0.22421  0.17337  0.91519  1.0000
  H   H233      1.0  0.29017  0.48612  0.71227  1.0000
  C   C283      1.0  0.26914  0.35293  0.62145  1.0000
  C   C284      1.0  0.00056  0.27499  0.93167  1.0000
  S   S41       1.0  0.02600  0.38623  0.95960  1.0000
  H   H234      1.0  0.27489  0.44538  0.68261  1.0000
  H   H235      1.0  0.21932  0.11928  0.51657  1.0000
  C   C285      1.0  0.30386  0.47772  0.66101  1.0000
  S   S42       1.0  0.32211  0.30510  0.69032  1.0000
  H   H236      1.0  0.27026  0.01037  0.93045  1.0000
  C   C286      1.0  0.01048  0.47058  0.72187  1.0000
  C   C287      1.0  0.19587  0.39428  0.84086  1.0000
  H   H237      1.0  0.02875  0.46828  0.56914  1.0000
  C   C288      1.0  0.26455  0.30784  0.92735  1.0000
  H   H238      1.0  0.22601  0.36402  0.52531  1.0000
  H   H239      1.0  0.24838  0.17478  0.93740  1.0000
  C   C289      1.0  0.01093  0.46849  0.76208  1.0000
  H   H240      1.0  0.02222  0.02981  0.94317  1.0000
  C   C290      1.0  0.00019  0.03019  0.97584  1.0000
  C   C291      1.0  0.01993  0.44744  0.77956  1.0000
  C   C292      1.0  0.20384  0.30482  0.90610  1.0000
  H   H241      1.0  0.31453  0.37074  0.61498  1.0000
  H   H242      1.0  0.03516  0.41175  0.77038  1.0000
  H   H243      1.0  0.00868  0.28542  0.91212  1.0000
  C   C293      1.0  0.25113  0.29673  0.94615  1.0000
  C   C294      1.0  0.23941  0.28200  0.92518  1.0000
  C   C295      1.0  0.17476  0.28821  0.93935  1.0000
  C   C296      1.0  0.18110  0.48604  0.48498  1.0000
  H   H244      1.0  0.18294  0.48281  0.51554  1.0000
  H   H245      1.0  0.20072  0.47736  0.96280  1.0000
  H   H246      1.0  0.00573  0.44659  0.50703  1.0000
  H   H247      1.0  0.30564  0.32129  0.61541  1.0000
  P   P10       1.0  0.22212  0.26665  0.94853  1.0000
  S   S43       1.0  0.06920  0.36417  0.97219  1.0000
  H   H248      1.0  0.14843  0.03708  0.51591  1.0000
  S   S44       1.0  0.99874  0.06720  0.97426  1.0000
  C   C297      1.0  0.26031  0.05152  0.93442  1.0000
  C   C298      1.0  0.21993  0.10315  0.49466  1.0000
  H   H249      1.0  0.24538  0.09648  0.50212  1.0000
  H   H250      1.0  0.18879  0.25913  0.97205  1.0000
  C   C299      1.0  0.24436  0.00899  0.93698  1.0000
  C   C300      1.0  0.25933  0.02235  0.93365  1.0000
  C   C301      1.0  0.24640  0.06751  0.93870  1.0000
  H   H251      1.0  0.24720  0.09010  0.93943  1.0000
  C   C302      1.0  0.27448  0.49081  0.56625  1.0000
  C   C303      1.0  0.26488  0.49156  0.59922  1.0000
  H   H252      1.0  0.25002  0.29993  0.97686  1.0000
  C   C304      1.0  0.23147  0.05436  0.94218  1.0000
  C   C305      1.0  0.16365  0.00260  0.49989  1.0000
  C   C306      1.0  0.01205  0.48640  0.48125  1.0000
  Fe  Fe23      1.0  0.15848  0.61164  0.26332  1.0000
  S   S45       1.0  0.16509  0.60918  0.20040  1.0000
  S   S46       1.0  0.13404  0.59288  0.28116  1.0000
  Fe  Fe24      1.0  0.19356  0.62833  0.28643  1.0000
  S   S47       1.0  0.20190  0.62709  0.22450  1.0000
  S   S48       1.0  0.20929  0.64141  0.33908  1.0000
  Fe  Fe25      1.0  0.17877  0.64964  0.21015  1.0000
  S   S49       1.0  0.17574  0.68170  0.16089  1.0000
  Fe  Fe26      1.0  0.18749  0.58704  0.21896  1.0000
  S   S50       1.0  0.19870  0.54649  0.19516  1.0000
  S   S51       1.0  0.17093  0.65319  0.27242  1.0000
  S   S52       1.0  0.18033  0.58739  0.28155  1.0000
  Fe  Fe27      1.0  0.19235  0.90617  0.06057  1.0000
  S   S53       1.0  0.19287  0.89957  0.99583  1.0000
  S   S54       1.0  0.19465  0.95234  0.08084  1.0000
  Fe  Fe28      1.0  0.19127  0.84207  0.07508  1.0000
  S   S55       1.0  0.19195  0.83198  0.01164  1.0000
  S   S56       1.0  0.19122  0.81123  0.12642  1.0000
  Fe  Fe29      1.0  0.21103  0.86549  0.00539  1.0000
  C   C307      1.0  0.06709  0.78235  0.01848  1.0000
  Fe  Fe30      1.0  0.17378  0.86682  0.00588  1.0000
  C   C308      1.0  0.03279  0.74479  0.38381  1.0000
  S   S57       1.0  0.21156  0.87355  0.06982  1.0000
  S   S58       1.0  0.17205  0.87536  0.06956  1.0000
  Fe  Fe31      1.0  0.02088  0.57735  0.41172  1.0000
  H   H253      1.0  0.00202  0.73010  0.16327  1.0000
  S   S59       1.0  0.02099  0.53698  0.44864  1.0000
  Fe  Fe32      1.0  0.04400  0.61971  0.37193  1.0000
  S   S60       1.0  0.02333  0.64315  0.34518  1.0000
  S   S61       1.0  0.06902  0.63823  0.35875  1.0000
  Fe  Fe33      1.0  0.01093  0.63950  0.40294  1.0000
  H   H254      1.0  0.20665  0.57606  0.33851  1.0000
  Fe  Fe34      1.0  0.01302  0.60101  0.33136  1.0000
  C   C309      1.0  0.14119  0.50783  0.23803  1.0000
  S   S62       1.0  0.03222  0.61853  0.43094  1.0000
  S   S63       1.0  0.03430  0.57763  0.35502  1.0000
  C   C310      1.0  0.04388  0.73297  0.35798  1.0000
  C   C311      1.0  0.09233  0.52189  0.03499  1.0000
  C   C312      1.0  0.04472  0.83686  0.31969  1.0000
  H   H255      1.0  0.05143  0.84241  0.26029  1.0000
  H   H256      1.0  0.03121  0.81114  0.04277  1.0000
  H   H257      1.0  0.05800  0.50544  0.04430  1.0000
  H   H258      1.0  0.25616  0.80932  0.31405  1.0000
  C   C313      1.0  0.27054  0.78331  0.22952  1.0000
  H   H259      1.0  0.27989  0.78706  0.20844  1.0000
  H   H260      1.0  0.09787  0.72868  0.15672  1.0000
  H   H261      1.0  0.19450  0.58265  0.46838  1.0000
  H   H262      1.0  0.10041  0.56079  0.05990  1.0000
  H   H263      1.0  0.23764  0.76942  0.30627  1.0000
  H   H264      1.0  0.07997  0.73958  0.10237  1.0000
  C   C314      1.0  0.13021  0.52562  0.08847  1.0000
  C   C315      1.0  0.00638  0.72013  0.13725  1.0000
  H   H265      1.0  0.13857  0.56542  0.06754  1.0000
  C   C316      1.0  0.06838  0.58821  0.13316  1.0000
  H   H266      1.0  0.06163  0.70067  0.34911  1.0000
  C   C317      1.0  0.06744  0.64886  0.01817  1.0000
  C   C318      1.0  0.13718  0.54666  0.16191  1.0000
  C   C319      1.0  0.08643  0.71797  0.15390  1.0000
  C   C320      1.0  0.17986  0.71798  0.15234  1.0000
  C   C321      1.0  0.17763  0.72878  0.11495  1.0000
  C   C322      1.0  0.18086  0.75714  0.10645  1.0000
  C   C323      1.0  0.18635  0.77530  0.13533  1.0000
  C   C324      1.0  0.18826  0.76464  0.17287  1.0000
  C   C325      1.0  0.18511  0.73624  0.18133  1.0000
  H   H267      1.0  0.17350  0.71501  0.09225  1.0000
  H   H268      1.0  0.17922  0.76489  0.07750  1.0000
  H   H269      1.0  0.19242  0.77843  0.19549  1.0000
  H   H270      1.0  0.18685  0.72843  0.21019  1.0000
  C   C326      1.0  0.19073  0.97668  0.11927  1.0000
  C   C327      1.0  0.04085  0.79596  0.04160  1.0000
  H   H271      1.0  0.03043  0.73585  0.14366  1.0000
  C   C328      1.0  0.19135  0.52066  0.16218  1.0000
  H   H272      1.0  0.21320  0.67071  0.13761  1.0000
  C   C329      1.0  0.18256  0.96927  0.15302  1.0000
  C   C330      1.0  0.05481  0.80204  0.02100  1.0000
  C   C331      1.0  0.25384  0.67865  0.24249  1.0000
  H   H273      1.0  0.00396  0.97082  0.31956  1.0000
  H   H274      1.0  0.17847  0.94799  0.15666  1.0000
  C   C332      1.0  0.11616  0.60609  0.30299  1.0000
  C   C333      1.0  0.10346  0.58744  0.31085  1.0000
  C   C334      1.0  0.08892  0.59682  0.32741  1.0000
  C   C335      1.0  0.08694  0.62504  0.33694  1.0000
  C   C336      1.0  0.09971  0.64364  0.32942  1.0000
  C   C337      1.0  0.11419  0.63431  0.31244  1.0000
  H   H275      1.0  0.10494  0.56550  0.30439  1.0000
  H   H276      1.0  0.07932  0.58217  0.33336  1.0000
  H   H277      1.0  0.09839  0.66547  0.33686  1.0000
  H   H278      1.0  0.12382  0.64893  0.30680  1.0000
  C   C338      1.0  0.22683  0.63113  0.36612  1.0000
  C   C339      1.0  0.23727  0.60990  0.35403  1.0000
  C   C340      1.0  0.25112  0.60324  0.37598  1.0000
  C   C341      1.0  0.25489  0.61753  0.41053  1.0000
  C   C342      1.0  0.24438  0.63861  0.42275  1.0000
  C   C343      1.0  0.23053  0.64530  0.40077  1.0000
  H   H279      1.0  0.23485  0.59887  0.32743  1.0000
  H   H280      1.0  0.25904  0.58686  0.36602  1.0000
  C   C344      1.0  0.05329  0.71021  0.36918  1.0000
  H   H281      1.0  0.22266  0.66176  0.41068  1.0000
  C   C345      1.0  0.07593  0.53150  0.12692  1.0000
  C   C346      1.0  0.18595  0.51333  0.42716  1.0000
  C   C347      1.0  0.07625  0.72398  0.12294  1.0000
  C   C348      1.0  0.20683  0.57649  0.46335  1.0000
  C   C349      1.0  0.03123  0.73335  0.42080  1.0000
  C   C350      1.0  0.03844  0.80391  0.26882  1.0000
  C   C351      1.0  0.00241  0.75666  0.34457  1.0000
  C   C352      1.0  0.02981  0.79450  0.33448  1.0000
  C   C353      1.0  0.99457  0.60298  0.23473  1.0000
  C   C354      1.0  0.25540  0.67277  0.32251  1.0000
  H   H282      1.0  0.07481  0.74107  0.03316  1.0000
  C   C355      1.0  0.99603  0.98381  0.44785  1.0000
  H   H283      1.0  0.27725  0.81840  0.26517  1.0000
  H   H284      1.0  0.00695  0.66452  0.16624  1.0000
  C   C356      1.0  0.01740  0.69462  0.06966  1.0000
  H   H285      1.0  0.08986  0.69339  0.20517  1.0000
  C   C357      1.0  0.04901  0.69609  0.00201  1.0000
  C   C358      1.0  0.06537  0.75640  0.03637  1.0000
  H   H286      1.0  0.21341  0.71026  0.09175  1.0000
  H   H287      1.0  0.23489  0.92770  0.08728  1.0000
  H   H288      1.0  0.09591  0.50977  0.05980  1.0000
  H   H289      1.0  0.22831  0.97707  0.07432  1.0000
  S   S64       1.0  0.07740  0.86858  0.99550  1.0000
  H   H290      1.0  0.26871  0.64186  0.24026  1.0000
  H   H291      1.0  0.05880  0.68118  0.41452  1.0000
  C   C359      1.0  0.15254  0.58206  0.37644  1.0000
  C   C360      1.0  0.00316  0.82453  0.47365  1.0000
  H   H292      1.0  0.17222  0.54549  0.13921  1.0000
  C   C361      1.0  0.13958  0.56331  0.12942  1.0000
  C   C362      1.0  0.24485  0.93010  0.99228  1.0000
  C   C363      1.0  0.12492  0.98506  0.11987  1.0000
  H   H293      1.0  0.05606  0.82199  0.00675  1.0000
  C   C364      1.0  0.03904  0.77004  0.05944  1.0000
  C   C365      1.0  0.08795  0.55094  0.13568  1.0000
  H   H294      1.0  0.02527  0.76733  0.28561  1.0000
  C   C366      1.0  0.25715  0.79588  0.28897  1.0000
  H   H295      1.0  0.99748  0.99000  0.41820  1.0000
  H   H296      1.0  0.00424  0.56045  0.09119  1.0000
  C   C367      1.0  0.01649  0.64989  0.17222  1.0000
  H   H297      1.0  0.11831  0.96650  0.11143  1.0000
  H   H298      1.0  0.09208  0.58921  0.00392  1.0000
  C   C368      1.0  0.00766  0.54762  0.11547  1.0000
  H   H299      1.0  0.13445  0.87562  0.03190  1.0000
  H   H300      1.0  0.13994  0.55521  0.19017  1.0000
  H   H301      1.0  0.14648  0.97299  0.08951  1.0000
  H   H302      1.0  0.03043  0.54473  0.05336  1.0000
  C   C369      1.0  0.05724  0.68950  0.14615  1.0000
  H   H303      1.0  0.05012  0.85635  0.32911  1.0000
  C   C370      1.0  0.12762  0.50899  0.12093  1.0000
  C   C371      1.0  0.15721  0.60990  0.37252  1.0000
  H   H304      1.0  0.23008  0.53543  0.40535  1.0000
  H   H305      1.0  0.24692  0.64983  0.44917  1.0000
  H   H306      1.0  0.02115  0.68510  0.04291  1.0000
  C   C372      1.0  0.08532  0.50873  0.00286  1.0000
  H   H307      1.0  0.24542  0.89748  0.03474  1.0000
  H   H308      1.0  0.14441  0.58424  0.13277  1.0000
  C   C373      1.0  0.08421  0.57929  0.13850  1.0000
  H   H309      1.0  0.14856  0.62533  0.36308  1.0000
  C   C374      1.0  0.17816  0.52547  0.13817  1.0000
  C   C375      1.0  0.13141  0.51923  0.15783  1.0000
  C   C376      1.0  0.16866  0.51540  0.25938  1.0000
  H   H310      1.0  0.00985  0.52782  0.35748  1.0000
  S   S65       1.0  0.03210  0.86962  0.99511  1.0000
  P   P11       1.0  0.19502  0.54307  0.40343  1.0000
  C   C377      1.0  0.20389  0.53334  0.35774  1.0000
  C   C378      1.0  0.15774  0.50817  0.23042  1.0000
  C   C379      1.0  0.99809  0.51892  0.35188  1.0000
  P   P12       1.0  0.01945  0.77239  0.36855  1.0000
  C   C380      1.0  0.23697  0.93629  0.05887  1.0000
  C   C381      1.0  0.06736  0.68381  0.17730  1.0000
  C   C382      1.0  0.02245  0.72323  0.12612  1.0000
  H   H311      1.0  0.14023  0.57615  0.37005  1.0000
  H   H312      1.0  0.10017  0.54408  0.14038  1.0000
  C   C383      1.0  0.02808  0.71046  0.09220  1.0000
  C   C384      1.0  0.04546  0.82899  0.28093  1.0000
  C   C385      1.0  0.07478  0.52052  0.22855  1.0000
  H   H313      1.0  0.01282  0.62735  0.11959  1.0000
  C   C386      1.0  0.03167  0.60866  0.15404  1.0000
  H   H314      1.0  0.06565  0.61026  0.13552  1.0000
  C   C387      1.0  0.13624  0.55273  0.09271  1.0000
  H   H315      1.0  0.09356  0.59432  0.14537  1.0000
  C   C388      1.0  0.12617  0.87117  0.00866  1.0000
  C   C389      1.0  0.26907  0.80094  0.26150  1.0000
  C   C390      1.0  0.24658  0.77335  0.28430  1.0000
  C   C391      1.0  0.03928  0.60936  0.19022  1.0000
  C   C392      1.0  0.03567  0.63042  0.21685  1.0000
  C   C393      1.0  0.02436  0.65080  0.20773  1.0000
  C   C394      1.0  0.03694  0.81971  0.34640  1.0000
  C   C395      1.0  0.05136  0.75008  0.05729  1.0000
  C   C396      1.0  0.03284  0.58808  0.07076  1.0000
  C   C397      1.0  0.03310  0.61574  0.05750  1.0000
  C   C398      1.0  0.02982  0.62148  0.01881  1.0000
  C   C399      1.0  0.17665  0.99393  0.47736  1.0000
  C   C400      1.0  0.16315  0.52234  0.29613  1.0000
  C   C401      1.0  0.03048  0.56627  0.04410  1.0000
  C   C402      1.0  0.24283  0.91929  0.02929  1.0000
  C   C403      1.0  0.26252  0.65663  0.25868  1.0000
  H   H316      1.0  0.06391  0.66830  0.19846  1.0000
  C   C404      1.0  0.22674  0.54984  0.42805  1.0000
  H   H317      1.0  0.25371  0.68094  0.21151  1.0000
  C   C405      1.0  0.00677  0.50996  0.46048  1.0000
  H   H318      1.0  0.04756  0.59310  0.19859  1.0000
  H   H319      1.0  0.04111  0.63021  0.24526  1.0000
  H   H320      1.0  0.03636  0.79308  0.43709  1.0000
  H   H321      1.0  0.03541  0.63297  0.07694  1.0000
  H   H322      1.0  0.00573  0.71581  0.36980  1.0000
  H   H323      1.0  0.18141  0.51616  0.25307  1.0000
  H   H324      1.0  0.12985  0.90302  0.13826  1.0000
  H   H325      1.0  0.06729  0.66285  0.07683  1.0000
  C   C406      1.0  0.22330  0.73946  0.13276  1.0000
  C   C407      1.0  0.21812  0.71309  0.12060  1.0000
  C   C408      1.0  0.21806  0.69077  0.14640  1.0000
  C   C409      1.0  0.22337  0.69472  0.18424  1.0000
  C   C410      1.0  0.22913  0.72089  0.19632  1.0000
  C   C411      1.0  0.22860  0.74346  0.17061  1.0000
  P   P13       1.0  0.23449  0.72639  0.24611  1.0000
  C   C412      1.0  0.21570  0.73189  0.27071  1.0000
  C   C413      1.0  0.24549  0.69745  0.26629  1.0000
  C   C414      1.0  0.18436  0.59753  0.39071  1.0000
  H   H326      1.0  0.15483  0.80929  0.14643  1.0000
  C   C415      1.0  0.21443  0.54708  0.29531  1.0000
  C   C416      1.0  0.24657  0.69462  0.30646  1.0000
  C   C417      1.0  0.20818  0.70989  0.29028  1.0000
  C   C418      1.0  0.19345  0.71410  0.30868  1.0000
  C   C419      1.0  0.18589  0.74007  0.30667  1.0000
  C   C420      1.0  0.19309  0.76188  0.28624  1.0000
  C   C421      1.0  0.20793  0.75780  0.26821  1.0000
  C   C422      1.0  0.24774  0.75597  0.25175  1.0000
  C   C423      1.0  0.26001  0.76074  0.22480  1.0000
  H   H327      1.0  0.16947  0.85057  0.16979  1.0000
  H   H328      1.0  0.11485  0.86199  0.11511  1.0000
  H   H329      1.0  0.22251  0.75711  0.11338  1.0000
  C   C424      1.0  0.20821  0.55420  0.33143  1.0000
  H   H330      1.0  0.22258  0.67753  0.20432  1.0000
  H   H331      1.0  0.23177  0.76436  0.17993  1.0000
  H   H332      1.0  0.08430  0.55982  0.24878  1.0000
  H   H333      1.0  0.15994  0.80541  0.00130  1.0000
  H   H334      1.0  0.24050  0.70915  0.32547  1.0000
  H   H335      1.0  0.21358  0.68937  0.29113  1.0000
  H   H336      1.0  0.18790  0.69702  0.32423  1.0000
  H   H337      1.0  0.17439  0.74317  0.32060  1.0000
  H   H338      1.0  0.18709  0.78186  0.28398  1.0000
  H   H339      1.0  0.21323  0.77469  0.25184  1.0000
  H   H340      1.0  0.26145  0.74699  0.20020  1.0000
  H   H341      1.0  0.15714  0.89758  0.16591  1.0000
  S   S66       1.0  0.99908  0.59829  0.38705  1.0000
  H   H342      1.0  0.10502  0.87943  0.04277  1.0000
  H   H343      1.0  0.03585  0.54134  0.18610  1.0000
  C   C425      1.0  0.08197  0.69799  0.18113  1.0000
  C   C426      1.0  0.09009  0.56685  0.00377  1.0000
  C   C427      1.0  0.13636  0.79206  0.98393  1.0000
  C   C428      1.0  0.10684  0.50637  0.21238  1.0000
  S   S67       1.0  0.27266  0.60775  0.43715  1.0000
  H   H344      1.0  0.15981  0.54053  0.38977  1.0000
  C   C429      1.0  0.26324  0.65362  0.29868  1.0000
  C   C430      1.0  0.02206  0.55245  0.13554  1.0000
  C   C431      1.0  0.08709  0.53963  0.23618  1.0000
  H   H345      1.0  0.14237  0.52714  0.33253  1.0000
  C   C432      1.0  0.02534  0.53683  0.16877  1.0000
  H   H346      1.0  0.17313  0.98341  0.20779  1.0000
  H   H347      1.0  0.06246  0.52583  0.23552  1.0000
  H   H348      1.0  0.02240  0.74140  0.44083  1.0000
  C   C433      1.0  0.05403  0.69111  0.03996  1.0000
  H   H349      1.0  0.02106  0.66640  0.22899  1.0000
  C   C434      1.0  0.17986  0.56939  0.39432  1.0000
  C   C435      1.0  0.20695  0.50526  0.34832  1.0000
  H   H350      1.0  0.04611  0.67791  0.14332  1.0000
  C   C436      1.0  0.10944  0.87312  0.01479  1.0000
  H   H351      1.0  0.02778  0.76561  0.07372  1.0000
  H   H352      1.0  0.25603  0.67045  0.35352  1.0000
  C   C437      1.0  0.16377  0.56188  0.38740  1.0000
  C   C438      1.0  0.06007  0.54032  0.12182  1.0000
  H   H353      1.0  0.04509  0.74079  0.32902  1.0000
  P   P14       1.0  0.03557  0.58008  0.12121  1.0000
  H   H354      1.0  0.07885  0.50952  0.12463  1.0000
  S   S68       1.0  0.00588  0.80418  0.98554  1.0000
  C   C439      1.0  0.01992  0.62871  0.14567  1.0000
  C   C440      1.0  0.05613  0.56868  0.12576  1.0000
  H   H355      1.0  0.26985  0.63647  0.31135  1.0000
  C   C441      1.0  0.07652  0.82800  0.09423  1.0000
  C   C442      1.0  0.06795  0.81476  0.12352  1.0000
  C   C443      1.0  0.07601  0.79777  0.14983  1.0000
  C   C444      1.0  0.09264  0.79395  0.14675  1.0000
  C   C445      1.0  0.10128  0.80665  0.11676  1.0000
  C   C446      1.0  0.09305  0.82382  0.09071  1.0000
  P   P15       1.0  0.12278  0.80185  0.11207  1.0000
  C   C447      1.0  0.12916  0.77138  0.13855  1.0000
  C   C448      1.0  0.12813  0.79728  0.06200  1.0000
  C   C449      1.0  0.14387  0.80292  0.04972  1.0000
  C   C450      1.0  0.14794  0.80016  0.01087  1.0000
  C   C451      1.0  0.17278  0.50448  0.11247  1.0000
  C   C452      1.0  0.12078  0.78572  0.99601  1.0000
  C   C453      1.0  0.11673  0.78784  0.03500  1.0000
  C   C454      1.0  0.13101  0.77287  0.17874  1.0000
  C   C455      1.0  0.13657  0.74975  0.19927  1.0000
  C   C456      1.0  0.14025  0.72497  0.17989  1.0000
  C   C457      1.0  0.13828  0.72321  0.14000  1.0000
  C   C458      1.0  0.13275  0.74629  0.11932  1.0000
  C   C459      1.0  0.13338  0.83221  0.13031  1.0000
  C   C460      1.0  0.12656  0.85896  0.12778  1.0000
  C   C461      1.0  0.13505  0.88240  0.14090  1.0000
  C   C462      1.0  0.15041  0.87936  0.15655  1.0000
  C   C463      1.0  0.15733  0.85289  0.15888  1.0000
  C   C464      1.0  0.14893  0.82944  0.14560  1.0000
  H   H356      1.0  0.07037  0.84146  0.07390  1.0000
  H   H357      1.0  0.05509  0.81783  0.12578  1.0000
  H   H358      1.0  0.06938  0.78768  0.17275  1.0000
  H   H359      1.0  0.09862  0.78107  0.16776  1.0000
  H   H360      1.0  0.09939  0.83392  0.06739  1.0000
  H   H361      1.0  0.15300  0.80982  0.06987  1.0000
  C   C465      1.0  0.04072  0.71073  0.43193  1.0000
  H   H362      1.0  0.11242  0.54797  0.23367  1.0000
  H   H363      1.0  0.02911  0.64286  0.00897  1.0000
  H   H364      1.0  0.10463  0.78261  0.04374  1.0000
  H   H365      1.0  0.12849  0.79211  0.19409  1.0000
  H   H366      1.0  0.13841  0.75120  0.23011  1.0000
  H   H367      1.0  0.14510  0.70732  0.19555  1.0000
  H   H368      1.0  0.14169  0.70420  0.12505  1.0000
  H   H369      1.0  0.13172  0.74461  0.08833  1.0000
  P   P16       1.0  0.04872  0.71561  0.07752  1.0000
  H   H370      1.0  0.02482  0.55521  0.98541  1.0000
  H   H371      1.0  0.25131  0.55592  0.44615  1.0000
  H   H372      1.0  0.21728  0.56330  0.27465  1.0000
  C   C466      1.0  0.01907  0.81565  0.47067  1.0000
  C   C467      1.0  0.03066  0.78671  0.29545  1.0000
  H   H373      1.0  0.19670  0.60393  0.39527  1.0000
  C   C468      1.0  0.06157  0.70972  0.11875  1.0000
  C   C469      1.0  0.02398  0.79987  0.43883  1.0000
  H   H374      1.0  0.16223  0.50299  0.20203  1.0000
  H   H375      1.0  0.17164  0.52895  0.31795  1.0000
  C   C470      1.0  0.06330  0.66733  0.04787  1.0000
  C   C471      1.0  0.14076  0.98867  0.10748  1.0000
  H   H376      1.0  0.18088  0.97259  0.47915  1.0000
  C   C472      1.0  0.02681  0.59975  0.99286  1.0000
  C   C473      1.0  0.01484  0.51561  0.18037  1.0000
  H   H377      1.0  0.17433  0.49739  0.37567  1.0000
  H   H378      1.0  0.07781  0.78728  0.00212  1.0000
  C   C474      1.0  0.02736  0.57211  0.00540  1.0000
  H   H379      1.0  0.17682  0.63921  0.37646  1.0000
  H   H380      1.0  0.04175  0.71420  0.99537  1.0000
  H   H381      1.0  0.03929  0.70179  0.46033  1.0000
  H   H382      1.0  0.01732  0.50388  0.20632  1.0000
  C   C475      1.0  0.13577  0.51382  0.27547  1.0000
  C   C476      1.0  0.01294  0.79263  0.40981  1.0000
  C   C477      1.0  0.14672  0.52139  0.30424  1.0000
  H   H383      1.0  0.12791  0.51726  0.05997  1.0000
  H   H384      1.0  0.07441  0.63040  0.02449  1.0000
  C   C478      1.0  0.99729  0.52619  0.12683  1.0000
  C   C479      1.0  0.21667  0.51910  0.28539  1.0000
  H   H385      1.0  0.03895  0.79786  0.23875  1.0000
  C   C480      1.0  0.05170  0.69911  0.40612  1.0000
  H   H386      1.0  0.05088  0.52498  0.11532  1.0000
  C   C481      1.0  0.23883  0.56119  0.45134  1.0000
  C   C482      1.0  0.09481  0.55080  0.03528  1.0000
  C   C483      1.0  0.23526  0.97508  0.01451  1.0000
  S   S69       1.0  0.00527  0.58546  0.27170  1.0000
  C   C484      1.0  0.24106  0.95808  0.98454  1.0000
  C   C485      1.0  0.10303  0.53273  0.22782  1.0000
  C   C486      1.0  0.21065  0.55756  0.43372  1.0000
  H   H387      1.0  0.03648  0.82636  0.37618  1.0000
  P   P17       1.0  0.12742  0.49848  0.19995  1.0000
  C   C487      1.0  0.99588  0.70412  0.11477  1.0000
  C   C488      1.0  0.17309  0.61767  0.38000  1.0000
  C   C489      1.0  0.23328  0.96419  0.05152  1.0000
  C   C490      1.0  0.00143  0.69128  0.08119  1.0000
  C   C491      1.0  0.17955  0.98948  0.18207  1.0000
  H   H388      1.0  0.16266  0.50858  0.09392  1.0000
  C   C492      1.0  0.99849  0.72857  0.35096  1.0000
  H   H389      1.0  0.12315  0.51303  0.28264  1.0000
  H   H390      1.0  0.99752  0.56891  0.19488  1.0000
  C   C493      1.0  0.21313  0.49820  0.31207  1.0000
  C   C494      1.0  0.00093  0.51005  0.15911  1.0000
  C   C495      1.0  0.09839  0.86732  0.98503  1.0000
  H   H391      1.0  0.22115  0.51373  0.25697  1.0000
  C   C496      1.0  0.18827  0.50891  0.46676  1.0000
  C   C497      1.0  0.99691  0.80143  0.41328  1.0000
  C   C498      1.0  0.99481  0.70394  0.45701  1.0000
  S   S70       1.0  0.99458  0.67611  0.42211  1.0000
  C   C499      1.0  0.23499  0.58040  0.48024  1.0000
  C   C500      1.0  0.17632  0.49447  0.40621  1.0000
  H   H392      1.0  0.99525  0.79457  0.31551  1.0000
  C   C501      1.0  0.19912  0.49458  0.15977  1.0000
  C   C502      1.0  0.07838  0.49468  0.21180  1.0000
  Fe  Fe35      1.0  0.05442  0.86825  0.95827  1.0000
  H   H393      1.0  0.26032  0.81267  0.78933  1.0000
  Fe  Fe36      1.0  0.03380  0.86703  0.88499  1.0000
  S   S71       1.0  0.01049  0.86833  0.91712  1.0000
  S   S72       1.0  0.03514  0.86513  0.81925  1.0000
  Fe  Fe37      1.0  0.02227  0.90134  0.95401  1.0000
  C   C503      1.0  0.32205  0.74369  0.65552  1.0000
  C   C504      1.0  0.08287  0.55403  0.97195  1.0000
  C   C505      1.0  0.01018  0.79212  0.84451  1.0000
  S   S73       1.0  0.04517  0.90238  0.91926  1.0000
  S   S74       1.0  0.04463  0.83283  0.92183  1.0000
  C   C506      1.0  0.22516  0.96164  0.90891  1.0000
  Fe  Fe38      1.0  0.29905  0.87426  0.78111  1.0000
  S   S75       1.0  0.29668  0.86680  0.71656  1.0000
  S   S76       1.0  0.27518  0.87895  0.81555  1.0000
  H   H394      1.0  0.04143  0.54896  0.65408  1.0000
  H   H395      1.0  0.20229  0.76357  0.83913  1.0000
  Fe  Fe39      1.0  0.31521  0.90122  0.70931  1.0000
  H   H396      1.0  0.02271  0.71291  0.93207  1.0000
  Fe  Fe40      1.0  0.31738  0.83682  0.72306  1.0000
  C   C507      1.0  0.00269  0.86345  0.79905  1.0000
  S   S77       1.0  0.31640  0.91036  0.77288  1.0000
  Fe  Fe41      1.0  0.32327  0.61727  0.52275  1.0000
  Fe  Fe42      1.0  0.28792  0.61763  0.49214  1.0000
  S   S78       1.0  0.27838  0.62806  0.55133  1.0000
  C   C508      1.0  0.21054  0.81961  0.83776  1.0000
  H   H397      1.0  0.03371  0.92949  0.81716  1.0000
  H   H398      1.0  0.20956  0.56373  0.92924  1.0000
  Fe  Fe43      1.0  0.29593  0.59622  0.57478  1.0000
  S   S79       1.0  0.28903  0.56757  0.62560  1.0000
  Fe  Fe44      1.0  0.29876  0.65943  0.55555  1.0000
  S   S80       1.0  0.29285  0.70413  0.57667  1.0000
  S   S81       1.0  0.30431  0.58369  0.51566  1.0000
  S   S82       1.0  0.30768  0.65034  0.49509  1.0000
  C   C509      1.0  0.31404  0.76913  0.66250  1.0000
  C   C510      1.0  0.01553  0.75317  0.95440  1.0000
  C   C511      1.0  0.31589  0.72370  0.62922  1.0000
  C   C512      1.0  0.30165  0.72897  0.60908  1.0000
  C   C513      1.0  0.29381  0.75464  0.61550  1.0000
  C   C514      1.0  0.29996  0.77459  0.64186  1.0000
  H   H399      1.0  0.00143  0.72287  0.85428  1.0000
  H   H400      1.0  0.18701  0.94122  0.85016  1.0000
  H   H401      1.0  0.28282  0.75907  0.60011  1.0000
  H   H402      1.0  0.29375  0.79413  0.64632  1.0000
  C   C515      1.0  0.31279  0.96851  0.65078  1.0000
  H   H403      1.0  0.06534  0.63947  0.95752  1.0000
  H   H404      1.0  0.19197  0.81367  0.79479  1.0000
  C   C516      1.0  0.29546  0.53322  0.63884  1.0000
  C   C517      1.0  0.29009  0.52178  0.67395  1.0000
  H   H405      1.0  0.03086  0.72023  0.85683  1.0000
  C   C518      1.0  0.19512  0.52597  0.85348  1.0000
  H   H406      1.0  0.30951  0.52512  0.58806  1.0000
  H   H407      1.0  0.28254  0.53421  0.69262  1.0000
  H   H408      1.0  0.29375  0.61898  0.75070  1.0000
  C   C519      1.0  0.01868  0.86312  0.78657  1.0000
  C   C520      1.0  0.02181  0.86170  0.74677  1.0000
  C   C521      1.0  0.00916  0.86098  0.71967  1.0000
  C   C522      1.0  0.00300  0.70857  0.97182  1.0000
  H   H409      1.0  0.03412  0.86142  0.73677  1.0000
  H   H410      1.0  0.01179  0.86023  0.68916  1.0000
  C   C523      1.0  0.00943  0.93273  0.79618  1.0000
  S   S83       1.0  0.00280  0.67154  0.96854  1.0000
  H   H411      1.0  0.32162  0.71099  0.72749  1.0000
  H   H412      1.0  0.32056  0.72425  0.48916  1.0000
  C   C524      1.0  0.27888  0.71700  0.80510  1.0000
  S   S84       1.0  0.31896  0.84248  0.78796  1.0000
  C   C525      1.0  0.19763  0.94695  0.86647  1.0000
  C   C526      1.0  0.28183  0.77615  0.73533  1.0000
  H   H413      1.0  0.04886  0.68132  0.94339  1.0000
  S   S85       1.0  0.32203  0.79272  0.69787  1.0000
  H   H414      1.0  0.28508  0.80610  0.82598  1.0000
  C   C527      1.0  0.24640  0.86513  0.92954  1.0000
  C   C528      1.0  0.26212  0.85455  0.92546  1.0000
  C   C529      1.0  0.27129  0.85925  0.89162  1.0000
  C   C530      1.0  0.26483  0.87431  0.86078  1.0000
  C   C531      1.0  0.24924  0.88542  0.86528  1.0000
  C   C532      1.0  0.24016  0.88099  0.89922  1.0000
  H   H415      1.0  0.29256  0.70813  0.67890  1.0000
  H   H416      1.0  0.28327  0.85075  0.88916  1.0000
  H   H417      1.0  0.24405  0.89743  0.84210  1.0000
  P   P18       1.0  0.22603  0.80355  0.80870  1.0000
  H   H418      1.0  0.02447  0.76470  0.93833  1.0000
  H   H419      1.0  0.23589  0.87557  0.68045  1.0000
  C   C533      1.0  0.01527  0.98791  0.95889  1.0000
  C   C534      1.0  0.00073  0.76787  0.84719  1.0000
  C   C535      1.0  0.27372  0.79973  0.83844  1.0000
  C   C536      1.0  0.32696  0.76622  0.80852  1.0000
  H   H420      1.0  0.25122  0.95911  0.85504  1.0000
  H   H421      1.0  0.29525  0.66365  0.64375  1.0000
  H   H422      1.0  0.04737  0.76336  0.85137  1.0000
  H   H423      1.0  0.27414  0.95329  0.96638  1.0000
  C   C537      1.0  0.27320  0.78858  0.87552  1.0000
  H   H424      1.0  0.13942  0.79136  0.95361  1.0000
  C   C538      1.0  0.28706  0.70826  0.83832  1.0000
  H   H425      1.0  0.03414  0.80909  0.84323  1.0000
  H   H426      1.0  0.22812  0.88909  0.90134  1.0000
  H   H427      1.0  0.21325  0.80316  0.72896  1.0000
  C   C539      1.0  0.26060  0.95700  0.91327  1.0000
  C   C540      1.0  0.29436  0.66363  0.67495  1.0000
  C   C541      1.0  0.24087  0.86801  0.74034  1.0000
  C   C542      1.0  0.12110  0.85819  0.94247  1.0000
  C   C543      1.0  0.28861  0.93678  0.87779  1.0000
  H   H428      1.0  0.09606  0.85539  0.92551  1.0000
  C   C544      1.0  0.22737  0.75634  0.76208  1.0000
  H   H429      1.0  0.02700  0.94771  0.88227  1.0000
  C   C545      1.0  0.25845  0.78152  0.89203  1.0000
  C   C546      1.0  0.26228  0.72173  0.80703  1.0000
  Fe  Fe45      1.0  0.02182  0.83662  0.95620  1.0000
  H   H430      1.0  0.01242  0.92494  0.76770  1.0000
  C   C547      1.0  0.30527  0.51680  0.61514  1.0000
  C   C548      1.0  0.05311  0.67755  0.97243  1.0000
  C   C549      1.0  0.02510  0.74029  0.85318  1.0000
  H   H431      1.0  0.20768  0.69395  0.76199  1.0000
  C   C550      1.0  0.02146  0.93537  0.82402  1.0000
  H   H432      1.0  0.29125  0.78384  0.75404  1.0000
  C   C551      1.0  0.03439  0.76451  0.85022  1.0000
  C   C552      1.0  0.99726  0.52642  0.95335  1.0000
  H   H433      1.0  0.23286  0.78021  0.88484  1.0000
  C   C553      1.0  0.03837  0.50978  0.57251  1.0000
  C   C554      1.0  0.20774  0.54616  0.90994  1.0000
  C   C555      1.0  0.10435  0.85987  0.94874  1.0000
  C   C556      1.0  0.31168  0.75544  0.80063  1.0000
  P   P19       1.0  0.24289  0.97137  0.93604  1.0000
  C   C557      1.0  0.21570  0.52097  0.91673  1.0000
  H   H434      1.0  0.29986  0.70425  0.83749  1.0000
  H   H435      1.0  0.00006  0.86468  0.82951  1.0000
  C   C558      1.0  0.22299  0.72934  0.75065  1.0000
  C   C559      1.0  0.27873  0.74741  0.73162  1.0000
  C   C560      1.0  0.20800  0.75441  0.81406  1.0000
  H   H436      1.0  0.19453  0.71607  0.81855  1.0000
  H   H437      1.0  0.21806  0.83418  0.67356  1.0000
  C   C561      1.0  0.29279  0.68887  0.69493  1.0000
  S   S86       1.0  0.00561  0.93434  0.98025  1.0000
  C   C562      1.0  0.03166  0.50724  0.65141  1.0000
  C   C563      1.0  0.24419  0.78578  0.87156  1.0000
  C   C564      1.0  0.13213  0.86380  0.97233  1.0000
  H   H438      1.0  0.24858  0.88619  0.74366  1.0000
  H   H439      1.0  0.07494  0.51578  0.94635  1.0000
  C   C565      1.0  0.30690  0.98605  0.67987  1.0000
  H   H440      1.0  0.29922  0.92823  0.86401  1.0000
  H   H441      1.0  0.28421  0.78599  0.89176  1.0000
  C   C566      1.0  0.23814  0.85056  0.77181  1.0000
  C   C567      1.0  0.29187  0.66388  0.75531  1.0000
  C   C568      1.0  0.22120  0.82090  0.73241  1.0000
  H   H442      1.0  0.23683  0.76716  0.74675  1.0000
  H   H443      1.0  0.04704  0.55137  0.58394  1.0000
  C   C569      1.0  0.20145  0.93251  0.90010  1.0000
  H   H444      1.0  0.12554  0.85254  0.91423  1.0000
  H   H445      1.0  0.17055  0.83539  0.83420  1.0000
  C   C570      1.0  0.21109  0.71488  0.77087  1.0000
  H   H446      1.0  0.19558  0.52302  0.48378  1.0000
  H   H447      1.0  0.31921  0.98844  0.49260  1.0000
  H   H448      1.0  0.29840  0.93439  0.93502  1.0000
  H   H449      1.0  0.29576  0.61885  0.67935  1.0000
  H   H450      1.0  0.30151  0.76312  0.81686  1.0000
  C   C571      1.0  0.20179  0.84302  0.89640  1.0000
  H   H451      1.0  0.99906  0.95937  0.89872  1.0000
  C   C572      1.0  0.20749  0.96878  0.85400  1.0000
  C   C573      1.0  0.01449  0.72384  0.95088  1.0000
  C   C574      1.0  0.29137  0.68927  0.73519  1.0000
  H   H452      1.0  0.25802  0.77331  0.92104  1.0000
  C   C575      1.0  0.30954  0.73528  0.77155  1.0000
  C   C576      1.0  0.04190  0.53259  0.59626  1.0000
  H   H453      1.0  0.19380  0.91559  0.90982  1.0000
  H   H454      1.0  0.20454  0.85145  0.92471  1.0000
  C   C577      1.0  0.27874  0.70467  0.87298  1.0000
  C   C578      1.0  0.26222  0.70961  0.87466  1.0000
  C   C579      1.0  0.99897  0.99332  0.51566  1.0000
  C   C580      1.0  0.27422  0.95050  0.93543  1.0000
  S   S87       1.0  0.31535  0.62851  0.58312  1.0000
  H   H455      1.0  0.21609  0.60318  0.50845  1.0000
  C   C581      1.0  0.21965  0.76930  0.79326  1.0000
  H   H456      1.0  0.25580  0.70697  0.90158  1.0000
  H   H457      1.0  0.24452  0.58987  0.49723  1.0000
  H   H458      1.0  0.07914  0.56645  0.94752  1.0000
  C   C582      1.0  0.00503  0.76746  0.97894  1.0000
  H   H459      1.0  0.04069  0.51100  0.54179  1.0000
  H   H460      1.0  0.24362  0.85564  0.79914  1.0000
  H   H461      1.0  0.01336  0.72702  0.53905  1.0000
  H   H462      1.0  0.26133  0.51154  0.61127  1.0000
  H   H463      1.0  0.00467  0.81240  0.84108  1.0000
  S   S88       1.0  0.31691  0.93215  0.65836  1.0000
  C   C583      1.0  0.01767  0.94526  0.86079  1.0000
  H   H464      1.0  0.26723  0.84240  0.94859  1.0000
  C   C584      1.0  0.21899  0.58800  0.48633  1.0000
  C   C585      1.0  0.22875  0.82641  0.76787  1.0000
  H   H465      1.0  0.22887  0.71957  0.72623  1.0000
  C   C586      1.0  0.28808  0.94008  0.91775  1.0000
  H   H466      1.0  0.02920  0.50680  0.68194  1.0000
  C   C587      1.0  0.27534  0.94412  0.85546  1.0000
  H   H467      1.0  0.00783  0.51621  0.89827  1.0000
  C   C588      1.0  0.29467  0.63845  0.69504  1.0000
  C   C589      1.0  0.31553  0.98009  0.61403  1.0000
  C   C590      1.0  0.21394  0.83074  0.87434  1.0000
  C   C591      1.0  0.21513  0.93984  0.92132  1.0000
  H   H468      1.0  0.19124  0.56815  0.87317  1.0000
  H   H469      1.0  0.25572  0.72836  0.78188  1.0000
  C   C592      1.0  0.27295  0.79548  0.71408  1.0000
  C   C593      1.0  0.26116  0.78634  0.68835  1.0000
  C   C594      1.0  0.25802  0.75781  0.68429  1.0000
  C   C595      1.0  0.26655  0.73845  0.70631  1.0000
  C   C596      1.0  0.18268  0.83395  0.84537  1.0000
  C   C597      1.0  0.24456  0.79787  0.83478  1.0000
  C   C598      1.0  0.25950  0.80403  0.81795  1.0000
  C   C599      1.0  0.02692  0.79035  0.84580  1.0000
  C   C600      1.0  0.29348  0.63858  0.73523  1.0000
  C   C601      1.0  0.18615  0.84455  0.88202  1.0000
  P   P20       1.0  0.28963  0.72230  0.76048  1.0000
  C   C602      1.0  0.19743  0.54864  0.87837  1.0000
  C   C603      1.0  0.19483  0.82163  0.82322  1.0000
  H   H470      1.0  0.21784  0.92823  0.94715  1.0000
  C   C604      1.0  0.20366  0.72736  0.80267  1.0000
  C   C605      1.0  0.23377  0.86196  0.70482  1.0000
  H   H471      1.0  0.02749  0.82062  0.49352  1.0000
  C   C606      1.0  0.00179  0.95179  0.87008  1.0000
  H   H472      1.0  0.17674  0.85403  0.89929  1.0000
  H   H473      1.0  0.20451  0.97998  0.82791  1.0000
  C   C607      1.0  0.21325  0.49795  0.89219  1.0000
  H   H474      1.0  0.27552  0.81757  0.71687  1.0000
  H   H475      1.0  0.25465  0.80139  0.67115  1.0000
  H   H476      1.0  0.24908  0.75067  0.66378  1.0000
  H   H477      1.0  0.26374  0.71648  0.70314  1.0000
  C   C608      1.0  0.25398  0.71806  0.84165  1.0000
  H   H478      1.0  0.22595  0.83024  0.88600  1.0000
  H   H479      1.0  0.27575  0.94123  0.82447  1.0000
  C   C609      1.0  0.03867  0.53124  0.63572  1.0000
  H   H480      1.0  0.32203  0.70412  0.62462  1.0000
  H   H481      1.0  0.24118  0.72203  0.84292  1.0000
  C   C610      1.0  0.22380  0.83855  0.70095  1.0000
  H   H482      1.0  0.28513  0.69811  0.89859  1.0000
  H   H483      1.0  0.29103  0.66347  0.78637  1.0000
  H   H484      1.0  0.15775  0.98796  0.51901  1.0000
  H   H485      1.0  0.11177  0.77977  0.97498  1.0000
  C   C611      1.0  0.32294  0.72605  0.75057  1.0000
  H   H486      1.0  0.30470  0.97765  0.70825  1.0000
  H   H487      1.0  0.31994  0.96677  0.59119  1.0000
  H   H488      1.0  0.02554  0.97825  0.94526  1.0000
  H   H489      1.0  0.22373  0.51940  0.94121  1.0000
  C   C612      1.0  0.00834  0.74191  0.85168  1.0000
  C   C613      1.0  0.00508  0.72696  0.51504  1.0000
  C   C614      1.0  0.00490  0.50855  0.92669  1.0000
  C   C615      1.0  0.26137  0.95410  0.87304  1.0000
  H   H490      1.0  0.18717  0.52791  0.82893  1.0000
  C   C616      1.0  0.00393  0.97130  0.97781  1.0000
  S   S89       1.0  0.15314  0.86136  0.96273  1.0000
  H   H491      1.0  0.27830  0.51019  0.55297  1.0000
  C   C617      1.0  0.22117  0.97616  0.87516  1.0000
  H   H492      1.0  0.99933  0.83640  0.49864  1.0000
  H   H493      1.0  0.24462  0.51306  0.87730  1.0000
  H   H494      1.0  0.02373  0.60442  0.96323  1.0000
  H   H495      1.0  0.27170  0.51480  0.84877  1.0000
  H   H496      1.0  0.01373  0.68747  0.49230  1.0000
  C   C618      1.0  0.00538  0.70447  0.48839  1.0000
  S   S90       1.0  0.23504  0.85717  0.97242  1.0000
  C   C619      1.0  0.20305  0.50072  0.86022  1.0000
  H   H497      1.0  0.24903  0.91641  0.96954  1.0000
  C   C620      1.0  0.26634  0.49484  0.85589  1.0000
  C   C621      1.0  0.08051  0.52510  0.97141  1.0000
  C   C622      1.0  0.06235  0.65397  0.98046  1.0000
  H   H498      1.0  0.32548  0.75165  0.54871  1.0000
  C   C623      1.0  0.29435  0.49439  0.68514  1.0000
  H   H499      1.0  0.22868  0.99313  0.86508  1.0000
  S   S91       1.0  0.52089  0.37404  0.44625  1.0000
  Fe  Fe46      1.0  0.44296  0.10235  0.42744  1.0000
  S   S92       1.0  0.41564  0.09767  0.42010  1.0000
  Fe  Fe47      1.0  0.47467  0.09840  0.38171  1.0000
  S   S93       1.0  0.48954  0.10423  0.43551  1.0000
  S   S94       1.0  0.48836  0.08395  0.32777  1.0000
  C   C624      1.0  0.53134  0.26215  0.05139  1.0000
  H   H500      1.0  0.51004  0.45369  0.19790  1.0000
  Fe  Fe48      1.0  0.47197  0.13797  0.45187  1.0000
  H   H501      1.0  0.61823  0.04185  0.19589  1.0000
  S   S95       1.0  0.45857  0.06608  0.40910  1.0000
  S   S96       1.0  0.45809  0.13446  0.39595  1.0000
  S   S97       1.0  0.64146  0.09313  0.12627  1.0000
  C   C625      1.0  0.51878  0.27858  0.06611  1.0000
  Fe  Fe49      1.0  0.52040  0.07320  0.04646  1.0000
  S   S98       1.0  0.53854  0.10414  0.02276  1.0000
  S   S99       1.0  0.52003  0.02625  0.02952  1.0000
  Fe  Fe50      1.0  0.50832  0.11606  0.10654  1.0000
  S   S100      1.0  0.52531  0.14924  0.08576  1.0000
  S   S101      1.0  0.49166  0.12985  0.15539  1.0000
  Fe  Fe51      1.0  0.51833  0.13604  0.02597  1.0000
  C   C626      1.0  0.56508  0.00255  0.25977  1.0000
  Fe  Fe52      1.0  0.54413  0.11542  0.08465  1.0000
  S   S102      1.0  0.56700  0.12728  0.11872  1.0000
  S   S103      1.0  0.50010  0.10432  0.04647  1.0000
  S   S104      1.0  0.52720  0.08293  0.10840  1.0000
  C   C627      1.0  0.62084  0.10328  0.12461  1.0000
  C   C628      1.0  0.61382  0.12028  0.15282  1.0000
  C   C629      1.0  0.59738  0.12740  0.15039  1.0000
  C   C630      1.0  0.58772  0.11780  0.11972  1.0000
  C   C631      1.0  0.59477  0.10102  0.09132  1.0000
  C   C632      1.0  0.61117  0.09370  0.09392  1.0000
  H   H502      1.0  0.62105  0.12788  0.17656  1.0000
  H   H503      1.0  0.59210  0.14039  0.17255  1.0000
  H   H504      1.0  0.58763  0.09386  0.06722  1.0000
  H   H505      1.0  0.61645  0.08066  0.07181  1.0000
  C   C633      1.0  0.48893  0.09714  0.28000  1.0000
  C   C634      1.0  0.48202  0.12269  0.27000  1.0000
  C   C635      1.0  0.48306  0.13242  0.23176  1.0000
  C   C636      1.0  0.49103  0.11681  0.20317  1.0000
  C   C637      1.0  0.49792  0.09123  0.21315  1.0000
  C   C638      1.0  0.49686  0.08149  0.25136  1.0000
  H   H506      1.0  0.47589  0.13494  0.29170  1.0000
  H   H507      1.0  0.47757  0.15211  0.22426  1.0000
  H   H508      1.0  0.50409  0.07901  0.19149  1.0000
  H   H509      1.0  0.50225  0.06173  0.25881  1.0000
  C   C639      1.0  0.53018  0.22294  0.11838  1.0000
  H   H510      1.0  0.54857  0.16601  0.98512  1.0000
  H   H511      1.0  0.59495  0.26059  0.18834  1.0000
  H   H512      1.0  0.61494  0.29913  0.18666  1.0000
  H   H513      1.0  0.64010  0.42456  0.30791  1.0000
  C   C640      1.0  0.64045  0.03755  0.36718  1.0000
  H   H514      1.0  0.63819  0.01020  0.41554  1.0000
  C   C641      1.0  0.46467  0.12746  0.99927  1.0000
  H   H515      1.0  0.46928  0.99565  0.04361  1.0000
  H   H516      1.0  0.45795  0.46455  0.36324  1.0000
  C   C642      1.0  0.41039  0.46013  0.46201  1.0000
  C   C643      1.0  0.39934  0.10816  0.45027  1.0000
  C   C644      1.0  0.63614  0.35390  0.30349  1.0000
  H   H517      1.0  0.65498  0.38264  0.28724  1.0000
  C   C645      1.0  0.61508  0.38279  0.43178  1.0000
  H   H518      1.0  0.52931  0.03713  0.25680  1.0000
  H   H519      1.0  0.50070  0.03151  0.35759  1.0000
  C   C646      1.0  0.43656  0.47882  0.47874  1.0000
  H   H520      1.0  0.62356  0.39235  0.41222  1.0000
  H   H521      1.0  0.55057  0.01809  0.06515  1.0000
  H   H522      1.0  0.50874  0.22316  0.08295  1.0000
  C   C647      1.0  0.59089  0.26422  0.24943  1.0000
  H   H523      1.0  0.50387  0.18230  0.19200  1.0000
  C   C648      1.0  0.59347  0.04799  0.39968  1.0000
  C   C649      1.0  0.57736  0.30366  0.13958  1.0000
  H   H524      1.0  0.49655  0.20911  0.02041  1.0000
  C   C650      1.0  0.48637  0.01323  0.08341  1.0000
  C   C651      1.0  0.57096  0.27140  0.08782  1.0000
  H   H525      1.0  0.38145  0.09421  0.40955  1.0000
  H   H526      1.0  0.65694  0.30134  0.41916  1.0000
  H   H527      1.0  0.64718  0.05319  0.38312  1.0000
  C   C652      1.0  0.56423  0.04413  0.10382  1.0000
  C   C653      1.0  0.55239  0.02449  0.09482  1.0000
  C   C654      1.0  0.51997  0.48052  0.34441  1.0000
  C   C655      1.0  0.47187  0.01281  0.06316  1.0000
  C   C656      1.0  0.55691  0.04168  0.17151  1.0000
  C   C657      1.0  0.56640  0.05288  0.14191  1.0000
  P   P21       1.0  0.55998  0.05278  0.22087  1.0000
  C   C658      1.0  0.58103  0.06121  0.22777  1.0000
  C   C659      1.0  0.54789  0.08326  0.23101  1.0000
  C   C660      1.0  0.54362  0.10138  0.20115  1.0000
  C   C661      1.0  0.53380  0.12441  0.20838  1.0000
  C   C662      1.0  0.52832  0.12978  0.24572  1.0000
  C   C663      1.0  0.53284  0.11226  0.27592  1.0000
  C   C664      1.0  0.54273  0.08923  0.26873  1.0000
  C   C665      1.0  0.59297  0.04540  0.20918  1.0000
  C   C666      1.0  0.60913  0.05327  0.21180  1.0000
  C   C667      1.0  0.61355  0.07666  0.23351  1.0000
  C   C668      1.0  0.60182  0.09220  0.25272  1.0000
  C   C669      1.0  0.58561  0.08461  0.24980  1.0000
  H   H528      1.0  0.43199  0.24129  0.45941  1.0000
  C   C670      1.0  0.49800  0.21663  0.99133  1.0000
  S   S105      1.0  0.65933  0.11324  0.23122  1.0000
  H   H529      1.0  0.40598  0.03993  0.46206  1.0000
  C   C671      1.0  0.54127  0.05947  0.46460  1.0000
  C   C672      1.0  0.50965  0.47427  0.21094  1.0000
  C   C673      1.0  0.58730  0.37784  0.45540  1.0000
  C   C674      1.0  0.63451  0.40414  0.31045  1.0000
  C   C675      1.0  0.42153  0.17971  0.45651  1.0000
  H   H530      1.0  0.40761  0.48928  0.39369  1.0000
  H   H531      1.0  0.59236  0.29676  0.08986  1.0000
  H   H532      1.0  0.54775  0.09767  0.17213  1.0000
  H   H533      1.0  0.53010  0.13760  0.18467  1.0000
  H   H534      1.0  0.52022  0.14705  0.25105  1.0000
  H   H535      1.0  0.52827  0.11615  0.30470  1.0000
  H   H536      1.0  0.54607  0.07589  0.29247  1.0000
  H   H537      1.0  0.48899  0.25590  0.40174  1.0000
  C   C676      1.0  0.57555  0.17973  0.05632  1.0000
  H   H538      1.0  0.62604  0.08318  0.23450  1.0000
  H   H539      1.0  0.60527  0.11073  0.26876  1.0000
  H   H540      1.0  0.57672  0.09754  0.26384  1.0000
  H   H541      1.0  0.57400  0.26230  0.06014  1.0000
  C   C677      1.0  0.46374  0.48333  0.35272  1.0000
  H   H542      1.0  0.55217  0.43723  0.33273  1.0000
  H   H543      1.0  0.47097  0.47512  0.43237  1.0000
  C   C678      1.0  0.43294  0.42891  0.47097  1.0000
  P   P22       1.0  0.54872  0.02817  0.44133  1.0000
  C   C679      1.0  0.38347  0.10352  0.43758  1.0000
  H   H544      1.0  0.64233  0.05971  0.31344  1.0000
  H   H545      1.0  0.43627  0.13584  0.13143  1.0000
  C   C680      1.0  0.55414  0.02395  0.25132  1.0000
  H   H546      1.0  0.57540  0.06858  0.14815  1.0000
  C   C681      1.0  0.50906  0.01812  0.37276  1.0000
  C   C682      1.0  0.54206  0.44737  0.34652  1.0000
  C   C683      1.0  0.52725  0.28308  0.98848  1.0000
  S   S106      1.0  0.50164  0.30064  0.44782  1.0000
  H   H547      1.0  0.45595  0.07673  0.23850  1.0000
  C   C684      1.0  0.54250  0.01392  0.12382  1.0000
  H   H548      1.0  0.51549  0.27740  0.09622  1.0000
  C   C685      1.0  0.62436  0.99632  0.32489  1.0000
  H   H549      1.0  0.55597  0.33819  0.35783  1.0000
  C   C686      1.0  0.39399  0.20024  0.42032  1.0000
  C   C687      1.0  0.40355  0.18047  0.40165  1.0000
  C   C688      1.0  0.41741  0.17057  0.41952  1.0000
  C   C689      1.0  0.49147  0.47209  0.46994  1.0000
  H   H550      1.0  0.40392  0.02311  0.10173  1.0000
  C   C690      1.0  0.63742  0.30725  0.37946  1.0000
  H   H551      1.0  0.60090  0.05458  0.34094  1.0000
  H   H552      1.0  0.53263  0.19145  0.20614  1.0000
  H   H553      1.0  0.48681  0.46387  0.34798  1.0000
  H   H554      1.0  0.49491  0.99640  0.07970  1.0000
  C   C691      1.0  0.56784  0.20235  0.07388  1.0000
  C   C692      1.0  0.50774  0.00271  0.00184  1.0000
  C   C693      1.0  0.61342  0.30765  0.24755  1.0000
  H   H555      1.0  0.46465  0.14282  0.10897  1.0000
  C   C694      1.0  0.56523  0.03653  0.40926  1.0000
  C   C695      1.0  0.41177  0.19907  0.47593  1.0000
  H   H556      1.0  0.62575  0.25977  0.31139  1.0000
  H   H557      1.0  0.54566  0.25325  0.00059  1.0000
  C   C696      1.0  0.57567  0.04474  0.34480  1.0000
  H   H558      1.0  0.48252  0.46427  0.01630  1.0000
  C   C697      1.0  0.55661  0.26398  0.10644  1.0000
  H   H559      1.0  0.38325  0.20797  0.40639  1.0000
  H   H560      1.0  0.40021  0.17264  0.37343  1.0000
  H   H561      1.0  0.42477  0.15520  0.40495  1.0000
  H   H562      1.0  0.47579  0.00411  0.44128  1.0000
  C   C698      1.0  0.40579  0.08265  0.04874  1.0000
  H   H563      1.0  0.43132  0.03851  0.11935  1.0000
  H   H564      1.0  0.47595  0.16779  0.99375  1.0000
  C   C699      1.0  0.37016  0.11094  0.46071  1.0000
  H   H565      1.0  0.42582  0.11081  0.04670  1.0000
  C   C700      1.0  0.44283  0.45174  0.47917  1.0000
  C   C701      1.0  0.41672  0.43309  0.46237  1.0000
  C   C702      1.0  0.59858  0.38984  0.43003  1.0000
  P   P23       1.0  0.61262  0.31626  0.32752  1.0000
  C   C703      1.0  0.62845  0.29584  0.34901  1.0000
  C   C704      1.0  0.62072  0.35089  0.31949  1.0000
  C   C705      1.0  0.61230  0.37492  0.33103  1.0000
  C   C706      1.0  0.61919  0.40140  0.32650  1.0000
  H   H566      1.0  0.54956  0.21614  0.15883  1.0000
  C   C707      1.0  0.59098  0.04949  0.35996  1.0000
  H   H567      1.0  0.60533  0.05191  0.41145  1.0000
  C   C708      1.0  0.51627  0.47389  0.38276  1.0000
  H   H568      1.0  0.48040  0.20727  0.41617  1.0000
  H   H569      1.0  0.45941  0.06082  0.17167  1.0000
  H   H570      1.0  0.43275  0.15124  0.19891  1.0000
  C   C709      1.0  0.63227  0.26905  0.33514  1.0000
  C   C710      1.0  0.59531  0.31805  0.35893  1.0000
  C   C711      1.0  0.59613  0.30885  0.39725  1.0000
  C   C712      1.0  0.58251  0.30987  0.42079  1.0000
  C   C713      1.0  0.56807  0.32047  0.40657  1.0000
  C   C714      1.0  0.56715  0.32969  0.36853  1.0000
  C   C715      1.0  0.58067  0.32830  0.34467  1.0000
  C   C716      1.0  0.51396  0.21726  0.11028  1.0000
  H   H571      1.0  0.58976  0.27159  0.31037  1.0000
  C   C717      1.0  0.63533  0.01308  0.38542  1.0000
  H   H572      1.0  0.50979  0.45858  0.26876  1.0000
  H   H573      1.0  0.45478  0.27417  0.45710  1.0000
  C   C718      1.0  0.53821  0.02159  0.26432  1.0000
  C   C719      1.0  0.55259  0.27700  0.14144  1.0000
  H   H574      1.0  0.63473  0.32795  0.39038  1.0000
  C   C720      1.0  0.54468  0.02254  0.16205  1.0000
  C   C721      1.0  0.56870  0.16680  0.02413  1.0000
  C   C722      1.0  0.64291  0.38043  0.29868  1.0000
  H   H575      1.0  0.53673  0.01438  0.18391  1.0000
  H   H576      1.0  0.60721  0.30108  0.40934  1.0000
  H   H577      1.0  0.53707  0.47379  0.29823  1.0000
  H   H578      1.0  0.50796  0.31284  0.98442  1.0000
  H   H579      1.0  0.38753  0.05117  0.05652  1.0000
  H   H580      1.0  0.57978  0.33558  0.31526  1.0000
  C   C723      1.0  0.52496  0.45333  0.40220  1.0000
  C   C724      1.0  0.53774  0.43984  0.38398  1.0000
  C   C725      1.0  0.48981  0.24820  0.43092  1.0000
  C   C726      1.0  0.54636  0.19906  0.02704  1.0000
  H   H581      1.0  0.58648  0.17138  0.06867  1.0000
  C   C727      1.0  0.52179  0.02992  0.39352  1.0000
  H   H582      1.0  0.57299  0.21122  0.09981  1.0000
  H   H583      1.0  0.39857  0.09505  0.02930  1.0000
  C   C728      1.0  0.51117  0.19395  0.17176  1.0000
  H   H584      1.0  0.59454  0.40476  0.40888  1.0000
  C   C729      1.0  0.60925  0.29351  0.21362  1.0000
  H   H585      1.0  0.35807  0.10762  0.45025  1.0000
  H   H586      1.0  0.49211  0.19783  0.13036  1.0000
  P   P24       1.0  0.54274  0.24018  0.08345  1.0000
  C   C730      1.0  0.58134  0.29104  0.10449  1.0000
  C   C731      1.0  0.42022  0.48326  0.47049  1.0000
  H   H587      1.0  0.58231  0.24718  0.25025  1.0000
  C   C732      1.0  0.47067  0.15278  0.01338  1.0000
  C   C733      1.0  0.48585  0.21028  0.47658  1.0000
  H   H588      1.0  0.55984  0.30661  0.18507  1.0000
  C   C734      1.0  0.53230  0.01282  0.41453  1.0000
  C   C735      1.0  0.48018  0.48311  0.34441  1.0000
  H   H589      1.0  0.50055  0.30913  0.05323  1.0000
  Fe  Fe53      1.0  0.47257  0.07381  0.46323  1.0000
  C   C736      1.0  0.55983  0.46270  0.47139  1.0000
  H   H590      1.0  0.52176  0.44775  0.43147  1.0000
  H   H591      1.0  0.54435  0.42369  0.39907  1.0000
  C   C737      1.0  0.44407  0.11491  0.22293  1.0000
  H   H592      1.0  0.43791  0.40800  0.47112  1.0000
  C   C738      1.0  0.55338  0.21265  0.05875  1.0000
  C   C739      1.0  0.59509  0.27822  0.28343  1.0000
  H   H593      1.0  0.40908  0.41535  0.45582  1.0000
  C   C740      1.0  0.60632  0.30019  0.28275  1.0000
  H   H594      1.0  0.57373  0.04634  0.31408  1.0000
  H   H595      1.0  0.57151  0.05301  0.08111  1.0000
  C   C741      1.0  0.50450  0.20289  0.13701  1.0000
  H   H596      1.0  0.62231  0.32409  0.24611  1.0000
  C   C742      1.0  0.56284  0.03822  0.36924  1.0000
  H   H597      1.0  0.58977  0.02759  0.19141  1.0000
  H   H598      1.0  0.58531  0.31913  0.15225  1.0000
  C   C743      1.0  0.56301  0.29660  0.15808  1.0000
  H   H599      1.0  0.52319  0.05244  0.39370  1.0000
  C   C744      1.0  0.53690  0.21321  0.15290  1.0000
  C   C745      1.0  0.52737  0.19907  0.17967  1.0000
  H   H600      1.0  0.44265  0.12176  0.25253  1.0000
  C   C746      1.0  0.43860  0.13155  0.19271  1.0000
  C   C747      1.0  0.53572  0.26494  0.01251  1.0000
  H   H601      1.0  0.47551  0.17756  0.06392  1.0000
  C   C748      1.0  0.55122  0.48745  0.46686  1.0000
  C   C749      1.0  0.58064  0.04179  0.42428  1.0000
  H   H602      1.0  0.39783  0.46300  0.45485  1.0000
  H   H603      1.0  0.60067  0.37342  0.34465  1.0000
  H   H604      1.0  0.48548  0.25556  0.00195  1.0000
  C   C750      1.0  0.49021  0.03601  0.10693  1.0000
  C   C751      1.0  0.47941  0.05813  0.11090  1.0000
  C   C752      1.0  0.46450  0.05731  0.09207  1.0000
  C   C753      1.0  0.46100  0.03486  0.06720  1.0000
  P   P25       1.0  0.45077  0.08630  0.09677  1.0000
  C   C754      1.0  0.44872  0.09776  0.14624  1.0000
  C   C755      1.0  0.45802  0.11303  0.06449  1.0000
  C   C756      1.0  0.45845  0.10759  0.02470  1.0000
  H   H605      1.0  0.52109  0.99702  0.29603  1.0000
  H   H606      1.0  0.57443  0.14872  0.01130  1.0000
  C   C757      1.0  0.47041  0.15828  0.05293  1.0000
  C   C758      1.0  0.46415  0.13848  0.07844  1.0000
  C   C759      1.0  0.44075  0.12289  0.15452  1.0000
  C   C760      1.0  0.45157  0.08947  0.21500  1.0000
  C   C761      1.0  0.50966  0.47716  0.25108  1.0000
  C   C762      1.0  0.62950  0.02081  0.30679  1.0000
  C   C763      1.0  0.45377  0.08078  0.17687  1.0000
  C   C764      1.0  0.43078  0.07531  0.08340  1.0000
  C   C765      1.0  0.42132  0.09142  0.05848  1.0000
  H   H607      1.0  0.54130  0.27240  0.15559  1.0000
  C   C766      1.0  0.39955  0.05797  0.06414  1.0000
  C   C767      1.0  0.62061  0.36368  0.45912  1.0000
  C   C768      1.0  0.42431  0.05086  0.09938  1.0000
  C   C769      1.0  0.63768  0.04130  0.32785  1.0000
  H   H608      1.0  0.50175  0.03682  0.12130  1.0000
  H   H609      1.0  0.48272  0.07591  0.12854  1.0000
  H   H610      1.0  0.45004  0.03441  0.05049  1.0000
  H   H611      1.0  0.45429  0.08772  0.01341  1.0000
  H   H612      1.0  0.58272  0.04116  0.45508  1.0000
  H   H613      1.0  0.61284  0.41978  0.33641  1.0000
  C   C770      1.0  0.51463  0.29903  0.00324  1.0000
  C   C771      1.0  0.53334  0.46788  0.32693  1.0000
  S   S107      1.0  0.56657  0.38765  0.45174  1.0000
  H   H614      1.0  0.64817  0.23372  0.34011  1.0000
  C   C772      1.0  0.64495  0.25408  0.35152  1.0000
  C   C773      1.0  0.48492  0.22057  0.43901  1.0000
  H   H615      1.0  0.64314  0.33570  0.29564  1.0000
  H   H616      1.0  0.58324  0.30312  0.45048  1.0000
  C   C774      1.0  0.59802  0.27178  0.21456  1.0000
  C   C775      1.0  0.51040  0.29680  0.04203  1.0000
  C   C776      1.0  0.65003  0.29220  0.39584  1.0000
  H   H617      1.0  0.55111  0.03465  0.35671  1.0000
  H   H618      1.0  0.62775  0.02348  0.27611  1.0000
  H   H619      1.0  0.56280  0.08421  0.45537  1.0000
  H   H620      1.0  0.53473  0.20545  0.01630  1.0000
  C   C777      1.0  0.55412  0.17649  0.00947  1.0000
  C   C778      1.0  0.49583  0.26589  0.46010  1.0000
  S   S108      1.0  0.49109  0.43486  0.46931  1.0000
  H   H621      1.0  0.65620  0.07123  0.05306  1.0000
  H   H622      1.0  0.56392  0.45109  0.44638  1.0000
  S   S109      1.0  0.64137  0.35429  0.46356  1.0000
  C   C779      1.0  0.39817  0.20979  0.45710  1.0000
  C   C780      1.0  0.55079  0.08370  0.46708  1.0000
  H   H623      1.0  0.55767  0.32206  0.42529  1.0000
  H   H624      1.0  0.53293  0.99950  0.11632  1.0000
  H   H625      1.0  0.33929  0.06681  0.45658  1.0000
  C   C781      1.0  0.53343  0.99865  0.28630  1.0000
  C   C782      1.0  0.65390  0.26572  0.38167  1.0000
  C   C783      1.0  0.40879  0.04214  0.08957  1.0000
  H   H626      1.0  0.50661  0.48447  0.39764  1.0000
  H   H627      1.0  0.43225  0.17139  0.46974  1.0000
  C   C784      1.0  0.47982  0.48673  0.44866  1.0000
  C   C785      1.0  0.49100  0.47245  0.99561  1.0000
  C   C786      1.0  0.33960  0.04871  0.47520  1.0000
  H   H628      1.0  0.57729  0.00337  0.24920  1.0000
  H   H629      1.0  0.39067  0.22534  0.47079  1.0000
  C   C787      1.0  0.32815  0.02755  0.47081  1.0000
  H   H630      1.0  0.44607  0.41983  0.99249  1.0000
  C   C788      1.0  0.52563  0.05995  0.47990  1.0000
  H   H631      1.0  0.51785  0.04183  0.47782  1.0000
  C   C789      1.0  0.55491  0.00377  0.47825  1.0000
  S   S110      1.0  0.35398  0.39847  0.80693  1.0000
  S   S111      1.0  0.35640  0.13293  0.52794  1.0000
  Fe  Fe54      1.0  0.47554  0.39141  0.90732  1.0000
  S   S112      1.0  0.49275  0.36294  0.87550  1.0000
  S   S113      1.0  0.48232  0.42614  0.95169  1.0000
  Fe  Fe55      1.0  0.44544  0.35773  0.87743  1.0000
  S   S114      1.0  0.46105  0.32762  0.84487  1.0000
  S   S115      1.0  0.41845  0.34672  0.87772  1.0000
  Fe  Fe56      1.0  0.47737  0.32680  0.89693  1.0000
  C   C790      1.0  0.39874  0.22268  0.54789  1.0000
  Fe  Fe57      1.0  0.47500  0.36566  0.82590  1.0000
  S   S116      1.0  0.47675  0.37584  0.76132  1.0000
  S   S117      1.0  0.46096  0.35521  0.93067  1.0000
  S   S118      1.0  0.45852  0.39589  0.85678  1.0000
  C   C791      1.0  0.33815  0.27962  0.84801  1.0000
  H   H632      1.0  0.42073  0.44807  0.86946  1.0000
  Fe  Fe58      1.0  0.52253  0.36623  0.55625  1.0000
  S   S119      1.0  0.49924  0.36414  0.52342  1.0000
  S   S120      1.0  0.52554  0.35815  0.62088  1.0000
  H   H633      1.0  0.39039  0.13588  0.53822  1.0000
  H   H634      1.0  0.36064  0.34556  0.84712  1.0000
  C   C792      1.0  0.35037  0.06694  0.67660  1.0000
  C   C793      1.0  0.44207  0.17580  0.54493  1.0000
  S   S121      1.0  0.53592  0.33698  0.51601  1.0000
  S   S122      1.0  0.53128  0.40522  0.52602  1.0000
  C   C794      1.0  0.57513  0.47534  0.61562  1.0000
  C   C795      1.0  0.52917  0.43591  0.67525  1.0000
  H   H635      1.0  0.34605  0.07672  0.70280  1.0000
  H   H636      1.0  0.34169  0.06417  0.58114  1.0000
  C   C796      1.0  0.36569  0.27365  0.82698  1.0000
  H   H637      1.0  0.36947  0.28583  0.66646  1.0000
  H   H638      1.0  0.44948  0.18835  0.52598  1.0000
  H   H639      1.0  0.39517  0.48721  0.52854  1.0000
  C   C797      1.0  0.43209  0.23771  0.52177  1.0000
  H   H640      1.0  0.40389  0.16904  0.57912  1.0000
  S   S123      1.0  0.48517  0.28691  0.93019  1.0000
  C   C798      1.0  0.50757  0.21026  0.92639  1.0000
  C   C799      1.0  0.50145  0.23668  0.91591  1.0000
  H   H641      1.0  0.51367  0.19769  0.90498  1.0000
  H   H642      1.0  0.50303  0.24406  0.88683  1.0000
  C   C800      1.0  0.38519  0.03581  0.54677  1.0000
  C   C801      1.0  0.44005  0.42671  0.96653  1.0000
  H   H643      1.0  0.38596  0.32645  0.87445  1.0000
  H   H644      1.0  0.40869  0.26187  0.56860  1.0000
  H   H645      1.0  0.42486  0.31292  0.80943  1.0000
  H   H646      1.0  0.37288  0.33353  0.77175  1.0000
  C   C802      1.0  0.51359  0.44776  0.61892  1.0000
  C   C803      1.0  0.36716  0.20106  0.66545  1.0000
  C   C804      1.0  0.49070  0.37109  0.72300  1.0000
  C   C805      1.0  0.48597  0.37819  0.68536  1.0000
  C   C806      1.0  0.49646  0.37453  0.65381  1.0000
  C   C807      1.0  0.51183  0.36356  0.65954  1.0000
  C   C808      1.0  0.51658  0.35657  0.69721  1.0000
  C   C809      1.0  0.50611  0.36034  0.72879  1.0000
  H   H647      1.0  0.47406  0.38645  0.68051  1.0000
  H   H648      1.0  0.49265  0.38009  0.62508  1.0000
  H   H649      1.0  0.52845  0.34811  0.70199  1.0000
  H   H650      1.0  0.50996  0.35487  0.75753  1.0000
  H   H651      1.0  0.43545  0.26663  0.82708  1.0000
  C   C810      1.0  0.35436  0.27547  0.85664  1.0000
  C   C811      1.0  0.42049  0.41892  0.91618  1.0000
  H   H652      1.0  0.33274  0.08688  0.64092  1.0000
  H   H653      1.0  0.36510  0.18435  0.64480  1.0000
  H   H654      1.0  0.46533  0.12294  0.96871  1.0000
  H   H655      1.0  0.35885  0.24863  0.59456  1.0000
  H   H656      1.0  0.41725  0.00420  0.54670  1.0000
  C   C812      1.0  0.38925  0.03101  0.50798  1.0000
  C   C813      1.0  0.37199  0.38188  0.82292  1.0000
  C   C814      1.0  0.38679  0.39577  0.81784  1.0000
  C   C815      1.0  0.40123  0.38470  0.83270  1.0000
  C   C816      1.0  0.40102  0.35991  0.85392  1.0000
  C   C817      1.0  0.38630  0.34565  0.85818  1.0000
  C   C818      1.0  0.37189  0.35645  0.84270  1.0000
  H   H657      1.0  0.38702  0.41551  0.80282  1.0000
  H   H658      1.0  0.41242  0.39591  0.82903  1.0000
  C   C819      1.0  0.34287  0.07275  0.64160  1.0000
  H   H659      1.0  0.34072  0.28424  0.75068  1.0000
  H   H660      1.0  0.42026  0.22368  0.80937  1.0000
  H   H661      1.0  0.36452  0.32908  0.63065  1.0000
  C   C820      1.0  0.43742  0.24812  0.48617  1.0000
  Fe  Fe59      1.0  0.32883  0.12767  0.52987  1.0000
  S   S124      1.0  0.48199  0.04173  0.50643  1.0000
  S   S125      1.0  0.32928  0.38076  0.71879  1.0000
  H   H662      1.0  0.34339  0.19829  0.68968  1.0000
  C   C821      1.0  0.35740  0.23064  0.71717  1.0000
  H   H663      1.0  0.44497  0.11753  0.60008  1.0000
  C   C822      1.0  0.36086  0.27623  0.78831  1.0000
  C   C823      1.0  0.36998  0.24142  0.58170  1.0000
  C   C824      1.0  0.57083  0.41944  0.58534  1.0000
  H   H664      1.0  0.53433  0.01131  0.51519  1.0000
  C   C825      1.0  0.59440  0.39137  0.57095  1.0000
  C   C826      1.0  0.58579  0.36711  0.57972  1.0000
  C   C827      1.0  0.56971  0.36892  0.59096  1.0000
  C   C828      1.0  0.56227  0.39496  0.59373  1.0000
  H   H665      1.0  0.50205  0.44964  0.60468  1.0000
  H   H666      1.0  0.64722  0.31434  0.59957  1.0000
  C   C829      1.0  0.37256  0.12280  0.49715  1.0000
  C   C830      1.0  0.54474  0.10792  0.48445  1.0000
  C   C831      1.0  0.42339  0.14179  0.59241  1.0000
  H   H667      1.0  0.36841  0.37673  0.73522  1.0000
  H   H668      1.0  0.41381  0.12388  0.49693  1.0000
  H   H669      1.0  0.35960  0.20299  0.56039  1.0000
  H   H670      1.0  0.64607  0.35339  0.55275  1.0000
  S   S126      1.0  0.51372  0.16579  0.97464  1.0000
  H   H671      1.0  0.59147  0.34687  0.57698  1.0000
  H   H672      1.0  0.56286  0.35016  0.59717  1.0000
  H   H673      1.0  0.59373  0.43605  0.56652  1.0000
  C   C832      1.0  0.39534  0.05257  0.56958  1.0000
  C   C833      1.0  0.51973  0.08406  0.49768  1.0000
  C   C834      1.0  0.43963  0.13569  0.58671  1.0000
  C   C835      1.0  0.51430  0.43930  0.65732  1.0000
  C   C836      1.0  0.35140  0.02394  0.52915  1.0000
  C   C837      1.0  0.54336  0.44106  0.65486  1.0000
  C   C838      1.0  0.43989  0.24638  0.55568  1.0000
  C   C839      1.0  0.55753  0.46679  0.54107  1.0000
  C   C840      1.0  0.36835  0.03500  0.64400  1.0000
  C   C841      1.0  0.48871  0.00754  0.49474  1.0000
  H   H674      1.0  0.35819  0.27392  0.88638  1.0000
  C   C842      1.0  0.42574  0.18205  0.55025  1.0000
  C   C843      1.0  0.38187  0.21520  0.66619  1.0000
  C   C844      1.0  0.58697  0.41747  0.57385  1.0000
  C   C845      1.0  0.44530  0.45091  0.94794  1.0000
  C   C846      1.0  0.45816  0.47349  0.84860  1.0000
  C   C847      1.0  0.38842  0.12723  0.50990  1.0000
  C   C848      1.0  0.56300  0.45242  0.50822  1.0000
  C   C849      1.0  0.45278  0.26515  0.55403  1.0000
  C   C850      1.0  0.38389  0.25780  0.58403  1.0000
  C   C851      1.0  0.48283  0.45081  0.82806  1.0000
  C   C852      1.0  0.51284  0.49405  0.94280  1.0000
  C   C853      1.0  0.38465  0.20643  0.54564  1.0000
  C   C854      1.0  0.34798  0.05965  0.60770  1.0000
  Fe  Fe60      1.0  0.32944  0.38406  0.78311  1.0000
  H   H675      1.0  0.37816  0.27072  0.83466  1.0000
  H   H676      1.0  0.46823  0.28943  0.51704  1.0000
  C   C855      1.0  0.32828  0.00459  0.49552  1.0000
  H   H677      1.0  0.58431  0.34882  0.50177  1.0000
  C   C856      1.0  0.52774  0.45282  0.59839  1.0000
  C   C857      1.0  0.49348  0.45780  0.96075  1.0000
  H   H678      1.0  0.41606  0.12835  0.61030  1.0000
  H   H679      1.0  0.52440  0.12697  0.51267  1.0000
  H   H680      1.0  0.49245  0.22039  0.53508  1.0000
  H   H681      1.0  0.52967  0.42847  0.70467  1.0000
  C   C858      1.0  0.42764  0.41071  0.95066  1.0000
  P   P26       1.0  0.56131  0.45326  0.58897  1.0000
  H   H682      1.0  0.55469  0.43735  0.66902  1.0000
  C   C859      1.0  0.49334  0.25335  0.94285  1.0000
  P   P27       1.0  0.36667  0.02155  0.56594  1.0000
  H   H683      1.0  0.34763  0.23628  0.73608  1.0000
  H   H684      1.0  0.38457  0.18671  0.53016  1.0000
  C   C860      1.0  0.43828  0.45917  0.91308  1.0000
  C   C861      1.0  0.65805  0.32100  0.58493  1.0000
  C   C862      1.0  0.34463  0.28123  0.78009  1.0000
  H   H685      1.0  0.39121  0.20950  0.64591  1.0000
  H   H686      1.0  0.38349  0.27787  0.59848  1.0000
  H   H687      1.0  0.50133  0.26889  0.52051  1.0000
  H   H688      1.0  0.54979  0.39582  0.60209  1.0000
  C   C863      1.0  0.38430  0.23725  0.69215  1.0000
  H   H689      1.0  0.39933  0.31710  0.77500  1.0000
  C   C864      1.0  0.41507  0.32994  0.69211  1.0000
  C   C865      1.0  0.41704  0.35021  0.72084  1.0000
  C   C866      1.0  0.43101  0.35056  0.74313  1.0000
  C   C867      1.0  0.44296  0.33057  0.73696  1.0000
  C   C868      1.0  0.44101  0.30989  0.70854  1.0000
  C   C869      1.0  0.42705  0.30997  0.68574  1.0000
  P   P28       1.0  0.45664  0.28438  0.70001  1.0000
  C   C870      1.0  0.47005  0.29616  0.66246  1.0000
  C   C871      1.0  0.46804  0.27985  0.74395  1.0000
  C   C872      1.0  0.48077  0.29815  0.75240  1.0000
  C   C873      1.0  0.48934  0.29569  0.78681  1.0000
  C   C874      1.0  0.48522  0.27500  0.81326  1.0000
  C   C875      1.0  0.47261  0.25657  0.80512  1.0000
  C   C876      1.0  0.46404  0.25892  0.77057  1.0000
  C   C877      1.0  0.48561  0.28498  0.65979  1.0000
  C   C878      1.0  0.49596  0.29340  0.63036  1.0000
  C   C879      1.0  0.49085  0.31284  0.60320  1.0000
  C   C880      1.0  0.47543  0.32418  0.60567  1.0000
  C   C881      1.0  0.46506  0.31600  0.63531  1.0000
  C   C882      1.0  0.44769  0.25136  0.68617  1.0000
  C   C883      1.0  0.43335  0.24247  0.70358  1.0000
  C   C884      1.0  0.42657  0.21663  0.69382  1.0000
  C   C885      1.0  0.43393  0.19965  0.66620  1.0000
  C   C886      1.0  0.44816  0.20836  0.64859  1.0000
  C   C887      1.0  0.45507  0.23406  0.65859  1.0000
  H   H690      1.0  0.40425  0.32984  0.67477  1.0000
  H   H691      1.0  0.40774  0.36560  0.72601  1.0000
  H   H692      1.0  0.43264  0.36627  0.76545  1.0000
  H   H693      1.0  0.45365  0.33138  0.75461  1.0000
  H   H694      1.0  0.42546  0.29469  0.66299  1.0000
  H   H695      1.0  0.48386  0.31478  0.73275  1.0000
  H   H696      1.0  0.49888  0.31038  0.79347  1.0000
  H   H697      1.0  0.49150  0.27379  0.84054  1.0000
  H   H698      1.0  0.46937  0.24079  0.82605  1.0000
  H   H699      1.0  0.45423  0.24465  0.76514  1.0000
  H   H700      1.0  0.48980  0.26982  0.68055  1.0000
  H   H701      1.0  0.50809  0.28526  0.62884  1.0000
  H   H702      1.0  0.49906  0.31956  0.58086  1.0000
  H   H703      1.0  0.47168  0.33974  0.58499  1.0000
  H   H704      1.0  0.45327  0.32533  0.63700  1.0000
  H   H705      1.0  0.42757  0.25542  0.72508  1.0000
  H   H706      1.0  0.41572  0.20960  0.70802  1.0000
  H   H707      1.0  0.42872  0.17959  0.65872  1.0000
  H   H708      1.0  0.45394  0.19513  0.62730  1.0000
  H   H709      1.0  0.46617  0.24014  0.64478  1.0000
  H   H710      1.0  0.60098  0.47218  0.69188  1.0000
  C   C888      1.0  0.47637  0.44670  0.79134  1.0000
  C   C889      1.0  0.46068  0.45530  0.78339  1.0000
  C   C890      1.0  0.45154  0.46847  0.81198  1.0000
  H   H711      1.0  0.61336  0.33670  0.50557  1.0000
  C   C891      1.0  0.42594  0.44278  0.89705  1.0000
  Fe  Fe61      1.0  0.54309  0.37580  0.48354  1.0000
  H   H712      1.0  0.52675  0.45830  0.56836  1.0000
  H   H713      1.0  0.47686  0.99959  0.93708  1.0000
  H   H714      1.0  0.50762  0.08424  0.50924  1.0000
  H   H715      1.0  0.47850  0.46562  0.88549  1.0000
  H   H716      1.0  0.49470  0.44301  0.83481  1.0000
  C   C892      1.0  0.54884  0.49168  0.53621  1.0000
  H   H717      1.0  0.45535  0.46231  0.96004  1.0000
  C   C893      1.0  0.44257  0.99592  0.55048  1.0000
  H   H718      1.0  0.37808  0.02010  0.64547  1.0000
  H   H719      1.0  0.48330  0.43587  0.76948  1.0000
  H   H720      1.0  0.45550  0.45097  0.75536  1.0000
  H   H721      1.0  0.43923  0.47407  0.80569  1.0000
  C   C894      1.0  0.35494  0.20885  0.69082  1.0000
  C   C895      1.0  0.39822  0.24853  0.56716  1.0000
  P   P29       1.0  0.44620  0.48856  0.88671  1.0000
  C   C896      1.0  0.50287  0.48738  0.49086  1.0000
  C   C897      1.0  0.37216  0.24496  0.71819  1.0000
  C   C898      1.0  0.49530  0.01175  0.97780  1.0000
  H   H722      1.0  0.38149  0.01869  0.48949  1.0000
  H   H723      1.0  0.36415  0.37473  0.66469  1.0000
  C   C899      1.0  0.41648  0.16495  0.57443  1.0000
  H   H724      1.0  0.47515  0.00311  0.63237  1.0000
  H   H725      1.0  0.58220  0.44260  0.65511  1.0000
  P   P30       1.0  0.37531  0.27490  0.74941  1.0000
  S   S127      1.0  0.47968  0.17570  0.48873  1.0000
  C   C900      1.0  0.39513  0.27242  0.77063  1.0000
  C   C901      1.0  0.40121  0.24611  0.78093  1.0000
  C   C902      1.0  0.41579  0.24395  0.80080  1.0000
  C   C903      1.0  0.42437  0.26804  0.81075  1.0000
  C   C904      1.0  0.41842  0.29421  0.80069  1.0000
  C   C905      1.0  0.40386  0.29647  0.78089  1.0000
  H   H726      1.0  0.50686  0.45786  0.90777  1.0000
  C   C906      1.0  0.35102  0.04718  0.50463  1.0000
  C   C907      1.0  0.49677  0.25561  0.49772  1.0000
  C   C908      1.0  0.37256  0.30650  0.72179  1.0000
  C   C909      1.0  0.36995  0.30548  0.68178  1.0000
  C   C910      1.0  0.36710  0.33005  0.66120  1.0000
  C   C911      1.0  0.36682  0.35576  0.68034  1.0000
  C   C912      1.0  0.36922  0.35690  0.72011  1.0000
  C   C913      1.0  0.37183  0.33237  0.74078  1.0000
  C   C914      1.0  0.33329  0.28228  0.80970  1.0000
  H   H727      1.0  0.39552  0.24872  0.69148  1.0000
  H   H728      1.0  0.39442  0.22729  0.77476  1.0000
  P   P31       1.0  0.41686  0.21073  0.52403  1.0000
  H   H729      1.0  0.36885  0.04344  0.70506  1.0000
  H   H730      1.0  0.46154  0.14798  0.55803  1.0000
  C   C915      1.0  0.49171  0.22806  0.50589  1.0000
  H   H731      1.0  0.60673  0.38987  0.56112  1.0000
  C   C916      1.0  0.47366  0.46377  0.85670  1.0000
  H   H732      1.0  0.45903  0.27123  0.58008  1.0000
  C   C917      1.0  0.60932  0.35163  0.48441  1.0000
  C   C918      1.0  0.36072  0.04051  0.60870  1.0000
  Fe  Fe62      1.0  0.50877  0.40128  0.49041  1.0000
  H   H733      1.0  0.41101  0.40623  0.90382  1.0000
  H   H734      1.0  0.42384  0.39154  0.96448  1.0000
  C   C919      1.0  0.50087  0.00469  0.62937  1.0000
  C   C920      1.0  0.44898  0.15281  0.56315  1.0000
  C   C921      1.0  0.58369  0.46426  0.64693  1.0000
  C   C922      1.0  0.54281  0.44955  0.61616  1.0000
  C   C923      1.0  0.40172  0.12027  0.48659  1.0000
  H   H735      1.0  0.50140  0.02712  0.63331  1.0000
  C   C924      1.0  0.37039  0.21571  0.56258  1.0000
  H   H736      1.0  0.39237  0.05728  0.59918  1.0000
  C   C925      1.0  0.36317  0.04816  0.67780  1.0000
  H   H737      1.0  0.33660  0.25907  0.64982  1.0000
  H   H738      1.0  0.50334  0.43464  0.67292  1.0000
  H   H739      1.0  0.43623  0.23808  0.58324  1.0000
  H   H740      1.0  0.51185  0.47648  0.50750  1.0000
  C   C926      1.0  0.45799  0.27539  0.51853  1.0000
  H   H741      1.0  0.56941  0.43288  0.51054  1.0000
  C   C927      1.0  0.50592  0.19989  0.96409  1.0000
  C   C928      1.0  0.52920  0.10811  0.49968  1.0000
  C   C929      1.0  0.50457  0.46883  0.93448  1.0000
  C   C930      1.0  0.54535  0.99977  0.51113  1.0000
  H   H742      1.0  0.44570  0.00901  0.52611  1.0000
  H   H743      1.0  0.53029  0.28458  0.95821  1.0000
  H   H744      1.0  0.50280  0.00405  0.54649  1.0000
  H   H745      1.0  0.52658  0.99992  0.62624  1.0000
  H   H746      1.0  0.49275  0.03383  0.97570  1.0000
  C   C931      1.0  0.65739  0.34310  0.55879  1.0000
  C   C932      1.0  0.59281  0.35857  0.48252  1.0000
  S   S128      1.0  0.45586  0.10776  0.48366  1.0000
  H   H747      1.0  0.35945  0.06426  0.50842  1.0000
  H   H748      1.0  0.55202  0.12668  0.48586  1.0000
  H   H749      1.0  0.36739  0.48981  0.55349  1.0000
  H   H750      1.0  0.41701  0.07741  0.57124  1.0000
  C   C933      1.0  0.40934  0.06412  0.55387  1.0000
  C   C934      1.0  0.59445  0.48093  0.66778  1.0000
  C   C935      1.0  0.33992  0.00267  0.52444  1.0000
  H   H751      1.0  0.45545  0.44843  0.48569  1.0000
  C   C936      1.0  0.45034  0.26685  0.48466  1.0000
  C   C937      1.0  0.41326  0.05919  0.51531  1.0000
  H   H752      1.0  0.51583  0.99745  0.90373  1.0000
  H   H753      1.0  0.32938  0.28112  0.87096  1.0000
  H   H754      1.0  0.42386  0.06876  0.50274  1.0000
  C   C938      1.0  0.40318  0.04278  0.49235  1.0000
  Fe  Fe63      1.0  0.51292  0.33706  0.48166  1.0000
  C   C939      1.0  0.49168  0.24302  0.98070  1.0000
  H   H755      1.0  0.44604  0.74121  0.04725  1.0000
  Fe  Fe64      1.0  0.44183  0.62594  0.42364  1.0000
  C   C940      1.0  0.52325  0.64532  0.44474  1.0000
  Fe  Fe65      1.0  0.46595  0.61707  0.35656  1.0000
  S   S129      1.0  0.48744  0.62615  0.39328  1.0000
  S   S130      1.0  0.46501  0.60843  0.29220  1.0000
  Fe  Fe66      1.0  0.47490  0.59901  0.43715  1.0000
  C   C941      1.0  0.53056  0.55212  0.31469  1.0000
  Fe  Fe67      1.0  0.47318  0.66148  0.41922  1.0000
  S   S131      1.0  0.50073  0.67076  0.00985  1.0000
  S   S132      1.0  0.45407  0.58786  0.39855  1.0000
  S   S133      1.0  0.45253  0.65412  0.37875  1.0000
  S   S134      1.0  0.64369  0.58967  0.13552  1.0000
  S   S135      1.0  0.64094  0.85246  0.42119  1.0000
  Fe  Fe68      1.0  0.52546  0.57624  0.03065  1.0000
  S   S136      1.0  0.53619  0.61564  0.00534  1.0000
  H   H756      1.0  0.52019  0.96637  0.02277  1.0000
  Fe  Fe69      1.0  0.52470  0.60340  0.11145  1.0000
  S   S137      1.0  0.53447  0.64440  0.09011  1.0000
  S   S138      1.0  0.52414  0.59868  0.17698  1.0000
  Fe  Fe70      1.0  0.51770  0.63933  0.03971  1.0000
  H   H757      1.0  0.58129  0.75822  0.39657  1.0000
  Fe  Fe71      1.0  0.55232  0.61781  0.05775  1.0000
  S   S139      1.0  0.57834  0.63450  0.05837  1.0000
  S   S140      1.0  0.50640  0.59982  0.06353  1.0000
  S   S141      1.0  0.54311  0.57691  0.08049  1.0000
  C   C942      1.0  0.62553  0.60305  0.11507  1.0000
  C   C943      1.0  0.62396  0.63074  0.10287  1.0000
  C   C944      1.0  0.60952  0.63985  0.08545  1.0000
  C   C945      1.0  0.59631  0.62166  0.08058  1.0000
  C   C946      1.0  0.59779  0.59412  0.09349  1.0000
  C   C947      1.0  0.61232  0.58488  0.11021  1.0000
  H   H758      1.0  0.63396  0.64501  0.10623  1.0000
  H   H759      1.0  0.60858  0.66120  0.07570  1.0000
  H   H760      1.0  0.58781  0.57982  0.09009  1.0000
  H   H761      1.0  0.61337  0.56338  0.11919  1.0000
  C   C948      1.0  0.48171  0.60702  0.26073  1.0000
  C   C949      1.0  0.49752  0.60899  0.27408  1.0000
  C   C950      1.0  0.51040  0.60707  0.24787  1.0000
  C   C951      1.0  0.50757  0.60349  0.20818  1.0000
  C   C952      1.0  0.49176  0.60200  0.19483  1.0000
  C   C953      1.0  0.47892  0.60343  0.22111  1.0000
  H   H762      1.0  0.49982  0.61142  0.30457  1.0000
  H   H763      1.0  0.52260  0.60799  0.25839  1.0000
  H   H764      1.0  0.48944  0.59895  0.16443  1.0000
  H   H765      1.0  0.46672  0.60135  0.21080  1.0000
  H   H766      1.0  0.54059  0.95960  0.31145  1.0000
  C   C954      1.0  0.41250  0.53002  0.41857  1.0000
  H   H767      1.0  0.63216  0.62779  0.19673  1.0000
  H   H768      1.0  0.53732  0.60928  0.37086  1.0000
  S   S142      1.0  0.52092  0.54109  0.98560  1.0000
  P   P32       1.0  0.50894  0.50764  0.31986  1.0000
  H   H769      1.0  0.62558  0.52076  0.17247  1.0000
  H   H770      1.0  0.56300  0.62966  0.43908  1.0000
  H   H771      1.0  0.53755  0.97013  0.43085  1.0000
  C   C955      1.0  0.49936  0.49759  0.00407  1.0000
  C   C956      1.0  0.53784  0.63228  0.45294  1.0000
  H   H772      1.0  0.60456  0.91774  0.42963  1.0000
  C   C957      1.0  0.48860  0.96596  0.45419  1.0000
  H   H773      1.0  0.65306  0.87505  0.29303  1.0000
  C   C958      1.0  0.60552  0.57229  0.31851  1.0000
  C   C959      1.0  0.62473  0.86421  0.45020  1.0000
  C   C960      1.0  0.60909  0.85509  0.44105  1.0000
  C   C961      1.0  0.38043  0.53740  0.46881  1.0000
  C   C962      1.0  0.46226  0.53180  0.33366  1.0000
  H   H774      1.0  0.60726  0.84154  0.41645  1.0000
  C   C963      1.0  0.49280  0.75732  0.44722  1.0000
  H   H775      1.0  0.50725  0.54280  0.18612  1.0000
  H   H776      1.0  0.62393  0.79120  0.36263  1.0000
  H   H777      1.0  0.50899  0.49575  0.15643  1.0000
  C   C964      1.0  0.63390  0.88405  0.33284  1.0000
  H   H778      1.0  0.51800  0.72059  0.03924  1.0000
  P   P33       1.0  0.62301  0.95857  0.38568  1.0000
  C   C965      1.0  0.50803  0.52446  0.20426  1.0000
  P   P34       1.0  0.60932  0.60293  0.25036  1.0000
  C   C966      1.0  0.45575  0.74084  0.06802  1.0000
  H   H779      1.0  0.65437  0.93945  0.41484  1.0000
  H   H780      1.0  0.48447  0.95532  0.42849  1.0000
  H   H781      1.0  0.45529  0.55057  0.32874  1.0000
  C   C967      1.0  0.59785  0.56585  0.35322  1.0000
  C   C968      1.0  0.57969  0.60468  0.34428  1.0000
  C   C969      1.0  0.64003  0.68324  0.25511  1.0000
  H   H782      1.0  0.50325  0.54331  0.38703  1.0000
  C   C970      1.0  0.50930  0.50381  0.26808  1.0000
  H   H783      1.0  0.63697  0.72204  0.47324  1.0000
  C   C971      1.0  0.47871  0.53177  0.32575  1.0000
  C   C972      1.0  0.64830  0.55145  0.24221  1.0000
  H   H784      1.0  0.46766  0.77677  0.04380  1.0000
  H   H785      1.0  0.48423  0.55066  0.31473  1.0000
  C   C973      1.0  0.61824  0.55610  0.20672  1.0000
  C   C974      1.0  0.62270  0.57529  0.23551  1.0000
  C   C975      1.0  0.63778  0.57274  0.25327  1.0000
  C   C976      1.0  0.59297  0.60650  0.21648  1.0000
  C   C977      1.0  0.57989  0.58791  0.21829  1.0000
  C   C978      1.0  0.56692  0.59076  0.19304  1.0000
  C   C979      1.0  0.56687  0.61220  0.16594  1.0000
  C   C980      1.0  0.57979  0.63076  0.16397  1.0000
  C   C981      1.0  0.59288  0.62783  0.18883  1.0000
  H   H786      1.0  0.61538  0.55930  0.30900  1.0000
  C   C982      1.0  0.55895  0.77414  0.41849  1.0000
  H   H787      1.0  0.57980  0.57101  0.23891  1.0000
  H   H788      1.0  0.55691  0.57624  0.19406  1.0000
  H   H789      1.0  0.55693  0.61421  0.14605  1.0000
  H   H790      1.0  0.57979  0.64712  0.14248  1.0000
  C   C983      1.0  0.49090  0.53149  0.46918  1.0000
  C   C984      1.0  0.49298  0.72807  0.45105  1.0000
  H   H791      1.0  0.46012  0.59151  0.06637  1.0000
  H   H792      1.0  0.62986  0.69001  0.31121  1.0000
  H   H793      1.0  0.38388  0.55164  0.44610  1.0000
  C   C985      1.0  0.62722  0.78510  0.42360  1.0000
  C   C986      1.0  0.54239  0.76991  0.42112  1.0000
  C   C987      1.0  0.53519  0.74704  0.40270  1.0000
  C   C988      1.0  0.54442  0.72894  0.37981  1.0000
  C   C989      1.0  0.56119  0.73262  0.37880  1.0000
  P   P35       1.0  0.53527  0.69862  0.35737  1.0000
  C   C990      1.0  0.51492  0.70364  0.34037  1.0000
  C   C991      1.0  0.54619  0.68731  0.31515  1.0000
  C   C992      1.0  0.54514  0.65939  0.30274  1.0000
  C   C993      1.0  0.55304  0.65074  0.26921  1.0000
  C   C994      1.0  0.56217  0.66983  0.24812  1.0000
  C   C995      1.0  0.56303  0.69773  0.25983  1.0000
  C   C996      1.0  0.55480  0.70660  0.29278  1.0000
  C   C997      1.0  0.50548  0.68023  0.33074  1.0000
  C   C998      1.0  0.48976  0.68357  0.31739  1.0000
  C   C999      1.0  0.48332  0.71030  0.31348  1.0000
  C   C1000     1.0  0.49276  0.73373  0.32190  1.0000
  C   C1001     1.0  0.50859  0.73047  0.33471  1.0000
  C   C1002     1.0  0.53606  0.67201  0.39387  1.0000
  C   C1003     1.0  0.55076  0.65924  0.40272  1.0000
  C   C1004     1.0  0.48785  0.50754  0.33168  1.0000
  H   H794      1.0  0.61067  0.97422  0.46178  1.0000
  C   C1005     1.0  0.51741  0.97202  0.39270  1.0000
  C   C1006     1.0  0.52238  0.66535  0.41561  1.0000
  C   C1007     1.0  0.65307  0.91825  0.31032  1.0000
  C   C1008     1.0  0.52642  0.83875  0.00261  1.0000
  H   H795      1.0  0.47518  0.63159  0.03883  1.0000
  H   H796      1.0  0.52246  0.74341  0.40679  1.0000
  H   H797      1.0  0.56878  0.71787  0.36378  1.0000
  H   H798      1.0  0.53787  0.64449  0.31836  1.0000
  H   H799      1.0  0.55188  0.62937  0.25902  1.0000
  H   H800      1.0  0.56817  0.66324  0.22202  1.0000
  H   H801      1.0  0.56978  0.71263  0.24277  1.0000
  H   H802      1.0  0.55503  0.72854  0.30041  1.0000
  H   H803      1.0  0.51013  0.65931  0.33409  1.0000
  H   H804      1.0  0.48244  0.66538  0.31083  1.0000
  H   H805      1.0  0.47097  0.71282  0.30433  1.0000
  H   H806      1.0  0.48770  0.75444  0.31909  1.0000
  H   H807      1.0  0.51571  0.74894  0.34030  1.0000
  H   H808      1.0  0.56156  0.66491  0.38720  1.0000
  H   H809      1.0  0.64874  0.67053  0.19939  1.0000
  C   C1009     1.0  0.64719  0.94657  0.43898  1.0000
  H   H810      1.0  0.44947  0.59440  0.13309  1.0000
  H   H811      1.0  0.51107  0.67587  0.41059  1.0000
  C   C1010     1.0  0.43192  0.71229  0.22246  1.0000
  C   C1011     1.0  0.43398  0.69574  0.25520  1.0000
  C   C1012     1.0  0.44706  0.67765  0.25762  1.0000
  C   C1013     1.0  0.45813  0.67615  0.22743  1.0000
  C   C1014     1.0  0.45615  0.69265  0.19436  1.0000
  C   C1015     1.0  0.44294  0.71074  0.19206  1.0000
  P   P36       1.0  0.47058  0.69002  0.15561  1.0000
  C   C1016     1.0  0.49016  0.68994  0.17782  1.0000
  C   C1017     1.0  0.46725  0.65853  0.12786  1.0000
  C   C1018     1.0  0.47325  0.65664  0.09015  1.0000
  S   S143      1.0  0.50529  0.91754  0.46845  1.0000
  C   C1019     1.0  0.46197  0.61024  0.08341  1.0000
  C   C1020     1.0  0.45600  0.61188  0.12097  1.0000
  C   C1021     1.0  0.45850  0.63602  0.14303  1.0000
  C   C1022     1.0  0.49331  0.70815  0.20879  1.0000
  C   C1023     1.0  0.50837  0.70832  0.22652  1.0000
  C   C1024     1.0  0.52037  0.69037  0.21347  1.0000
  C   C1025     1.0  0.51739  0.67233  0.18261  1.0000
  C   C1026     1.0  0.50233  0.67200  0.16477  1.0000
  C   C1027     1.0  0.46915  0.71897  0.12240  1.0000
  C   C1028     1.0  0.48134  0.73929  0.12022  1.0000
  H   H812      1.0  0.59410  0.98617  0.35313  1.0000
  C   C1029     1.0  0.50311  0.77445  0.46936  1.0000
  C   C1030     1.0  0.62648  0.90443  0.35561  1.0000
  C   C1031     1.0  0.45635  0.71994  0.09602  1.0000
  H   H813      1.0  0.42175  0.72629  0.22063  1.0000
  H   H814      1.0  0.42541  0.69683  0.27868  1.0000
  H   H815      1.0  0.44860  0.66458  0.28283  1.0000
  H   H816      1.0  0.46819  0.66191  0.22984  1.0000
  H   H817      1.0  0.44112  0.72375  0.16707  1.0000
  H   H818      1.0  0.48013  0.67366  0.07780  1.0000
  H   H819      1.0  0.53516  0.78416  0.43811  1.0000
  C   C1032     1.0  0.63224  0.93202  0.35575  1.0000
  H   H820      1.0  0.56445  0.79174  0.43324  1.0000
  H   H821      1.0  0.45363  0.63687  0.17184  1.0000
  H   H822      1.0  0.48410  0.72222  0.21924  1.0000
  H   H823      1.0  0.51072  0.72231  0.25042  1.0000
  H   H824      1.0  0.53198  0.69042  0.22722  1.0000
  H   H825      1.0  0.52673  0.65834  0.17272  1.0000
  H   H826      1.0  0.50026  0.65762  0.14113  1.0000
  H   H827      1.0  0.49159  0.73877  0.13931  1.0000
  C   C1033     1.0  0.60162  0.95201  0.38974  1.0000
  H   H828      1.0  0.65102  0.95936  0.33386  1.0000
  H   H829      1.0  0.44703  0.70411  0.09651  1.0000
  H   H830      1.0  0.64157  0.58747  0.27525  1.0000
  H   H831      1.0  0.65218  0.51659  0.20405  1.0000
  H   H832      1.0  0.49721  0.50844  0.03093  1.0000
  C   C1034     1.0  0.41177  0.54891  0.34205  1.0000
  C   C1035     1.0  0.59578  0.86325  0.46354  1.0000
  C   C1036     1.0  0.62267  0.96600  0.46538  1.0000
  C   C1037     1.0  0.63151  0.95651  0.43345  1.0000
  C   C1038     1.0  0.59032  0.96883  0.37078  1.0000
  C   C1039     1.0  0.50361  0.71608  0.47742  1.0000
  H   H833      1.0  0.65591  0.54665  0.07379  1.0000
  C   C1040     1.0  0.64579  0.93863  0.33330  1.0000
  H   H834      1.0  0.61500  0.79099  0.43036  1.0000
  H   H835      1.0  0.51533  0.94965  0.39362  1.0000
  C   C1041     1.0  0.51070  0.97377  0.00419  1.0000
  C   C1042     1.0  0.46792  0.76091  0.06606  1.0000
  H   H836      1.0  0.66007  0.54998  0.25548  1.0000
  C   C1043     1.0  0.65406  0.77180  0.44327  1.0000
  C   C1044     1.0  0.65903  0.77201  0.40479  1.0000
  C   C1045     1.0  0.63223  0.78520  0.38510  1.0000
  C   C1046     1.0  0.55477  0.68236  0.98893  1.0000
  C   C1047     1.0  0.41437  0.56779  0.37217  1.0000
  C   C1048     1.0  0.41467  0.55843  0.41024  1.0000
  C   C1049     1.0  0.62883  0.53490  0.19562  1.0000
  H   H837      1.0  0.62975  0.86260  0.33403  1.0000
  H   H838      1.0  0.40710  0.50605  0.32669  1.0000
  C   C1050     1.0  0.62999  0.67663  0.28600  1.0000
  C   C1051     1.0  0.59612  0.93042  0.41370  1.0000
  C   C1052     1.0  0.51854  0.86304  0.99114  1.0000
  C   C1053     1.0  0.36761  0.63060  0.46078  1.0000
  H   H839      1.0  0.55216  0.68006  0.01935  1.0000
  C   C1054     1.0  0.56839  0.75531  0.39770  1.0000
  C   C1055     1.0  0.51981  0.57748  0.38263  1.0000
  H   H840      1.0  0.61659  0.89815  0.37371  1.0000
  H   H841      1.0  0.56966  0.61714  0.35412  1.0000
  H   H842      1.0  0.51403  0.77133  0.02725  1.0000
  C   C1056     1.0  0.40968  0.51119  0.38816  1.0000
  H   H843      1.0  0.45754  0.54178  0.00609  1.0000
  H   H844      1.0  0.41604  0.58983  0.36615  1.0000
  H   H845      1.0  0.41640  0.57355  0.43311  1.0000
  H   H846      1.0  0.48352  0.56078  0.98256  1.0000
  H   H847      1.0  0.55584  0.93724  0.40120  1.0000
  H   H848      1.0  0.57556  0.90849  0.43635  1.0000
  C   C1057     1.0  0.57969  0.92510  0.41758  1.0000
  C   C1058     1.0  0.38202  0.63658  0.44091  1.0000
  C   C1059     1.0  0.51273  0.55264  0.36990  1.0000
  C   C1060     1.0  0.40931  0.52063  0.35005  1.0000
  H   H849      1.0  0.50675  0.54807  0.25667  1.0000
  H   H850      1.0  0.56863  0.96276  0.28727  1.0000
  C   C1061     1.0  0.58735  0.61120  0.30962  1.0000
  C   C1062     1.0  0.64711  0.89099  0.31002  1.0000
  C   C1063     1.0  0.47962  0.51620  0.44788  1.0000
  C   C1064     1.0  0.54441  0.97756  0.29484  1.0000
  C   C1065     1.0  0.57386  0.96359  0.37506  1.0000
  C   C1066     1.0  0.50879  0.72742  0.01946  1.0000
  C   C1067     1.0  0.48067  0.76017  0.09218  1.0000
  C   C1068     1.0  0.49893  0.70756  0.00139  1.0000
  C   C1069     1.0  0.60031  0.59505  0.29643  1.0000
  H   H851      1.0  0.58322  0.62881  0.29289  1.0000
  H   H852      1.0  0.51569  0.58706  0.40920  1.0000
  C   C1070     1.0  0.56856  0.94146  0.39795  1.0000
  C   C1071     1.0  0.56020  0.97942  0.28136  1.0000
  C   C1072     1.0  0.50797  0.52739  0.24435  1.0000
  H   H853      1.0  0.60193  0.54820  0.37006  1.0000
  H   H854      1.0  0.38168  0.64989  0.41583  1.0000
  C   C1073     1.0  0.64062  0.66572  0.22290  1.0000
  C   C1074     1.0  0.58491  0.58196  0.36606  1.0000
  C   C1075     1.0  0.62050  0.65247  0.28471  1.0000
  H   H855      1.0  0.51259  0.64016  0.46127  1.0000
  H   H856      1.0  0.49673  0.98016  0.35714  1.0000
  C   C1076     1.0  0.50650  0.75626  0.01254  1.0000
  H   H857      1.0  0.53504  0.54231  0.28868  1.0000
  S   S144      1.0  0.41463  0.63440  0.42710  1.0000
  H   H858      1.0  0.50393  0.93218  0.98523  1.0000
  H   H859      1.0  0.50716  0.86864  0.00424  1.0000
  H   H860      1.0  0.44371  0.54428  0.45855  1.0000
  C   C1077     1.0  0.53206  0.58988  0.36114  1.0000
  H   H861      1.0  0.57895  0.57676  0.39284  1.0000
  C   C1078     1.0  0.51788  0.54004  0.33550  1.0000
  C   C1079     1.0  0.62102  0.63475  0.25235  1.0000
  H   H862      1.0  0.54707  0.58660  0.31067  1.0000
  H   H863      1.0  0.47073  0.52703  0.43088  1.0000
  H   H864      1.0  0.60284  0.64214  0.18589  1.0000
  C   C1080     1.0  0.53001  0.98376  0.41395  1.0000
  H   H865      1.0  0.41152  0.55629  0.31259  1.0000
  C   C1081     1.0  0.64385  0.53261  0.21327  1.0000
  C   C1082     1.0  0.53751  0.57715  0.32729  1.0000
  C   C1083     1.0  0.64813  0.77876  0.37573  1.0000
  H   H866      1.0  0.61309  0.64754  0.30927  1.0000
  C   C1084     1.0  0.55163  0.63938  0.43214  1.0000
  H   H867      1.0  0.49024  0.77545  0.08993  1.0000
  C   C1085     1.0  0.63125  0.64148  0.22160  1.0000
  H   H868      1.0  0.60687  0.55785  0.19193  1.0000
  C   C1086     1.0  0.50898  0.49794  0.18754  1.0000
  C   C1087     1.0  0.47046  0.63274  0.06792  1.0000
  H   H869      1.0  0.58385  0.85596  0.45623  1.0000
  H   H870      1.0  0.52114  0.82568  0.02469  1.0000
  H   H871      1.0  0.61869  0.98008  0.30780  1.0000
  S   S145      1.0  0.48033  0.70767  0.42066  1.0000
  C   C1088     1.0  0.39683  0.62550  0.45310  1.0000
  H   H872      1.0  0.64768  0.70160  0.25636  1.0000
  H   H873      1.0  0.48465  0.76680  0.42684  1.0000
  H   H874      1.0  0.35635  0.63913  0.45079  1.0000
  P   P37       1.0  0.41209  0.51825  0.46798  1.0000
  C   C1089     1.0  0.49454  0.76579  0.98696  1.0000
  H   H875      1.0  0.56516  0.97697  0.36128  1.0000
  C   C1090     1.0  0.63813  0.77856  0.45301  1.0000
  H   H876      1.0  0.53842  0.61691  0.47574  1.0000
  H   H877      1.0  0.65214  0.77947  0.34605  1.0000
  H   H878      1.0  0.54858  0.49513  0.43824  1.0000
  H   H879      1.0  0.35636  0.55384  0.47152  1.0000
  C   C1091     1.0  0.62736  0.99214  0.36430  1.0000
  C   C1092     1.0  0.50686  0.98920  0.37236  1.0000
  S   S146      1.0  0.49116  0.56872  0.46993  1.0000
  C   C1093     1.0  0.54076  0.83088  0.98473  1.0000
  H   H880      1.0  0.50288  0.79688  0.46590  1.0000
  H   H881      1.0  0.57602  0.98888  0.44785  1.0000
  C   C1094     1.0  0.45482  0.50772  0.34766  1.0000
  S   S147      1.0  0.46188  0.63535  0.46583  1.0000
  C   C1095     1.0  0.56869  0.98718  0.47334  1.0000
  H   H882      1.0  0.58028  0.67783  0.99664  1.0000
  C   C1096     1.0  0.65374  0.94550  0.47607  1.0000
  H   H883      1.0  0.44214  0.50792  0.35431  1.0000
  C   C1097     1.0  0.48368  0.99366  0.46133  1.0000
  H   H884      1.0  0.54671  0.81180  0.99334  1.0000
  C   C1098     1.0  0.50152  0.95422  0.98274  1.0000
  H   H885      1.0  0.33760  0.68313  0.47405  1.0000
  H   H886      1.0  0.59502  0.90737  0.98535  1.0000
  H   H887      1.0  0.66069  0.59652  0.05981  1.0000
  C   C1099     1.0  0.49897  0.95207  0.47971  1.0000
  H   H888      1.0  0.50384  0.69368  0.48089  1.0000
  S   S148      1.0  0.36037  0.89231  0.80096  1.0000
  S   S149      1.0  0.35007  0.60507  0.51982  1.0000
  Fe  Fe72      1.0  0.47551  0.89262  0.91341  1.0000
  S   S150      1.0  0.49521  0.86104  0.90307  1.0000
  S   S151      1.0  0.47800  0.93978  0.92786  1.0000
  Fe  Fe73      1.0  0.44883  0.85050  0.89077  1.0000
  S   S152      1.0  0.46689  0.81610  0.88096  1.0000
  S   S153      1.0  0.42266  0.83701  0.87877  1.0000
  Fe  Fe74      1.0  0.47939  0.83019  0.93483  1.0000
  H   H889      1.0  0.49924  0.92428  0.61584  1.0000
  Fe  Fe75      1.0  0.48149  0.84850  0.84986  1.0000
  S   S154      1.0  0.49152  0.83045  0.79397  1.0000
  S   S155      1.0  0.46023  0.86254  0.94787  1.0000
  S   S156      1.0  0.46292  0.88214  0.85694  1.0000
  Fe  Fe76      1.0  0.55565  0.87658  0.52887  1.0000
  H   H890      1.0  0.32850  0.78219  0.83045  1.0000
  Fe  Fe77      1.0  0.52878  0.87517  0.59096  1.0000
  S   S157      1.0  0.51031  0.85887  0.54917  1.0000
  S   S158      1.0  0.52413  0.89179  0.65165  1.0000
  C   C1100     1.0  0.41577  0.65941  0.53090  1.0000
  H   H891      1.0  0.36793  0.83467  0.82421  1.0000
  C   C1101     1.0  0.64476  0.74716  0.56345  1.0000
  C   C1102     1.0  0.38028  0.96826  0.55984  1.0000
  S   S159      1.0  0.54790  0.84481  0.57274  1.0000
  S   S160      1.0  0.53781  0.90826  0.55047  1.0000
  H   H892      1.0  0.33310  0.73938  0.67067  1.0000
  H   H893      1.0  0.51050  0.59939  0.93890  1.0000
  C   C1103     1.0  0.58477  0.75335  0.50674  1.0000
  C   C1104     1.0  0.54352  0.70304  0.81884  1.0000
  C   C1105     1.0  0.50683  0.61951  0.92764  1.0000
  C   C1106     1.0  0.38170  0.94001  0.56950  1.0000
  C   C1107     1.0  0.65185  0.69824  0.55804  1.0000
  H   H894      1.0  0.51202  0.95562  0.53297  1.0000
  C   C1108     1.0  0.38647  0.76757  0.62935  1.0000
  H   H895      1.0  0.45451  0.92393  0.78410  1.0000
  H   H896      1.0  0.49355  0.69229  0.89091  1.0000
  H   H897      1.0  0.52532  0.94842  0.61779  1.0000
  C   C1109     1.0  0.38011  0.74609  0.60658  1.0000
  H   H898      1.0  0.38437  0.70313  0.51609  1.0000
  C   C1110     1.0  0.54429  0.94849  0.92286  1.0000
  S   S161      1.0  0.58166  0.89225  0.52441  1.0000
  C   C1111     1.0  0.53442  0.65521  0.82580  1.0000
  H   H899      1.0  0.39239  0.81413  0.85418  1.0000
  P   P38       1.0  0.46616  0.94415  0.62478  1.0000
  C   C1112     1.0  0.53988  0.64921  0.78857  1.0000
  C   C1113     1.0  0.52209  0.97763  0.90279  1.0000
  H   H900      1.0  0.55125  0.66544  0.73755  1.0000
  C   C1114     1.0  0.35516  0.70319  0.55845  1.0000
  C   C1115     1.0  0.49927  0.84864  0.75372  1.0000
  C   C1116     1.0  0.50215  0.83375  0.71942  1.0000
  C   C1117     1.0  0.50936  0.84681  0.68749  1.0000
  C   C1118     1.0  0.51388  0.87489  0.68973  1.0000
  C   C1119     1.0  0.51070  0.88995  0.72376  1.0000
  C   C1120     1.0  0.50342  0.87692  0.75564  1.0000
  H   H901      1.0  0.49905  0.81182  0.71776  1.0000
  H   H902      1.0  0.51177  0.83500  0.66149  1.0000
  H   H903      1.0  0.51417  0.91170  0.72572  1.0000
  H   H904      1.0  0.50143  0.88853  0.78200  1.0000
  C   C1121     1.0  0.60179  0.80358  0.51169  1.0000
  H   H905      1.0  0.55450  0.71320  0.76445  1.0000
  H   H906      1.0  0.37293  0.90665  0.60555  1.0000
  C   C1122     1.0  0.47348  0.88848  0.53704  1.0000
  H   H907      1.0  0.62383  0.80607  0.57632  1.0000
  C   C1123     1.0  0.46156  0.53698  0.97717  1.0000
  H   H908      1.0  0.54511  0.72398  0.83021  1.0000
  H   H909      1.0  0.53102  0.63364  0.91926  1.0000
  H   H910      1.0  0.52130  0.50223  0.92206  1.0000
  C   C1124     1.0  0.37761  0.87625  0.82200  1.0000
  C   C1125     1.0  0.39106  0.89297  0.83102  1.0000
  C   C1126     1.0  0.40494  0.88143  0.84819  1.0000
  C   C1127     1.0  0.40558  0.85288  0.85656  1.0000
  C   C1128     1.0  0.39212  0.83616  0.84752  1.0000
  C   C1129     1.0  0.37823  0.84772  0.83039  1.0000
  H   H911      1.0  0.39070  0.91509  0.82495  1.0000
  H   H912      1.0  0.41505  0.89469  0.85533  1.0000
  H   H913      1.0  0.54137  0.99175  0.93923  1.0000
  C   C1130     1.0  0.63980  0.84105  0.58237  1.0000
  C   C1131     1.0  0.54274  0.87539  0.78834  1.0000
  C   C1132     1.0  0.43034  0.50981  0.86718  1.0000
  C   C1133     1.0  0.50409  0.96602  0.51302  1.0000
  C   C1134     1.0  0.42657  0.99327  0.56214  1.0000
  H   H914      1.0  0.38111  0.97703  0.73053  1.0000
  C   C1135     1.0  0.53926  0.87166  0.94338  1.0000
  P   P39       1.0  0.54716  0.89175  0.90376  1.0000
  C   C1136     1.0  0.53649  0.97435  0.92287  1.0000
  H   H915      1.0  0.47923  0.93133  0.54873  1.0000
  C   C1137     1.0  0.51952  0.77259  0.91509  1.0000
  C   C1138     1.0  0.49746  0.67196  0.90046  1.0000
  H   H916      1.0  0.47669  0.51921  0.87436  1.0000
  H   H917      1.0  0.47325  0.65772  0.91036  1.0000
  Fe  Fe78      1.0  0.52070  0.89024  0.50758  1.0000
  C   C1139     1.0  0.48600  0.99102  0.62850  1.0000
  C   C1140     1.0  0.34247  0.62379  0.65884  1.0000
  C   C1141     1.0  0.35232  0.61630  0.62789  1.0000
  C   C1142     1.0  0.36111  0.63672  0.60835  1.0000
  C   C1143     1.0  0.36037  0.66476  0.62007  1.0000
  C   C1144     1.0  0.35019  0.67223  0.65065  1.0000
  P   P40       1.0  0.37017  0.69149  0.59210  1.0000
  C   C1145     1.0  0.59070  0.90374  0.95630  1.0000
  C   C1146     1.0  0.38774  0.67830  0.56759  1.0000
  C   C1147     1.0  0.54580  0.50201  0.49927  1.0000
  H   H918      1.0  0.60522  0.52167  0.67363  1.0000
  C   C1148     1.0  0.51396  0.76243  0.49517  1.0000
  C   C1149     1.0  0.58853  0.51995  0.62619  1.0000
  H   H919      1.0  0.33325  0.65771  0.69315  1.0000
  C   C1150     1.0  0.43369  0.52846  0.83713  1.0000
  S   S162      1.0  0.53906  0.86033  0.48268  1.0000
  H   H920      1.0  0.38767  0.97657  0.53694  1.0000
  C   C1151     1.0  0.38862  0.73581  0.68314  1.0000
  C   C1152     1.0  0.38218  0.71430  0.66047  1.0000
  C   C1153     1.0  0.40258  0.52540  0.86724  1.0000
  H   H921      1.0  0.53849  0.62833  0.77687  1.0000
  H   H922      1.0  0.42634  0.65163  0.51610  1.0000
  C   C1154     1.0  0.47362  0.91258  0.55987  1.0000
  C   C1155     1.0  0.42372  0.54157  0.49828  1.0000
  C   C1156     1.0  0.39187  0.68815  0.53084  1.0000
  H   H923      1.0  0.36803  0.63065  0.58326  1.0000
  C   C1157     1.0  0.45079  0.96456  0.60166  1.0000
  H   H924      1.0  0.60442  0.89667  0.86452  1.0000
  C   C1158     1.0  0.33323  0.73423  0.54157  1.0000
  H   H925      1.0  0.50387  0.95732  0.86867  1.0000
  H   H926      1.0  0.34874  0.69393  0.65876  1.0000
  H   H927      1.0  0.58342  0.95431  0.49699  1.0000
  C   C1159     1.0  0.48586  0.65234  0.91147  1.0000
  C   C1160     1.0  0.45926  0.86368  0.58717  1.0000
  H   H928      1.0  0.47758  0.90116  0.67815  1.0000
  C   C1161     1.0  0.34555  0.72650  0.56675  1.0000
  C   C1162     1.0  0.45306  0.95654  0.69709  1.0000
  C   C1163     1.0  0.63984  0.74735  0.52473  1.0000
  H   H929      1.0  0.53903  0.52109  0.49568  1.0000
  C   C1164     1.0  0.37638  0.81138  0.74185  1.0000
  C   C1165     1.0  0.36427  0.80625  0.71490  1.0000
  C   C1166     1.0  0.36454  0.81982  0.67937  1.0000
  C   C1167     1.0  0.37697  0.83849  0.67070  1.0000
  C   C1168     1.0  0.38930  0.84358  0.69754  1.0000
  C   C1169     1.0  0.38878  0.83010  0.73341  1.0000
  P   P41       1.0  0.40451  0.86961  0.68750  1.0000
  C   C1170     1.0  0.42218  0.86264  0.71619  1.0000
  C   C1171     1.0  0.40982  0.86812  0.63704  1.0000
  C   C1172     1.0  0.41262  0.89263  0.61600  1.0000
  C   C1173     1.0  0.41771  0.89112  0.57764  1.0000
  C   C1174     1.0  0.41969  0.86516  0.55977  1.0000
  C   C1175     1.0  0.41666  0.84066  0.58030  1.0000
  C   C1176     1.0  0.41178  0.84211  0.61882  1.0000
  C   C1177     1.0  0.42225  0.87007  0.75531  1.0000
  C   C1178     1.0  0.43521  0.86289  0.77879  1.0000
  C   C1179     1.0  0.44838  0.84882  0.76331  1.0000
  C   C1180     1.0  0.44873  0.84224  0.72409  1.0000
  C   C1181     1.0  0.43565  0.84899  0.70055  1.0000
  C   C1182     1.0  0.39697  0.90373  0.70056  1.0000
  C   C1183     1.0  0.38050  0.90805  0.70698  1.0000
  C   C1184     1.0  0.37486  0.93445  0.71752  1.0000
  C   C1185     1.0  0.38557  0.95675  0.72171  1.0000
  C   C1186     1.0  0.40200  0.95262  0.71560  1.0000
  C   C1187     1.0  0.40771  0.92617  0.70527  1.0000
  H   H930      1.0  0.37596  0.80141  0.76978  1.0000
  H   H931      1.0  0.35449  0.79220  0.72180  1.0000
  H   H932      1.0  0.35480  0.81636  0.65911  1.0000
  H   H933      1.0  0.37670  0.84950  0.64353  1.0000
  H   H934      1.0  0.39766  0.83426  0.75542  1.0000
  H   H935      1.0  0.41096  0.91291  0.62905  1.0000
  H   H936      1.0  0.42025  0.91008  0.56176  1.0000
  H   H937      1.0  0.42372  0.86402  0.53010  1.0000
  H   H938      1.0  0.41830  0.82053  0.56646  1.0000
  H   H939      1.0  0.40986  0.82296  0.63468  1.0000
  H   H940      1.0  0.41202  0.88055  0.76805  1.0000
  H   H941      1.0  0.43488  0.86771  0.80928  1.0000
  H   H942      1.0  0.45829  0.84297  0.78179  1.0000
  H   H943      1.0  0.45911  0.83158  0.71227  1.0000
  H   H944      1.0  0.43614  0.84316  0.67052  1.0000
  H   H945      1.0  0.37193  0.89108  0.70498  1.0000
  H   H946      1.0  0.36216  0.93734  0.72346  1.0000
  H   H947      1.0  0.64975  0.95297  0.53650  1.0000
  H   H948      1.0  0.61540  0.90416  0.52848  1.0000
  H   H949      1.0  0.42049  0.92308  0.70140  1.0000
  H   H950      1.0  0.39644  0.55622  0.82472  1.0000
  H   H951      1.0  0.56446  0.68849  0.88004  1.0000
  C   C1188     1.0  0.36074  0.94531  0.61722  1.0000
  C   C1189     1.0  0.57953  0.89449  0.88132  1.0000
  C   C1190     1.0  0.65258  0.82471  0.51142  1.0000
  H   H952      1.0  0.34802  0.52336  0.52527  1.0000
  C   C1191     1.0  0.47611  0.54790  0.96385  1.0000
  H   H953      1.0  0.38809  0.78818  0.61725  1.0000
  P   P42       1.0  0.63192  0.77870  0.50297  1.0000
  H   H954      1.0  0.39525  0.65204  0.61487  1.0000
  C   C1192     1.0  0.50245  0.51688  0.49077  1.0000
  C   C1193     1.0  0.39703  0.60836  0.48562  1.0000
  H   H955      1.0  0.42411  0.55925  0.79837  1.0000
  C   C1194     1.0  0.51036  0.50870  0.97764  1.0000
  H   H956      1.0  0.54456  0.88651  0.76153  1.0000
  H   H957      1.0  0.33973  0.98477  0.54330  1.0000
  C   C1195     1.0  0.59685  0.50879  0.65747  1.0000
  C   C1196     1.0  0.54970  0.98010  0.53888  1.0000
  H   H958      1.0  0.56678  0.94842  0.55512  1.0000
  C   C1197     1.0  0.56355  0.96407  0.53396  1.0000
  C   C1198     1.0  0.45243  0.51928  0.95355  1.0000
  C   C1199     1.0  0.39077  0.76242  0.66758  1.0000
  C   C1200     1.0  0.39801  0.65943  0.58620  1.0000
  C   C1201     1.0  0.51538  0.95502  0.88293  1.0000
  H   H959      1.0  0.51840  0.89781  0.95262  1.0000
  Fe  Fe79      1.0  0.33619  0.87798  0.77534  1.0000
  H   H960      1.0  0.38299  0.58934  0.53086  1.0000
  H   H961      1.0  0.47562  0.75273  0.94876  1.0000
  H   H962      1.0  0.45300  0.88747  0.63729  1.0000
  C   C1202     1.0  0.50990  0.78088  0.88425  1.0000
  C   C1203     1.0  0.51844  0.63908  0.91668  1.0000
  C   C1204     1.0  0.50594  0.76180  0.85526  1.0000
  C   C1205     1.0  0.51158  0.73434  0.85714  1.0000
  H   H963      1.0  0.35882  0.66867  0.51914  1.0000
  H   H964      1.0  0.47189  0.89202  0.74666  1.0000
  C   C1206     1.0  0.37764  0.71943  0.62219  1.0000
  C   C1207     1.0  0.46663  0.91238  0.59666  1.0000
  C   C1208     1.0  0.36008  0.52166  0.51367  1.0000
  H   H965      1.0  0.50529  0.80201  0.88309  1.0000
  H   H966      1.0  0.60769  0.73373  0.49914  1.0000
  H   H967      1.0  0.34846  0.73007  0.74175  1.0000
  H   H968      1.0  0.45383  0.84463  0.59780  1.0000
  C   C1209     1.0  0.52306  0.92910  0.88304  1.0000
  C   C1210     1.0  0.54709  0.67009  0.76644  1.0000
  C   C1211     1.0  0.53766  0.92566  0.90278  1.0000
  C   C1212     1.0  0.34023  0.75692  0.78751  1.0000
  H   H969      1.0  0.41032  0.96979  0.71967  1.0000
  C   C1213     1.0  0.54892  0.69699  0.78160  1.0000
  C   C1214     1.0  0.56850  0.89594  0.91189  1.0000
  H   H970      1.0  0.41967  0.63497  0.58185  1.0000
  C   C1215     1.0  0.46650  0.90988  0.73266  1.0000
  C   C1216     1.0  0.48140  0.54151  0.92669  1.0000
  H   H971      1.0  0.39209  0.73180  0.71268  1.0000
  Fe  Fe80      1.0  0.52994  0.83032  0.52783  1.0000
  C   C1217     1.0  0.38265  0.60255  0.50568  1.0000
  C   C1218     1.0  0.58505  0.80350  0.51509  1.0000
  C   C1219     1.0  0.52121  0.72574  0.88820  1.0000
  C   C1220     1.0  0.49054  0.62617  0.92513  1.0000
  C   C1221     1.0  0.57298  0.96750  0.50113  1.0000
  C   C1222     1.0  0.45906  0.88793  0.60976  1.0000
  H   H972      1.0  0.54213  0.97680  0.56381  1.0000
  C   C1223     1.0  0.52507  0.74508  0.91730  1.0000
  H   H973      1.0  0.57557  0.89078  0.85211  1.0000
  H   H974      1.0  0.65468  0.72280  0.60973  1.0000
  H   H975      1.0  0.53219  0.73905  0.94194  1.0000
  C   C1224     1.0  0.63363  0.81756  0.56330  1.0000
  C   C1225     1.0  0.46649  0.86393  0.55085  1.0000
  H   H976      1.0  0.58637  0.68246  0.92702  1.0000
  C   C1226     1.0  0.53612  0.68225  0.84116  1.0000
  H   H977      1.0  0.46683  0.84510  0.53344  1.0000
  H   H978      1.0  0.52251  0.72367  0.51883  1.0000
  C   C1227     1.0  0.46953  0.91497  0.69370  1.0000
  H   H979      1.0  0.65743  0.81934  0.48360  1.0000
  C   C1228     1.0  0.33993  0.69549  0.49967  1.0000
  C   C1229     1.0  0.41191  0.64988  0.56775  1.0000
  H   H980      1.0  0.35259  0.59484  0.61780  1.0000
  H   H981      1.0  0.57165  0.51249  0.58102  1.0000
  C   C1230     1.0  0.54568  0.88863  0.82363  1.0000
  H   H982      1.0  0.61432  0.90497  0.93100  1.0000
  C   C1231     1.0  0.57654  0.77839  0.51277  1.0000
  C   C1232     1.0  0.45012  0.95142  0.73613  1.0000
  C   C1233     1.0  0.48626  0.99220  0.95595  1.0000
  C   C1234     1.0  0.42262  0.97628  0.59339  1.0000
  C   C1235     1.0  0.64079  0.72253  0.50307  1.0000
  C   C1236     1.0  0.61021  0.77848  0.50649  1.0000
  H   H983      1.0  0.34713  0.73820  0.59321  1.0000
  C   C1237     1.0  0.49951  0.94678  0.61907  1.0000
  H   H984      1.0  0.50839  0.71979  0.83441  1.0000
  H   H985      1.0  0.52889  0.63868  0.84229  1.0000
  H   H986      1.0  0.38097  0.69363  0.67269  1.0000
  H   H987      1.0  0.56355  0.77838  0.51567  1.0000
  C   C1238     1.0  0.45795  0.51195  0.91665  1.0000
  H   H988      1.0  0.53434  0.83800  0.76011  1.0000
  C   C1239     1.0  0.41477  0.50880  0.88269  1.0000
  H   H989      1.0  0.35281  0.93634  0.63877  1.0000
  C   C1240     1.0  0.54716  0.84724  0.95516  1.0000
  C   C1241     1.0  0.46235  0.93782  0.67525  1.0000
  C   C1242     1.0  0.47231  0.52383  0.90300  1.0000
  H   H990      1.0  0.47911  0.88874  0.50886  1.0000
  H   H991      1.0  0.39582  0.77901  0.68514  1.0000
  H   H992      1.0  0.41200  0.49529  0.90673  1.0000
  C   C1243     1.0  0.35206  0.68746  0.52511  1.0000
  H   H993      1.0  0.49841  0.76841  0.83147  1.0000
  H   H994      1.0  0.55812  0.84065  0.94104  1.0000
  H   H995      1.0  0.64773  0.67920  0.50257  1.0000
  C   C1244     1.0  0.37201  0.92858  0.59834  1.0000
  C   C1245     1.0  0.59599  0.89775  0.88826  1.0000
  C   C1246     1.0  0.54551  0.68769  0.92293  1.0000
  C   C1247     1.0  0.56154  0.68696  0.91029  1.0000
  P   P43       1.0  0.52907  0.69055  0.88913  1.0000
  C   C1248     1.0  0.51386  0.66549  0.90302  1.0000
  C   C1249     1.0  0.63998  0.80916  0.52756  1.0000
  H   H996      1.0  0.37718  0.75022  0.57673  1.0000
  C   C1250     1.0  0.36782  0.61356  0.49341  1.0000
  C   C1251     1.0  0.54226  0.68571  0.96250  1.0000
  H   H997      1.0  0.52873  0.81315  0.82103  1.0000
  C   C1252     1.0  0.42686  0.56884  0.55713  1.0000
  H   H998      1.0  0.64412  0.76580  0.58099  1.0000
  C   C1253     1.0  0.45671  0.92792  0.75380  1.0000
  H   H999      1.0  0.51737  0.91166  0.86842  1.0000
  C   C1254     1.0  0.53391  0.83393  0.82189  1.0000
  H   H1000     1.0  0.39053  0.52422  0.87896  1.0000
  C   C1255     1.0  0.40592  0.54344  0.83671  1.0000
  C   C1256     1.0  0.33823  0.73681  0.75861  1.0000
  C   C1257     1.0  0.57774  0.50333  0.60527  1.0000
  H   H1001     1.0  0.44574  0.53004  0.82551  1.0000
  H   H1002     1.0  0.39007  0.92684  0.55403  1.0000
  C   C1258     1.0  0.38671  0.50135  0.51521  1.0000
  C   C1259     1.0  0.44793  0.56896  0.50923  1.0000
  H   H1003     1.0  0.65725  0.87439  0.58084  1.0000
  H   H1004     1.0  0.35014  0.98586  0.62195  1.0000
  H   H1005     1.0  0.42216  0.57589  0.58457  1.0000
  C   C1260     1.0  0.54313  0.87435  0.85839  1.0000
  H   H1006     1.0  0.43142  0.94810  0.63632  1.0000
  C   C1261     1.0  0.48522  0.96201  0.62268  1.0000
  H   H1007     1.0  0.40831  0.60002  0.49562  1.0000
  C   C1262     1.0  0.53698  0.84799  0.78749  1.0000
  H   H1008     1.0  0.54987  0.91007  0.82380  1.0000
  C   C1263     1.0  0.61357  0.89038  0.50409  1.0000
  C   C1264     1.0  0.53699  0.84698  0.85726  1.0000
  C   C1265     1.0  0.62689  0.88208  0.48171  1.0000
  H   H1009     1.0  0.33526  0.60801  0.67305  1.0000
  H   H1010     1.0  0.59048  0.54151  0.61803  1.0000
  C   C1266     1.0  0.40577  0.67858  0.51253  1.0000
  C   C1267     1.0  0.65077  0.72271  0.57994  1.0000
  C   C1268     1.0  0.65886  0.84797  0.53072  1.0000
  C   C1269     1.0  0.41780  0.55060  0.53416  1.0000
  H   H1011     1.0  0.35201  0.76566  0.79327  1.0000
  H   H1012     1.0  0.53423  0.83576  0.88339  1.0000
  H   H1013     1.0  0.48157  0.61124  0.93446  1.0000
  H   H1014     1.0  0.44122  0.51086  0.96433  1.0000
  C   C1270     1.0  0.37103  0.50287  0.52959  1.0000
  C   C1271     1.0  0.51436  0.96047  0.62022  1.0000
  H   H1015     1.0  0.57868  0.82299  0.51974  1.0000
  H   H1016     1.0  0.63471  0.84760  0.60965  1.0000
  C   C1272     1.0  0.60155  0.75334  0.50362  1.0000
  C   C1273     1.0  0.43467  0.96173  0.61283  1.0000
  C   C1274     1.0  0.60157  0.90240  0.92570  1.0000
  C   C1275     1.0  0.42149  0.54509  0.82181  1.0000
  C   C1276     1.0  0.57404  0.68360  0.93684  1.0000
  H   H1017     1.0  0.44293  0.96582  0.75296  1.0000
  C   C1277     1.0  0.34135  0.65179  0.67012  1.0000
  H   H1018     1.0  0.65661  0.67937  0.57080  1.0000
  H   H1019     1.0  0.40614  0.54402  0.54440  1.0000
  H   H1020     1.0  0.49286  0.54955  0.91680  1.0000
  C   C1278     1.0  0.52494  0.87950  0.96170  1.0000
  C   C1279     1.0  0.57425  0.90049  0.94948  1.0000
  H   H1021     1.0  0.55530  0.94646  0.93903  1.0000
  H   H1022     1.0  0.44899  0.59208  0.56241  1.0000
  H   H1023     1.0  0.60812  0.82330  0.51333  1.0000
  H   H1024     1.0  0.54421  0.50287  0.56099  1.0000
  H   H1025     1.0  0.62216  0.97121  0.52707  1.0000
  C   C1280     1.0  0.44192  0.57801  0.54466  1.0000
  C   C1281     1.0  0.35928  0.97350  0.60762  1.0000
  C   C1282     1.0  0.48697  0.71712  0.97592  1.0000
  C   C1283     1.0  0.65245  0.85620  0.56614  1.0000
  S   S163      1.0  0.52824  0.78278  0.52125  1.0000
  C   C1284     1.0  0.59797  0.88081  0.49542  1.0000
  C   C1285     1.0  0.45464  0.98146  0.56996  1.0000
  H   H1026     1.0  0.51104  0.52851  0.50783  1.0000
  H   H1027     1.0  0.52221  0.78733  0.93798  1.0000
  C   C1286     1.0  0.64471  0.95424  0.50778  1.0000
  H   H1028     1.0  0.63881  0.88940  0.48892  1.0000
  C   C1287     1.0  0.51414  0.73317  0.49902  1.0000
  C   C1288     1.0  0.48490  0.74590  0.96836  1.0000
  H   H1029     1.0  0.56597  0.90170  0.97354  1.0000
  S   S164      1.0  0.33570  0.87049  0.71152  1.0000
  H   H1030     1.0  0.53001  0.68623  0.97286  1.0000
  C   C1289     1.0  0.57065  0.68111  0.97610  1.0000
  H   H1031     1.0  0.45966  0.57587  0.49976  1.0000
  C   C1290     1.0  0.62919  0.96454  0.50244  1.0000
  C   C1291     1.0  0.48934  0.96327  0.95792  1.0000
  C   C1292     1.0  0.36924  0.98535  0.57930  1.0000
  H   H1032     1.0  0.41022  0.97426  0.60239  1.0000
  H   H1033     1.0  0.44827  0.97530  0.68420  1.0000
  H   H1034     1.0  0.46692  0.98327  0.55980  1.0000
  C   C1293     1.0  0.43886  0.55097  0.48601  1.0000
  C   C1294     1.0  0.49887  0.99350  0.52059  1.0000
  H   H1035     1.0  0.47913  0.70213  0.96204  1.0000
  H   H1036     1.0  0.57808  0.73395  0.50482  1.0000
  C   C1295     1.0  0.51505  0.98940  0.62524  1.0000
  C   C1296     1.0  0.33041  0.71872  0.50806  1.0000
  H   H1037     1.0  0.44460  0.49601  0.48489  1.0000
  C   C1297     1.0  0.64684  0.69815  0.51963  1.0000
  C   C1298     1.0  0.39152  0.51859  0.48462  1.0000
  S   S165      1.0  0.49180  0.80266  0.98080  1.0000
  H   H1038     1.0  0.40868  0.68551  0.48363  1.0000
  C   C1299     1.0  0.36477  0.53880  0.48322  1.0000
  H   H1039     1.0  0.97398  0.06613  0.21763  1.0000
  S   S166      1.0  0.96029  0.09351  0.04300  1.0000
  H   H1040     1.0  0.72606  0.27046  0.42499  1.0000
  H   H1041     1.0  0.96155  0.12232  0.29734  1.0000
  S   S167      1.0  0.95434  0.16204  0.03138  1.0000
  C   C1300     1.0  0.97986  0.48927  0.46003  1.0000
  Fe  Fe81      1.0  0.96991  0.13390  0.06862  1.0000
  S   S168      1.0  0.97688  0.14746  0.13000  1.0000
  C   C1301     1.0  0.91942  0.02383  0.29541  1.0000
  C   C1302     1.0  0.69895  0.23209  0.09760  1.0000
  Fe  Fe82      1.0  0.69903  0.11164  0.17004  1.0000
  S   S169      1.0  0.69846  0.11986  0.23458  1.0000
  S   S170      1.0  0.72406  0.10894  0.14010  1.0000
  H   H1042     1.0  0.98718  0.19815  0.23792  1.0000
  C   C1303     1.0  0.72692  0.18517  0.24788  1.0000
  Fe  Fe83      1.0  0.67738  0.14814  0.22308  1.0000
  S   S171      1.0  0.67125  0.19248  0.24596  1.0000
  Fe  Fe84      1.0  0.68055  0.08428  0.23849  1.0000
  S   S172      1.0  0.67949  0.05356  0.28984  1.0000
  S   S173      1.0  0.67875  0.14155  0.15834  1.0000
  S   S174      1.0  0.68224  0.07442  0.17519  1.0000
  H   H1043     1.0  0.72978  0.29923  0.29736  1.0000
  S   S175      1.0  0.66872  0.35715  0.36607  1.0000
  Fe  Fe85      1.0  0.70146  0.37426  0.44447  1.0000
  S   S176      1.0  0.70722  0.36956  0.38092  1.0000
  C   C1304     1.0  0.96392  0.13903  0.31772  1.0000
  Fe  Fe86      1.0  0.68489  0.39547  0.36955  1.0000
  S   S177      1.0  0.68091  0.42667  0.31927  1.0000
  Fe  Fe87      1.0  0.69058  0.33192  0.38121  1.0000
  S   S178      1.0  0.69870  0.28838  0.35928  1.0000
  S   S179      1.0  0.67996  0.40245  0.43300  1.0000
  S   S180      1.0  0.68587  0.33578  0.44502  1.0000
  C   C1305     1.0  0.68351  0.01732  0.29844  1.0000
  C   C1306     1.0  0.71431  0.43768  0.04463  1.0000
  H   H1044     1.0  0.72389  0.01877  0.26464  1.0000
  C   C1307     1.0  0.68521  0.46243  0.30696  1.0000
  H   H1045     1.0  0.95231  0.23797  0.16590  1.0000
  H   H1046     1.0  0.77516  0.38049  0.46015  1.0000
  H   H1047     1.0  0.67344  0.45912  0.25180  1.0000
  H   H1048     1.0  0.69786  0.47317  0.35897  1.0000
  H   H1049     1.0  0.75493  0.23226  0.24126  1.0000
  C   C1308     1.0  0.99293  0.12739  0.23739  1.0000
  C   C1309     1.0  0.67944  0.21902  0.27694  1.0000
  C   C1310     1.0  0.69239  0.21416  0.30171  1.0000
  C   C1311     1.0  0.69818  0.23567  0.32619  1.0000
  C   C1312     1.0  0.69098  0.26231  0.32689  1.0000
  C   C1313     1.0  0.67805  0.26722  0.30202  1.0000
  C   C1314     1.0  0.67236  0.24576  0.27730  1.0000
  H   H1050     1.0  0.69778  0.19368  0.30243  1.0000
  H   H1051     1.0  0.70819  0.23151  0.34514  1.0000
  H   H1052     1.0  0.67235  0.28749  0.30205  1.0000
  H   H1053     1.0  0.70414  0.48319  0.19857  1.0000
  C   C1315     1.0  0.75315  0.12816  0.02804  1.0000
  C   C1316     1.0  0.76004  0.11380  0.05898  1.0000
  C   C1317     1.0  0.75102  0.10845  0.09284  1.0000
  C   C1318     1.0  0.73484  0.11680  0.09639  1.0000
  C   C1319     1.0  0.72791  0.13112  0.06545  1.0000
  C   C1320     1.0  0.73702  0.13690  0.03184  1.0000
  H   H1054     1.0  0.95995  0.11331  0.36736  1.0000
  H   H1055     1.0  0.75668  0.09768  0.11650  1.0000
  H   H1056     1.0  0.71556  0.13790  0.06743  1.0000
  H   H1057     1.0  0.69723  0.26891  0.44130  1.0000
  H   H1058     1.0  0.87420  0.14065  0.04589  1.0000
  H   H1059     1.0  0.72068  0.20348  0.25835  1.0000
  H   H1060     1.0  0.96233  0.30004  0.42882  1.0000
  C   C1321     1.0  0.69608  0.06667  0.07331  1.0000
  C   C1322     1.0  0.93909  0.03296  0.34569  1.0000
  H   H1061     1.0  0.92288  0.99748  0.34451  1.0000
  C   C1323     1.0  0.74408  0.26671  0.27121  1.0000
  C   C1324     1.0  0.68672  0.02459  0.04141  1.0000
  H   H1062     1.0  0.75972  0.05152  0.16218  1.0000
  C   C1325     1.0  0.76227  0.23310  0.15141  1.0000
  C   C1326     1.0  0.98130  0.12797  0.17233  1.0000
  H   H1063     1.0  0.71767  0.07508  0.01412  1.0000
  H   H1064     1.0  0.72433  0.23762  0.10432  1.0000
  H   H1065     1.0  0.94967  0.23131  0.35481  1.0000
  C   C1327     1.0  0.96748  0.00577  0.37039  1.0000
  H   H1066     1.0  0.69087  0.00702  0.24078  1.0000
  C   C1328     1.0  0.93855  0.99993  0.42060  1.0000
  C   C1329     1.0  0.67127  0.03596  0.03915  1.0000
  C   C1330     1.0  0.97400  0.24677  0.34859  1.0000
  H   H1067     1.0  0.84243  0.19999  0.01101  1.0000
  H   H1068     1.0  0.94227  0.26550  0.40536  1.0000
  C   C1331     1.0  0.97161  0.22746  0.26695  1.0000
  C   C1332     1.0  0.96295  0.13395  0.35717  1.0000
  C   C1333     1.0  0.72226  0.27476  0.45431  1.0000
  C   C1334     1.0  0.96658  0.15519  0.38343  1.0000
  C   C1335     1.0  0.74737  0.04546  0.15705  1.0000
  C   C1336     1.0  0.97129  0.18149  0.37026  1.0000
  C   C1337     1.0  0.71351  0.22934  0.11731  1.0000
  P   P44       1.0  0.73247  0.21551  0.18072  1.0000
  C   C1338     1.0  0.71736  0.46390  0.06101  1.0000
  H   H1069     1.0  0.97784  0.45740  0.35826  1.0000
  C   C1339     1.0  0.95223  0.25061  0.22564  1.0000
  C   C1340     1.0  0.95903  0.24660  0.26209  1.0000
  C   C1341     1.0  0.68502  0.21062  0.15092  1.0000
  C   C1342     1.0  0.68913  0.99926  0.26968  1.0000
  H   H1070     1.0  0.96739  0.49059  0.45154  1.0000
  H   H1071     1.0  0.71178  0.03834  0.20415  1.0000
  C   C1343     1.0  0.66822  0.06256  0.05413  1.0000
  H   H1072     1.0  0.96903  0.09030  0.15540  1.0000
  C   C1344     1.0  0.73643  0.04499  0.18756  1.0000
  H   H1073     1.0  0.70975  0.26189  0.19600  1.0000
  C   C1345     1.0  0.97748  0.21293  0.23470  1.0000
  C   C1346     1.0  0.68064  0.07795  0.07102  1.0000
  H   H1074     1.0  0.67821  0.09848  0.08293  1.0000
  H   H1075     1.0  0.95490  0.06810  0.33480  1.0000
  C   C1347     1.0  0.95416  0.26602  0.39271  1.0000
  C   C1348     1.0  0.86780  0.12587  0.98918  1.0000
  H   H1076     1.0  0.93388  0.07669  0.40077  1.0000
  C   C1349     1.0  0.74734  0.02627  0.02088  1.0000
  H   H1077     1.0  0.96958  0.16820  0.27375  1.0000
  H   H1078     1.0  0.78517  0.24617  0.12855  1.0000
  C   C1350     1.0  0.96540  0.28559  0.40581  1.0000
  H   H1079     1.0  0.94242  0.26521  0.22209  1.0000
  H   H1080     1.0  0.95431  0.25828  0.28629  1.0000
  C   C1351     1.0  0.76129  0.19608  0.08882  1.0000
  C   C1352     1.0  0.75796  0.03734  0.99365  1.0000
  S   S181      1.0  0.99087  0.13599  0.02795  1.0000
  H   H1081     1.0  0.94210  0.08083  0.27346  1.0000
  H   H1082     1.0  0.74614  0.28309  0.47519  1.0000
  H   H1083     1.0  0.78432  0.21307  0.07331  1.0000
  H   H1084     1.0  0.94031  0.11666  0.44347  1.0000
  H   H1085     1.0  0.70554  0.07882  0.08667  1.0000
  C   C1353     1.0  0.77448  0.21378  0.09376  1.0000
  C   C1354     1.0  0.74501  0.24685  0.24160  1.0000
  C   C1355     1.0  0.95449  0.05229  0.41832  1.0000
  C   C1356     1.0  0.97106  0.07365  0.46796  1.0000
  P   P45       1.0  0.97984  0.22025  0.31411  1.0000
  C   C1357     1.0  0.72037  0.03802  0.18072  1.0000
  H   H1086     1.0  0.73844  0.18290  0.11075  1.0000
  C   C1358     1.0  0.70911  0.48755  0.04784  1.0000
  C   C1359     1.0  0.69961  0.20715  0.17030  1.0000
  C   C1360     1.0  0.95784  0.23540  0.19393  1.0000
  C   C1361     1.0  0.73262  0.03952  0.02852  1.0000
  Fe  Fe88      1.0  0.66480  0.36334  0.42971  1.0000
  C   C1362     1.0  0.69367  0.48062  0.33138  1.0000
  H   H1087     1.0  0.90987  0.01101  0.28353  1.0000
  C   C1363     1.0  0.72850  0.16217  0.27226  1.0000
  H   H1088     1.0  0.73716  0.12004  0.27785  1.0000
  C   C1364     1.0  0.92480  0.04727  0.27523  1.0000
  H   H1089     1.0  0.91532  0.01798  0.40801  1.0000
  C   C1365     1.0  0.67994  0.47284  0.27112  1.0000
  C   C1366     1.0  0.96131  0.09735  0.46771  1.0000
  H   H1090     1.0  0.75338  0.26778  0.29300  1.0000
  H   H1091     1.0  0.92930  0.22327  0.00728  1.0000
  H   H1092     1.0  0.69960  0.19782  0.19864  1.0000
  C   C1367     1.0  0.73278  0.24488  0.21380  1.0000
  H   H1093     1.0  0.75068  0.00751  0.03620  1.0000
  H   H1094     1.0  0.76090  0.18170  0.06457  1.0000
  C   C1368     1.0  0.89541  0.12813  0.01433  1.0000
  C   C1369     1.0  0.74859  0.19681  0.11514  1.0000
  C   C1370     1.0  0.95841  0.24670  0.36414  1.0000
  C   C1371     1.0  0.97045  0.21651  0.19849  1.0000
  C   C1372     1.0  0.71399  0.21630  0.15352  1.0000
  C   C1373     1.0  0.74223  0.03937  0.11956  1.0000
  C   C1374     1.0  0.73084  0.28451  0.27363  1.0000
  C   C1375     1.0  0.70322  0.43499  0.01461  1.0000
  H   H1095     1.0  0.91939  0.05269  0.24785  1.0000
  C   C1376     1.0  0.96863  0.16530  0.30442  1.0000
  H   H1096     1.0  0.70823  0.29622  0.24859  1.0000
  C   C1377     1.0  0.71964  0.26325  0.21614  1.0000
  H   H1097     1.0  0.67392  0.20383  0.16431  1.0000
  C   C1378     1.0  0.97856  0.08706  0.21338  1.0000
  C   C1379     1.0  0.98515  0.46566  0.48061  1.0000
  C   C1380     1.0  0.94439  0.07573  0.41911  1.0000
  C   C1381     1.0  0.91950  0.22053  0.98703  1.0000
  H   H1098     1.0  0.96646  0.15105  0.41410  1.0000
  H   H1099     1.0  0.90359  0.13323  0.03752  1.0000
  C   C1382     1.0  0.87871  0.13238  0.01895  1.0000
  S   S182      1.0  0.84682  0.13109  0.99688  1.0000
  H   H1100     1.0  0.69870  0.24174  0.06945  1.0000
  H   H1101     1.0  0.74030  0.05072  0.21630  1.0000
  C   C1383     1.0  0.74905  0.21511  0.14695  1.0000
  H   H1102     1.0  0.72619  0.46575  0.08382  1.0000
  H   H1103     1.0  0.73145  0.14806  0.00834  1.0000
  C   C1384     1.0  0.92667  0.01645  0.33029  1.0000
  H   H1104     1.0  0.70091  0.41468  0.00184  1.0000
  H   H1105     1.0  0.97538  0.03307  0.44374  1.0000
  C   C1385     1.0  0.77495  0.23234  0.12494  1.0000
  C   C1386     1.0  0.71868  0.28285  0.24602  1.0000
  H   H1106     1.0  0.76283  0.24783  0.17503  1.0000
  C   C1387     1.0  0.69923  0.03983  0.05883  1.0000
  C   C1388     1.0  0.97579  0.10067  0.17795  1.0000
  H   H1107     1.0  0.74790  0.11802  0.21116  1.0000
  Fe  Fe89      1.0  0.94605  0.12179  0.00302  1.0000
  C   C1389     1.0  0.72871  0.06398  0.00846  1.0000
  C   C1390     1.0  0.72608  0.03255  0.11237  1.0000
  C   C1391     1.0  0.98516  0.26674  0.36165  1.0000
  P   P46       1.0  0.94964  0.02252  0.38863  1.0000
  H   H1108     1.0  0.98960  0.30088  0.40106  1.0000
  H   H1109     1.0  0.72233  0.01230  0.33497  1.0000
  C   C1392     1.0  0.74100  0.16008  0.19760  1.0000
  P   P47       1.0  0.71909  0.02506  0.06406  1.0000
  H   H1110     1.0  0.67338  0.22496  0.09937  1.0000
  C   C1393     1.0  0.98029  0.02208  0.35677  1.0000
  H   H1111     1.0  0.97463  0.19730  0.39122  1.0000
  C   C1394     1.0  0.73629  0.13811  0.25931  1.0000
  C   C1395     1.0  0.96766  0.05121  0.44336  1.0000
  Fe  Fe90      1.0  0.98045  0.09763  0.99994  1.0000
  C   C1396     1.0  0.68121  0.00649  0.33579  1.0000
  H   H1112     1.0  0.70268  0.02681  0.13849  1.0000
  C   C1397     1.0  0.74240  0.13700  0.22190  1.0000
  H   H1113     1.0  0.77238  0.10693  0.05690  1.0000
  H   H1114     1.0  0.72339  0.16283  0.30094  1.0000
  C   C1398     1.0  0.98004  0.47928  0.35232  1.0000
  C   C1399     1.0  0.99330  0.00946  0.33821  1.0000
  C   C1400     1.0  0.97234  0.18686  0.33061  1.0000
  H   H1115     1.0  0.98013  0.04461  0.35966  1.0000
  C   C1401     1.0  0.98082  0.28608  0.39005  1.0000
  C   C1402     1.0  0.71522  0.03174  0.14333  1.0000
  H   H1116     1.0  0.97405  0.28863  0.00359  1.0000
  C   C1403     1.0  0.93750  0.06327  0.28978  1.0000
  H   H1117     1.0  0.67682  0.02012  0.35833  1.0000
  C   C1404     1.0  0.73335  0.18452  0.21045  1.0000
  H   H1118     1.0  0.68874  0.00391  0.02987  1.0000
  H   H1119     1.0  0.97144  0.23681  0.00169  1.0000
  H   H1120     1.0  0.66229  0.24988  0.25850  1.0000
  H   H1121     1.0  0.74574  0.15832  0.16878  1.0000
  H   H1122     1.0  0.97453  0.20411  0.17414  1.0000
  C   C1405     1.0  0.94466  0.05610  0.32477  1.0000
  C   C1406     1.0  0.68470  0.22272  0.11442  1.0000
  H   H1123     1.0  0.97862  0.02328  0.00857  1.0000
  C   C1407     1.0  0.69524  0.45856  0.00075  1.0000
  C   C1408     1.0  0.94788  0.09829  0.44354  1.0000
  H   H1124     1.0  0.95593  0.48694  0.33365  1.0000
  H   H1125     1.0  0.72065  0.41947  0.05507  1.0000
  C   C1409     1.0  0.92183  0.00255  0.42447  1.0000
  H   H1126     1.0  0.66404  0.25449  0.39349  1.0000
  S   S183      1.0  0.98965  0.08258  0.28799  1.0000
  H   H1127     1.0  0.99280  0.49363  0.16810  1.0000
  C   C1410     1.0  0.99003  0.14102  0.20211  1.0000
  C   C1411     1.0  0.69826  0.48481  0.01710  1.0000
  H   H1128     1.0  0.75081  0.04085  0.09632  1.0000
  H   H1129     1.0  0.91802  0.17599  0.99543  1.0000
  C   C1412     1.0  0.98706  0.10036  0.24340  1.0000
  S   S184      1.0  0.76390  0.13581  0.98416  1.0000
  Fe  Fe91      1.0  0.66188  0.10525  0.16778  1.0000
  C   C1413     1.0  0.97958  0.24731  0.98223  1.0000
  Fe  Fe92      1.0  0.97503  0.16149  0.98964  1.0000
  C   C1414     1.0  0.98881  0.01359  0.99462  1.0000
  H   H1130     1.0  0.75776  0.42231  0.46312  1.0000
  H   H1131     1.0  0.70076  0.48402  0.12794  1.0000
  C   C1415     1.0  0.98498  0.21600  0.47744  1.0000
  C   C1416     1.0  0.98106  0.27667  0.98319  1.0000
  C   C1417     1.0  0.70595  0.27393  0.46351  1.0000
  C   C1418     1.0  0.72920  0.00042  0.27751  1.0000
  C   C1419     1.0  0.72832  0.99679  0.31730  1.0000
  H   H1132     1.0  0.66158  0.02409  0.02613  1.0000
  H   H1133     1.0  0.99430  0.48139  0.02835  1.0000
  H   H1134     1.0  0.76940  0.02734  0.98812  1.0000
  C   C1420     1.0  0.84348  0.20615  0.98110  1.0000
  C   C1421     1.0  0.76172  0.42686  0.67622  1.0000
  H   H1135     1.0  0.88415  0.02857  0.67666  1.0000
  Fe  Fe93      1.0  0.80739  0.33539  0.72485  1.0000
  S   S185      1.0  0.81599  0.32655  0.66446  1.0000
  S   S186      1.0  0.80017  0.30289  0.77128  1.0000
  Fe  Fe94      1.0  0.80683  0.39975  0.70979  1.0000
  S   S187      1.0  0.81549  0.39416  0.64840  1.0000
  S   S188      1.0  0.79878  0.44332  0.73139  1.0000
  Fe  Fe95      1.0  0.79762  0.35840  0.64405  1.0000
  S   S189      1.0  0.78145  0.34618  0.59159  1.0000
  Fe  Fe96      1.0  0.83301  0.36293  0.67308  1.0000
  S   S190      1.0  0.86066  0.36425  0.66846  1.0000
  S   S191      1.0  0.78820  0.36536  0.70409  1.0000
  S   S192      1.0  0.82512  0.37046  0.73474  1.0000
  Fe  Fe97      1.0  0.82551  0.12470  0.95565  1.0000
  S   S193      1.0  0.82760  0.11541  0.89262  1.0000
  C   C1422     1.0  0.98512  0.44312  0.65702  1.0000
  Fe  Fe98      1.0  0.78818  0.12701  0.95272  1.0000
  S   S194      1.0  0.78824  0.11839  0.88803  1.0000
  H   H1136     1.0  0.96539  0.40273  0.87893  1.0000
  Fe  Fe99      1.0  0.80692  0.08545  0.90062  1.0000
  S   S195      1.0  0.80813  0.03885  0.88321  1.0000
  Fe  Fe100     1.0  0.80896  0.14929  0.88428  1.0000
  S   S196      1.0  0.81661  0.18001  0.83609  1.0000
  S   S197      1.0  0.80591  0.09271  0.96516  1.0000
  S   S198      1.0  0.80774  0.15975  0.94754  1.0000
  Fe  Fe101     1.0  0.97038  0.39578  0.52344  1.0000
  H   H1137     1.0  0.97615  0.20102  0.48718  1.0000
  C   C1423     1.0  0.87809  0.48731  0.86970  1.0000
  Fe  Fe102     1.0  0.97390  0.36389  0.60054  1.0000
  S   S199      1.0  0.96277  0.32413  0.57737  1.0000
  S   S200      1.0  0.97756  0.37363  0.66465  1.0000
  Fe  Fe103     1.0  0.97791  0.33185  0.52420  1.0000
  H   H1138     1.0  0.82050  0.22816  0.90615  1.0000
  Fe  Fe104     1.0  0.94440  0.35251  0.55011  1.0000
  S   S201      1.0  0.91727  0.34323  0.54608  1.0000
  S   S202      1.0  0.95461  0.39163  0.57595  1.0000
  S   S203      1.0  0.95883  0.35797  0.49535  1.0000
  C   C1424     1.0  0.80590  0.47088  0.76228  1.0000
  C   C1425     1.0  0.82050  0.46949  0.78223  1.0000
  H   H1139     1.0  0.93271  0.04768  0.85409  1.0000
  H   H1140     1.0  0.97939  0.31399  0.73133  1.0000
  H   H1141     1.0  0.96796  0.36013  0.91882  1.0000
  C   C1426     1.0  0.74358  0.22981  0.57187  1.0000
  H   H1142     1.0  0.82783  0.45096  0.77965  1.0000
  C   C1427     1.0  0.76876  0.45011  0.61646  1.0000
  H   H1143     1.0  0.79974  0.04913  0.80177  1.0000
  H   H1144     1.0  0.89312  0.01954  0.78446  1.0000
  C   C1428     1.0  0.80531  0.26903  0.78982  1.0000
  C   C1429     1.0  0.79501  0.25616  0.81675  1.0000
  C   C1430     1.0  0.79835  0.22931  0.83179  1.0000
  C   C1431     1.0  0.81204  0.21467  0.81990  1.0000
  C   C1432     1.0  0.82238  0.22758  0.79312  1.0000
  C   C1433     1.0  0.81916  0.25456  0.77853  1.0000
  H   H1145     1.0  0.78430  0.26703  0.82598  1.0000
  H   H1146     1.0  0.79020  0.21982  0.85221  1.0000
  H   H1147     1.0  0.83304  0.21665  0.78366  1.0000
  H   H1148     1.0  0.82740  0.26416  0.75852  1.0000
  C   C1434     1.0  0.87607  0.35670  0.63412  1.0000
  C   C1435     1.0  0.89226  0.35942  0.64554  1.0000
  C   C1436     1.0  0.90494  0.35494  0.61919  1.0000
  C   C1437     1.0  0.90167  0.34779  0.58091  1.0000
  C   C1438     1.0  0.88550  0.34431  0.56971  1.0000
  C   C1439     1.0  0.87278  0.34880  0.59605  1.0000
  H   H1149     1.0  0.89501  0.36512  0.67497  1.0000
  H   H1150     1.0  0.91728  0.35688  0.62834  1.0000
  H   H1151     1.0  0.88279  0.33854  0.54026  1.0000
  H   H1152     1.0  0.86044  0.34648  0.58676  1.0000
  C   C1440     1.0  0.76404  0.35785  0.56501  1.0000
  C   C1441     1.0  0.75535  0.38182  0.57502  1.0000
  C   C1442     1.0  0.74166  0.38997  0.55346  1.0000
  C   C1443     1.0  0.73641  0.37455  0.52107  1.0000
  C   C1444     1.0  0.74532  0.35097  0.51044  1.0000
  C   C1445     1.0  0.75888  0.34259  0.53235  1.0000
  H   H1153     1.0  0.75905  0.39388  0.59975  1.0000
  C   C1446     1.0  0.81686  0.45560  0.57617  1.0000
  H   H1154     1.0  0.76555  0.32428  0.52364  1.0000
  H   H1155     1.0  0.86707  0.26555  0.89463  1.0000
  C   C1447     1.0  0.96618  0.35383  0.80747  1.0000
  C   C1448     1.0  0.97570  0.46903  0.58872  1.0000
  H   H1156     1.0  0.76543  0.41588  0.70198  1.0000
  C   C1449     1.0  0.84872  0.99423  0.78358  1.0000
  C   C1450     1.0  0.96736  0.32957  0.82989  1.0000
  C   C1451     1.0  0.87551  0.46451  0.84514  1.0000
  C   C1452     1.0  0.89097  0.48739  0.79536  1.0000
  H   H1157     1.0  0.91595  0.38868  0.78262  1.0000
  H   H1158     1.0  0.86760  0.30081  0.84306  1.0000
  H   H1159     1.0  0.73507  0.40839  0.56203  1.0000
  H   H1160     1.0  0.72484  0.38290  0.64183  1.0000
  S   S204      1.0  0.96592  0.12327  0.95896  1.0000
  H   H1161     1.0  0.92240  0.28504  0.71744  1.0000
  H   H1162     1.0  0.67072  0.36865  0.51909  1.0000
  C   C1453     1.0  0.71635  0.34572  0.61316  1.0000
  C   C1454     1.0  0.85843  0.47093  0.71984  1.0000
  C   C1455     1.0  0.69467  0.21547  0.60553  1.0000
  C   C1456     1.0  0.88699  0.00702  0.67000  1.0000
  C   C1457     1.0  0.69641  0.21543  0.64557  1.0000
  C   C1458     1.0  0.74088  0.44761  0.63719  1.0000
  C   C1459     1.0  0.70346  0.26452  0.64418  1.0000
  C   C1460     1.0  0.69743  0.23997  0.58471  1.0000
  C   C1461     1.0  0.68582  0.33793  0.54614  1.0000
  H   H1163     1.0  0.89421  0.40271  0.51105  1.0000
  C   C1462     1.0  0.93101  0.37479  0.73598  1.0000
  C   C1463     1.0  0.74022  0.21309  0.60379  1.0000
  C   C1464     1.0  0.96813  0.33209  0.87018  1.0000
  H   H1164     1.0  0.96975  0.31386  0.88819  1.0000
  H   H1165     1.0  0.91791  0.26422  0.97331  1.0000
  C   C1465     1.0  0.84939  0.00312  0.89555  1.0000
  H   H1166     1.0  0.91366  0.04395  0.51952  1.0000
  C   C1466     1.0  0.80688  0.01701  0.84126  1.0000
  C   C1467     1.0  0.92007  0.47164  0.66043  1.0000
  S   S205      1.0  0.99353  0.30071  0.48906  1.0000
  C   C1468     1.0  0.98339  0.24445  0.48831  1.0000
  C   C1469     1.0  0.70192  0.26468  0.60387  1.0000
  C   C1470     1.0  0.82170  0.23022  0.61269  1.0000
  C   C1471     1.0  0.83116  0.24764  0.63586  1.0000
  C   C1472     1.0  0.82490  0.25842  0.67014  1.0000
  C   C1473     1.0  0.80909  0.25236  0.68089  1.0000
  C   C1474     1.0  0.79943  0.23534  0.65747  1.0000
  C   C1475     1.0  0.80596  0.22377  0.62370  1.0000
  P   P48       1.0  0.77955  0.22525  0.67271  1.0000
  C   C1476     1.0  0.76570  0.22647  0.63275  1.0000
  C   C1477     1.0  0.78199  0.19096  0.69321  1.0000
  C   C1478     1.0  0.77794  0.16681  0.67223  1.0000
  C   C1479     1.0  0.78016  0.14039  0.68849  1.0000
  C   C1480     1.0  0.78667  0.13792  0.72546  1.0000
  C   C1481     1.0  0.79117  0.16184  0.74598  1.0000
  C   C1482     1.0  0.78901  0.18825  0.72980  1.0000
  C   C1483     1.0  0.76872  0.24404  0.60123  1.0000
  C   C1484     1.0  0.75779  0.24540  0.57072  1.0000
  C   C1485     1.0  0.75117  0.21159  0.63430  1.0000
  C   C1486     1.0  0.77112  0.24918  0.70745  1.0000
  C   C1487     1.0  0.77214  0.27805  0.70117  1.0000
  C   C1488     1.0  0.76492  0.29671  0.72693  1.0000
  C   C1489     1.0  0.75680  0.28674  0.75928  1.0000
  C   C1490     1.0  0.75551  0.25802  0.76541  1.0000
  C   C1491     1.0  0.76245  0.23926  0.73936  1.0000
  H   H1167     1.0  0.82661  0.22165  0.58630  1.0000
  H   H1168     1.0  0.84334  0.25279  0.62736  1.0000
  H   H1169     1.0  0.83225  0.27182  0.68824  1.0000
  H   H1170     1.0  0.80444  0.26098  0.70745  1.0000
  H   H1171     1.0  0.79888  0.20978  0.60590  1.0000
  H   H1172     1.0  0.77324  0.16826  0.64327  1.0000
  H   H1173     1.0  0.77691  0.12177  0.67241  1.0000
  H   H1174     1.0  0.78834  0.11748  0.73816  1.0000
  H   H1175     1.0  0.79638  0.15996  0.77449  1.0000
  H   H1176     1.0  0.79279  0.20656  0.74597  1.0000
  H   H1177     1.0  0.77941  0.25700  0.60029  1.0000
  H   H1178     1.0  0.76031  0.25883  0.54638  1.0000
  H   H1179     1.0  0.74829  0.19894  0.65918  1.0000
  H   H1180     1.0  0.77873  0.28620  0.67675  1.0000
  H   H1181     1.0  0.76617  0.31897  0.72269  1.0000
  H   H1182     1.0  0.75179  0.30132  0.77994  1.0000
  H   H1183     1.0  0.74932  0.25030  0.79068  1.0000
  H   H1184     1.0  0.76109  0.21712  0.74445  1.0000
  C   C1492     1.0  0.86181  0.44254  0.71532  1.0000
  C   C1493     1.0  0.85351  0.05301  0.90228  1.0000
  C   C1494     1.0  0.96417  0.45719  0.61282  1.0000
  C   C1495     1.0  0.73396  0.30563  0.61665  1.0000
  C   C1496     1.0  0.88752  0.45409  0.68596  1.0000
  C   C1497     1.0  0.87631  0.43415  0.69859  1.0000
  P   P49       1.0  0.90604  0.44285  0.66343  1.0000
  C   C1498     1.0  0.90206  0.43049  0.61493  1.0000
  C   C1499     1.0  0.91470  0.42822  0.58828  1.0000
  C   C1500     1.0  0.91183  0.41852  0.55089  1.0000
  C   C1501     1.0  0.89628  0.41131  0.53955  1.0000
  C   C1502     1.0  0.88356  0.41397  0.56553  1.0000
  C   C1503     1.0  0.88641  0.42340  0.60310  1.0000
  C   C1504     1.0  0.91555  0.41584  0.69178  1.0000
  C   C1505     1.0  0.92776  0.39933  0.67567  1.0000
  C   C1506     1.0  0.93533  0.37879  0.69758  1.0000
  C   C1507     1.0  0.68656  0.31547  0.57193  1.0000
  C   C1508     1.0  0.91921  0.39162  0.75270  1.0000
  C   C1509     1.0  0.91159  0.41221  0.73083  1.0000
  H   H1185     1.0  0.85313  0.42693  0.72446  1.0000
  H   H1186     1.0  0.70660  0.28342  0.65974  1.0000
  C   C1510     1.0  0.71961  0.31774  0.60361  1.0000
  H   H1187     1.0  0.87870  0.41204  0.69508  1.0000
  C   C1511     1.0  0.77323  0.43467  0.64899  1.0000
  H   H1188     1.0  0.92176  0.41571  0.53102  1.0000
  S   S206      1.0  0.97092  0.43867  0.49235  1.0000
  H   H1189     1.0  0.87159  0.40750  0.55709  1.0000
  H   H1190     1.0  0.87639  0.42426  0.62279  1.0000
  H   H1191     1.0  0.93142  0.40191  0.64606  1.0000
  H   H1192     1.0  0.94454  0.36587  0.68457  1.0000
  C   C1512     1.0  0.83428  0.08855  0.79336  1.0000
  C   C1513     1.0  0.84334  0.10220  0.76530  1.0000
  C   C1514     1.0  0.85900  0.09338  0.75742  1.0000
  C   C1515     1.0  0.86569  0.07117  0.77802  1.0000
  C   C1516     1.0  0.85683  0.05797  0.80721  1.0000
  C   C1517     1.0  0.84094  0.06642  0.81398  1.0000
  C   C1518     1.0  0.90933  0.05116  0.87997  1.0000
  S   S207      1.0  0.71879  0.38589  0.49516  1.0000
  H   H1193     1.0  0.95167  0.45751  0.60447  1.0000
  H   H1194     1.0  0.68810  0.28041  0.50701  1.0000
  C   C1519     1.0  0.71206  0.28828  0.52927  1.0000
  H   H1195     1.0  0.91391  0.06015  0.90664  1.0000
  C   C1520     1.0  0.93669  0.25808  0.88071  1.0000
  H   H1196     1.0  0.96606  0.31667  0.66823  1.0000
  H   H1197     1.0  0.92509  0.26295  0.89290  1.0000
  C   C1521     1.0  0.95861  0.29703  0.76096  1.0000
  H   H1198     1.0  0.86566  0.11063  0.93125  1.0000
  H   H1199     1.0  0.98415  0.25743  0.75297  1.0000
  C   C1522     1.0  0.94941  0.01301  0.53939  1.0000
  H   H1200     1.0  0.88505  0.05206  0.89923  1.0000
  H   H1201     1.0  0.73734  0.29490  0.54088  1.0000
  H   H1202     1.0  0.93286  0.46139  0.71296  1.0000
  C   C1523     1.0  0.96891  0.99492  0.85419  1.0000
  H   H1203     1.0  0.82209  0.09521  0.79950  1.0000
  H   H1204     1.0  0.83818  0.11960  0.74973  1.0000
  H   H1205     1.0  0.86597  0.10389  0.73545  1.0000
  C   C1524     1.0  0.91993  0.04418  0.85031  1.0000
  H   H1206     1.0  0.83365  0.05607  0.83539  1.0000
  C   C1525     1.0  0.83247  0.45672  0.59107  1.0000
  H   H1207     1.0  0.70551  0.35588  0.60349  1.0000
  C   C1526     1.0  0.88193  0.46456  0.80796  1.0000
  H   H1208     1.0  0.91013  0.48795  0.60741  1.0000
  H   H1209     1.0  0.97212  0.47832  0.56161  1.0000
  C   C1527     1.0  0.99195  0.46806  0.59873  1.0000
  C   C1528     1.0  0.94246  0.28894  0.75660  1.0000
  H   H1210     1.0  0.97564  0.00004  0.91430  1.0000
  H   H1211     1.0  0.89608  0.48733  0.76671  1.0000
  C   C1529     1.0  0.98838  0.23171  0.95545  1.0000
  C   C1530     1.0  0.86941  0.49093  0.70692  1.0000
  C   C1531     1.0  0.91402  0.03275  0.81599  1.0000
  H   H1212     1.0  0.89563  0.16959  0.94999  1.0000
  C   C1532     1.0  0.83501  0.46484  0.62930  1.0000
  C   C1533     1.0  0.93845  0.03161  0.52318  1.0000
  H   H1213     1.0  0.94253  0.04702  0.50265  1.0000
  C   C1534     1.0  0.78129  0.43544  0.54173  1.0000
  C   C1535     1.0  0.70085  0.28064  0.50077  1.0000
  C   C1536     1.0  0.94395  0.27674  0.85516  1.0000
  H   H1214     1.0  0.81517  0.44967  0.54633  1.0000
  C   C1537     1.0  0.79064  0.41109  0.54070  1.0000
  H   H1215     1.0  0.78558  0.42865  0.65361  1.0000
  C   C1538     1.0  0.83989  0.02739  0.95257  1.0000
  C   C1539     1.0  0.74498  0.32136  0.63801  1.0000
  C   C1540     1.0  0.74157  0.34902  0.64773  1.0000
  C   C1541     1.0  0.72724  0.36117  0.63537  1.0000
  C   C1542     1.0  0.76936  0.43930  0.51361  1.0000
  H   H1216     1.0  0.75640  0.31243  0.64610  1.0000
  H   H1217     1.0  0.75035  0.36135  0.66348  1.0000
  C   C1543     1.0  0.93488  0.29112  0.72071  1.0000
  C   C1544     1.0  0.95965  0.22745  0.87557  1.0000
  H   H1218     1.0  0.90848  0.48987  0.90916  1.0000
  C   C1545     1.0  0.89733  0.13557  0.85379  1.0000
  C   C1546     1.0  0.88364  0.12012  0.84429  1.0000
  C   C1547     1.0  0.86839  0.13146  0.85038  1.0000
  C   C1548     1.0  0.86679  0.15804  0.86674  1.0000
  C   C1549     1.0  0.88050  0.17344  0.87724  1.0000
  C   C1550     1.0  0.89579  0.16224  0.86982  1.0000
  P   P50       1.0  0.87862  0.20778  0.89856  1.0000
  C   C1551     1.0  0.85951  0.21022  0.92293  1.0000
  C   C1552     1.0  0.89443  0.21306  0.93369  1.0000
  H   H1219     1.0  0.89582  0.25792  0.92656  1.0000
  C   C1553     1.0  0.91311  0.24355  0.96774  1.0000
  H   H1220     1.0  0.67281  0.28995  0.61157  1.0000
  C   C1554     1.0  0.83004  0.21597  0.96129  1.0000
  H   H1221     1.0  0.86846  0.44685  0.85492  1.0000
  C   C1555     1.0  0.84574  0.21880  0.90277  1.0000
  C   C1556     1.0  0.84160  0.00274  0.93126  1.0000
  H   H1222     1.0  0.96430  0.11504  0.48598  1.0000
  C   C1557     1.0  0.89283  0.04661  0.87549  1.0000
  C   C1558     1.0  0.91318  0.19392  0.98035  1.0000
  C   C1559     1.0  0.87982  0.23417  0.86153  1.0000
  C   C1560     1.0  0.88738  0.22846  0.82620  1.0000
  C   C1561     1.0  0.88780  0.24870  0.79724  1.0000
  C   C1562     1.0  0.88067  0.27475  0.80330  1.0000
  C   C1563     1.0  0.87329  0.28072  0.83851  1.0000
  C   C1564     1.0  0.87294  0.26061  0.86761  1.0000
  H   H1223     1.0  0.90916  0.12668  0.84951  1.0000
  H   H1224     1.0  0.88487  0.09930  0.83257  1.0000
  H   H1225     1.0  0.93367  0.48334  0.94548  1.0000
  H   H1226     1.0  0.85483  0.16626  0.87151  1.0000
  H   H1227     1.0  0.90656  0.17387  0.87710  1.0000
  C   C1565     1.0  0.92218  0.02991  0.53284  1.0000
  C   C1566     1.0  0.67129  0.35169  0.53969  1.0000
  C   C1567     1.0  0.74555  0.43336  0.67040  1.0000
  H   H1228     1.0  0.96198  0.01380  0.53103  1.0000
  C   C1568     1.0  0.70082  0.23994  0.66487  1.0000
  H   H1229     1.0  0.84618  0.22281  0.87209  1.0000
  C   C1569     1.0  0.78875  0.39177  0.51072  1.0000
  H   H1230     1.0  0.94688  0.99462  0.64778  1.0000
  C   C1570     1.0  0.85548  0.02829  0.88086  1.0000
  C   C1571     1.0  0.96679  0.03827  0.81835  1.0000
  H   H1231     1.0  0.89279  0.20833  0.82069  1.0000
  H   H1232     1.0  0.89343  0.24403  0.76984  1.0000
  H   H1233     1.0  0.88071  0.29024  0.78058  1.0000
  H   H1234     1.0  0.96468  0.39873  0.80761  1.0000
  H   H1235     1.0  0.90269  0.42525  0.74460  1.0000
  H   H1236     1.0  0.93685  0.35867  0.75268  1.0000
  H   H1237     1.0  0.73667  0.42723  0.69156  1.0000
  H   H1238     1.0  0.73670  0.28408  0.61005  1.0000
  P   P51       1.0  0.70517  0.29662  0.57740  1.0000
  H   H1239     1.0  0.93912  0.21919  0.91142  1.0000
  H   H1240     1.0  0.89496  0.10230  0.92325  1.0000
  H   H1241     1.0  0.92685  0.43354  0.59639  1.0000
  H   H1242     1.0  0.76227  0.07058  0.95316  1.0000
  C   C1572     1.0  0.80362  0.46192  0.59974  1.0000
  H   H1243     1.0  0.98202  0.39258  0.74179  1.0000
  C   C1573     1.0  0.98930  0.28581  0.80023  1.0000
  H   H1244     1.0  0.78877  0.48894  0.50741  1.0000
  H   H1245     1.0  0.85775  0.07274  0.89110  1.0000
  C   C1574     1.0  0.97308  0.03955  0.88639  1.0000
  H   H1246     1.0  0.79902  0.40646  0.56365  1.0000
  H   H1247     1.0  0.72912  0.20131  0.60496  1.0000
  P   P52       1.0  0.86532  0.02942  0.83443  1.0000
  H   H1248     1.0  0.97869  0.24089  0.83872  1.0000
  P   P53       1.0  0.78341  0.46020  0.58076  1.0000
  H   H1249     1.0  0.90766  0.01751  0.63601  1.0000
  H   H1250     1.0  0.83358  0.02722  0.97985  1.0000
  H   H1251     1.0  0.69590  0.23954  0.55379  1.0000
  C   C1575     1.0  0.72845  0.28862  0.51992  1.0000
  H   H1252     1.0  0.93753  0.30281  0.66103  1.0000
  H   H1253     1.0  0.84723  0.47745  0.73298  1.0000
  C   C1576     1.0  0.96633  0.00905  0.81938  1.0000
  H   H1254     1.0  0.69645  0.34461  0.53060  1.0000
  H   H1255     1.0  0.87984  0.44692  0.78897  1.0000
  H   H1256     1.0  0.97340  0.25101  0.50606  1.0000
  C   C1577     1.0  0.95901  0.27066  0.83901  1.0000
  C   C1578     1.0  0.87384  0.11525  0.95454  1.0000
  C   C1579     1.0  0.89048  0.11063  0.95010  1.0000
  H   H1257     1.0  0.84012  0.01098  0.78014  1.0000
  C   C1580     1.0  0.99159  0.29066  0.95803  1.0000
  C   C1581     1.0  0.85817  0.20325  0.96205  1.0000
  H   H1258     1.0  0.79739  0.01694  0.74554  1.0000
  C   C1582     1.0  0.83111  0.22187  0.92200  1.0000
  H   H1259     1.0  0.85774  0.11957  0.84298  1.0000
  C   C1583     1.0  0.96711  0.35836  0.88772  1.0000
  C   C1584     1.0  0.80244  0.02720  0.80505  1.0000
  H   H1260     1.0  0.84707  0.46526  0.64096  1.0000
  C   C1585     1.0  0.99334  0.26644  0.77131  1.0000
  H   H1261     1.0  0.79645  0.47730  0.65604  1.0000
  H   H1262     1.0  0.96496  0.04913  0.79140  1.0000
  H   H1263     1.0  0.84439  0.07168  0.95452  1.0000
  C   C1586     1.0  0.89750  0.02833  0.81130  1.0000
  C   C1587     1.0  0.99192  0.37877  0.73528  1.0000
  P   P54       1.0  0.96858  0.29557  0.80734  1.0000
  C   C1588     1.0  0.96531  0.38009  0.82511  1.0000
  C   C1589     1.0  0.82196  0.47236  0.65241  1.0000
  C   C1590     1.0  0.90060  0.23986  0.94116  1.0000
  H   H1264     1.0  0.96593  0.20867  0.88430  1.0000
  H   H1265     1.0  0.76136  0.45706  0.51497  1.0000
  C   C1591     1.0  0.86194  0.99711  0.80844  1.0000
  C   C1592     1.0  0.97267  0.01039  0.88751  1.0000
  H   H1266     1.0  0.98155  0.07293  0.48650  1.0000
  C   C1593     1.0  0.97009  0.05351  0.85190  1.0000
  C   C1594     1.0  0.96887  0.44410  0.64686  1.0000
  C   C1595     1.0  0.94456  0.23347  0.89104  1.0000
  H   H1267     1.0  0.93790  0.29610  0.84830  1.0000
  H   H1268     1.0  0.97070  0.07613  0.85117  1.0000
  H   H1269     1.0  0.68680  0.45655  0.97713  1.0000
  C   C1596     1.0  0.88385  0.48260  0.68976  1.0000
  H   H1270     1.0  0.93564  0.28097  0.78059  1.0000
  H   H1271     1.0  0.96004  0.43379  0.66479  1.0000
  C   C1597     1.0  0.96700  0.30717  0.72876  1.0000
  C   C1598     1.0  0.95945  0.30893  0.69291  1.0000
  C   C1599     1.0  0.75243  0.45592  0.61027  1.0000
  H   H1272     1.0  0.96614  0.35265  0.77639  1.0000
  C   C1600     1.0  0.94337  0.30109  0.68888  1.0000
  C   C1601     1.0  0.91686  0.00978  0.55906  1.0000
  H   H1273     1.0  0.72832  0.45220  0.63224  1.0000
  C   C1602     1.0  0.73352  0.28188  0.48257  1.0000
  S   S208      1.0  0.98657  0.19486  0.95142  1.0000
  H   H1274     1.0  0.87779  0.06466  0.77141  1.0000
  C   C1603     1.0  0.88672  0.03521  0.84102  1.0000
  C   C1604     1.0  0.96686  0.24589  0.84963  1.0000
  H   H1275     1.0  0.73636  0.09387  0.96586  1.0000
  C   C1605     1.0  0.96569  0.38236  0.86523  1.0000
  C   C1606     1.0  0.90017  0.00067  0.64651  1.0000
  C   C1607     1.0  0.76731  0.41970  0.48404  1.0000
  H   H1276     1.0  0.81861  0.21787  0.97600  1.0000
  S   S209      1.0  0.92232  0.11156  0.97157  1.0000
  C   C1608     1.0  0.90058  0.19027  0.95421  1.0000
  H   H1277     1.0  0.73509  0.23094  0.54824  1.0000
  H   H1278     1.0  0.69423  0.19645  0.66169  1.0000
  H   H1279     1.0  0.69110  0.19653  0.59059  1.0000
  H   H1280     1.0  0.87322  0.48670  0.89862  1.0000
  H   H1281     1.0  0.82382  0.47860  0.68215  1.0000
  H   H1282     1.0  0.92227  0.02740  0.79298  1.0000
  H   H1283     1.0  0.79573  0.37270  0.51071  1.0000
  C   C1609     1.0  0.80109  0.00882  0.77317  1.0000
  C   C1610     1.0  0.90141  0.11708  0.97984  1.0000
  C   C1611     1.0  0.75393  0.06159  0.97371  1.0000
  H   H1284     1.0  0.97608  0.05133  0.91222  1.0000
  C   C1612     1.0  0.84591  0.05250  0.93816  1.0000
  H   H1285     1.0  0.74861  0.46669  0.58449  1.0000
  H   H1286     1.0  0.86831  0.19508  0.97787  1.0000
  C   C1613     1.0  0.80636  0.47128  0.63757  1.0000
  C   C1614     1.0  0.77709  0.39607  0.48241  1.0000
  H   H1287     1.0  0.90414  0.00807  0.56512  1.0000
  C   C1615     1.0  0.82561  0.49206  0.80581  1.0000
  H   H1288     1.0  0.96430  0.99748  0.79295  1.0000
  H   H1289     1.0  0.74179  0.33933  0.48510  1.0000
  C   C1616     1.0  0.99300  0.36654  0.69851  1.0000
  H   H1290     1.0  0.98853  0.43210  0.68293  1.0000
  H   H1291     1.0  0.84259  0.45109  0.57308  1.0000
  C   C1617     1.0  0.91931  0.49027  0.62934  1.0000
  S   S210      1.0  0.99286  0.32768  0.95982  1.0000
  S   S211      1.0  0.99031  0.37028  0.54950  1.0000
  C   C1618     1.0  0.93202  0.47534  0.68859  1.0000
  H   H1292     1.0  0.70206  0.23998  0.69595  1.0000
  C   C1619     1.0  0.67259  0.30720  0.59158  1.0000
  H   H1293     1.0  0.83692  0.49064  0.82101  1.0000
  C   C1620     1.0  0.73926  0.07472  0.98086  1.0000
  P   P55       1.0  0.71346  0.52141  0.06822  1.0000
  S   S212      1.0  0.95243  0.59588  0.04761  1.0000
  H   H1294     1.0  0.73468  0.55536  0.19269  1.0000
  H   H1295     1.0  0.72085  0.51900  0.23115  1.0000
  S   S213      1.0  0.96131  0.66104  0.02595  1.0000
  C   C1621     1.0  0.78009  0.71377  0.99211  1.0000
  Fe  Fe105     1.0  0.96700  0.63084  0.07406  1.0000
  S   S214      1.0  0.96672  0.64576  0.13658  1.0000
  H   H1296     1.0  0.67905  0.50817  0.23214  1.0000
  P   P56       1.0  0.78408  0.70872  0.04284  1.0000
  Fe  Fe106     1.0  0.70508  0.61356  0.14710  1.0000
  S   S215      1.0  0.70845  0.62215  0.21099  1.0000
  S   S216      1.0  0.72881  0.61282  0.11088  1.0000
  C   C1622     1.0  0.75098  0.71028  0.05558  1.0000
  H   H1297     1.0  0.96689  0.52019  0.18535  1.0000
  Fe  Fe107     1.0  0.68652  0.64965  0.20710  1.0000
  S   S217      1.0  0.68096  0.69414  0.23034  1.0000
  Fe  Fe108     1.0  0.69149  0.58572  0.22171  1.0000
  S   S218      1.0  0.69607  0.55452  0.27160  1.0000
  S   S219      1.0  0.68374  0.64276  0.14262  1.0000
  S   S220      1.0  0.68928  0.57571  0.15855  1.0000
  H   H1298     1.0  0.96678  0.51368  0.25583  1.0000
  S   S221      1.0  0.67720  0.85517  0.35791  1.0000
  Fe  Fe109     1.0  0.70285  0.86594  0.45154  1.0000
  S   S222      1.0  0.71345  0.86286  0.39192  1.0000
  C   C1623     1.0  0.77171  0.92227  0.31748  1.0000
  Fe  Fe110     1.0  0.69334  0.89156  0.37257  1.0000
  S   S223      1.0  0.69655  0.92509  0.32535  1.0000
  Fe  Fe111     1.0  0.69624  0.82690  0.38120  1.0000
  S   S224      1.0  0.70490  0.78472  0.35617  1.0000
  S   S225      1.0  0.68352  0.89675  0.43261  1.0000
  S   S226      1.0  0.68659  0.82855  0.44190  1.0000
  C   C1624     1.0  0.69152  0.51894  0.28428  1.0000
  C   C1625     1.0  0.95448  0.55945  0.18744  1.0000
  H   H1299     1.0  0.73214  0.55565  0.12200  1.0000
  C   C1626     1.0  0.69082  0.96046  0.31595  1.0000
  H   H1300     1.0  0.70337  0.52222  0.33933  1.0000
  C   C1627     1.0  0.73098  0.53336  0.04232  1.0000
  H   H1301     1.0  0.80793  0.69750  0.10319  1.0000
  H   H1302     1.0  0.68313  0.97055  0.37345  1.0000
  H   H1303     1.0  0.95489  0.56256  0.15652  1.0000
  H   H1304     1.0  0.79257  0.65919  0.99648  1.0000
  C   C1628     1.0  0.68770  0.71865  0.26624  1.0000
  C   C1629     1.0  0.70115  0.71395  0.28955  1.0000
  C   C1630     1.0  0.70612  0.73429  0.31684  1.0000
  C   C1631     1.0  0.69771  0.75962  0.32162  1.0000
  C   C1632     1.0  0.68417  0.76424  0.29857  1.0000
  C   C1633     1.0  0.67926  0.74396  0.27111  1.0000
  H   H1305     1.0  0.70782  0.69473  0.28632  1.0000
  H   H1306     1.0  0.71662  0.73037  0.33433  1.0000
  H   H1307     1.0  0.67762  0.78360  0.30147  1.0000
  C   C1634     1.0  0.90675  0.52244  0.32193  1.0000
  C   C1635     1.0  0.74928  0.92170  0.38435  1.0000
  C   C1636     1.0  0.76556  0.61439  0.03099  1.0000
  C   C1637     1.0  0.75646  0.61169  0.06541  1.0000
  C   C1638     1.0  0.73978  0.61697  0.06627  1.0000
  C   C1639     1.0  0.73242  0.62532  0.03186  1.0000
  S   S227      1.0  0.66989  0.61400  0.22215  1.0000
  H   H1308     1.0  0.77828  0.60998  0.03117  1.0000
  H   H1309     1.0  0.76242  0.60537  0.09162  1.0000
  H   H1310     1.0  0.71971  0.62990  0.03171  1.0000
  C   C1640     1.0  0.69282  0.97114  0.27845  1.0000
  C   C1641     1.0  0.98563  0.53593  0.33870  1.0000
  H   H1311     1.0  0.69747  0.95763  0.25607  1.0000
  H   H1312     1.0  0.77138  0.88256  0.28708  1.0000
  H   H1313     1.0  0.71746  0.54963  0.99406  1.0000
  C   C1642     1.0  0.79894  0.68161  0.04872  1.0000
  C   C1643     1.0  0.72555  0.83959  0.29593  1.0000
  S   S228      1.0  0.98384  0.53828  0.02496  1.0000
  C   C1644     1.0  0.99338  0.51673  0.99014  1.0000
  Fe  Fe112     1.0  0.66817  0.60571  0.15838  1.0000
  H   H1314     1.0  0.72538  0.71127  0.06524  1.0000
  H   H1315     1.0  0.79971  0.88507  0.26727  1.0000
  H   H1316     1.0  0.74198  0.81931  0.33442  1.0000
  C   C1645     1.0  0.79454  0.90195  0.28402  1.0000
  H   H1317     1.0  0.77177  0.91604  0.46629  1.0000
  H   H1318     1.0  0.82931  0.66209  0.10896  1.0000
  H   H1319     1.0  0.74817  0.51786  0.08392  1.0000
  C   C1646     1.0  0.69667  0.54487  0.06314  1.0000
  C   C1647     1.0  0.80394  0.92512  0.29395  1.0000
  C   C1648     1.0  0.78117  0.94563  0.32692  1.0000
  C   C1649     1.0  0.96586  0.60226  0.32500  1.0000
  C   C1650     1.0  0.94680  0.98118  0.44444  1.0000
  P   P57       1.0  0.95388  0.54782  0.31946  1.0000
  C   C1651     1.0  0.96133  0.53566  0.20375  1.0000
  C   C1652     1.0  0.72630  0.53929  0.13821  1.0000
  H   H1320     1.0  0.71912  0.82045  0.28911  1.0000
  C   C1653     1.0  0.94744  0.57965  0.21106  1.0000
  H   H1321     1.0  0.97551  0.64394  0.32933  1.0000
  H   H1322     1.0  0.98124  0.94169  0.34263  1.0000
  C   C1654     1.0  0.76000  0.53710  0.03599  1.0000
  C   C1655     1.0  0.72926  0.54614  0.00620  1.0000
  C   C1656     1.0  0.76130  0.91847  0.44805  1.0000
  C   C1657     1.0  0.91342  0.98533  0.45000  1.0000
  C   C1658     1.0  0.94971  0.58700  0.37897  1.0000
  C   C1659     1.0  0.76575  0.69894  0.06722  1.0000
  C   C1660     1.0  0.96772  0.97675  0.36418  1.0000
  H   H1323     1.0  0.73405  0.97097  0.36514  1.0000
  H   H1324     1.0  0.72627  0.67824  0.12005  1.0000
  C   C1661     1.0  0.86285  0.55886  0.98362  1.0000
  C   C1662     1.0  0.92167  0.96582  0.47232  1.0000
  C   C1663     1.0  0.74280  0.55484  0.98561  1.0000
  C   C1664     1.0  0.99235  0.72297  0.99577  1.0000
  C   C1665     1.0  0.71695  0.51899  0.11940  1.0000
  H   H1325     1.0  0.98806  0.55768  0.33312  1.0000
  C   C1666     1.0  0.95206  0.61294  0.39687  1.0000
  C   C1667     1.0  0.98340  0.74849  0.48006  1.0000
  H   H1326     1.0  0.81640  0.92617  0.28498  1.0000
  H   H1327     1.0  0.87602  0.62425  0.02845  1.0000
  C   C1668     1.0  0.68478  0.97831  0.34450  1.0000
  H   H1328     1.0  0.97174  0.59820  0.29779  1.0000
  H   H1329     1.0  0.94704  0.61695  0.42513  1.0000
  C   C1669     1.0  0.95655  0.58146  0.34272  1.0000
  C   C1670     1.0  0.69927  0.57334  0.05618  1.0000
  C   C1671     1.0  0.67070  0.58208  0.06007  1.0000
  C   C1672     1.0  0.75194  0.67338  0.11768  1.0000
  H   H1330     1.0  0.95767  0.96380  0.37266  1.0000
  C   C1673     1.0  0.66801  0.55383  0.06781  1.0000
  H   H1331     1.0  0.98343  0.70148  0.12338  1.0000
  H   H1332     1.0  0.83261  0.62583  0.05821  1.0000
  H   H1333     1.0  0.71288  0.92683  0.10593  1.0000
  C   C1674     1.0  0.80051  0.66033  0.02110  1.0000
  Fe  Fe113     1.0  0.66825  0.85899  0.41898  1.0000
  C   C1675     1.0  0.77846  0.90054  0.29556  1.0000
  C   C1676     1.0  0.72054  0.86499  0.28039  1.0000
  H   H1334     1.0  0.77192  0.53383  0.04757  1.0000
  H   H1335     1.0  0.97551  0.72607  0.42923  1.0000
  H   H1336     1.0  0.80450  0.96501  0.32286  1.0000
  C   C1677     1.0  0.76613  0.68044  0.09847  1.0000
  H   H1337     1.0  0.97393  0.66257  0.21434  1.0000
  H   H1338     1.0  0.71019  0.86559  0.26150  1.0000
  C   C1678     1.0  0.98503  0.71662  0.33335  1.0000
  H   H1339     1.0  0.96489  0.72327  0.29559  1.0000
  C   C1679     1.0  0.81388  0.77315  0.07399  1.0000
  C   C1680     1.0  0.68634  0.59185  0.05442  1.0000
  C   C1681     1.0  0.71569  0.96957  0.08787  1.0000
  C   C1682     1.0  0.98431  0.60248  0.16855  1.0000
  C   C1683     1.0  0.97538  0.73259  0.30903  1.0000
  C   C1684     1.0  0.71046  0.49862  0.18156  1.0000
  H   H1340     1.0  0.71468  0.97753  0.11695  1.0000
  H   H1341     1.0  0.98183  0.97165  0.01015  1.0000
  C   C1685     1.0  0.74145  0.62762  0.99737  1.0000
  H   H1342     1.0  0.67145  0.76753  0.39745  1.0000
  C   C1686     1.0  0.69679  0.50854  0.32009  1.0000
  C   C1687     1.0  0.89851  0.62672  0.99754  1.0000
  H   H1343     1.0  0.77478  0.91680  0.39564  1.0000
  C   C1688     1.0  0.98789  0.62951  0.24001  1.0000
  H   H1344     1.0  0.77985  0.79706  0.11701  1.0000
  C   C1689     1.0  0.99260  0.58952  0.19899  1.0000
  H   H1345     1.0  0.94152  0.59184  0.26880  1.0000
  H   H1346     1.0  0.92202  0.54399  0.28226  1.0000
  H   H1347     1.0  0.98334  0.71163  0.01178  1.0000
  C   C1690     1.0  0.97018  0.52498  0.33319  1.0000
  C   C1691     1.0  0.72780  0.53915  0.17832  1.0000
  C   C1692     1.0  0.78162  0.75866  0.08478  1.0000
  C   C1693     1.0  0.99260  0.77270  0.32030  1.0000
  C   C1694     1.0  0.73728  0.68450  0.10571  1.0000
  H   H1348     1.0  0.96333  0.65342  0.39309  1.0000
  C   C1695     1.0  0.94711  0.57599  0.25099  1.0000
  C   C1696     1.0  0.73850  0.83897  0.32150  1.0000
  H   H1349     1.0  0.71500  0.90746  0.03973  1.0000
  C   C1697     1.0  0.95415  0.55228  0.26771  1.0000
  C   C1698     1.0  0.80379  0.79071  0.09517  1.0000
  C   C1699     1.0  0.74630  0.86379  0.33197  1.0000
  C   C1700     1.0  0.93838  0.96389  0.46973  1.0000
  H   H1350     1.0  0.68851  0.61390  0.04985  1.0000
  H   H1351     1.0  0.74855  0.94048  0.25317  1.0000
  C   C1701     1.0  0.97919  0.64218  0.20991  1.0000
  H   H1352     1.0  0.75216  0.65848  0.14111  1.0000
  C   C1702     1.0  0.74132  0.88944  0.31654  1.0000
  H   H1353     1.0  0.98600  0.94332  0.43368  1.0000
  H   H1354     1.0  0.80846  0.80995  0.10738  1.0000
  H   H1355     1.0  0.81397  0.62425  0.00295  1.0000
  H   H1356     1.0  0.77609  0.96276  0.34336  1.0000
  H   H1357     1.0  0.77727  0.67110  0.10783  1.0000
  H   H1358     1.0  0.83719  0.55587  0.99054  1.0000
  C   C1703     1.0  0.93350  0.51997  0.37047  1.0000
  C   C1704     1.0  0.73679  0.70295  0.07468  1.0000
  C   C1705     1.0  0.74610  0.92049  0.46483  1.0000
  C   C1706     1.0  0.71995  0.51874  0.19998  1.0000
  H   H1359     1.0  0.75593  0.86306  0.35294  1.0000
  P   P58       1.0  0.75096  0.92134  0.33244  1.0000
  H   H1360     1.0  0.98303  0.59192  0.14113  1.0000
  C   C1707     1.0  0.73404  0.92301  0.40150  1.0000
  C   C1708     1.0  0.75815  0.55038  0.00051  1.0000
  H   H1361     1.0  0.66362  0.92341  0.29346  1.0000
  Fe  Fe114     1.0  0.94863  0.62482  0.99711  1.0000
  C   C1709     1.0  0.82303  0.64105  0.05618  1.0000
  C   C1710     1.0  0.76292  0.91900  0.40793  1.0000
  C   C1711     1.0  0.93493  0.53267  0.33418  1.0000
  C   C1712     1.0  0.96802  0.62826  0.34277  1.0000
  C   C1713     1.0  0.91888  0.50830  0.38210  1.0000
  H   H1362     1.0  0.72067  0.92329  0.45471  1.0000
  C   C1714     1.0  0.81255  0.64023  0.02481  1.0000
  H   H1363     1.0  0.90584  0.62477  0.02311  1.0000
  H   H1364     1.0  0.72332  0.92416  0.38382  1.0000
  C   C1715     1.0  0.82123  0.66161  0.08450  1.0000
  C   C1716     1.0  0.96118  0.63357  0.37876  1.0000
  C   C1717     1.0  0.79169  0.74086  0.06350  1.0000
  C   C1718     1.0  0.79724  0.94698  0.31531  1.0000
  H   H1365     1.0  0.98801  0.79576  0.39200  1.0000
  C   C1719     1.0  0.88157  0.62639  0.00046  1.0000
  H   H1366     1.0  0.97158  0.77310  0.28394  1.0000
  H   H1367     1.0  0.72395  0.90925  0.27899  1.0000
  Fe  Fe115     1.0  0.97574  0.58364  0.01878  1.0000
  C   C1720     1.0  0.96124  0.53208  0.24374  1.0000
  C   C1721     1.0  0.92137  0.53407  0.31015  1.0000
  H   H1368     1.0  0.94276  0.57136  0.39385  1.0000
  C   C1722     1.0  0.98382  0.72615  0.45317  1.0000
  C   C1723     1.0  0.68095  0.53528  0.06961  1.0000
  C   C1724     1.0  0.68305  0.50077  0.25987  1.0000
  C   C1725     1.0  0.74648  0.52838  0.05671  1.0000
  H   H1369     1.0  0.76910  0.75350  0.08934  1.0000
  H   H1370     1.0  0.98941  0.64020  0.26723  1.0000
  C   C1726     1.0  0.97917  0.76064  0.30248  1.0000
  C   C1727     1.0  0.97746  0.62883  0.17393  1.0000
  H   H1371     1.0  0.94248  0.59841  0.19834  1.0000
  C   C1728     1.0  0.70873  0.49900  0.14148  1.0000
  C   C1729     1.0  0.98096  0.96413  0.34655  1.0000
  H   H1372     1.0  0.90050  0.98713  0.45259  1.0000
  C   C1730     1.0  0.74193  0.95207  0.31133  1.0000
  S   S229      1.0  0.99031  0.61706  0.04828  1.0000
  C   C1731     1.0  0.71795  0.98773  0.05665  1.0000
  H   H1373     1.0  0.94373  0.51896  0.38977  1.0000
  H   H1374     1.0  0.66889  0.74802  0.25322  1.0000
  Fe  Fe116     1.0  0.98380  0.64478  0.99845  1.0000
  C   C1732     1.0  0.80917  0.68174  0.08095  1.0000
  C   C1733     1.0  0.74291  0.95608  0.27132  1.0000
  H   H1375     1.0  0.66276  0.76702  0.46548  1.0000
  H   H1376     1.0  0.71133  0.58143  0.05323  1.0000
  C   C1734     1.0  0.73248  0.92262  0.44158  1.0000
  C   C1735     1.0  0.72843  0.88982  0.29046  1.0000
  H   H1377     1.0  0.89636  0.52346  0.30316  1.0000
  C   C1736     1.0  0.90551  0.50950  0.35782  1.0000
  H   H1378     1.0  0.98616  0.52909  0.43433  1.0000
  C   C1737     1.0  0.73478  0.97289  0.33425  1.0000
  H   H1379     1.0  0.97968  0.82385  0.44798  1.0000
  C   C1738     1.0  0.75809  0.62200  0.99637  1.0000
  H   H1380     1.0  0.86474  0.56818  0.01174  1.0000
  C   C1739     1.0  0.99052  0.51123  0.45012  1.0000
  C   C1740     1.0  0.71464  0.94073  0.08173  1.0000
  H   H1381     1.0  0.98203  0.69500  0.33920  1.0000
  C   C1741     1.0  0.99342  0.75220  0.99940  1.0000
  H   H1382     1.0  0.99323  0.67907  0.06366  1.0000
  C   C1742     1.0  0.99209  0.81741  0.44503  1.0000
  H   H1383     1.0  0.95977  0.97997  0.44371  1.0000
  H   H1384     1.0  0.97483  0.76522  0.47662  1.0000
  C   C1743     1.0  0.98956  0.95719  0.45683  1.0000
  C   C1744     1.0  0.71580  0.92982  0.04443  1.0000
  H   H1385     1.0  0.76859  0.55772  0.98477  1.0000
  C   C1745     1.0  0.78768  0.78347  0.10056  1.0000
  H   H1386     1.0  0.81584  0.73497  0.04169  1.0000
  H   H1387     1.0  0.73705  0.98289  0.22355  1.0000
  C   C1746     1.0  0.99068  0.98432  0.99549  1.0000
  H   H1388     1.0  0.98519  0.76308  0.01833  1.0000
  H   H1389     1.0  0.67871  0.51368  0.07698  1.0000
  H   H1390     1.0  0.98632  0.52242  0.11068  1.0000
  H   H1391     1.0  0.91795  0.49828  0.40996  1.0000
  C   C1747     1.0  0.80787  0.74832  0.05822  1.0000
  H   H1392     1.0  0.75039  0.72467  0.03166  1.0000
  H   H1393     1.0  0.95355  0.92171  0.00714  1.0000
  C   C1748     1.0  0.99375  0.98050  0.33354  1.0000
  H   H1394     1.0  0.82638  0.77875  0.06973  1.0000
  C   C1749     1.0  0.73651  0.98011  0.25448  1.0000
  H   H1395     1.0  0.89419  0.50041  0.36684  1.0000
  H   H1396     1.0  0.69222  0.50294  0.00551  1.0000
  C   C1750     1.0  0.71795  0.94775  0.01320  1.0000
  C   C1751     1.0  0.71896  0.97660  0.01921  1.0000
  C   C1752     1.0  0.96758  0.49625  0.33890  1.0000
  H   H1397     1.0  0.76308  0.67964  0.98837  1.0000
  H   H1398     1.0  0.79693  0.74799  0.98460  1.0000
  H   H1399     1.0  0.72046  0.99022  0.99461  1.0000
  H   H1400     1.0  0.71882  0.93932  0.98425  1.0000
  H   H1401     1.0  0.66580  0.93762  0.48030  1.0000
  H   H1402     1.0  0.96751  0.90184  0.82005  1.0000
  C   C1753     1.0  0.92691  0.89980  0.53159  1.0000
  Fe  Fe117     1.0  0.80754  0.84761  0.73245  1.0000
  S   S230      1.0  0.81783  0.83879  0.67376  1.0000
  S   S231      1.0  0.80236  0.81493  0.77986  1.0000
  Fe  Fe118     1.0  0.80694  0.91193  0.71827  1.0000
  S   S232      1.0  0.81708  0.90617  0.65833  1.0000
  S   S233      1.0  0.80195  0.95788  0.73528  1.0000
  Fe  Fe119     1.0  0.79945  0.87026  0.65152  1.0000
  S   S234      1.0  0.78557  0.86106  0.59420  1.0000
  Fe  Fe120     1.0  0.83436  0.87549  0.68480  1.0000
  S   S235      1.0  0.86201  0.87962  0.68452  1.0000
  S   S236      1.0  0.78849  0.87747  0.71017  1.0000
  S   S237      1.0  0.82486  0.88291  0.74486  1.0000
  Fe  Fe121     1.0  0.83069  0.62630  0.92699  1.0000
  S   S238      1.0  0.83421  0.62115  0.86338  1.0000
  C   C1754     1.0  0.93590  0.92631  0.65625  1.0000
  Fe  Fe122     1.0  0.79369  0.62286  0.92076  1.0000
  S   S239      1.0  0.79507  0.61714  0.85554  1.0000
  H   H1403     1.0  0.73991  0.84318  0.65218  1.0000
  Fe  Fe123     1.0  0.81547  0.58692  0.86625  1.0000
  S   S240      1.0  0.82334  0.54414  0.84068  1.0000
  Fe  Fe124     1.0  0.81373  0.65183  0.85642  1.0000
  S   S241      1.0  0.81679  0.68421  0.80717  1.0000
  S   S242      1.0  0.81293  0.59069  0.93095  1.0000
  S   S243      1.0  0.81130  0.65912  0.92050  1.0000
  Fe  Fe125     1.0  0.97489  0.88026  0.55102  1.0000
  S   S244      1.0  0.96235  0.84141  0.52816  1.0000
  C   C1755     1.0  0.80154  0.51765  0.79040  1.0000
  Fe  Fe126     1.0  0.97573  0.85564  0.63383  1.0000
  S   S245      1.0  0.96358  0.81575  0.61516  1.0000
  S   S246      1.0  0.97674  0.86248  0.69943  1.0000
  Fe  Fe127     1.0  0.97992  0.81644  0.56322  1.0000
  C   C1756     1.0  0.90708  0.60514  0.82301  1.0000
  Fe  Fe128     1.0  0.94689  0.84333  0.58175  1.0000
  S   S247      1.0  0.91973  0.83446  0.57904  1.0000
  S   S248      1.0  0.95821  0.88327  0.60212  1.0000
  C   C1757     1.0  0.75410  0.80591  0.64580  1.0000
  C   C1758     1.0  0.80426  0.98002  0.77673  1.0000
  C   C1759     1.0  0.80907  0.96995  0.81274  1.0000
  H   H1404     1.0  0.72813  0.89011  0.58480  1.0000
  C   C1760     1.0  0.95706  0.91350  0.81077  1.0000
  H   H1405     1.0  0.81448  0.82009  0.58653  1.0000
  H   H1406     1.0  0.97876  0.84048  0.94834  1.0000
  H   H1407     1.0  0.81161  0.94796  0.81610  1.0000
  C   C1761     1.0  0.88940  0.77767  0.72458  1.0000
  H   H1408     1.0  0.79410  0.53601  0.79335  1.0000
  C   C1762     1.0  0.73516  0.71346  0.58920  1.0000
  C   C1763     1.0  0.80669  0.77860  0.78670  1.0000
  C   C1764     1.0  0.81371  0.76196  0.75808  1.0000
  C   C1765     1.0  0.81679  0.73335  0.76496  1.0000
  C   C1766     1.0  0.81288  0.72075  0.80045  1.0000
  C   C1767     1.0  0.80597  0.73744  0.82912  1.0000
  C   C1768     1.0  0.80286  0.76606  0.82225  1.0000
  H   H1409     1.0  0.81666  0.77112  0.73059  1.0000
  H   H1410     1.0  0.82224  0.72087  0.74251  1.0000
  H   H1411     1.0  0.80303  0.72822  0.85656  1.0000
  H   H1412     1.0  0.79745  0.77862  0.84469  1.0000
  C   C1769     1.0  0.87778  0.86622  0.65497  1.0000
  C   C1770     1.0  0.87485  0.85142  0.62084  1.0000
  C   C1771     1.0  0.88782  0.84194  0.59802  1.0000
  C   C1772     1.0  0.90386  0.84710  0.60889  1.0000
  C   C1773     1.0  0.90678  0.86153  0.64331  1.0000
  C   C1774     1.0  0.89383  0.87106  0.66611  1.0000
  H   H1413     1.0  0.86261  0.84744  0.61187  1.0000
  H   H1414     1.0  0.88540  0.83059  0.57163  1.0000
  H   H1415     1.0  0.91902  0.86484  0.65264  1.0000
  H   H1416     1.0  0.89627  0.88217  0.69265  1.0000
  C   C1775     1.0  0.76611  0.86455  0.57156  1.0000
  C   C1776     1.0  0.75303  0.87761  0.58953  1.0000
  C   C1777     1.0  0.73801  0.87984  0.57036  1.0000
  C   C1778     1.0  0.73567  0.86931  0.53269  1.0000
  H   H1417     1.0  0.96799  0.92997  0.71671  1.0000
  C   C1779     1.0  0.76376  0.85389  0.53394  1.0000
  H   H1418     1.0  0.75451  0.88615  0.61820  1.0000
  H   H1419     1.0  0.92387  0.90559  0.75443  1.0000
  H   H1420     1.0  0.78978  0.72585  0.57875  1.0000
  H   H1421     1.0  0.76241  0.77612  0.56169  1.0000
  C   C1780     1.0  0.84598  0.83905  0.80785  1.0000
  H   H1422     1.0  0.97777  0.86273  0.78191  1.0000
  C   C1781     1.0  0.96410  0.94548  0.90317  1.0000
  H   H1423     1.0  0.73545  0.63373  0.97110  1.0000
  H   H1424     1.0  0.83314  0.80769  0.83970  1.0000
  C   C1782     1.0  0.92959  0.94245  0.78772  1.0000
  H   H1425     1.0  0.87374  0.94100  0.68810  1.0000
  H   H1426     1.0  0.94816  0.52426  0.97282  1.0000
  H   H1427     1.0  0.89077  0.93776  0.57861  1.0000
  H   H1428     1.0  0.82827  0.73237  0.62565  1.0000
  C   C1783     1.0  0.88677  0.51071  0.85687  1.0000
  H   H1429     1.0  0.84669  0.76836  0.80837  1.0000
  H   H1430     1.0  0.88227  0.97572  0.83365  1.0000
  C   C1784     1.0  0.89131  0.70949  0.82143  1.0000
  H   H1431     1.0  0.91207  0.57878  0.92763  1.0000
  H   H1432     1.0  0.91886  0.95351  0.77900  1.0000
  C   C1785     1.0  0.85768  0.53768  0.90954  1.0000
  H   H1433     1.0  0.74128  0.76015  0.51699  1.0000
  P   P59       1.0  0.96914  0.95724  0.85535  1.0000
  C   C1786     1.0  0.99320  0.86171  0.73212  1.0000
  C   C1787     1.0  0.75493  0.75847  0.56966  1.0000
  H   H1434     1.0  0.94447  0.85358  0.85760  1.0000
  H   H1435     1.0  0.89380  0.63852  0.79643  1.0000
  H   H1436     1.0  0.98191  0.91248  0.90500  1.0000
  C   C1788     1.0  0.88114  0.95774  0.67666  1.0000
  C   C1789     1.0  0.91469  0.80302  0.73042  1.0000
  H   H1437     1.0  0.89211  0.49847  0.67974  1.0000
  C   C1790     1.0  0.86099  0.71961  0.79012  1.0000
  C   C1791     1.0  0.94758  0.94957  0.96066  1.0000
  C   C1792     1.0  0.96843  0.91457  0.95744  1.0000
  C   C1793     1.0  0.85011  0.78930  0.80031  1.0000
  H   H1438     1.0  0.75017  0.85394  0.71770  1.0000
  C   C1794     1.0  0.90102  0.92715  0.56632  1.0000
  H   H1439     1.0  0.86666  0.51293  0.71022  1.0000
  C   C1795     1.0  0.84734  0.77451  0.69026  1.0000
  H   H1440     1.0  0.86705  0.99046  0.70252  1.0000
  H   H1441     1.0  0.90793  0.78437  0.63722  1.0000
  C   C1796     1.0  0.77283  0.51493  0.59063  1.0000
  C   C1797     1.0  0.90366  0.97279  0.63709  1.0000
  C   C1798     1.0  0.87819  0.69319  0.83271  1.0000
  H   H1442     1.0  0.84574  0.69712  0.65695  1.0000
  C   C1799     1.0  0.76687  0.72686  0.70492  1.0000
  C   C1800     1.0  0.85677  0.94686  0.76811  1.0000
  H   H1443     1.0  0.99133  0.96032  0.55440  1.0000
  H   H1444     1.0  0.92335  0.81431  0.74786  1.0000
  C   C1801     1.0  0.77931  0.49526  0.56490  1.0000
  C   C1802     1.0  0.79538  0.74622  0.58129  1.0000
  C   C1803     1.0  0.87821  0.61012  0.82660  1.0000
  H   H1445     1.0  0.77368  0.84380  0.51944  1.0000
  C   C1804     1.0  0.90618  0.58099  0.84546  1.0000
  C   C1805     1.0  0.86490  0.82186  0.76044  1.0000
  C   C1806     1.0  0.80940  0.79921  0.58550  1.0000
  H   H1446     1.0  0.77352  0.72025  0.88144  1.0000
  H   H1447     1.0  0.91715  0.56995  0.85226  1.0000
  C   C1807     1.0  0.76578  0.81819  0.71945  1.0000
  C   C1808     1.0  0.77071  0.70764  0.73370  1.0000
  C   C1809     1.0  0.89828  0.90472  0.54122  1.0000
  H   H1448     1.0  0.76281  0.70489  0.75820  1.0000
  H   H1449     1.0  0.99433  0.79452  0.77535  1.0000
  C   C1810     1.0  0.94415  0.99294  0.56571  1.0000
  C   C1811     1.0  0.87585  0.55503  0.95869  1.0000
  C   C1812     1.0  0.78330  0.50354  0.52735  1.0000
  C   C1813     1.0  0.81031  0.98830  0.84469  1.0000
  H   H1450     1.0  0.93813  0.96001  0.97656  1.0000
  C   C1814     1.0  0.81615  0.51631  0.81031  1.0000
  H   H1451     1.0  0.93010  0.52589  0.60161  1.0000
  H   H1452     1.0  0.95142  0.53166  0.65092  1.0000
  C   C1815     1.0  0.93058  0.51185  0.62600  1.0000
  C   C1816     1.0  0.78025  0.53085  0.51525  1.0000
  C   C1817     1.0  0.90590  0.62996  0.96163  1.0000
  C   C1818     1.0  0.77519  0.71870  0.91233  1.0000
  H   H1453     1.0  0.82483  0.78528  0.53962  1.0000
  H   H1454     1.0  0.76476  0.55729  0.59841  1.0000
  C   C1819     1.0  0.89434  0.95136  0.65342  1.0000
  S   S249      1.0  0.92724  0.63074  0.95584  1.0000
  S   S250      1.0  0.97890  0.91450  0.50445  1.0000
  H   H1455     1.0  0.93822  0.97600  0.82343  1.0000
  C   C1820     1.0  0.79164  0.71572  0.67170  1.0000
  C   C1821     1.0  0.77346  0.55016  0.54075  1.0000
  C   C1822     1.0  0.87403  0.73651  0.77905  1.0000
  H   H1456     1.0  0.88768  0.56135  0.96830  1.0000
  S   S251      1.0  0.85043  0.62879  0.97318  1.0000
  C   C1823     1.0  0.98293  0.78538  0.76709  1.0000
  H   H1457     1.0  0.84911  0.72318  0.77856  1.0000
  C   C1824     1.0  0.75430  0.83548  0.70255  1.0000
  C   C1825     1.0  0.84239  0.81165  0.81842  1.0000
  H   H1458     1.0  0.89960  0.74335  0.78661  1.0000
  P   P60       1.0  0.89002  0.54031  0.88846  1.0000
  H   H1459     1.0  0.95423  0.81156  0.82414  1.0000
  C   C1826     1.0  0.86306  0.69815  0.81684  1.0000
  H   H1460     1.0  0.87776  0.93179  0.79744  1.0000
  C   C1827     1.0  0.84617  0.71872  0.66627  1.0000
  C   C1828     1.0  0.86155  0.79419  0.77133  1.0000
  C   C1829     1.0  0.90077  0.79200  0.74722  1.0000
  C   C1830     1.0  0.78494  0.69237  0.73141  1.0000
  C   C1831     1.0  0.85726  0.84414  0.77892  1.0000
  H   H1461     1.0  0.89716  0.92962  0.64792  1.0000
  C   C1832     1.0  0.87739  0.98557  0.68478  1.0000
  C   C1833     1.0  0.99354  0.93945  0.80531  1.0000
  H   H1462     1.0  0.95278  0.97811  0.57687  1.0000
  C   C1834     1.0  0.95977  0.81763  0.85107  1.0000
  C   C1835     1.0  0.97237  0.80192  0.86701  1.0000
  C   C1836     1.0  0.97924  0.81060  0.90193  1.0000
  P   P61       1.0  0.97908  0.77002  0.84421  1.0000
  C   C1837     1.0  0.97052  0.73996  0.86832  1.0000
  C   C1838     1.0  0.97319  0.77155  0.79407  1.0000
  C   C1839     1.0  0.95812  0.76125  0.78233  1.0000
  C   C1840     1.0  0.95311  0.76403  0.74405  1.0000
  C   C1841     1.0  0.96298  0.77750  0.71737  1.0000
  C   C1842     1.0  0.96089  0.84967  0.90513  1.0000
  C   C1843     1.0  0.97783  0.78827  0.72893  1.0000
  C   C1844     1.0  0.96698  0.74097  0.90790  1.0000
  C   C1845     1.0  0.96103  0.71734  0.92675  1.0000
  C   C1846     1.0  0.95867  0.69244  0.90644  1.0000
  C   C1847     1.0  0.96237  0.69108  0.86722  1.0000
  C   C1848     1.0  0.96837  0.71466  0.84825  1.0000
  C   C1849     1.0  0.94737  0.91793  0.68319  1.0000
  C   C1850     1.0  0.76934  0.69592  0.97286  1.0000
  C   C1851     1.0  0.93234  0.91537  0.77407  1.0000
  C   C1852     1.0  0.89219  0.77467  0.68482  1.0000
  C   C1853     1.0  0.80814  0.75313  0.55687  1.0000
  H   H1463     1.0  0.87179  0.63365  0.90609  1.0000
  H   H1464     1.0  0.78812  0.67792  0.75418  1.0000
  H   H1465     1.0  0.83961  0.85626  0.82118  1.0000
  C   C1854     1.0  0.76984  0.54224  0.57848  1.0000
  C   C1855     1.0  0.78838  0.73417  0.97091  1.0000
  H   H1466     1.0  0.98898  0.79885  0.91463  1.0000
  H   H1467     1.0  0.95010  0.75153  0.80287  1.0000
  H   H1468     1.0  0.94153  0.75597  0.73504  1.0000
  H   H1469     1.0  0.95910  0.77989  0.68775  1.0000
  C   C1856     1.0  0.95853  0.96460  0.68407  1.0000
  H   H1470     1.0  0.77051  0.82323  0.74775  1.0000
  C   C1857     1.0  0.74853  0.82941  0.66568  1.0000
  C   C1858     1.0  0.74708  0.72249  0.61486  1.0000
  H   H1471     1.0  0.75903  0.68372  0.91851  1.0000
  C   C1859     1.0  0.89310  0.61973  0.81363  1.0000
  H   H1472     1.0  0.97162  0.71297  0.81814  1.0000
  C   C1860     1.0  0.90604  0.78596  0.66810  1.0000
  C   C1861     1.0  0.89127  0.57144  0.85919  1.0000
  H   H1473     1.0  0.77016  0.50923  0.62013  1.0000
  C   C1862     1.0  0.91123  0.89095  0.52404  1.0000
  C   C1863     1.0  0.78582  0.73675  0.93126  1.0000
  H   H1474     1.0  0.99435  0.54764  0.94542  1.0000
  P   P62       1.0  0.92089  0.96409  0.60775  1.0000
  H   H1475     1.0  0.79229  0.75245  0.91504  1.0000
  C   C1864     1.0  0.77154  0.79487  0.69952  1.0000
  C   C1865     1.0  0.83694  0.76637  0.66063  1.0000
  H   H1476     1.0  0.87970  0.67685  0.85399  1.0000
  H   H1477     1.0  0.85280  0.68563  0.82562  1.0000
  C   C1866     1.0  0.76697  0.69828  0.93316  1.0000
  C   C1867     1.0  0.74296  0.74949  0.54420  1.0000
  C   C1868     1.0  0.87727  0.58608  0.84923  1.0000
  H   H1478     1.0  0.78519  0.49663  0.75142  1.0000
  H   H1479     1.0  0.92732  0.91119  0.64552  1.0000
  C   C1869     1.0  0.87914  0.63167  0.93159  1.0000
  C   C1870     1.0  0.95143  0.95818  0.92332  1.0000
  C   C1871     1.0  0.87175  0.62887  0.96756  1.0000
  C   C1872     1.0  0.94258  0.51513  0.65381  1.0000
  H   H1480     1.0  0.85967  0.86534  0.76973  1.0000
  H   H1481     1.0  0.90304  0.70563  0.83389  1.0000
  H   H1482     1.0  0.83266  0.53660  0.92488  1.0000
  C   C1873     1.0  0.93587  0.95373  0.64236  1.0000
  H   H1483     1.0  0.83652  0.98346  0.94202  1.0000
  H   H1484     1.0  0.87301  0.82642  0.73686  1.0000
  C   C1874     1.0  0.91670  0.55787  0.93101  1.0000
  P   P63       1.0  0.87086  0.76534  0.74610  1.0000
  H   H1485     1.0  0.86558  0.57920  0.85904  1.0000
  H   H1486     1.0  0.89868  0.79516  0.77773  1.0000
  C   C1875     1.0  0.88928  0.73102  0.79466  1.0000
  C   C1876     1.0  0.84474  0.54134  0.93464  1.0000
  H   H1487     1.0  0.82935  0.78176  0.64704  1.0000
  H   H1488     1.0  0.72749  0.69599  0.59670  1.0000
  H   H1489     1.0  0.86435  0.71124  0.70875  1.0000
  C   C1877     1.0  0.83631  0.73852  0.64868  1.0000
  C   C1878     1.0  0.85715  0.75470  0.70840  1.0000
  C   C1879     1.0  0.85665  0.72679  0.69582  1.0000
  H   H1490     1.0  0.84764  0.79628  0.69887  1.0000
  C   C1880     1.0  0.95881  0.93693  0.69677  1.0000
  C   C1881     1.0  0.76549  0.78816  0.66280  1.0000
  C   C1882     1.0  0.74876  0.85628  0.51467  1.0000
  P   P64       1.0  0.77252  0.75724  0.63792  1.0000
  H   H1491     1.0  0.90161  0.63480  0.90077  1.0000
  H   H1492     1.0  0.85527  0.53040  0.88051  1.0000
  H   H1493     1.0  0.81379  0.98010  0.87244  1.0000
  H   H1494     1.0  0.88356  0.76428  0.66634  1.0000
  C   C1883     1.0  0.79681  0.79221  0.61033  1.0000
  C   C1884     1.0  0.94606  0.90087  0.78567  1.0000
  H   H1495     1.0  0.74960  0.80209  0.61710  1.0000
  C   C1885     1.0  0.91729  0.80009  0.69084  1.0000
  H   H1496     1.0  0.90030  0.52798  0.80927  1.0000
  C   C1886     1.0  0.90855  0.53500  0.91480  1.0000
  H   H1497     1.0  0.90916  0.87297  0.50561  1.0000
  H   H1498     1.0  0.94474  0.97516  0.91054  1.0000
  H   H1499     1.0  0.93697  0.88906  0.51836  1.0000
  H   H1500     1.0  0.85467  0.92746  0.75254  1.0000
  H   H1501     1.0  0.94492  0.94913  0.48745  1.0000
  H   H1502     1.0  0.92785  0.80921  0.67749  1.0000
  H   H1503     1.0  0.91865  0.61267  0.81319  1.0000
  C   C1887     1.0  0.94325  0.49698  0.68518  1.0000
  C   C1888     1.0  0.93709  0.52716  0.95675  1.0000
  H   H1504     1.0  0.85027  0.98388  0.87928  1.0000
  C   C1889     1.0  0.81514  0.77966  0.55894  1.0000
  H   H1505     1.0  0.80012  0.71889  0.64866  1.0000
  C   C1890     1.0  0.87233  0.97433  0.81362  1.0000
  C   C1891     1.0  0.91681  0.93527  0.57551  1.0000
  C   C1892     1.0  0.84625  0.96924  0.76336  1.0000
  S   S252      1.0  0.76864  0.62452  0.95102  1.0000
  H   H1506     1.0  0.95415  0.67410  0.92129  1.0000
  H   H1507     1.0  0.80654  0.68479  0.69926  1.0000
  H   H1508     1.0  0.83598  0.96707  0.74431  1.0000
  C   C1893     1.0  0.95471  0.94108  0.82339  1.0000
  C   C1894     1.0  0.89607  0.63238  0.92872  1.0000
  H   H1509     1.0  0.78318  0.53705  0.48609  1.0000
  C   C1895     1.0  0.95415  0.84152  0.86998  1.0000
  H   H1510     1.0  0.96082  0.67157  0.85177  1.0000
  C   C1896     1.0  0.98775  0.94824  0.49528  1.0000
  H   H1511     1.0  0.94829  0.87993  0.77490  1.0000
  H   H1512     1.0  0.94772  0.89638  0.69265  1.0000
  C   C1897     1.0  0.77732  0.73113  0.67369  1.0000
  C   C1898     1.0  0.86978  0.94937  0.79333  1.0000
  C   C1899     1.0  0.97227  0.92303  0.92005  1.0000
  C   C1900     1.0  0.79535  0.69629  0.70034  1.0000
  H   H1513     1.0  0.88613  0.89758  0.53566  1.0000
  H   H1514     1.0  0.86734  0.62139  0.81944  1.0000
  C   C1901     1.0  0.75703  0.74514  0.60532  1.0000
  C   C1902     1.0  0.73308  0.72698  0.55393  1.0000
  H   H1515     1.0  0.81242  0.73812  0.53584  1.0000
  H   H1516     1.0  0.75587  0.73879  0.70742  1.0000
  C   C1903     1.0  0.99407  0.74914  0.51131  1.0000
  H   H1517     1.0  0.95850  0.71816  0.95736  1.0000
  C   C1904     1.0  0.94067  0.95523  0.81255  1.0000
  C   C1905     1.0  0.99255  0.96663  0.52468  1.0000
  S   S253      1.0  0.71634  0.87372  0.50964  1.0000
  H   H1518     1.0  0.74845  0.71173  0.64197  1.0000
  C   C1906     1.0  0.94698  0.97310  0.65722  1.0000
  H   H1519     1.0  0.79241  0.80785  0.63026  1.0000
  C   C1907     1.0  0.79651  0.49519  0.76655  1.0000
  C   C1908     1.0  0.92969  0.92193  0.55710  1.0000
  H   H1520     1.0  0.78078  0.78227  0.71289  1.0000
  H   H1521     1.0  0.74144  0.56557  0.95836  1.0000
  H   H1522     1.0  0.77111  0.57131  0.53133  1.0000
  C   C1909     1.0  0.97345  0.83425  0.92107  1.0000
  H   H1523     1.0  0.97539  0.89822  0.97106  1.0000
  C   C1910     1.0  0.93092  0.55398  0.95172  1.0000
  C   C1911     1.0  0.78967  0.76571  0.60835  1.0000
  H   H1524     1.0  0.91515  0.95239  0.49189  1.0000
  C   C1912     1.0  0.95619  0.92792  0.97784  1.0000
  H   H1525     1.0  0.94195  0.92852  0.56253  1.0000
  H   H1526     1.0  0.95262  0.49945  0.70662  1.0000
  H   H1527     1.0  0.95630  0.86781  0.92012  1.0000
  C   C1913     1.0  0.87339  0.54419  0.92150  1.0000
  C   C1914     1.0  0.89334  0.51044  0.81962  1.0000
  H   H1528     1.0  0.98451  0.93756  0.78308  1.0000
  H   H1529     1.0  0.98532  0.79932  0.70837  1.0000
  C   C1915     1.0  0.99006  0.86264  0.77195  1.0000
  H   H1530     1.0  0.96744  0.97931  0.69455  1.0000
  C   C1916     1.0  0.98954  0.94828  0.84276  1.0000
  C   C1917     1.0  0.84730  0.55204  0.97162  1.0000
  S   S254      1.0  0.97112  0.61003  0.96658  1.0000
  H   H1531     1.0  0.74737  0.84815  0.48575  1.0000
  H   H1532     1.0  0.96906  0.75971  0.92465  1.0000
  S   S255      1.0  0.99336  0.85506  0.58407  1.0000
  C   C1918     1.0  0.91466  0.50800  0.92056  1.0000
  C   C1919     1.0  0.92788  0.99163  0.57651  1.0000
  H   H1533     1.0  0.74482  0.91976  0.49590  1.0000
  H   H1534     1.0  0.93714  0.57185  0.96399  1.0000
  C   C1920     1.0  0.92893  0.50416  0.94127  1.0000
  H   H1535     1.0  0.66859  0.85981  0.51786  1.0000
  H   H1536     1.0  0.72380  0.72009  0.53413  1.0000
  S   S256      1.0  0.99435  0.77688  0.54639  1.0000
