data_image0
_chemical_formula_structural       C2H2CHCHSHCHC2H3C2SHC4HCHC2PH3C4HSHC2HCHC3SHCH3PCHC2HCH3C2PC2SHCHCH2C2H2CHCHFeHC3HC2H2C3H2SHCH2CHCHCHC2HCSFeCHFeCFeC2H2C3HCSC2SFeC2HFeCHSPH3CHCH2CHC2HFeC2H4SHCH4CHC5HC2HC3H2SC2HC6SHFeHC2H4CHCHC2SC3H2CHCHCH2C13HC2HC2H4CHC2H3CHC2H2CPHC3H3C4H2C2HCHC2H2CSCSH3CH2C2PH2CHCHC2H2SC2H2SHCHCHCHC6H2C7H10C2HC2HP2C2SC4SHCHC2H2C4H2SCFeCFeH2SC2HFeCHC2H2CHC4HC3SC3H3CHC3SHCHC3H2CHPCSCHC2H2CFeC3H3CHCHC5HCH3CH3C2H2C4H2C2H3C3H3FeC2HCHCH2CH2SC2HCSHCH3PHCHSCFeH2C2HC3H3CH3CHC2SHCH3C2PCH2FeCHSCHC5HCH4C2H3SCHC2HC4HSC2SC7HFeHCFeC5SC2H2C4SCH2C2HC3SH3CHCHC4S2H5SC4HCS2C3H2C2FeSHC2HC3HC2H3C3FeSCH3CH2CHC2HC2FeHCH2CHCSH2PC2FeHCHCH4CHCH2C2HC4H2C5HPCHCH2CHCH3CFeC2HCHC3SC3HCH2SC2FeHCHCSCFeHC2H3CH5CHC5H2C4HCHC2HC2H3FeCHC3HSC3H2CSC5H2CSHC6HSH3CHC2H2CHPHC3HCHCHS2CH3C3HPHCHC6H2C3H2PH2CH2C2HC5HC2HC2SC2H2C9HFeHC3HSH2FeHC2HC2HCHCHC6H6C2H4CHC2H2CSHCH5CHC2H2CHFeHC3HFeC2HCHC4HSH2C3HC2FeHC5HS2H4CH2SFeCSH3C2H2C2H4C2H4FeC5HC2SC2SC2S2CFeHFeHC2SPC2H5CHCHCHCFeHCHC6SHC3H4CHFeCHCHC5SC4H2CFeC6H2C2H3SCHCHCHCHC3SC2HCH2SH2PHPHC3HCH2CH3C3HC3H3C2HCH2C2SCHCH3CH4C3H2CHSCSHC3H3CHFeCHC2HC3SH2C2FeHCHC2HSCH2C2SC3HCSCHSHSPHC4HCHSH2CSFeC2HCH2C3HC4HSCH2CSC2HCFeHC2H2PHSC2Fe2CSC3FeH2C3Fe2CHSH3C2H3CHCH3CHSHC2H2CPC2H2PC2SFeHFeH3CH2CHSCH4C3HC2HCH2CSHSC2H3CHC2HCHCFeC2FeHC3HCHC7SCH2CSH3CH2C2HCHC4HCHSC5HCH3CH2CSHC4FeH3C2HCHC3SC3SHC5FeH3CSH3C3HC4H3FeC2H2PC4HC3HCSHCHCSHC2FeH4C2H2C2H2C2SHCH2PHC2HC3HCH2CHSCHCHC2HC3H3C3SC2H2CHSHCH2CHFeCH3C3SC9HCH2C5HC2HC2HC3HSH2SCHC4SC2HCHC2H4C2HFeHC3H2CHFeHCH4CPH3CPC2H2C3H4C2HC2HC3HCH2CPHSHC3HCHSCHCHC3S3FeSFeCH2SC2H4FeHC2SHC2FeCSC2H2C3H3C3HCHCHPH2CHC6H3CSHCHC3HSHC2FeC4H2SC3H3CHSH3C2H2C2HCHCSHC6H2PC2HCH2CH2CHC3FeH2SCH4C5SHC3H3C2PC3H4PCHCH3C3SH5CH3CHSC4FeH2C2HC2SCHC3H2C2HCH4CHC2
_chemical_formula_sum              "C960 H768 S128 P32 Fe64"
_cell_length_a       27.7546
_cell_length_b       30.3514
_cell_length_c       29.7228
_cell_angle_alpha    94.1283
_cell_angle_beta     92.1575
_cell_angle_gamma    86.7995

_space_group_name_H-M_alt    "P 1"
_space_group_IT_number       1

loop_
  _space_group_symop_operation_xyz
  'x, y, z'

loop_
  _atom_site_type_symbol
  _atom_site_label
  _atom_site_symmetry_multiplicity
  _atom_site_fract_x
  _atom_site_fract_y
  _atom_site_fract_z
  _atom_site_occupancy
  C   C1        1.0  0.33849  0.41918  0.67641  1.0000
  C   C2        1.0  0.29647  0.19478  0.55406  1.0000
  H   H1        1.0  0.43533  0.21462  0.66808  1.0000
  H   H2        1.0  0.49674  0.57406  0.69002  1.0000
  C   C3        1.0  0.43621  0.33890  0.59083  1.0000
  H   H3        1.0  0.37722  0.59517  0.65032  1.0000
  C   C4        1.0  0.30415  0.40900  0.58702  1.0000
  H   H4        1.0  0.33682  0.46976  0.57776  1.0000
  S   S1        1.0  0.17144  0.57270  0.54525  1.0000
  H   H5        1.0  0.46350  0.59111  0.53336  1.0000
  C   C5        1.0  0.55409  0.53632  0.65686  1.0000
  H   H6        1.0  0.56314  0.19737  0.62682  1.0000
  C   C6        1.0  0.34835  0.45079  0.64636  1.0000
  C   C7        1.0  0.18866  0.24351  0.72493  1.0000
  H   H7        1.0  0.17010  0.26947  0.74542  1.0000
  H   H8        1.0  0.11121  0.34736  0.74720  1.0000
  H   H9        1.0  0.36569  0.64033  0.72876  1.0000
  C   C8        1.0  0.42834  0.23509  0.73914  1.0000
  C   C9        1.0  0.25408  0.58008  0.68970  1.0000
  S   S2        1.0  0.09619  0.29442  0.52623  1.0000
  H   H10       1.0  0.11930  0.61919  0.74569  1.0000
  C   C10       1.0  0.44398  0.30700  0.67745  1.0000
  C   C11       1.0  0.12941  0.44886  0.56366  1.0000
  C   C12       1.0  0.32313  0.53467  0.74262  1.0000
  C   C13       1.0  0.41896  0.59790  0.59165  1.0000
  H   H11       1.0  0.44906  0.42067  0.51656  1.0000
  C   C14       1.0  0.48869  0.23199  0.54450  1.0000
  H   H12       1.0  0.30424  0.35854  0.68537  1.0000
  C   C15       1.0  0.08738  0.53440  0.55868  1.0000
  C   C16       1.0  0.44379  0.51497  0.73924  1.0000
  P   P1        1.0  0.44540  0.29111  0.73503  1.0000
  H   H13       1.0  0.09045  0.17245  0.67643  1.0000
  H   H14       1.0  0.54444  0.26910  0.70632  1.0000
  H   H15       1.0  0.47171  0.50970  0.53206  1.0000
  C   C17       1.0  0.17305  0.20040  0.72338  1.0000
  C   C18       1.0  0.29280  0.55592  0.66934  1.0000
  C   C19       1.0  0.29462  0.37759  0.61717  1.0000
  C   C20       1.0  0.53539  0.56960  0.68740  1.0000
  H   H16       1.0  0.16684  0.40845  0.75009  1.0000
  S   S3        1.0  0.12510  0.32519  0.63180  1.0000
  H   H17       1.0  0.29046  0.40536  0.55239  1.0000
  C   C21       1.0  0.31196  0.38262  0.66188  1.0000
  C   C22       1.0  0.25017  0.58208  0.73654  1.0000
  H   H18       1.0  0.19703  0.47876  0.55386  1.0000
  C   C23       1.0  0.44333  0.63844  0.73803  1.0000
  H   H19       1.0  0.27847  0.22778  0.64995  1.0000
  C   C24       1.0  0.39700  0.57585  0.62444  1.0000
  C   C25       1.0  0.21439  0.18033  0.52941  1.0000
  C   C26       1.0  0.56662  0.59644  0.71400  1.0000
  S   S4        1.0  0.10493  0.22119  0.60277  1.0000
  H   H20       1.0  0.23755  0.28715  0.69850  1.0000
  C   C27       1.0  0.42828  0.50566  0.59018  1.0000
  H   H21       1.0  0.14553  0.41590  0.56639  1.0000
  H   H22       1.0  0.51091  0.34093  0.68377  1.0000
  H   H23       1.0  0.41439  0.63353  0.59114  1.0000
  P   P2        1.0  0.37623  0.50077  0.66788  1.0000
  C   C28       1.0  0.32832  0.53386  0.69569  1.0000
  H   H24       1.0  0.29456  0.55394  0.63287  1.0000
  C   C29       1.0  0.39610  0.63544  0.75207  1.0000
  C   C30       1.0  0.22665  0.25344  0.69856  1.0000
  H   H25       1.0  0.43273  0.35175  0.55767  1.0000
  C   C31       1.0  0.40088  0.52942  0.62355  1.0000
  H   H26       1.0  0.44910  0.64598  0.70364  1.0000
  H   H27       1.0  0.35036  0.42362  0.71130  1.0000
  H   H28       1.0  0.52155  0.63548  0.61881  1.0000
  C   C32       1.0  0.45084  0.52796  0.55796  1.0000
  C   C33       1.0  0.42920  0.48685  0.70229  1.0000
  P   P3        1.0  0.54339  0.64148  0.75168  1.0000
  C   C34       1.0  0.19491  0.16687  0.69484  1.0000
  C   C35       1.0  0.13715  0.52721  0.55395  1.0000
  S   S5        1.0  0.31013  0.54460  0.52808  1.0000
  H   H29       1.0  0.27360  0.34954  0.60581  1.0000
  C   C36       1.0  0.40970  0.16293  0.70455  1.0000
  H   H30       1.0  0.57748  0.63781  0.55683  1.0000
  C   C37       1.0  0.47661  0.34760  0.61891  1.0000
  H   H31       1.0  0.22659  0.59660  0.66902  1.0000
  H   H32       1.0  0.32240  0.21694  0.56964  1.0000
  C   C38       1.0  0.24951  0.22004  0.67104  1.0000
  C   C39       1.0  0.46039  0.45110  0.68764  1.0000
  H   H33       1.0  0.50464  0.36752  0.60784  1.0000
  H   H34       1.0  0.17678  0.19124  0.52572  1.0000
  C   C40       1.0  0.44631  0.57399  0.55875  1.0000
  H   H35       1.0  0.50711  0.23976  0.57666  1.0000
  C   C41       1.0  0.55867  0.17846  0.65571  1.0000
  H   H36       1.0  0.21999  0.60059  0.75243  1.0000
  Fe  Fe1       1.0  0.15052  0.27316  0.57921  1.0000
  H   H37       1.0  0.36820  0.30789  0.58417  1.0000
  C   C42       1.0  0.23358  0.17702  0.66885  1.0000
  C   C43       1.0  0.44042  0.22106  0.54328  1.0000
  C   C44       1.0  0.48029  0.33209  0.66214  1.0000
  H   H38       1.0  0.34297  0.28284  0.75511  1.0000
  C   C45       1.0  0.40332  0.29872  0.64909  1.0000
  C   C46       1.0  0.42517  0.20549  0.70082  1.0000
  H   H39       1.0  0.42187  0.54393  0.75020  1.0000
  H   H40       1.0  0.53047  0.41756  0.69670  1.0000
  C   C47       1.0  0.50534  0.44367  0.70950  1.0000
  C   C48       1.0  0.39972  0.31429  0.60585  1.0000
  C   C49       1.0  0.33073  0.44555  0.60153  1.0000
  H   H41       1.0  0.53008  0.51528  0.63670  1.0000
  H   H42       1.0  0.45087  0.43021  0.65804  1.0000
  S   S6        1.0  0.23017  0.26378  0.56773  1.0000
  H   H43       1.0  0.42189  0.21962  0.57453  1.0000
  C   C50       1.0  0.54617  0.28204  0.74121  1.0000
  H   H44       1.0  0.37395  0.28085  0.66060  1.0000
  H   H45       1.0  0.52060  0.34198  0.53166  1.0000
  C   C51       1.0  0.15839  0.48436  0.55664  1.0000
  H   H46       1.0  0.43248  0.46995  0.58906  1.0000
  C   C52       1.0  0.24786  0.20917  0.54945  1.0000
  H   H47       1.0  0.14316  0.19358  0.74366  1.0000
  C   C53       1.0  0.51906  0.47133  0.74676  1.0000
  H   H48       1.0  0.39632  0.16660  0.81794  1.0000
  C   C54       1.0  0.19257  0.25733  0.90069  1.0000
  C   C55       1.0  0.13035  0.32897  0.81462  1.0000
  H   H49       1.0  0.30450  0.41211  0.81564  1.0000
  C   C56       1.0  0.55224  0.31310  0.83202  1.0000
  S   S7        1.0  0.55037  0.54428  0.88143  1.0000
  Fe  Fe2       1.0  0.15136  0.61051  0.00638  1.0000
  C   C57       1.0  0.57259  0.64596  0.99330  1.0000
  H   H50       1.0  0.21317  0.38081  0.88450  1.0000
  Fe  Fe3       1.0  0.22495  0.53948  0.97288  1.0000
  C   C58       1.0  0.10155  0.62984  0.81566  1.0000
  Fe  Fe4       1.0  0.57337  0.43442  0.93812  1.0000
  C   C59       1.0  0.38761  0.29746  0.92987  1.0000
  C   C60       1.0  0.24990  0.20629  0.86125  1.0000
  H   H51       1.0  0.43797  0.38282  0.88356  1.0000
  H   H52       1.0  0.18300  0.24492  0.97067  1.0000
  C   C61       1.0  0.25866  0.18379  0.90048  1.0000
  C   C62       1.0  0.38003  0.56139  0.00002  1.0000
  C   C63       1.0  0.15887  0.33792  0.85388  1.0000
  H   H53       1.0  0.26891  0.19553  0.83084  1.0000
  C   C64       1.0  0.47399  0.62465  0.81344  1.0000
  S   S8        1.0  0.54819  0.43710  0.86597  1.0000
  C   C65       1.0  0.23591  0.37207  0.99878  1.0000
  C   C66       1.0  0.16520  0.38843  0.77874  1.0000
  S   S9        1.0  0.25330  0.58327  0.92383  1.0000
  Fe  Fe5       1.0  0.17604  0.60288  0.90739  1.0000
  C   C67       1.0  0.33131  0.49038  0.87218  1.0000
  C   C68       1.0  0.13352  0.35420  0.77731  1.0000
  H   H54       1.0  0.35131  0.62581  0.80795  1.0000
  Fe  Fe6       1.0  0.24881  0.63620  0.97959  1.0000
  C   C69       1.0  0.50378  0.29567  0.76372  1.0000
  H   H55       1.0  0.35967  0.27423  0.92247  1.0000
  S   S10       1.0  0.15630  0.60348  0.83343  1.0000
  P   P4        1.0  0.15263  0.30649  0.90278  1.0000
  H   H56       1.0  0.25648  0.49061  0.88839  1.0000
  H   H57       1.0  0.35389  0.53730  0.98957  1.0000
  H   H58       1.0  0.50328  0.62134  0.83816  1.0000
  C   C70       1.0  0.09304  0.63328  0.76938  1.0000
  H   H59       1.0  0.53829  0.63110  0.92813  1.0000
  C   C71       1.0  0.45755  0.35962  0.94884  1.0000
  H   H60       1.0  0.16677  0.46116  0.90163  1.0000
  H   H61       1.0  0.44183  0.21115  0.93228  1.0000
  C   C72       1.0  0.19118  0.37215  0.85476  1.0000
  H   H62       1.0  0.15379  0.50890  0.83748  1.0000
  C   C73       1.0  0.21682  0.24289  0.86124  1.0000
  C   C74       1.0  0.43392  0.61656  0.98121  1.0000
  H   H63       1.0  0.27399  0.37704  0.00517  1.0000
  Fe  Fe7       1.0  0.57484  0.53498  0.95273  1.0000
  C   C75       1.0  0.39630  0.32795  0.89837  1.0000
  C   C76       1.0  0.38853  0.46227  0.92797  1.0000
  H   H64       1.0  0.45020  0.63442  0.95602  1.0000
  H   H65       1.0  0.24018  0.17972  0.96994  1.0000
  H   H66       1.0  0.28234  0.33572  0.79046  1.0000
  H   H67       1.0  0.21068  0.26006  0.83068  1.0000
  S   S11       1.0  0.51864  0.48653  0.96407  1.0000
  H   H68       1.0  0.24789  0.32701  0.94117  1.0000
  C   C77       1.0  0.09182  0.44724  0.90401  1.0000
  H   H69       1.0  0.55412  0.46596  0.76338  1.0000
  H   H70       1.0  0.29648  0.24467  0.00286  1.0000
  H   H71       1.0  0.37541  0.32814  0.86696  1.0000
  H   H72       1.0  0.09925  0.36078  0.97350  1.0000
  C   C78       1.0  0.36277  0.17559  0.00517  1.0000
  H   H73       1.0  0.39267  0.57710  0.93214  1.0000
  C   C79       1.0  0.41431  0.29757  0.97096  1.0000
  C   C80       1.0  0.22089  0.34404  0.96237  1.0000
  C   C81       1.0  0.37890  0.48265  0.88766  1.0000
  C   C82       1.0  0.44868  0.32954  0.98064  1.0000
  C   C83       1.0  0.50714  0.31049  0.80959  1.0000
  H   H74       1.0  0.48446  0.38394  0.95629  1.0000
  C   C84       1.0  0.13104  0.46577  0.88604  1.0000
  C   C85       1.0  0.41741  0.18991  0.94687  1.0000
  H   H75       1.0  0.42527  0.45592  0.93975  1.0000
  C   C86       1.0  0.30295  0.46537  0.94128  1.0000
  C   C87       1.0  0.11147  0.15918  0.83422  1.0000
  C   C88       1.0  0.58247  0.64751  0.80158  1.0000
  H   H76       1.0  0.42223  0.24261  0.81170  1.0000
  H   H77       1.0  0.50692  0.25223  0.00404  1.0000
  S   S12       1.0  0.42533  0.50109  0.85719  1.0000
  C   C89       1.0  0.12367  0.49275  0.85005  1.0000
  C   C90       1.0  0.41848  0.22062  0.78155  1.0000
  H   H78       1.0  0.42028  0.61520  0.86187  1.0000
  C   C91       1.0  0.38787  0.62710  0.79668  1.0000
  C   C92       1.0  0.35031  0.45298  0.95469  1.0000
  C   C93       1.0  0.17148  0.33978  0.95238  1.0000
  C   C94       1.0  0.09017  0.29355  0.90727  1.0000
  C   C95       1.0  0.20127  0.23423  0.93979  1.0000
  C   C96       1.0  0.43144  0.35884  0.90774  1.0000
  S   S13       1.0  0.25816  0.47151  0.98087  1.0000
  H   H79       1.0  0.10503  0.22708  0.92881  1.0000
  Fe  Fe8       1.0  0.49813  0.49277  0.89087  1.0000
  H   H80       1.0  0.21746  0.42487  0.81909  1.0000
  C   C97       1.0  0.23385  0.19739  0.93954  1.0000
  C   C98       1.0  0.39148  0.20502  0.98519  1.0000
  H   H81       1.0  0.47510  0.31983  0.82823  1.0000
  H   H82       1.0  0.38645  0.43558  0.80295  1.0000
  H   H83       1.0  0.35780  0.44057  0.98759  1.0000
  H   H84       1.0  0.10533  0.30271  0.81282  1.0000
  C   C99       1.0  0.29324  0.48158  0.89895  1.0000
  H   H85       1.0  0.32391  0.50574  0.84088  1.0000
  C   C100      1.0  0.31874  0.34565  0.78639  1.0000
  H   H86       1.0  0.55475  0.32499  0.86732  1.0000
  C   C101      1.0  0.40156  0.58418  0.96766  1.0000
  C   C102      1.0  0.33099  0.38866  0.80039  1.0000
  S   S14       1.0  0.14813  0.55499  0.95259  1.0000
  C   C103      1.0  0.13756  0.36279  0.98041  1.0000
  C   C104      1.0  0.19407  0.39733  0.81742  1.0000
  C   C105      1.0  0.42679  0.62139  0.82721  1.0000
  H   H87       1.0  0.28075  0.56062  0.79921  1.0000
  H   H88       1.0  0.14051  0.18154  0.83913  1.0000
  C   C106      1.0  0.37749  0.40185  0.79405  1.0000
  H   H89       1.0  0.09698  0.42911  0.93388  1.0000
  C   C107      1.0  0.41218  0.37214  0.77459  1.0000
  H   H90       1.0  0.49913  0.52858  0.79029  1.0000
  C   C108      1.0  0.40374  0.17769  0.78522  1.0000
  H   H91       1.0  0.44783  0.38345  0.76933  1.0000
  H   H92       1.0  0.34829  0.51601  0.76359  1.0000
  C   C109      1.0  0.35337  0.31570  0.76671  1.0000
  C   C110      1.0  0.48273  0.63317  0.76869  1.0000
  C   C111      1.0  0.28455  0.55931  0.76294  1.0000
  C   C112      1.0  0.48820  0.50680  0.76171  1.0000
  C   C113      1.0  0.40068  0.32858  0.76160  1.0000
  C   C114      1.0  0.45048  0.25175  0.05253  1.0000
  C   C115      1.0  0.15275  0.39035  0.01727  1.0000
  C   C116      1.0  0.29237  0.60676  0.19653  1.0000
  C   C117      1.0  0.52208  0.32469  0.23443  1.0000
  C   C118      1.0  0.42205  0.60440  0.05993  1.0000
  C   C119      1.0  0.17554  0.26344  0.12700  1.0000
  C   C120      1.0  0.34893  0.28456  0.04019  1.0000
  C   C121      1.0  0.55972  0.17128  0.22875  1.0000
  H   H93       1.0  0.31881  0.36725  0.11987  1.0000
  C   C122      1.0  0.22585  0.41531  0.17992  1.0000
  C   C123      1.0  0.35222  0.46760  0.24857  1.0000
  H   H94       1.0  0.12626  0.40903  0.03795  1.0000
  C   C124      1.0  0.26286  0.28919  0.05265  1.0000
  C   C125      1.0  0.41768  0.50719  0.22077  1.0000
  H   H95       1.0  0.16273  0.48080  0.10738  1.0000
  H   H96       1.0  0.21291  0.54155  0.23928  1.0000
  H   H97       1.0  0.15204  0.37198  0.25169  1.0000
  H   H98       1.0  0.11939  0.25041  0.07707  1.0000
  C   C126      1.0  0.17830  0.20173  0.07038  1.0000
  H   H99       1.0  0.26990  0.33957  0.24679  1.0000
  C   C127      1.0  0.49782  0.36598  0.24204  1.0000
  C   C128      1.0  0.19022  0.42859  0.14842  1.0000
  H   H100      1.0  0.25965  0.60297  0.21447  1.0000
  H   H101      1.0  0.25519  0.61539  0.13255  1.0000
  H   H102      1.0  0.46850  0.65278  0.03655  1.0000
  C   C129      1.0  0.22661  0.49889  0.14622  1.0000
  H   H103      1.0  0.23798  0.33801  0.10392  1.0000
  C   C130      1.0  0.53643  0.24531  0.07104  1.0000
  C   C131      1.0  0.37764  0.61480  0.15000  1.0000
  H   H104      1.0  0.17987  0.19197  0.21320  1.0000
  H   H105      1.0  0.21395  0.41795  0.05346  1.0000
  C   C132      1.0  0.53757  0.56157  0.20101  1.0000
  P   P5        1.0  0.30557  0.42794  0.23889  1.0000
  H   H106      1.0  0.49371  0.62199  0.20255  1.0000
  C   C133      1.0  0.37493  0.36614  0.20192  1.0000
  C   C134      1.0  0.26901  0.32330  0.08615  1.0000
  C   C135      1.0  0.09753  0.26948  0.25548  1.0000
  H   H107      1.0  0.55480  0.56973  0.23369  1.0000
  H   H108      1.0  0.23739  0.26818  0.17213  1.0000
  H   H109      1.0  0.52751  0.65470  0.11240  1.0000
  C   C136      1.0  0.26208  0.48592  0.17807  1.0000
  C   C137      1.0  0.15433  0.23968  0.09015  1.0000
  C   C138      1.0  0.36733  0.28690  0.19751  1.0000
  C   C139      1.0  0.20192  0.39512  0.02628  1.0000
  H   H110      1.0  0.16206  0.40654  0.13717  1.0000
  H   H111      1.0  0.33884  0.59951  0.25534  1.0000
  C   C140      1.0  0.31464  0.33953  0.09530  1.0000
  C   C141      1.0  0.52662  0.24253  0.11649  1.0000
  H   H112      1.0  0.37246  0.46514  0.17869  1.0000
  C   C142      1.0  0.37944  0.60969  0.19670  1.0000
  H   H113      1.0  0.50272  0.22109  0.23974  1.0000
  C   C143      1.0  0.57512  0.38448  0.04715  1.0000
  C   C144      1.0  0.33219  0.61853  0.12753  1.0000
  H   H114      1.0  0.38120  0.25378  0.18754  1.0000
  H   H115      1.0  0.57348  0.24462  0.06073  1.0000
  C   C145      1.0  0.32328  0.29299  0.21867  1.0000
  S   S15       1.0  0.41515  0.17689  0.22673  1.0000
  C   C146      1.0  0.22308  0.18704  0.08829  1.0000
  S   S16       1.0  0.09402  0.61783  0.05744  1.0000
  H   H116      1.0  0.34476  0.18526  0.03640  1.0000
  H   H117      1.0  0.22702  0.27810  0.04432  1.0000
  H   H118      1.0  0.22416  0.38306  0.19288  1.0000
  C   C147      1.0  0.50259  0.59110  0.18329  1.0000
  H   H119      1.0  0.28830  0.50939  0.19019  1.0000
  H   H120      1.0  0.47976  0.38191  0.21420  1.0000
  C   C148      1.0  0.51157  0.18633  0.23231  1.0000
  C   C149      1.0  0.49400  0.54162  0.11611  1.0000
  P   P6        1.0  0.43276  0.61862  0.11962  1.0000
  H   H121      1.0  0.12793  0.53827  0.21121  1.0000
  H   H122      1.0  0.30353  0.26441  0.22515  1.0000
  C   C150      1.0  0.26210  0.44393  0.19519  1.0000
  H   H123      1.0  0.42747  0.31867  0.17284  1.0000
  C   C151      1.0  0.47510  0.15668  0.22499  1.0000
  H   H124      1.0  0.43933  0.51495  0.19318  1.0000
  C   C152      1.0  0.49855  0.24970  0.03904  1.0000
  C   C153      1.0  0.28994  0.61362  0.15051  1.0000
  H   H125      1.0  0.47126  0.23919  0.16470  1.0000
  H   H126      1.0  0.39569  0.39357  0.19490  1.0000
  S   S17       1.0  0.14687  0.31196  0.15041  1.0000
  C   C154      1.0  0.55115  0.52228  0.17620  1.0000
  C   C155      1.0  0.19050  0.47041  0.13167  1.0000
  H   H127      1.0  0.55599  0.23980  0.14138  1.0000
  H   H128      1.0  0.13024  0.26535  0.23645  1.0000
  S   S18       1.0  0.22646  0.59117  0.03023  1.0000
  H   H129      1.0  0.40421  0.24539  0.10848  1.0000
  C   C156      1.0  0.39325  0.32341  0.18928  1.0000
  H   H130      1.0  0.52238  0.30856  0.20074  1.0000
  C   C157      1.0  0.38000  0.47857  0.21281  1.0000
  H   H131      1.0  0.55124  0.41178  0.03729  1.0000
  C   C158      1.0  0.39119  0.57050  0.04582  1.0000
  H   H132      1.0  0.47834  0.53345  0.08287  1.0000
  C   C159      1.0  0.33706  0.60504  0.21963  1.0000
  C   C160      1.0  0.35454  0.32031  0.07240  1.0000
  C   C161      1.0  0.30454  0.33569  0.23095  1.0000
  C   C162      1.0  0.52972  0.51254  0.13358  1.0000
  C   C163      1.0  0.44094  0.24659  0.09781  1.0000
  C   C164      1.0  0.33023  0.37280  0.22265  1.0000
  H   H133      1.0  0.09630  0.41641  0.20391  1.0000
  H   H134      1.0  0.22647  0.53138  0.13327  1.0000
  C   C165      1.0  0.47961  0.58094  0.14115  1.0000
  C   C166      1.0  0.22082  0.24934  0.14415  1.0000
  C   C167      1.0  0.47888  0.24281  0.12977  1.0000
  C   C168      1.0  0.13608  0.54521  0.24684  1.0000
  C   C169      1.0  0.24483  0.21136  0.12454  1.0000
  C   C170      1.0  0.44397  0.62696  0.02713  1.0000
  C   C171      1.0  0.08934  0.41460  0.23928  1.0000
  H   H135      1.0  0.28047  0.20131  0.13703  1.0000
  H   H136      1.0  0.57905  0.49989  0.18957  1.0000
  H   H137      1.0  0.32907  0.62523  0.09215  1.0000
  H   H138      1.0  0.37457  0.55183  0.07017  1.0000
  H   H139      1.0  0.08683  0.54132  0.10922  1.0000
  H   H140      1.0  0.41338  0.60896  0.21571  1.0000
  H   H141      1.0  0.54123  0.48269  0.11376  1.0000
  H   H142      1.0  0.13548  0.65503  0.23287  1.0000
  H   H143      1.0  0.38976  0.33327  0.07985  1.0000
  H   H144      1.0  0.16140  0.18313  0.04226  1.0000
  C   C172      1.0  0.15478  0.16596  0.21378  1.0000
  C   C173      1.0  0.12944  0.16016  0.25277  1.0000
  H   H145      1.0  0.55972  0.39430  0.11801  1.0000
  C   C174      1.0  0.30246  0.27025  0.02930  1.0000
  C   C175      1.0  0.57987  0.37458  0.09262  1.0000
  H   H146      1.0  0.46855  0.33179  0.01270  1.0000
  P   P7        1.0  0.40118  0.25930  0.01208  1.0000
  P   P8        1.0  0.41205  0.19407  0.40809  1.0000
  C   C176      1.0  0.39872  0.32085  0.36851  1.0000
  C   C177      1.0  0.13601  0.39864  0.45757  1.0000
  S   S19       1.0  0.25517  0.55029  0.32779  1.0000
  C   C178      1.0  0.15659  0.31072  0.42680  1.0000
  C   C179      1.0  0.10650  0.17359  0.43187  1.0000
  C   C180      1.0  0.29862  0.40222  0.32619  1.0000
  C   C181      1.0  0.40801  0.44028  0.41023  1.0000
  S   S20       1.0  0.35176  0.42348  0.47945  1.0000
  H   H147      1.0  0.39162  0.62668  0.31925  1.0000
  C   C182      1.0  0.08977  0.24198  0.29026  1.0000
  H   H148      1.0  0.29459  0.38418  0.39487  1.0000
  C   C183      1.0  0.49284  0.44047  0.46393  1.0000
  C   C184      1.0  0.54912  0.30572  0.26941  1.0000
  H   H149      1.0  0.33915  0.48234  0.31998  1.0000
  H   H150      1.0  0.46315  0.33518  0.46572  1.0000
  C   C185      1.0  0.55084  0.32743  0.31267  1.0000
  C   C186      1.0  0.22889  0.41786  0.37212  1.0000
  C   C187      1.0  0.41562  0.64299  0.43229  1.0000
  C   C188      1.0  0.22805  0.44235  0.29640  1.0000
  H   H151      1.0  0.38001  0.20023  0.50202  1.0000
  H   H152      1.0  0.52808  0.38679  0.35280  1.0000
  S   S21       1.0  0.54536  0.47291  0.39873  1.0000
  C   C189      1.0  0.10967  0.19459  0.39180  1.0000
  Fe  Fe9       1.0  0.33179  0.58922  0.47619  1.0000
  C   C190      1.0  0.19433  0.21912  0.30670  1.0000
  Fe  Fe10      1.0  0.23464  0.55758  0.50086  1.0000
  H   H153      1.0  0.45561  0.54929  0.27037  1.0000
  H   H154      1.0  0.09882  0.22934  0.39165  1.0000
  S   S22       1.0  0.23711  0.50066  0.44846  1.0000
  C   C191      1.0  0.39806  0.51749  0.29946  1.0000
  C   C192      1.0  0.40711  0.42949  0.45513  1.0000
  H   H155      1.0  0.19509  0.38872  0.50562  1.0000
  Fe  Fe11      1.0  0.31390  0.49019  0.47274  1.0000
  C   C193      1.0  0.57454  0.17457  0.33731  1.0000
  H   H156      1.0  0.21145  0.41627  0.40379  1.0000
  C   C194      1.0  0.09944  0.49445  0.41987  1.0000
  C   C195      1.0  0.39055  0.63100  0.39186  1.0000
  H   H157      1.0  0.32366  0.26212  0.32201  1.0000
  H   H158      1.0  0.50935  0.22073  0.43219  1.0000
  C   C196      1.0  0.36108  0.48808  0.29187  1.0000
  H   H159      1.0  0.25833  0.63983  0.36880  1.0000
  C   C197      1.0  0.49316  0.45339  0.41970  1.0000
  C   C198      1.0  0.09598  0.53847  0.43742  1.0000
  C   C199      1.0  0.17404  0.37399  0.47759  1.0000
  C   C200      1.0  0.24741  0.27938  0.32464  1.0000
  H   H160      1.0  0.38715  0.35303  0.38372  1.0000
  C   C201      1.0  0.43144  0.23805  0.33088  1.0000
  C   C202      1.0  0.10920  0.56143  0.32312  1.0000
  C   C203      1.0  0.20088  0.26396  0.31908  1.0000
  S   S23       1.0  0.38855  0.63927  0.48438  1.0000
  C   C204      1.0  0.26785  0.21327  0.43385  1.0000
  C   C205      1.0  0.56679  0.22056  0.33788  1.0000
  C   C206      1.0  0.49898  0.38766  0.28507  1.0000
  H   H161      1.0  0.21334  0.31109  0.47860  1.0000
  H   H162      1.0  0.12742  0.43175  0.47167  1.0000
  H   H163      1.0  0.13476  0.47902  0.41355  1.0000
  C   C207      1.0  0.48971  0.22092  0.46304  1.0000
  H   H164      1.0  0.35474  0.61891  0.39253  1.0000
  C   C208      1.0  0.12702  0.17089  0.35284  1.0000
  C   C209      1.0  0.50165  0.33082  0.46093  1.0000
  C   C210      1.0  0.42981  0.27503  0.30522  1.0000
  S   S24       1.0  0.25597  0.60687  0.45332  1.0000
  H   H165      1.0  0.44560  0.20694  0.31581  1.0000
  C   C211      1.0  0.41547  0.24186  0.37526  1.0000
  H   H166      1.0  0.12838  0.55611  0.44576  1.0000
  C   C212      1.0  0.19481  0.55391  0.30878  1.0000
  C   C213      1.0  0.20560  0.44026  0.33734  1.0000
  C   C214      1.0  0.09863  0.55231  0.27708  1.0000
  H   H167      1.0  0.24434  0.23890  0.44980  1.0000
  H   H168      1.0  0.52555  0.44059  0.48483  1.0000
  C   C215      1.0  0.53383  0.33447  0.49814  1.0000
  H   H169      1.0  0.31260  0.18279  0.30054  1.0000
  P   P9        1.0  0.13464  0.19835  0.30176  1.0000
  C   C216      1.0  0.56906  0.31824  0.41114  1.0000
  S   S25       1.0  0.34193  0.53378  0.42357  1.0000
  C   C217      1.0  0.51348  0.23145  0.50443  1.0000
  H   H170      1.0  0.41191  0.34485  0.30385  1.0000
  C   C218      1.0  0.41679  0.20984  0.50207  1.0000
  C   C219      1.0  0.44970  0.42861  0.48173  1.0000
  H   H171      1.0  0.39095  0.28886  0.42925  1.0000
  H   H172      1.0  0.16405  0.27634  0.41581  1.0000
  C   C220      1.0  0.40057  0.28401  0.39426  1.0000
  Fe  Fe12      1.0  0.26508  0.54864  0.40296  1.0000
  C   C221      1.0  0.45637  0.65384  0.34891  1.0000
  C   C222      1.0  0.24897  0.17369  0.41672  1.0000
  C   C223      1.0  0.18457  0.33020  0.46206  1.0000
  H   H173      1.0  0.48112  0.42016  0.29087  1.0000
  H   H174      1.0  0.45137  0.46210  0.35841  1.0000
  H   H175      1.0  0.33075  0.24964  0.44685  1.0000
  C   C224      1.0  0.45109  0.45200  0.39246  1.0000
  H   H176      1.0  0.09244  0.19187  0.46168  1.0000
  C   C225      1.0  0.34846  0.18509  0.41341  1.0000
  H   H177      1.0  0.21098  0.16906  0.41920  1.0000
  C   C226      1.0  0.51925  0.32248  0.41754  1.0000
  C   C227      1.0  0.41300  0.31631  0.32382  1.0000
  C   C228      1.0  0.31724  0.21906  0.43219  1.0000
  C   C229      1.0  0.44113  0.20999  0.46165  1.0000
  C   C230      1.0  0.15748  0.56152  0.33911  1.0000
  H   H178      1.0  0.16591  0.56726  0.37475  1.0000
  C   C231      1.0  0.27571  0.39945  0.36688  1.0000
  H   H179      1.0  0.25223  0.31394  0.33428  1.0000
  H   H180      1.0  0.49423  0.31984  0.38903  1.0000
  H   H181      1.0  0.37498  0.44155  0.38982  1.0000
  C   C232      1.0  0.52548  0.36850  0.32025  1.0000
  H   H182      1.0  0.17038  0.45686  0.34207  1.0000
  H   H183      1.0  0.13782  0.36907  0.33217  1.0000
  H   H184      1.0  0.40437  0.53334  0.33295  1.0000
  C   C233      1.0  0.11862  0.33539  0.40652  1.0000
  C   C234      1.0  0.11196  0.38765  0.31217  1.0000
  H   H185      1.0  0.57590  0.46263  0.30522  1.0000
  H   H186      1.0  0.53159  0.23444  0.32812  1.0000
  C   C235      1.0  0.27474  0.42336  0.29053  1.0000
  C   C236      1.0  0.28765  0.25019  0.31791  1.0000
  C   C237      1.0  0.23491  0.18990  0.30049  1.0000
  C   C238      1.0  0.10941  0.38025  0.42041  1.0000
  H   H187      1.0  0.17018  0.28697  0.32475  1.0000
  H   H188      1.0  0.33531  0.38891  0.32278  1.0000
  C   C239      1.0  0.28141  0.20551  0.30568  1.0000
  C   C240      1.0  0.41110  0.63602  0.35030  1.0000
  H   H189      1.0  0.44137  0.27155  0.27071  1.0000
  H   H190      1.0  0.20921  0.45979  0.26999  1.0000
  H   H191      1.0  0.09668  0.31977  0.37965  1.0000
  C   C241      1.0  0.12085  0.38977  0.26639  1.0000
  C   C242      1.0  0.18406  0.54709  0.26261  1.0000
  C   C243      1.0  0.42686  0.52654  0.26414  1.0000
  H   H192      1.0  0.57055  0.27535  0.26203  1.0000
  H   H193      1.0  0.55115  0.23922  0.50554  1.0000
  H   H194      1.0  0.54950  0.02497  0.56624  1.0000
  Fe  Fe13      1.0  0.44560  0.07879  0.59567  1.0000
  C   C244      1.0  0.48352  0.73553  0.58075  1.0000
  C   C245      1.0  0.11104  0.10848  0.70106  1.0000
  H   H195      1.0  0.25509  0.86720  0.73311  1.0000
  C   C246      1.0  0.23278  0.06575  0.62752  1.0000
  H   H196      1.0  0.46803  0.99537  0.74638  1.0000
  C   C247      1.0  0.34596  0.72111  0.67204  1.0000
  H   H197      1.0  0.46134  0.69657  0.63411  1.0000
  H   H198      1.0  0.38797  0.11548  0.74916  1.0000
  C   C248      1.0  0.15767  0.05896  0.56250  1.0000
  H   H199      1.0  0.42485  0.89799  0.70709  1.0000
  H   H200      1.0  0.57688  0.70393  0.51223  1.0000
  S   S26       1.0  0.37230  0.97587  0.56078  1.0000
  C   C249      1.0  0.52405  0.14673  0.65426  1.0000
  C   C250      1.0  0.31888  0.69880  0.59591  1.0000
  H   H201      1.0  0.15350  0.81097  0.74468  1.0000
  C   C251      1.0  0.45452  0.82441  0.61887  1.0000
  S   S27       1.0  0.46505  0.01276  0.62175  1.0000
  H   H202      1.0  0.40767  0.14034  0.67477  1.0000
  C   C252      1.0  0.50497  0.99242  0.75967  1.0000
  H   H203      1.0  0.48029  0.72266  0.75713  1.0000
  H   H204      1.0  0.20994  0.02326  0.52020  1.0000
  H   H205      1.0  0.28655  0.97890  0.62634  1.0000
  P   P10       1.0  0.43358  0.77641  0.58557  1.0000
  H   H206      1.0  0.32212  0.89180  0.58027  1.0000
  C   C253      1.0  0.35310  0.72476  0.57880  1.0000
  H   H207      1.0  0.54500  0.89640  0.62024  1.0000
  S   S28       1.0  0.43707  0.05219  0.52377  1.0000
  C   C254      1.0  0.22997  0.13761  0.51270  1.0000
  Fe  Fe14      1.0  0.45059  0.98555  0.55082  1.0000
  H   H208      1.0  0.53361  0.02903  0.70842  1.0000
  H   H209      1.0  0.35588  0.72469  0.54261  1.0000
  C   C255      1.0  0.14935  0.08118  0.60452  1.0000
  C   C256      1.0  0.48772  0.90030  0.66739  1.0000
  H   H210      1.0  0.32926  0.90949  0.74270  1.0000
  C   C257      1.0  0.23584  0.93303  0.64559  1.0000
  C   C258      1.0  0.50784  0.72624  0.73299  1.0000
  C   C259      1.0  0.48604  0.69892  0.60733  1.0000
  H   H211      1.0  0.28822  0.67743  0.65573  1.0000
  H   H212      1.0  0.40659  0.76169  0.67856  1.0000
  H   H213      1.0  0.50096  0.92901  0.68658  1.0000
  C   C260      1.0  0.22727  0.90108  0.67553  1.0000
  H   H214      1.0  0.51591  0.83045  0.57706  1.0000
  H   H215      1.0  0.39380  0.83354  0.66326  1.0000
  H   H216      1.0  0.10576  0.90055  0.73633  1.0000
  C   C261      1.0  0.38426  0.74907  0.60816  1.0000
  H   H217      1.0  0.25821  0.77873  0.62632  1.0000
  C   C262      1.0  0.55183  0.70276  0.53913  1.0000
  C   C263      1.0  0.20675  0.08302  0.73771  1.0000
  S   S29       1.0  0.17607  0.86961  0.66889  1.0000
  H   H218      1.0  0.48409  0.79369  0.72274  1.0000
  C   C264      1.0  0.27884  0.95552  0.65006  1.0000
  H   H219      1.0  0.11786  0.04166  0.72228  1.0000
  H   H220      1.0  0.21018  0.93929  0.61816  1.0000
  H   H221      1.0  0.21332  0.01894  0.70039  1.0000
  C   C265      1.0  0.44502  0.88248  0.67913  1.0000
  C   C266      1.0  0.27299  0.85893  0.53273  1.0000
  P   P11       1.0  0.17495  0.11101  0.69277  1.0000
  C   C267      1.0  0.20329  0.04001  0.55299  1.0000
  H   H222      1.0  0.54860  0.80455  0.67030  1.0000
  H   H223      1.0  0.34938  0.14094  0.54163  1.0000
  Fe  Fe15      1.0  0.38584  0.00742  0.63038  1.0000
  C   C268      1.0  0.54841  0.12941  0.73063  1.0000
  H   H224      1.0  0.41177  0.86403  0.54990  1.0000
  S   S30       1.0  0.48764  0.13960  0.60531  1.0000
  C   C269      1.0  0.41988  0.79392  0.52933  1.0000
  H   H225      1.0  0.51740  0.76558  0.52662  1.0000
  C   C270      1.0  0.51876  0.12210  0.69167  1.0000
  C   C271      1.0  0.29884  0.86441  0.57385  1.0000
  C   C272      1.0  0.24094  0.04428  0.58510  1.0000
  C   C273      1.0  0.26132  0.89230  0.71022  1.0000
  C   C274      1.0  0.18658  0.08384  0.63783  1.0000
  H   H226      1.0  0.16339  0.95962  0.74671  1.0000
  C   C275      1.0  0.29345  0.83549  0.60746  1.0000
  H   H227      1.0  0.34332  0.71987  0.70830  1.0000
  H   H228      1.0  0.12898  0.05668  0.53700  1.0000
  H   H229      1.0  0.25118  0.15220  0.64621  1.0000
  H   H230      1.0  0.13954  0.80439  0.53939  1.0000
  C   C276      1.0  0.54571  0.77264  0.68342  1.0000
  C   C277      1.0  0.22104  0.03791  0.73186  1.0000
  H   H231      1.0  0.27669  0.03123  0.57663  1.0000
  H   H232      1.0  0.49165  0.09781  0.69061  1.0000
  H   H233      1.0  0.11387  0.09623  0.61069  1.0000
  S   S31       1.0  0.36304  0.97962  0.69383  1.0000
  C   C278      1.0  0.30346  0.91591  0.71542  1.0000
  H   H234      1.0  0.26254  0.06824  0.65205  1.0000
  C   C279      1.0  0.38102  0.74613  0.65499  1.0000
  C   C280      1.0  0.31503  0.69725  0.64252  1.0000
  H   H235      1.0  0.19302  0.73619  0.75079  1.0000
  C   C281      1.0  0.50949  0.76648  0.71330  1.0000
  C   C282      1.0  0.42792  0.84522  0.65449  1.0000
  C   C283      1.0  0.51290  0.88151  0.63041  1.0000
  C   C284      1.0  0.26308  0.80049  0.59974  1.0000
  H   H236      1.0  0.31186  0.84077  0.63996  1.0000
  S   S32       1.0  0.36740  0.07637  0.61060  1.0000
  C   C285      1.0  0.54188  0.01132  0.73827  1.0000
  C   C286      1.0  0.54286  0.69199  0.72316  1.0000
  S   S33       1.0  0.50407  0.93242  0.52581  1.0000
  C   C287      1.0  0.49633  0.84386  0.60614  1.0000
  C   C288      1.0  0.31206  0.94785  0.68545  1.0000
  C   C289      1.0  0.24215  0.82378  0.52453  1.0000
  C   C290      1.0  0.23873  0.79375  0.55804  1.0000
  C   C291      1.0  0.39902  0.14892  0.74661  1.0000
  C   C292      1.0  0.31172  0.15176  0.53838  1.0000
  C   C293      1.0  0.51790  0.73779  0.54754  1.0000
  H   H237      1.0  0.29554  0.67967  0.57287  1.0000
  Fe  Fe16      1.0  0.11013  0.89787  0.63237  1.0000
  H   H238      1.0  0.21741  0.76502  0.55238  1.0000
  C   C294      1.0  0.09341  0.06894  0.71369  1.0000
  Fe  Fe17      1.0  0.35986  0.04563  0.53998  1.0000
  C   C295      1.0  0.55240  0.66562  0.56429  1.0000
  C   C296      1.0  0.09471  0.75298  0.51250  1.0000
  C   C297      1.0  0.41401  0.83913  0.52198  1.0000
  C   C298      1.0  0.27871  0.12337  0.51695  1.0000
  C   C299      1.0  0.52023  0.66406  0.59892  1.0000
  S   S34       1.0  0.08709  0.89025  0.55914  1.0000
  C   C300      1.0  0.57929  0.69870  0.69320  1.0000
  C   C301      1.0  0.58032  0.73872  0.67307  1.0000
  H   H239      1.0  0.58163  0.05151  0.64190  1.0000
  H   H240      1.0  0.54485  0.11015  0.75940  1.0000
  C   C302      1.0  0.41301  0.14677  0.92774  1.0000
  C   C303      1.0  0.12309  0.92962  0.97094  1.0000
  C   C304      1.0  0.52985  0.70090  0.94820  1.0000
  C   C305      1.0  0.30344  0.70843  0.86216  1.0000
  S   S35       1.0  0.42513  0.86520  0.80787  1.0000
  C   C306      1.0  0.35786  0.13268  0.98556  1.0000
  H   H241      1.0  0.33305  0.78992  0.97562  1.0000
  H   H242      1.0  0.39990  0.70693  0.96012  1.0000
  C   C307      1.0  0.12480  0.06907  0.95547  1.0000
  C   C308      1.0  0.12593  0.99445  0.80240  1.0000
  H   H243      1.0  0.43797  0.90342  0.96992  1.0000
  C   C309      1.0  0.17519  0.02098  0.90596  1.0000
  C   C310      1.0  0.21564  0.03080  0.93363  1.0000
  C   C311      1.0  0.51588  0.96862  0.79757  1.0000
  S   S36       1.0  0.50542  0.88049  0.89020  1.0000
  H   H244      1.0  0.21143  0.79087  0.94100  1.0000
  H   H245      1.0  0.14775  0.86553  0.87549  1.0000
  H   H246      1.0  0.24208  0.06941  0.99226  1.0000
  C   C312      1.0  0.12958  0.04099  0.91604  1.0000
  H   H247      1.0  0.27627  0.70960  0.83516  1.0000
  C   C313      1.0  0.54627  0.65672  0.95398  1.0000
  H   H248      1.0  0.20357  0.14015  0.78565  1.0000
  C   C314      1.0  0.32677  0.69357  0.93953  1.0000
  C   C315      1.0  0.37127  0.00010  0.98797  1.0000
  C   C316      1.0  0.38402  0.72258  0.89146  1.0000
  C   C317      1.0  0.38303  0.11824  0.94688  1.0000
  S   S37       1.0  0.40826  0.82915  0.90668  1.0000
  S   S38       1.0  0.31197  0.67778  0.99260  1.0000
  H   H249      1.0  0.27154  0.82938  0.82037  1.0000
  H   H250      1.0  0.25665  0.68214  0.90845  1.0000
  H   H251      1.0  0.27314  0.02261  0.83547  1.0000
  H   H252      1.0  0.18011  0.99828  0.87668  1.0000
  H   H253      1.0  0.57123  0.94315  0.84204  1.0000
  S   S39       1.0  0.36057  0.75168  0.80839  1.0000
  C   C318      1.0  0.12987  0.87649  0.90630  1.0000
  C   C319      1.0  0.29035  0.86865  0.88110  1.0000
  C   C320      1.0  0.10695  0.78609  0.84412  1.0000
  C   C321      1.0  0.34887  0.72452  0.85654  1.0000
  H   H254      1.0  0.33555  0.11028  0.00131  1.0000
  C   C322      1.0  0.42024  0.93166  0.98782  1.0000
  S   S40       1.0  0.38729  0.95712  0.90511  1.0000
  S   S41       1.0  0.52007  0.79003  0.97745  1.0000
  C   C323      1.0  0.24510  0.01653  0.76704  1.0000
  C   C324      1.0  0.14645  0.91349  0.93181  1.0000
  C   C325      1.0  0.23883  0.08401  0.81514  1.0000
  H   H255      1.0  0.46783  0.07188  0.00004  1.0000
  H   H256      1.0  0.09842  0.84233  0.80335  1.0000
  C   C326      1.0  0.11591  0.81003  0.80683  1.0000
  C   C327      1.0  0.56579  0.07104  0.90868  1.0000
  Fe  Fe18      1.0  0.50406  0.84786  0.82027  1.0000
  S   S42       1.0  0.49305  0.78048  0.84312  1.0000
  H   H257      1.0  0.41974  0.73344  0.88682  1.0000
  C   C328      1.0  0.16012  0.72581  0.81340  1.0000
  C   C329      1.0  0.23274  0.81374  0.92510  1.0000
  H   H258      1.0  0.14646  0.11103  0.87471  1.0000
  C   C330      1.0  0.21079  0.06067  0.97139  1.0000
  C   C331      1.0  0.11446  0.11900  0.85444  1.0000
  C   C332      1.0  0.10065  0.92668  0.76282  1.0000
  H   H259      1.0  0.48332  0.07139  0.82107  1.0000
  C   C333      1.0  0.53972  0.73422  0.98190  1.0000
  C   C334      1.0  0.49906  0.02627  0.92264  1.0000
  H   H260      1.0  0.48100  0.00496  0.94360  1.0000
  H   H261      1.0  0.50934  0.70901  0.91797  1.0000
  H   H262      1.0  0.56389  0.87297  0.97169  1.0000
  C   C335      1.0  0.26641  0.83522  0.85636  1.0000
  C   C336      1.0  0.25675  0.84731  0.95053  1.0000
  C   C337      1.0  0.39347  0.96340  0.96419  1.0000
  Fe  Fe19      1.0  0.41430  0.79994  0.83552  1.0000
  S   S43       1.0  0.55577  0.86338  0.76816  1.0000
  C   C338      1.0  0.49980  0.06404  0.85352  1.0000
  H   H263      1.0  0.35007  0.02444  0.96989  1.0000
  H   H264      1.0  0.22121  0.78069  0.85949  1.0000
  H   H265      1.0  0.56788  0.71802  0.81215  1.0000
  C   C339      1.0  0.08690  0.99472  0.83120  1.0000
  H   H266      1.0  0.30858  0.89785  0.94607  1.0000
  H   H267      1.0  0.09000  0.08458  0.96443  1.0000
  C   C340      1.0  0.28628  0.87420  0.92794  1.0000
  H   H268      1.0  0.44362  0.02236  0.86999  1.0000
  C   C341      1.0  0.54310  0.04404  0.93716  1.0000
  C   C342      1.0  0.56369  0.96331  0.81387  1.0000
  H   H269      1.0  0.17729  0.92974  0.92097  1.0000
  C   C343      1.0  0.54413  0.08102  0.86713  1.0000
  C   C344      1.0  0.14699  0.79227  0.77344  1.0000
  Fe  Fe20      1.0  0.48788  0.81407  0.91245  1.0000
  H   H270      1.0  0.13475  0.95936  0.98971  1.0000
  C   C345      1.0  0.12908  0.74355  0.84692  1.0000
  H   H271      1.0  0.48747  0.95296  0.81351  1.0000
  H   H272      1.0  0.12224  0.72347  0.87428  1.0000
  C   C346      1.0  0.23785  0.80778  0.87843  1.0000
  H   H273      1.0  0.31416  0.88885  0.86428  1.0000
  C   C347      1.0  0.25430  0.03953  0.80851  1.0000
  S   S44       1.0  0.17374  0.66004  0.95960  1.0000
  H   H274      1.0  0.11875  0.75911  0.95336  1.0000
  H   H275      1.0  0.56974  0.94791  0.94547  1.0000
  P   P12       1.0  0.56759  0.03560  0.99342  1.0000
  C   C348      1.0  0.29234  0.69305  0.90376  1.0000
  C   C349      1.0  0.56180  0.94422  0.98031  1.0000
  Fe  Fe21      1.0  0.42568  0.89303  0.87992  1.0000
  H   H276      1.0  0.25083  0.01546  0.92569  1.0000
  C   C350      1.0  0.37290  0.70745  0.93298  1.0000
  H   H277      1.0  0.56187  0.10183  0.84534  1.0000
  C   C351      1.0  0.55849  0.90178  0.99498  1.0000
  H   H278      1.0  0.24488  0.10142  0.84767  1.0000
  H   H279      1.0  0.41771  0.77493  0.00049  1.0000
  H   H280      1.0  0.43364  0.13511  0.89859  1.0000
  H   H281      1.0  0.25630  0.98187  0.76229  1.0000
  C   C352      1.0  0.16527  0.07881  0.98296  1.0000
  H   H282      1.0  0.15058  0.02094  0.80574  1.0000
  C   C353      1.0  0.08445  0.90751  0.98575  1.0000
  H   H283      1.0  0.09394  0.70314  0.00389  1.0000
  H   H284      1.0  0.17717  0.69303  0.81583  1.0000
  C   C354      1.0  0.47745  0.03647  0.88111  1.0000
  C   C355      1.0  0.09082  0.85425  0.92072  1.0000
  H   H285      1.0  0.38027  0.08462  0.93231  1.0000
  C   C356      1.0  0.13315  0.96018  0.76881  1.0000
  C   C357      1.0  0.21535  0.10576  0.77986  1.0000
  C   C358      1.0  0.16911  0.75012  0.77675  1.0000
  C   C359      1.0  0.34679  0.80719  0.00623  1.0000
  H   H286      1.0  0.28468  0.15582  0.90077  1.0000
  H   H287      1.0  0.30085  0.93616  0.00882  1.0000
  C   C360      1.0  0.55582  0.98147  0.01071  1.0000
  C   C361      1.0  0.34482  0.81193  0.24391  1.0000
  C   C362      1.0  0.23827  0.90725  0.03379  1.0000
  C   C363      1.0  0.14728  0.13840  0.17467  1.0000
  C   C364      1.0  0.13139  0.99834  0.22430  1.0000
  H   H288      1.0  0.10315  0.77519  0.16509  1.0000
  P   P13       1.0  0.17133  0.74597  0.23486  1.0000
  C   C365      1.0  0.40081  0.97198  0.05897  1.0000
  H   H289      1.0  0.13700  0.72106  0.07257  1.0000
  C   C366      1.0  0.43400  0.95923  0.26058  1.0000
  H   H290      1.0  0.17852  0.89120  0.07428  1.0000
  H   H291      1.0  0.27467  0.94348  0.13356  1.0000
  C   C367      1.0  0.17368  0.02171  0.23064  1.0000
  H   H292      1.0  0.18835  0.03671  0.20261  1.0000
  C   C368      1.0  0.25366  0.81083  0.15155  1.0000
  H   H293      1.0  0.49460  0.88416  0.16529  1.0000
  H   H294      1.0  0.42461  0.85882  0.20259  1.0000
  H   H295      1.0  0.29687  0.70607  0.12378  1.0000
  C   C369      1.0  0.54758  0.89620  0.03958  1.0000
  Fe  Fe22      1.0  0.36766  0.12425  0.19886  1.0000
  C   C370      1.0  0.20779  0.73511  0.05218  1.0000
  C   C371      1.0  0.09614  0.12702  0.25177  1.0000
  H   H296      1.0  0.52579  0.95785  0.18782  1.0000
  C   C372      1.0  0.30967  0.91212  0.23810  1.0000
  H   H297      1.0  0.19545  0.82893  0.19587  1.0000
  C   C373      1.0  0.42131  0.70979  0.14079  1.0000
  C   C374      1.0  0.25301  0.98583  0.03940  1.0000
  C   C375      1.0  0.31728  0.83841  0.03110  1.0000
  S   S45       1.0  0.28789  0.13712  0.19945  1.0000
  C   C376      1.0  0.41358  0.82015  0.05942  1.0000
  C   C377      1.0  0.48685  0.11164  0.21517  1.0000
  C   C378      1.0  0.12341  0.71851  0.20333  1.0000
  H   H298      1.0  0.10338  0.13400  0.06871  1.0000
  C   C379      1.0  0.27607  0.73281  0.14123  1.0000
  H   H299      1.0  0.19376  0.93600  0.16456  1.0000
  H   H300      1.0  0.15233  0.96831  0.09449  1.0000
  S   S46       1.0  0.40300  0.97472  0.11827  1.0000
  C   C380      1.0  0.13825  0.78619  0.04789  1.0000
  C   C381      1.0  0.47769  0.90512  0.19184  1.0000
  Fe  Fe23      1.0  0.28626  0.06765  0.21932  1.0000
  H   H301      1.0  0.16701  0.14257  0.14468  1.0000
  C   C382      1.0  0.24052  0.72379  0.17083  1.0000
  H   H302      1.0  0.34820  0.92837  0.17984  1.0000
  C   C383      1.0  0.49204  0.13329  0.09716  1.0000
  S   S47       1.0  0.53308  0.76455  0.25100  1.0000
  C   C384      1.0  0.53538  0.09627  0.21352  1.0000
  Fe  Fe24      1.0  0.28851  0.10797  0.12790  1.0000
  H   H303      1.0  0.31119  0.78312  0.10961  1.0000
  C   C385      1.0  0.54492  0.97565  0.05565  1.0000
  C   C386      1.0  0.47367  0.97348  0.23899  1.0000
  H   H304      1.0  0.45877  0.08868  0.20825  1.0000
  H   H305      1.0  0.27459  0.75832  0.03244  1.0000
  H   H306      1.0  0.33547  0.74481  0.21760  1.0000
  C   C387      1.0  0.54161  0.12354  0.10182  1.0000
  H   H307      1.0  0.55673  0.72979  0.12694  1.0000
  H   H308      1.0  0.53062  0.92900  0.10406  1.0000
  H   H309      1.0  0.39927  0.86876  0.11444  1.0000
  H   H310      1.0  0.22340  0.70249  0.05841  1.0000
  H   H311      1.0  0.44393  0.91092  0.05298  1.0000
  C   C388      1.0  0.51882  0.72427  0.13056  1.0000
  H   H312      1.0  0.35753  0.03253  0.05358  1.0000
  C   C389      1.0  0.26387  0.90779  0.25516  1.0000
  C   C390      1.0  0.57181  0.12634  0.21985  1.0000
  C   C391      1.0  0.15902  0.74542  0.05957  1.0000
  C   C392      1.0  0.21869  0.80198  0.18194  1.0000
  C   C393      1.0  0.22233  0.91590  0.22842  1.0000
  H   H313      1.0  0.16137  0.10064  0.01327  1.0000
  H   H314      1.0  0.53975  0.00364  0.07998  1.0000
  C   C394      1.0  0.46610  0.11550  0.05973  1.0000
  C   C395      1.0  0.19841  0.91680  0.06159  1.0000
  C   C396      1.0  0.37527  0.00456  0.03533  1.0000
  C   C397      1.0  0.48670  0.75966  0.14326  1.0000
  H   H315      1.0  0.38356  0.70475  0.14482  1.0000
  C   C398      1.0  0.11385  0.10564  0.17398  1.0000
  H   H316      1.0  0.23423  0.68986  0.17673  1.0000
  C   C399      1.0  0.43788  0.89088  0.21313  1.0000
  C   C400      1.0  0.38430  0.85072  0.08485  1.0000
  H   H317      1.0  0.19922  0.02918  0.07281  1.0000
  C   C401      1.0  0.45344  0.67404  0.12824  1.0000
  C   C402      1.0  0.50225  0.68166  0.12280  1.0000
  H   H318      1.0  0.48764  0.00544  0.24889  1.0000
  H   H319      1.0  0.54457  0.06156  0.20546  1.0000
  H   H320      1.0  0.49989  0.79252  0.14958  1.0000
  Fe  Fe25      1.0  0.36043  0.03339  0.14957  1.0000
  C   C403      1.0  0.41542  0.91791  0.24754  1.0000
  H   H321      1.0  0.54381  0.86318  0.05032  1.0000
  C   C404      1.0  0.08815  0.10012  0.21246  1.0000
  C   C405      1.0  0.31340  0.92453  0.19384  1.0000
  C   C406      1.0  0.28368  0.77643  0.13273  1.0000
  H   H322      1.0  0.31492  0.88458  0.09012  1.0000
  S   S48       1.0  0.36662  0.05630  0.22288  1.0000
  C   C407      1.0  0.22619  0.92868  0.18462  1.0000
  C   C408      1.0  0.09631  0.74122  0.17057  1.0000
  C   C409      1.0  0.43795  0.75245  0.14837  1.0000
  H   H323      1.0  0.18694  0.91322  0.24182  1.0000
  H   H324      1.0  0.56190  0.13772  0.13054  1.0000
  C   C410      1.0  0.21361  0.75847  0.19345  1.0000
  S   S49       1.0  0.36867  0.10075  0.12615  1.0000
  C   C411      1.0  0.49538  0.94653  0.20460  1.0000
  C   C412      1.0  0.27167  0.93293  0.16733  1.0000
  C   C413      1.0  0.21710  0.80921  0.02860  1.0000
  C   C414      1.0  0.18399  0.96067  0.07466  1.0000
  C   C415      1.0  0.35435  0.76615  0.24211  1.0000
  H   H325      1.0  0.41316  0.77989  0.15833  1.0000
  H   H326      1.0  0.31838  0.82540  0.22046  1.0000
  C   C416      1.0  0.54044  0.93318  0.06981  1.0000
  S   S50       1.0  0.27956  0.03913  0.14761  1.0000
  H   H327      1.0  0.25752  0.84425  0.14247  1.0000
  C   C417      1.0  0.21061  0.99521  0.06264  1.0000
  C   C418      1.0  0.26683  0.94228  0.02510  1.0000
  C   C419      1.0  0.53884  0.07595  0.03261  1.0000
  C   C420      1.0  0.56491  0.09444  0.07014  1.0000
  C   C421      1.0  0.33645  0.86002  0.07062  1.0000
  C   C422      1.0  0.23676  0.76692  0.03708  1.0000
  H   H328      1.0  0.57468  0.74896  0.04667  1.0000
  S   S51       1.0  0.24975  0.13635  0.06822  1.0000
  H   H329      1.0  0.45124  0.81396  0.06912  1.0000
  H   H330      1.0  0.11369  0.99529  0.19130  1.0000
  H   H331      1.0  0.42777  0.12304  0.05618  1.0000
  C   C423      1.0  0.42375  0.93595  0.03503  1.0000
  H   H332      1.0  0.09969  0.79333  0.05107  1.0000
  C   C424      1.0  0.11456  0.67407  0.20890  1.0000
  C   C425      1.0  0.48920  0.08670  0.02768  1.0000
  H   H333      1.0  0.27551  0.01239  0.03296  1.0000
  H   H334      1.0  0.10804  0.08437  0.14372  1.0000
  C   C426      1.0  0.16686  0.81708  0.03055  1.0000
  H   H335      1.0  0.27224  0.71213  0.25306  1.0000
  P   P14       1.0  0.25578  0.85117  0.01178  1.0000
  H   H336      1.0  0.47352  0.15385  0.12305  1.0000
  C   C427      1.0  0.56642  0.72335  0.02075  1.0000
  C   C428      1.0  0.11246  0.97883  0.26058  1.0000
  C   C429      1.0  0.39471  0.79823  0.02039  1.0000
  H   H337      1.0  0.14968  0.84705  0.01890  1.0000
  C   C430      1.0  0.27948  0.13934  0.39876  1.0000
  H   H338      1.0  0.49797  0.02801  0.34094  1.0000
  C   C431      1.0  0.47191  0.11710  0.41392  1.0000
  H   H339      1.0  0.35263  0.72895  0.35676  1.0000
  S   S52       1.0  0.29856  0.07028  0.49530  1.0000
  S   S53       1.0  0.47993  0.66240  0.29646  1.0000
  C   C432      1.0  0.32907  0.14477  0.39746  1.0000
  H   H340      1.0  0.34468  0.70758  0.43460  1.0000
  H   H341      1.0  0.26481  0.10811  0.38671  1.0000
  H   H342      1.0  0.34308  0.91283  0.43900  1.0000
  C   C433      1.0  0.32517  0.74557  0.37776  1.0000
  C   C434      1.0  0.24908  0.70048  0.27730  1.0000
  C   C435      1.0  0.34233  0.92984  0.40823  1.0000
  H   H343      1.0  0.35986  0.87122  0.36670  1.0000
  P   P15       1.0  0.21069  0.81540  0.47022  1.0000
  H   H344      1.0  0.11383  0.85941  0.46454  1.0000
  C   C436      1.0  0.40640  0.82118  0.30306  1.0000
  H   H345      1.0  0.17038  0.65910  0.36899  1.0000
  C   C437      1.0  0.08396  0.72376  0.47550  1.0000
  C   C438      1.0  0.32737  0.99715  0.37011  1.0000
  C   C439      1.0  0.38930  0.74780  0.27115  1.0000
  C   C440      1.0  0.33066  0.97522  0.40986  1.0000
  C   C441      1.0  0.19655  0.02590  0.27334  1.0000
  C   C442      1.0  0.22039  0.89701  0.43380  1.0000
  H   H346      1.0  0.10041  0.70212  0.40709  1.0000
  H   H347      1.0  0.56580  0.84970  0.39274  1.0000
  C   C443      1.0  0.35223  0.90644  0.36704  1.0000
  C   C444      1.0  0.14431  0.12669  0.35564  1.0000
  C   C445      1.0  0.45331  0.08554  0.32477  1.0000
  H   H348      1.0  0.56108  0.86838  0.47433  1.0000
  H   H349      1.0  0.29605  0.78705  0.32653  1.0000
  P   P16       1.0  0.36248  0.89939  0.27292  1.0000
  H   H350      1.0  0.51356  0.05559  0.42039  1.0000
  H   H351      1.0  0.35169  0.11708  0.38434  1.0000
  C   C446      1.0  0.42086  0.82221  0.44155  1.0000
  H   H352      1.0  0.23067  0.15496  0.29180  1.0000
  H   H353      1.0  0.42810  0.84206  0.32570  1.0000
  C   C447      1.0  0.37062  0.83992  0.27459  1.0000
  C   C448      1.0  0.41515  0.77527  0.30179  1.0000
  H   H354      1.0  0.15485  0.07182  0.39784  1.0000
  C   C449      1.0  0.41506  0.85310  0.47833  1.0000
  C   C450      1.0  0.44274  0.14332  0.38532  1.0000
  C   C451      1.0  0.33706  0.97389  0.32887  1.0000
  C   C452      1.0  0.42375  0.77710  0.44827  1.0000
  C   C453      1.0  0.12183  0.12913  0.43380  1.0000
  H   H355      1.0  0.14154  0.98452  0.41576  1.0000
  C   C454      1.0  0.17099  0.69701  0.31037  1.0000
  C   C455      1.0  0.54088  0.87605  0.40482  1.0000
  H   H356      1.0  0.19510  0.00999  0.34263  1.0000
  C   C456      1.0  0.50737  0.92170  0.46737  1.0000
  C   C457      1.0  0.14838  0.79424  0.26792  1.0000
  S   S54       1.0  0.24907  0.05495  0.28244  1.0000
  C   C458      1.0  0.18854  0.86803  0.45029  1.0000
  C   C459      1.0  0.16278  0.86171  0.31465  1.0000
  H   H357      1.0  0.11922  0.11299  0.46496  1.0000
  H   H358      1.0  0.41847  0.98055  0.28739  1.0000
  C   C460      1.0  0.19228  0.67118  0.34357  1.0000
  C   C461      1.0  0.48154  0.66580  0.38921  1.0000
  C   C462      1.0  0.53874  0.88714  0.45112  1.0000
  C   C463      1.0  0.12260  0.92278  0.43971  1.0000
  C   C464      1.0  0.48300  0.06026  0.35316  1.0000
  C   C465      1.0  0.49204  0.07594  0.39781  1.0000
  C   C466      1.0  0.32081  0.73329  0.42167  1.0000
  C   C467      1.0  0.47845  0.94578  0.43706  1.0000
  C   C468      1.0  0.17727  0.00684  0.30966  1.0000
  H   H359      1.0  0.45771  0.95244  0.36694  1.0000
  Fe  Fe26      1.0  0.53536  0.71401  0.30260  1.0000
  H   H360      1.0  0.54564  0.15324  0.32633  1.0000
  C   C469      1.0  0.16129  0.77923  0.47264  1.0000
  C   C470      1.0  0.09970  0.79838  0.27928  1.0000
  C   C471      1.0  0.14146  0.10588  0.39591  1.0000
  H   H361      1.0  0.32325  0.99319  0.44186  1.0000
  S   S55       1.0  0.54291  0.76489  0.36058  1.0000
  H   H362      1.0  0.31676  0.03213  0.37114  1.0000
  H   H363      1.0  0.20440  0.11561  0.49638  1.0000
  Fe  Fe27      1.0  0.54784  0.81425  0.30855  1.0000
  H   H364      1.0  0.45387  0.97238  0.44956  1.0000
  C   C472      1.0  0.13547  0.98311  0.30322  1.0000
  C   C473      1.0  0.19920  0.71139  0.27654  1.0000
  H   H365      1.0  0.16887  0.75034  0.40426  1.0000
  C   C474      1.0  0.14914  0.75082  0.43500  1.0000
  C   C475      1.0  0.15464  0.95181  0.42448  1.0000
  H   H366      1.0  0.39684  0.71231  0.26948  1.0000
  C   C476      1.0  0.20348  0.93874  0.42098  1.0000
  H   H367      1.0  0.47802  0.12742  0.44921  1.0000
  C   C477      1.0  0.28601  0.75442  0.44941  1.0000
  H   H368      1.0  0.16070  0.10837  0.32695  1.0000
  C   C478      1.0  0.24176  0.66014  0.34355  1.0000
  C   C479      1.0  0.43271  0.12650  0.34084  1.0000
  C   C480      1.0  0.29344  0.77831  0.36095  1.0000
  C   C481      1.0  0.18013  0.82562  0.28667  1.0000
  C   C482      1.0  0.51166  0.89929  0.37440  1.0000
  C   C483      1.0  0.25482  0.78809  0.43331  1.0000
  H   H369      1.0  0.12108  0.96796  0.33119  1.0000
  H   H370      1.0  0.44280  0.76088  0.32381  1.0000
  H   H371      1.0  0.42692  0.72794  0.49679  1.0000
  H   H372      1.0  0.22827  0.96126  0.40896  1.0000
  H   H373      1.0  0.42464  0.83325  0.40813  1.0000
  H   H374      1.0  0.23279  0.82350  0.37468  1.0000
  C   C484      1.0  0.25789  0.79914  0.38845  1.0000
  C   C485      1.0  0.42251  0.76295  0.49194  1.0000
  H   H375      1.0  0.44523  0.07292  0.29053  1.0000
  H   H376      1.0  0.41438  0.88811  0.47360  1.0000
  H   H377      1.0  0.42878  0.75302  0.41988  1.0000
  H   H378      1.0  0.25832  0.88749  0.43124  1.0000
  C   C486      1.0  0.48064  0.93453  0.39041  1.0000
  H   H379      1.0  0.28352  0.74420  0.48337  1.0000
  C   C487      1.0  0.13933  0.88103  0.45236  1.0000
  C   C488      1.0  0.35119  0.92861  0.32710  1.0000
  H   H380      1.0  0.51705  0.67858  0.38841  1.0000
  H   H381      1.0  0.18686  0.88637  0.32869  1.0000
  C   C489      1.0  0.27004  0.67438  0.31029  1.0000
  S   S56       1.0  0.51323  0.88306  0.31668  1.0000
  H   H382      1.0  0.40734  0.14400  0.31899  1.0000
  C   C490      1.0  0.11401  0.86605  0.32483  1.0000
  H   H383      1.0  0.10024  0.89389  0.34625  1.0000
  H   H384      1.0  0.26037  0.89867  0.28935  1.0000
  H   H385      1.0  0.21824  0.82194  0.27994  1.0000
  H   H386      1.0  0.13247  0.70542  0.31089  1.0000
  H   H387      1.0  0.33322  0.99130  0.29823  1.0000
  C   C491      1.0  0.11065  0.72315  0.43653  1.0000
  H   H388      1.0  0.08481  0.93300  0.44270  1.0000
  C   C492      1.0  0.08269  0.83428  0.30746  1.0000
  C   C493      1.0  0.46126  0.66020  0.43087  1.0000
  H   H389      1.0  0.48113  0.66902  0.46194  1.0000
  H   H390      1.0  0.30832  0.66529  0.31048  1.0000
  C   C494      1.0  0.13266  0.78117  0.51082  1.0000
  H   H391      1.0  0.27748  0.88219  0.50769  1.0000
  Fe  Fe28      1.0  0.69550  0.17369  0.74197  1.0000
  H   H392      1.0  0.59937  0.33576  0.65296  1.0000
  C   C495      1.0  0.94867  0.36113  0.71179  1.0000
  C   C496      1.0  0.91010  0.37925  0.68649  1.0000
  C   C497      1.0  0.91872  0.46673  0.55284  1.0000
  H   H393      1.0  0.68795  0.39192  0.55874  1.0000
  Fe  Fe29      1.0  0.04821  0.24657  0.55403  1.0000
  C   C498      1.0  0.63957  0.36798  0.60529  1.0000
  C   C499      1.0  0.07923  0.45604  0.56573  1.0000
  H   H394      1.0  0.97643  0.24133  0.67373  1.0000
  C   C500      1.0  0.70249  0.29286  0.60427  1.0000
  H   H395      1.0  0.03899  0.41934  0.67521  1.0000
  C   C501      1.0  0.82410  0.47215  0.69134  1.0000
  C   C502      1.0  0.96941  0.24382  0.70938  1.0000
  C   C503      1.0  0.91795  0.41139  0.65629  1.0000
  C   C504      1.0  0.92862  0.50079  0.52590  1.0000
  H   H396      1.0  0.93209  0.61785  0.73184  1.0000
  S   S57       1.0  0.59929  0.41399  0.60235  1.0000
  H   H397      1.0  0.98215  0.58468  0.66919  1.0000
  H   H398      1.0  0.02001  0.50491  0.56665  1.0000
  C   C505      1.0  0.95116  0.58606  0.73476  1.0000
  C   C506      1.0  0.63519  0.55718  0.67772  1.0000
  C   C507      1.0  0.82507  0.38751  0.54185  1.0000
  H   H399      1.0  0.97124  0.45188  0.63094  1.0000
  C   C508      1.0  0.66254  0.29580  0.63194  1.0000
  C   C509      1.0  0.90319  0.54175  0.53122  1.0000
  Fe  Fe30      1.0  0.62752  0.45395  0.54910  1.0000
  H   H400      1.0  0.07078  0.56730  0.55696  1.0000
  C   C510      1.0  0.87924  0.30731  0.54588  1.0000
  C   C511      1.0  0.87271  0.18472  0.56855  1.0000
  C   C512      1.0  0.73881  0.47114  0.70528  1.0000
  C   C513      1.0  0.00246  0.50534  0.74393  1.0000
  C   C514      1.0  0.97937  0.56741  0.69959  1.0000
  H   H401      1.0  0.88209  0.21407  0.58921  1.0000
  S   S58       1.0  0.81273  0.16950  0.67372  1.0000
  S   S59       1.0  0.69803  0.48723  0.55168  1.0000
  H   H402      1.0  0.74292  0.32550  0.55771  1.0000
  H   H403      1.0  0.02303  0.47437  0.74744  1.0000
  H   H404      1.0  0.76639  0.40591  0.61144  1.0000
  H   H405      1.0  0.02497  0.36099  0.72719  1.0000
  C   C515      1.0  0.66779  0.65208  0.51342  1.0000
  H   H406      1.0  0.94267  0.33488  0.73332  1.0000
  H   H407      1.0  0.77142  0.57825  0.67942  1.0000
  S   S60       1.0  0.73501  0.23491  0.73290  1.0000
  Fe  Fe31      1.0  0.06811  0.34330  0.58024  1.0000
  C   C516      1.0  0.68027  0.36516  0.57882  1.0000
  S   S61       1.0  0.67233  0.61113  0.55232  1.0000
  H   H408      1.0  0.78939  0.50816  0.74743  1.0000
  H   H409      1.0  0.90750  0.63173  0.65581  1.0000
  H   H410      1.0  0.90127  0.27673  0.54676  1.0000
  C   C517      1.0  0.85674  0.51413  0.58960  1.0000
  C   C518      1.0  0.00286  0.40863  0.67908  1.0000
  H   H411      1.0  0.85931  0.48419  0.70106  1.0000
  H   H412      1.0  0.72851  0.64165  0.64436  1.0000
  C   C519      1.0  0.05854  0.49895  0.56401  1.0000
  C   C520      1.0  0.92425  0.23286  0.72423  1.0000
  H   H413      1.0  0.91414  0.33669  0.60468  1.0000
  H   H414      1.0  0.84600  0.57951  0.56571  1.0000
  H   H415      1.0  0.80473  0.41882  0.53894  1.0000
  H   H416      1.0  0.64147  0.61142  0.72750  1.0000
  C   C521      1.0  0.88323  0.47331  0.58540  1.0000
  C   C522      1.0  0.63074  0.33351  0.63228  1.0000
  H   H417      1.0  0.86097  0.57345  0.68515  1.0000
  H   H418      1.0  0.82744  0.51956  0.61263  1.0000
  H   H419      1.0  0.61618  0.20892  0.69434  1.0000
  H   H420      1.0  0.06840  0.64838  0.56529  1.0000
  Fe  Fe32      1.0  0.74314  0.20784  0.66130  1.0000
  C   C523      1.0  0.71143  0.32757  0.57812  1.0000
  C   C524      1.0  0.77211  0.42833  0.64075  1.0000
  C   C525      1.0  0.83277  0.18636  0.53850  1.0000
  C   C526      1.0  0.00552  0.25711  0.74087  1.0000
  C   C527      1.0  0.61667  0.59020  0.70850  1.0000
  H   H421      1.0  0.67378  0.55284  0.67334  1.0000
  C   C528      1.0  0.76767  0.63944  0.64687  1.0000
  C   C529      1.0  0.86855  0.63423  0.65333  1.0000
  S   S62       1.0  0.74125  0.24581  0.60017  1.0000
  C   C530      1.0  0.88638  0.34171  0.57890  1.0000
  C   C531      1.0  0.73262  0.44233  0.66701  1.0000
  S   S63       1.0  0.58363  0.51257  0.52568  1.0000
  C   C532      1.0  0.84228  0.60110  0.66979  1.0000
  C   C533      1.0  0.78458  0.48589  0.71763  1.0000
  S   S64       1.0  0.04050  0.41249  0.56837  1.0000
  S   S65       1.0  0.01533  0.29725  0.60376  1.0000
  C   C534      1.0  0.81809  0.44336  0.65259  1.0000
  Fe  Fe33      1.0  0.80241  0.19270  0.74590  1.0000
  H   H422      1.0  0.65573  0.26875  0.65221  1.0000
  Fe  Fe34      1.0  0.07463  0.27503  0.65114  1.0000
  H   H423      1.0  0.02664  0.51240  0.67672  1.0000
  C   C535      1.0  0.99506  0.37574  0.70813  1.0000
  C   C536      1.0  0.85877  0.38198  0.57756  1.0000
  S   S66       1.0  0.06386  0.26734  0.72468  1.0000
  P   P17       1.0  0.86939  0.42802  0.61816  1.0000
  C   C537      1.0  0.86702  0.54830  0.56284  1.0000
  C   C538      1.0  0.79185  0.60371  0.66655  1.0000
  H   H424      1.0  0.61845  0.50451  0.62842  1.0000
  H   H425      1.0  0.70794  0.48197  0.72520  1.0000
  H   H426      1.0  0.93868  0.43516  0.54816  1.0000
  H   H427      1.0  0.89650  0.22234  0.69998  1.0000
  H   H428      1.0  0.81208  0.21741  0.53621  1.0000
  C   C539      1.0  0.60395  0.53010  0.65215  1.0000
  H   H429      1.0  0.87456  0.36662  0.68881  1.0000
  C   C540      1.0  0.96429  0.42685  0.65363  1.0000
  H   H430      1.0  0.60821  0.33047  0.52102  1.0000
  C   C541      1.0  0.00465  0.52679  0.70398  1.0000
  H   H431      1.0  0.69702  0.43100  0.65763  1.0000
  C   C542      1.0  0.58878  0.18497  0.69399  1.0000
  Fe  Fe35      1.0  0.65479  0.54376  0.52288  1.0000
  H   H432      1.0  0.62394  0.27455  0.74609  1.0000
  C   C543      1.0  0.05111  0.65561  0.75344  1.0000
  H   H433      1.0  0.00324  0.16138  0.67403  1.0000
  C   C544      1.0  0.58398  0.16046  0.73139  1.0000
  C   C545      1.0  0.84430  0.31260  0.51147  1.0000
  C   C546      1.0  0.79947  0.45274  0.97399  1.0000
  C   C547      1.0  0.69491  0.22254  0.97957  1.0000
  C   C548      1.0  0.80831  0.42235  0.93720  1.0000
  C   C549      1.0  0.91542  0.23543  0.77050  1.0000
  S   S67       1.0  0.01829  0.42972  0.99965  1.0000
  H   H434      1.0  0.62921  0.30220  0.82638  1.0000
  C   C550      1.0  0.67519  0.22753  0.89997  1.0000
  C   C551      1.0  0.91560  0.55204  0.94887  1.0000
  C   C552      1.0  0.95119  0.24978  0.80159  1.0000
  H   H435      1.0  0.71967  0.46649  0.87073  1.0000
  H   H436      1.0  0.07378  0.64579  0.88202  1.0000
  H   H437      1.0  0.65028  0.30245  0.00165  1.0000
  H   H438      1.0  0.76109  0.60449  0.80477  1.0000
  C   C553      1.0  0.89305  0.41767  0.95892  1.0000
  H   H439      1.0  0.07201  0.52583  0.80738  1.0000
  Fe  Fe36      1.0  0.60251  0.48784  0.86230  1.0000
  C   C554      1.0  0.89136  0.19269  0.90733  1.0000
  H   H440      1.0  0.93719  0.34072  0.81823  1.0000
  C   C555      1.0  0.93399  0.59410  0.95332  1.0000
  H   H441      1.0  0.86870  0.25461  0.94111  1.0000
  C   C556      1.0  0.94852  0.56456  0.77451  1.0000
  C   C557      1.0  0.02982  0.24560  0.93067  1.0000
  C   C558      1.0  0.78325  0.56277  0.99554  1.0000
  C   C559      1.0  0.71425  0.55003  0.80005  1.0000
  C   C560      1.0  0.83744  0.46587  0.00379  1.0000
  S   S68       1.0  0.64832  0.48691  0.80193  1.0000
  C   C561      1.0  0.04446  0.55930  0.00309  1.0000
  C   C562      1.0  0.06733  0.64825  0.84613  1.0000
  C   C563      1.0  0.78025  0.33151  0.99601  1.0000
  C   C564      1.0  0.88690  0.46240  0.81717  1.0000
  H   H442      1.0  0.75737  0.18186  0.86863  1.0000
  H   H443      1.0  0.92632  0.57979  0.80120  1.0000
  C   C565      1.0  0.63547  0.61512  0.85876  1.0000
  Fe  Fe37      1.0  0.82972  0.65460  0.85184  1.0000
  C   C566      1.0  0.72928  0.49605  0.85574  1.0000
  C   C567      1.0  0.05335  0.32605  0.89937  1.0000
  C   C568      1.0  0.99581  0.26102  0.78686  1.0000
  C   C569      1.0  0.85493  0.40419  0.93019  1.0000
  C   C570      1.0  0.85560  0.42780  0.81019  1.0000
  C   C571      1.0  0.61912  0.19637  0.94780  1.0000
  H   H444      1.0  0.97926  0.63898  0.92400  1.0000
  H   H445      1.0  0.76999  0.33472  0.78637  1.0000
  C   C572      1.0  0.71556  0.36662  0.82908  1.0000
  C   C573      1.0  0.07787  0.25288  0.92226  1.0000
  H   H446      1.0  0.60371  0.57785  0.80223  1.0000
  H   H447      1.0  0.66252  0.38973  0.87764  1.0000
  H   H448      1.0  0.02064  0.21482  0.94380  1.0000
  S   S69       1.0  0.86061  0.22133  0.79163  1.0000
  C   C574      1.0  0.76920  0.51882  0.87287  1.0000
  H   H449      1.0  0.65401  0.58636  0.87233  1.0000
  C   C575      1.0  0.60704  0.61048  0.81896  1.0000
  H   H450      1.0  0.92525  0.61646  0.98226  1.0000
  C   C576      1.0  0.74657  0.30472  0.89149  1.0000
  H   H451      1.0  0.87228  0.49636  0.81742  1.0000
  C   C577      1.0  0.75348  0.33564  0.81892  1.0000
  H   H452      1.0  0.69282  0.56233  0.77213  1.0000
  C   C578      1.0  0.92643  0.52329  0.91121  1.0000
  C   C579      1.0  0.70144  0.51204  0.81971  1.0000
  C   C580      1.0  0.85693  0.22607  0.92053  1.0000
  S   S70       1.0  0.63154  0.48190  0.93294  1.0000
  C   C581      1.0  0.04531  0.45487  0.88563  1.0000
  C   C582      1.0  0.79437  0.18498  0.88044  1.0000
  H   H453      1.0  0.86155  0.37980  0.90246  1.0000
  C   C583      1.0  0.75222  0.59870  0.98478  1.0000
  H   H454      1.0  0.99307  0.40103  0.82766  1.0000
  H   H455      1.0  0.68390  0.23667  0.86674  1.0000
  S   S71       1.0  0.59068  0.36514  0.95687  1.0000
  H   H456      1.0  0.60702  0.20266  0.87626  1.0000
  H   H457      1.0  0.70336  0.39044  0.80496  1.0000
  P   P18       1.0  0.97631  0.49839  0.83248  1.0000
  H   H458      1.0  0.04224  0.58461  0.97919  1.0000
  P   P19       1.0  0.76256  0.26239  0.93013  1.0000
  H   H459      1.0  0.79860  0.28131  0.84165  1.0000
  C   C584      1.0  0.69261  0.36633  0.87006  1.0000
  C   C585      1.0  0.65095  0.20345  0.98488  1.0000
  C   C586      1.0  0.97595  0.57803  0.88367  1.0000
  H   H460      1.0  0.95689  0.27364  0.93257  1.0000
  C   C587      1.0  0.02918  0.51705  0.98993  1.0000
  H   H461      1.0  0.01442  0.51046  0.95630  1.0000
  H   H462      1.0  0.76183  0.35393  0.97384  1.0000
  C   C588      1.0  0.93671  0.45324  0.82413  1.0000
  H   H463      1.0  0.74941  0.60850  0.95035  1.0000
  H   H464      1.0  0.76296  0.46618  0.97879  1.0000
  H   H465      1.0  0.94440  0.25191  0.83730  1.0000
  C   C589      1.0  0.00543  0.31877  0.90815  1.0000
  C   C590      1.0  0.88456  0.44870  0.99522  1.0000
  C   C591      1.0  0.95653  0.53637  0.87819  1.0000
  H   H466      1.0  0.85004  0.35696  0.80481  1.0000
  C   C592      1.0  0.70709  0.23541  0.93722  1.0000
  C   C593      1.0  0.78000  0.55845  0.85531  1.0000
  C   C594      1.0  0.03743  0.48183  0.84941  1.0000
  H   H467      1.0  0.80470  0.54604  0.96928  1.0000
  H   H468      1.0  0.92943  0.40419  0.95317  1.0000
  H   H469      1.0  0.71844  0.22844  0.00893  1.0000
  C   C595      1.0  0.78518  0.28593  0.98416  1.0000
  C   C596      1.0  0.70749  0.33509  0.90077  1.0000
  H   H470      1.0  0.02319  0.27183  0.81140  1.0000
  C   C597      1.0  0.75298  0.57382  0.81845  1.0000
  H   H471      1.0  0.89284  0.54190  0.97450  1.0000
  H   H472      1.0  0.06922  0.20141  0.79151  1.0000
  C   C598      1.0  0.87388  0.38395  0.81041  1.0000
  C   C599      1.0  0.07698  0.50171  0.83251  1.0000
  S   S72       1.0  0.82589  0.58924  0.88120  1.0000
  C   C600      1.0  0.96413  0.60698  0.92060  1.0000
  H   H473      1.0  0.92887  0.19574  0.91781  1.0000
  C   C601      1.0  0.95477  0.40912  0.82387  1.0000
  H   H474      1.0  0.06192  0.35780  0.88832  1.0000
  H   H475      1.0  0.91202  0.49087  0.90850  1.0000
  H   H476      1.0  0.97755  0.34468  0.90385  1.0000
  C   C602      1.0  0.99375  0.27873  0.92423  1.0000
  H   H477      1.0  0.68816  0.33435  0.93169  1.0000
  H   H478      1.0  0.77887  0.41265  0.91428  1.0000
  H   H479      1.0  0.58493  0.18190  0.95201  1.0000
  H   H480      1.0  0.01512  0.44203  0.90165  1.0000
  C   C603      1.0  0.80786  0.22198  0.90813  1.0000
  C   C604      1.0  0.76940  0.30515  0.85022  1.0000
  C   C605      1.0  0.92323  0.37471  0.81802  1.0000
  H   H481      1.0  0.79092  0.50650  0.90052  1.0000
  H   H482      1.0  0.00064  0.58786  0.85946  1.0000
  C   C606      1.0  0.63140  0.20818  0.90529  1.0000
  H   H483      1.0  0.81719  0.43512  0.80482  1.0000
  S   S73       1.0  0.62601  0.16612  0.77658  1.0000
  C   C607      1.0  0.97537  0.52463  0.77986  1.0000
  S   S74       1.0  0.59258  0.59117  0.00338  1.0000
  H   H484      1.0  0.81509  0.22316  0.00582  1.0000
  C   C608      1.0  0.59428  0.30041  0.80901  1.0000
  C   C609      1.0  0.07088  0.17069  0.80774  1.0000
  C   C610      1.0  0.59125  0.28492  0.76365  1.0000
  H   H485      1.0  0.70030  0.64921  0.00985  1.0000
  H   H486      1.0  0.67730  0.42445  0.08150  1.0000
  H   H487      1.0  0.02440  0.45656  0.23670  1.0000
  C   C611      1.0  0.78198  0.41540  0.14418  1.0000
  H   H488      1.0  0.06858  0.32273  0.21678  1.0000
  Fe  Fe38      1.0  0.67098  0.16761  0.19427  1.0000
  C   C612      1.0  0.78819  0.46890  0.08764  1.0000
  H   H489      1.0  0.86890  0.45524  0.26002  1.0000
  C   C613      1.0  0.82900  0.27582  0.05558  1.0000
  C   C614      1.0  0.80005  0.34897  0.03695  1.0000
  H   H490      1.0  0.91514  0.45889  0.01615  1.0000
  C   C615      1.0  0.95494  0.50530  0.12460  1.0000
  C   C616      1.0  0.97702  0.16751  0.23921  1.0000
  C   C617      1.0  0.67941  0.56373  0.20204  1.0000
  S   S75       1.0  0.67188  0.23351  0.23322  1.0000
  H   H491      1.0  0.65087  0.53935  0.09052  1.0000
  H   H492      1.0  0.72301  0.47921  0.04615  1.0000
  C   C618      1.0  0.76010  0.57342  0.07345  1.0000
  C   C619      1.0  0.85579  0.27951  0.21010  1.0000
  Fe  Fe39      1.0  0.75041  0.23108  0.21979  1.0000
  H   H493      1.0  0.86239  0.59020  0.07413  1.0000
  C   C620      1.0  0.96224  0.55053  0.13024  1.0000
  H   H494      1.0  0.99380  0.56215  0.14919  1.0000
  C   C621      1.0  0.05468  0.49220  0.06282  1.0000
  C   C622      1.0  0.96604  0.18293  0.16060  1.0000
  H   H495      1.0  0.77760  0.58039  0.19218  1.0000
  S   S76       1.0  0.95833  0.22407  0.02620  1.0000
  C   C623      1.0  0.91396  0.49020  0.10079  1.0000
  H   H496      1.0  0.76326  0.56441  0.10805  1.0000
  H   H497      1.0  0.69837  0.50875  0.15459  1.0000
  C   C624      1.0  0.60989  0.33845  0.10500  1.0000
  C   C625      1.0  0.83958  0.28758  0.25409  1.0000
  S   S77       1.0  0.77255  0.16734  0.06218  1.0000
  C   C626      1.0  0.99125  0.17452  0.03693  1.0000
  C   C627      1.0  0.66309  0.41417  0.23785  1.0000
  C   C628      1.0  0.88768  0.56580  0.08777  1.0000
  H   H498      1.0  0.98110  0.48192  0.13890  1.0000
  C   C629      1.0  0.63074  0.32252  0.02706  1.0000
  S   S78       1.0  0.75075  0.16319  0.18649  1.0000
  C   C630      1.0  0.74006  0.46175  0.07354  1.0000
  H   H499      1.0  0.05996  0.46638  0.08566  1.0000
  S   S79       1.0  0.65429  0.19701  0.12804  1.0000
  H   H500      1.0  0.79719  0.38415  0.04522  1.0000
  S   S80       1.0  0.74114  0.26500  0.15536  1.0000
  P   P20       1.0  0.71149  0.53915  0.24873  1.0000
  H   H501      1.0  0.67315  0.38261  0.22036  1.0000
  C   C631      1.0  0.80992  0.25834  0.01435  1.0000
  C   C632      1.0  0.80829  0.44636  0.12422  1.0000
  C   C633      1.0  0.67853  0.54032  0.15955  1.0000
  C   C634      1.0  0.78635  0.54906  0.03972  1.0000
  H   H502      1.0  0.93448  0.61584  0.11598  1.0000
  C   C635      1.0  0.65168  0.55738  0.12339  1.0000
  H   H503      1.0  0.89733  0.30354  0.15801  1.0000
  S   S81       1.0  0.03907  0.54794  0.25682  1.0000
  H   H504      1.0  0.97921  0.19578  0.13059  1.0000
  H   H505      1.0  0.02914  0.19858  0.20149  1.0000
  C   C636      1.0  0.84512  0.54310  0.19693  1.0000
  S   S82       1.0  0.94641  0.35020  0.06510  1.0000
  Fe  Fe40      1.0  0.90181  0.65429  0.25863  1.0000
  C   C637      1.0  0.04900  0.43741  0.25789  1.0000
  C   C638      1.0  0.04002  0.17432  0.05053  1.0000
  H   H506      1.0  0.07128  0.61902  0.18744  1.0000
  C   C639      1.0  0.92057  0.16542  0.15934  1.0000
  H   H507      1.0  0.83919  0.33487  0.09872  1.0000
  H   H508      1.0  0.65174  0.62255  0.24039  1.0000
  C   C640      1.0  0.92893  0.58070  0.11137  1.0000
  C   C641      1.0  0.99413  0.18432  0.20058  1.0000
  C   C642      1.0  0.07824  0.65324  0.18289  1.0000
  H   H509      1.0  0.71511  0.38219  0.14303  1.0000
  C   C643      1.0  0.77299  0.52501  0.23381  1.0000
  C   C644      1.0  0.59989  0.35771  0.01434  1.0000
  C   C645      1.0  0.89647  0.34836  0.21769  1.0000
  C   C646      1.0  0.87912  0.52035  0.08310  1.0000
  H   H510      1.0  0.66002  0.28565  0.08177  1.0000
  S   S83       1.0  0.03885  0.39019  0.12316  1.0000
  C   C647      1.0  0.06518  0.56820  0.04601  1.0000
  H   H511      1.0  0.90906  0.50149  0.20951  1.0000
  H   H512      1.0  0.79852  0.39730  0.17148  1.0000
  C   C648      1.0  0.82400  0.32120  0.06695  1.0000
  S   S84       1.0  0.00906  0.28916  0.13594  1.0000
  C   C649      1.0  0.87095  0.50771  0.21574  1.0000
  C   C650      1.0  0.03459  0.48318  0.01939  1.0000
  H   H513      1.0  0.60733  0.65369  0.17586  1.0000
  C   C651      1.0  0.88479  0.30974  0.19202  1.0000
  Fe  Fe41      1.0  0.73439  0.19668  0.12261  1.0000
  H   H514      1.0  0.70938  0.62838  0.08884  1.0000
  C   C652      1.0  0.72964  0.60973  0.06272  1.0000
  C   C653      1.0  0.67894  0.49111  0.25817  1.0000
  H   H515      1.0  0.84443  0.45147  0.13721  1.0000
  H   H516      1.0  0.84816  0.25404  0.07838  1.0000
  P   P21       1.0  0.82440  0.50139  0.05408  1.0000
  H   H517      1.0  0.72293  0.44659  0.21474  1.0000
  S   S85       1.0  0.93004  0.38775  0.19499  1.0000
  C   C654      1.0  0.69151  0.45033  0.23520  1.0000
  C   C655      1.0  0.71382  0.43078  0.09359  1.0000
  Fe  Fe42      1.0  0.97217  0.35674  0.13740  1.0000
  Fe  Fe43      1.0  0.98876  0.28478  0.06200  1.0000
  C   C656      1.0  0.06981  0.53479  0.07624  1.0000
  S   S86       1.0  0.05664  0.31336  0.04167  1.0000
  C   C657      1.0  0.79633  0.55173  0.20576  1.0000
  C   C658      1.0  0.06263  0.30208  0.24408  1.0000
  C   C659      1.0  0.65296  0.60441  0.20783  1.0000
  Fe  Fe44      1.0  0.66202  0.26292  0.16645  1.0000
  H   H518      1.0  0.84614  0.24991  0.19006  1.0000
  H   H519      1.0  0.86343  0.56513  0.17715  1.0000
  C   C660      1.0  0.73507  0.40703  0.12835  1.0000
  C   C661      1.0  0.63626  0.31316  0.07237  1.0000
  C   C662      1.0  0.62700  0.62187  0.17135  1.0000
  Fe  Fe45      1.0  0.07420  0.32242  0.11601  1.0000
  Fe  Fe46      1.0  0.01619  0.37915  0.05066  1.0000
  C   C663      1.0  0.62599  0.59813  0.12930  1.0000
  H   H520      1.0  0.58746  0.19452  0.23353  1.0000
  S   S87       1.0  0.61265  0.32342  0.16074  1.0000
  H   H521      1.0  0.90985  0.45489  0.09619  1.0000
  H   H522      1.0  0.89854  0.16517  0.12843  1.0000
  H   H523      1.0  0.05795  0.20504  0.05444  1.0000
  C   C664      1.0  0.84822  0.48160  0.24441  1.0000
  C   C665      1.0  0.79960  0.49056  0.25408  1.0000
  H   H524      1.0  0.60534  0.61116  0.10118  1.0000
  H   H525      1.0  0.99324  0.33378  0.25871  1.0000
  H   H526      1.0  0.64169  0.19456  0.01802  1.0000
  C   C666      1.0  0.72499  0.62187  0.01826  1.0000
  H   H527      1.0  0.73827  0.63011  0.26019  1.0000
  C   C667      1.0  0.64458  0.38301  0.36987  1.0000
  H   H528      1.0  0.63936  0.31640  0.44432  1.0000
  H   H529      1.0  0.74659  0.65492  0.40389  1.0000
  H   H530      1.0  0.88326  0.53370  0.37144  1.0000
  C   C668      1.0  0.92174  0.37665  0.38520  1.0000
  H   H531      1.0  0.61353  0.39731  0.38763  1.0000
  S   S88       1.0  0.63947  0.42255  0.47959  1.0000
  H   H532      1.0  0.83852  0.28577  0.48619  1.0000
  C   C669      1.0  0.91109  0.16975  0.33469  1.0000
  C   C670      1.0  0.64908  0.22954  0.36524  1.0000
  H   H533      1.0  0.62520  0.52711  0.29966  1.0000
  H   H534      1.0  0.89159  0.37683  0.36114  1.0000
  C   C671      1.0  0.60429  0.24838  0.35093  1.0000
  P   P22       1.0  0.06217  0.41257  0.39175  1.0000
  C   C672      1.0  0.05078  0.55996  0.44406  1.0000
  C   C673      1.0  0.64927  0.64357  0.46929  1.0000
  H   H535      1.0  0.01121  0.45727  0.31807  1.0000
  H   H536      1.0  0.80123  0.26103  0.36899  1.0000
  P   P23       1.0  0.59247  0.30758  0.35558  1.0000
  C   C674      1.0  0.60094  0.32011  0.44873  1.0000
  C   C675      1.0  0.72309  0.39216  0.34012  1.0000
  S   S89       1.0  0.87075  0.62050  0.42010  1.0000
  Fe  Fe47      1.0  0.98806  0.59770  0.29114  1.0000
  H   H537      1.0  0.75339  0.41251  0.33646  1.0000
  Fe  Fe48      1.0  0.70563  0.46141  0.47950  1.0000
  H   H538      1.0  0.91862  0.18097  0.44991  1.0000
  H   H539      1.0  0.75267  0.33649  0.29931  1.0000
  H   H540      1.0  0.87814  0.36238  0.43992  1.0000
  C   C676      1.0  0.88107  0.35582  0.26192  1.0000
  H   H541      1.0  0.91135  0.26013  0.43459  1.0000
  H   H542      1.0  0.97797  0.28496  0.31909  1.0000
  C   C677      1.0  0.80382  0.48917  0.43815  1.0000
  H   H543      1.0  0.94647  0.36396  0.49657  1.0000
  S   S90       1.0  0.00119  0.20466  0.50742  1.0000
  C   C678      1.0  0.73849  0.63324  0.37439  1.0000
  H   H544      1.0  0.76692  0.52545  0.49283  1.0000
  H   H545      1.0  0.84037  0.33131  0.31425  1.0000
  H   H546      1.0  0.84628  0.46240  0.38233  1.0000
  H   H547      1.0  0.81560  0.16546  0.31892  1.0000
  C   C679      1.0  0.00594  0.38950  0.40423  1.0000
  C   C680      1.0  0.71828  0.57642  0.29821  1.0000
  C   C681      1.0  0.58338  0.32815  0.49212  1.0000
  H   H548      1.0  0.04834  0.59431  0.45672  1.0000
  C   C682      1.0  0.90664  0.21467  0.32633  1.0000
  C   C683      1.0  0.72481  0.59044  0.37957  1.0000
  H   H549      1.0  0.08014  0.56689  0.34641  1.0000
  C   C684      1.0  0.01998  0.30811  0.26755  1.0000
  H   H550      1.0  0.97207  0.39332  0.33740  1.0000
  H   H551      1.0  0.59981  0.39039  0.26471  1.0000
  C   C685      1.0  0.68421  0.32282  0.32539  1.0000
  S   S91       1.0  0.90836  0.58901  0.28982  1.0000
  H   H552      1.0  0.78319  0.47127  0.27805  1.0000
  S   S92       1.0  0.99051  0.63190  0.36057  1.0000
  C   C686      1.0  0.73314  0.61915  0.29338  1.0000
  C   C687      1.0  0.96757  0.38654  0.37210  1.0000
  H   H553      1.0  0.80328  0.59590  0.48190  1.0000
  H   H554      1.0  0.03685  0.22444  0.33714  1.0000
  H   H555      1.0  0.80582  0.18631  0.39655  1.0000
  C   C688      1.0  0.91406  0.36854  0.42989  1.0000
  H   H556      1.0  0.89093  0.38527  0.28190  1.0000
  C   C689      1.0  0.71509  0.56180  0.34172  1.0000
  C   C690      1.0  0.60813  0.45924  0.28549  1.0000
  H   H557      1.0  0.66255  0.17558  0.46360  1.0000
  C   C691      1.0  0.75628  0.28937  0.42194  1.0000
  H   H558      1.0  0.90181  0.28174  0.35564  1.0000
  C   C692      1.0  0.91079  0.23500  0.40675  1.0000
  Fe  Fe49      1.0  0.59917  0.48270  0.45608  1.0000
  C   C693      1.0  0.73472  0.23917  0.47673  1.0000
  C   C694      1.0  0.04568  0.24685  0.31239  1.0000
  Fe  Fe50      1.0  0.90983  0.62863  0.35664  1.0000
  H   H559      1.0  0.67780  0.25027  0.37748  1.0000
  C   C695      1.0  0.05774  0.47055  0.41170  1.0000
  C   C696      1.0  0.00890  0.53732  0.43367  1.0000
  C   C697      1.0  0.84555  0.56955  0.42589  1.0000
  H   H560      1.0  0.63619  0.61151  0.45877  1.0000
  C   C698      1.0  0.83719  0.49144  0.40421  1.0000
  H   H561      1.0  0.72292  0.57946  0.41317  1.0000
  C   C699      1.0  0.64518  0.33916  0.35143  1.0000
  C   C700      1.0  0.01228  0.49273  0.41791  1.0000
  C   C701      1.0  0.85302  0.32520  0.28030  1.0000
  C   C702      1.0  0.72296  0.34923  0.31978  1.0000
  C   C703      1.0  0.78451  0.21225  0.41444  1.0000
  C   C704      1.0  0.99797  0.38064  0.44902  1.0000
  C   C705      1.0  0.91503  0.19034  0.41535  1.0000
  S   S93       1.0  0.66580  0.51952  0.45097  1.0000
  C   C706      1.0  0.90610  0.24713  0.36229  1.0000
  H   H562      1.0  0.00037  0.64290  0.50855  1.0000
  H   H563      1.0  0.68491  0.28990  0.30922  1.0000
  C   C707      1.0  0.01150  0.28051  0.30165  1.0000
  S   S94       1.0  0.77446  0.44024  0.44447  1.0000
  H   H564      1.0  0.97919  0.47603  0.41041  1.0000
  H   H565      1.0  0.68321  0.44280  0.37978  1.0000
  H   H566      1.0  0.71426  0.30877  0.48013  1.0000
  C   C708      1.0  0.74256  0.64761  0.33128  1.0000
  H   H567      1.0  0.70648  0.52820  0.34669  1.0000
  H   H568      1.0  0.02663  0.38366  0.47464  1.0000
  C   C709      1.0  0.79212  0.52687  0.46623  1.0000
  C   C710      1.0  0.81295  0.56685  0.46018  1.0000
  H   H569      1.0  0.79107  0.35760  0.48231  1.0000
  C   C711      1.0  0.95236  0.36980  0.46169  1.0000
  H   H570      1.0  0.97372  0.55436  0.43781  1.0000
  C   C712      1.0  0.73283  0.28159  0.46110  1.0000
  C   C713      1.0  0.04113  0.43700  0.30404  1.0000
  C   C714      1.0  0.76041  0.20401  0.45341  1.0000
  C   C715      1.0  0.85790  0.53178  0.39788  1.0000
  H   H571      1.0  0.69199  0.16941  0.37445  1.0000
  C   C716      1.0  0.68367  0.40914  0.36485  1.0000
  H   H572      1.0  0.75507  0.32242  0.41005  1.0000
  S   S95       1.0  0.80094  0.25177  0.27605  1.0000
  C   C717      1.0  0.78224  0.25472  0.39877  1.0000
  C   C718      1.0  0.07195  0.41134  0.33161  1.0000
  C   C719      1.0  0.91544  0.15784  0.37952  1.0000
  C   C720      1.0  0.65701  0.18357  0.36413  1.0000
  C   C721      1.0  0.63655  0.49556  0.28281  1.0000
  H   H573      1.0  0.90307  0.22462  0.29205  1.0000
  C   C722      1.0  0.81749  0.35280  0.50937  1.0000
  H   H574      1.0  0.71715  0.23420  0.50772  1.0000
  H   H575      1.0  0.59081  0.15871  0.50485  1.0000
  H   H576      1.0  0.95606  0.49526  0.50090  1.0000
  C   C723      1.0  0.62142  0.41864  0.26288  1.0000
  H   H577      1.0  0.91054  0.56805  0.51000  1.0000
  H   H578      1.0  0.99888  0.16967  0.26994  1.0000
  C   C724      1.0  0.99395  0.65677  0.54248  1.0000
  S   S96       1.0  0.04252  0.86998  0.65438  1.0000
  H   H579      1.0  0.62309  0.85431  0.69833  1.0000
  C   C725      1.0  0.03114  0.05553  0.51111  1.0000
  C   C726      1.0  0.63139  0.12007  0.55238  1.0000
  C   C727      1.0  0.58563  0.01439  0.57744  1.0000
  C   C728      1.0  0.64963  0.01411  0.63489  1.0000
  Fe  Fe51      1.0  0.76646  0.11421  0.68674  1.0000
  H   H580      1.0  0.86726  0.87700  0.71654  1.0000
  H   H581      1.0  0.97283  0.09129  0.69707  1.0000
  H   H582      1.0  0.61792  0.02041  0.73701  1.0000
  C   C729      1.0  0.02275  0.12817  0.55108  1.0000
  C   C730      1.0  0.66121  0.97232  0.56278  1.0000
  H   H583      1.0  0.81556  0.94629  0.72783  1.0000
  C   C731      1.0  0.89935  0.02529  0.72457  1.0000
  H   H584      1.0  0.82305  0.66591  0.53885  1.0000
  C   C732      1.0  0.88692  0.10683  0.54737  1.0000
  C   C733      1.0  0.82051  0.78982  0.51446  1.0000
  C   C734      1.0  0.67747  0.93271  0.72149  1.0000
  S   S97       1.0  0.98194  0.93657  0.58907  1.0000
  C   C735      1.0  0.89209  0.96369  0.66857  1.0000
  C   C736      1.0  0.68444  0.80088  0.59327  1.0000
  C   C737      1.0  0.83285  0.81588  0.69885  1.0000
  S   S98       1.0  0.76205  0.13323  0.76079  1.0000
  H   H585      1.0  0.91943  0.04198  0.75202  1.0000
  C   C738      1.0  0.67367  0.80103  0.71399  1.0000
  C   C739      1.0  0.69315  0.88099  0.55343  1.0000
  C   C740      1.0  0.91251  0.83145  0.67617  1.0000
  C   C741      1.0  0.84760  0.73071  0.56156  1.0000
  C   C742      1.0  0.01126  0.09635  0.69851  1.0000
  Fe  Fe52      1.0  0.05302  0.95914  0.56936  1.0000
  H   H586      1.0  0.69446  0.80344  0.68448  1.0000
  H   H587      1.0  0.59827  0.97319  0.51716  1.0000
  H   H588      1.0  0.82748  0.96497  0.62649  1.0000
  C   C743      1.0  0.75583  0.91940  0.68850  1.0000
  S   S99       1.0  0.97375  0.96336  0.72179  1.0000
  H   H589      1.0  0.03949  0.06704  0.58325  1.0000
  H   H590      1.0  0.71380  0.97468  0.61839  1.0000
  H   H591      1.0  0.69643  0.70103  0.56140  1.0000
  C   C744      1.0  0.84849  0.77493  0.55078  1.0000
  C   C745      1.0  0.58969  0.00608  0.75443  1.0000
  C   C746      1.0  0.91669  0.78994  0.65255  1.0000
  H   H592      1.0  0.80035  0.82555  0.71704  1.0000
  C   C747      1.0  0.04385  0.06324  0.71306  1.0000
  C   C748      1.0  0.85711  0.96567  0.52144  1.0000
  C   C749      1.0  0.84456  0.67041  0.63390  1.0000
  C   C750      1.0  0.85575  0.04448  0.70832  1.0000
  H   H593      1.0  0.68123  0.76966  0.60821  1.0000
  H   H594      1.0  0.76094  0.80222  0.60743  1.0000
  H   H595      1.0  0.94880  0.78129  0.63366  1.0000
  Fe  Fe53      1.0  0.01688  0.86852  0.58213  1.0000
  C   C751      1.0  0.82237  0.70069  0.53271  1.0000
  C   C752      1.0  0.67715  0.10342  0.56602  1.0000
  H   H596      1.0  0.80696  0.75321  0.67480  1.0000
  H   H597      1.0  0.77807  0.90521  0.66140  1.0000
  P   P24       1.0  0.87857  0.71280  0.61192  1.0000
  C   C753      1.0  0.03115  0.08199  0.55171  1.0000
  C   C754      1.0  0.87862  0.76120  0.65132  1.0000
  C   C755      1.0  0.77698  0.94254  0.72580  1.0000
  C   C756      1.0  0.71803  0.11343  0.54360  1.0000
  H   H598      1.0  0.83711  0.02579  0.56104  1.0000
  C   C757      1.0  0.02840  0.13584  0.68576  1.0000
  C   C758      1.0  0.84796  0.98235  0.65307  1.0000
  C   C759      1.0  0.87044  0.84460  0.69888  1.0000
  H   H599      1.0  0.93083  0.14394  0.59613  1.0000
  C   C760      1.0  0.60348  0.02884  0.62025  1.0000
  S   S100      1.0  0.73178  0.72826  0.72795  1.0000
  H   H600      1.0  0.04512  0.65834  0.71764  1.0000
  C   C761      1.0  0.93852  0.69121  0.59768  1.0000
  H   H601      1.0  0.68946  0.89622  0.65777  1.0000
  C   C762      1.0  0.68260  0.69428  0.52726  1.0000
  S   S101      1.0  0.08204  0.96870  0.64109  1.0000
  H   H602      1.0  0.87018  0.79821  0.57058  1.0000
  C   C763      1.0  0.72946  0.81923  0.59269  1.0000
  C   C764      1.0  0.77554  0.98747  0.54354  1.0000
  Fe  Fe54      1.0  0.01334  0.93981  0.65969  1.0000
  H   H603      1.0  0.76898  0.87314  0.57370  1.0000
  H   H604      1.0  0.75308  0.10074  0.55559  1.0000
  H   H605      1.0  0.60882  0.80828  0.57500  1.0000
  H   H606      1.0  0.97055  0.70635  0.66417  1.0000
  C   C765      1.0  0.79380  0.67277  0.63086  1.0000
  C   C766      1.0  0.91773  0.98530  0.70415  1.0000
  H   H607      1.0  0.90586  0.93225  0.65349  1.0000
  H   H608      1.0  0.68141  0.08360  0.59484  1.0000
  C   C767      1.0  0.70601  0.91457  0.68633  1.0000
  C   C768      1.0  0.82441  0.99621  0.54285  1.0000
  H   H609      1.0  0.63917  0.92735  0.72004  1.0000
  H   H610      1.0  0.77418  0.70042  0.61628  1.0000
  C   C769      1.0  0.64364  0.82268  0.57459  1.0000
  C   C770      1.0  0.02338  0.67757  0.61822  1.0000
  S   S102      1.0  0.77563  0.04657  0.65270  1.0000
  H   H611      1.0  0.03090  0.03260  0.72295  1.0000
  C   C771      1.0  0.83013  0.02296  0.67260  1.0000
  H   H612      1.0  0.61588  0.87932  0.54060  1.0000
  H   H613      1.0  0.94169  0.85371  0.67628  1.0000
  P   P25       1.0  0.69731  0.93287  0.52808  1.0000
  H   H614      1.0  0.84212  0.07594  0.72338  1.0000
  C   C772      1.0  0.97670  0.69278  0.63003  1.0000
  C   C773      1.0  0.68609  0.76799  0.74322  1.0000
  H   H615      1.0  0.59989  0.11323  0.57075  1.0000
  C   C774      1.0  0.63404  0.83046  0.72249  1.0000
  C   C775      1.0  0.67818  0.98578  0.60640  1.0000
  C   C776      1.0  0.83695  0.77438  0.67522  1.0000
  H   H616      1.0  0.66404  0.02538  0.66788  1.0000
  C   C777      1.0  0.73388  0.85929  0.57307  1.0000
  H   H617      1.0  0.75118  0.01178  0.56034  1.0000
  H   H618      1.0  0.90814  0.07612  0.55099  1.0000
  C   C778      1.0  0.61396  0.98562  0.54913  1.0000
  H   H619      1.0  0.89525  0.97188  0.52228  1.0000
  S   S103      1.0  0.97317  0.81365  0.55070  1.0000
  C   C779      1.0  0.84627  0.10813  0.51804  1.0000
  H   H620      1.0  0.07251  0.75479  0.54194  1.0000
  C   C780      1.0  0.64789  0.86268  0.55485  1.0000
  H   H621      1.0  0.60907  0.74393  0.65073  1.0000
  C   C781      1.0  0.75922  0.94731  0.52403  1.0000
  C   C782      1.0  0.94737  0.67232  0.55400  1.0000
  H   H622      1.0  0.91862  0.66997  0.52845  1.0000
  C   C783      1.0  0.07803  0.14206  0.68732  1.0000
  C   C784      1.0  0.69863  0.95551  0.75928  1.0000
  C   C785      1.0  0.62637  0.14603  0.51540  1.0000
  H   H623      1.0  0.60765  0.67372  0.68575  1.0000
  H   H624      1.0  0.02448  0.14890  0.58218  1.0000
  H   H625      1.0  0.05296  0.68002  0.64293  1.0000
  C   C786      1.0  0.60688  0.82742  0.76069  1.0000
  C   C787      1.0  0.81930  0.14814  0.51273  1.0000
  C   C788      1.0  0.03208  0.65977  0.57443  1.0000
  S   S104      1.0  0.69787  0.15079  0.66874  1.0000
  C   C789      1.0  0.89993  0.14508  0.57279  1.0000
  C   C790      1.0  0.74858  0.96075  0.76092  1.0000
  H   H626      1.0  0.92529  0.09361  0.94490  1.0000
  H   H627      1.0  0.72032  0.81748  0.84205  1.0000
  C   C791      1.0  0.08161  0.74983  0.95244  1.0000
  H   H628      1.0  0.94950  0.71519  0.95107  1.0000
  S   S105      1.0  0.82802  0.81569  0.91657  1.0000
  H   H629      1.0  0.03895  0.85270  0.97310  1.0000
  C   C792      1.0  0.61482  0.69365  0.86465  1.0000
  H   H630      1.0  0.89211  0.88482  0.94022  1.0000
  H   H631      1.0  0.67296  0.12937  0.85509  1.0000
  C   C793      1.0  0.95266  0.82200  0.79413  1.0000
  H   H632      1.0  0.96966  0.95831  0.96369  1.0000
  Fe  Fe55      1.0  0.89673  0.70550  0.79920  1.0000
  C   C794      1.0  0.87594  0.81952  0.95655  1.0000
  H   H633      1.0  0.99811  0.68424  0.85320  1.0000
  H   H634      1.0  0.74103  0.11751  0.91019  1.0000
  H   H635      1.0  0.84534  0.97257  0.95075  1.0000
  C   C795      1.0  0.82770  0.95285  0.97348  1.0000
  C   C796      1.0  0.06891  0.86956  0.96116  1.0000
  C   C797      1.0  0.92681  0.86018  0.81069  1.0000
  S   S106      1.0  0.77171  0.70929  0.85582  1.0000
  C   C798      1.0  0.63941  0.65664  0.88156  1.0000
  C   C799      1.0  0.71395  0.01110  0.00459  1.0000
  C   C800      1.0  0.01212  0.83109  0.85565  1.0000
  C   C801      1.0  0.90099  0.85837  0.96199  1.0000
  C   C802      1.0  0.65995  0.76548  0.78224  1.0000
  C   C803      1.0  0.63191  0.04198  0.99653  1.0000
  C   C804      1.0  0.05330  0.96176  0.82349  1.0000
  C   C805      1.0  0.06799  0.71840  0.98113  1.0000
  C   C806      1.0  0.79535  0.92172  0.95621  1.0000
  H   H636      1.0  0.65207  0.97243  0.00300  1.0000
  C   C807      1.0  0.01732  0.99382  0.92579  1.0000
  H   H637      1.0  0.86887  0.75483  0.98004  1.0000
  H   H638      1.0  0.00111  0.15187  0.78151  1.0000
  C   C808      1.0  0.98643  0.72470  0.95104  1.0000
  C   C809      1.0  0.94366  0.88413  0.84942  1.0000
  C   C810      1.0  0.73158  0.05303  0.00301  1.0000
  C   C811      1.0  0.74723  0.04712  0.89489  1.0000
  C   C812      1.0  0.77314  0.89557  0.98537  1.0000
  H   H639      1.0  0.61740  0.72589  0.88247  1.0000
  C   C813      1.0  0.70212  0.84815  0.85485  1.0000
  C   C814      1.0  0.02052  0.70599  0.98060  1.0000
  H   H640      1.0  0.01029  0.68173  0.00308  1.0000
  C   C815      1.0  0.72777  0.01092  0.87043  1.0000
  C   C816      1.0  0.02518  0.03368  0.90675  1.0000
  H   H641      1.0  0.70431  0.87754  0.79217  1.0000
  C   C817      1.0  0.72672  0.08966  0.89021  1.0000
  C   C818      1.0  0.66501  0.89259  0.91624  1.0000
  C   C819      1.0  0.95041  0.06542  0.93849  1.0000
  H   H642      1.0  0.76607  0.97775  0.78970  1.0000
  S   S107      1.0  0.84026  0.65773  0.77801  1.0000
  H   H643      1.0  0.59960  0.79328  0.82089  1.0000
  H   H644      1.0  0.78871  0.91638  0.92010  1.0000
  S   S108      1.0  0.84418  0.76409  0.79813  1.0000
  C   C820      1.0  0.60115  0.98103  0.79169  1.0000
  H   H645      1.0  0.03395  0.90292  0.78351  1.0000
  C   C821      1.0  0.67093  0.92316  0.84338  1.0000
  C   C822      1.0  0.98603  0.86958  0.87202  1.0000
  C   C823      1.0  0.03609  0.10162  0.82111  1.0000
  C   C824      1.0  0.02456  0.67000  0.82990  1.0000
  S   S109      1.0  0.89004  0.69856  0.87299  1.0000
  C   C825      1.0  0.99210  0.07000  0.91462  1.0000
  C   C826      1.0  0.68816  0.01709  0.84025  1.0000
  H   H646      1.0  0.01400  0.77723  0.80373  1.0000
  C   C827      1.0  0.62011  0.79527  0.79099  1.0000
  H   H647      1.0  0.97195  0.77012  0.89993  1.0000
  C   C828      1.0  0.66886  0.06015  0.83450  1.0000
  C   C829      1.0  0.88839  0.78483  0.98396  1.0000
  H   H648      1.0  0.63946  0.06622  0.81044  1.0000
  H   H649      1.0  0.00684  0.07943  0.81524  1.0000
  H   H650      1.0  0.65441  0.89615  0.95099  1.0000
  H   H651      1.0  0.93935  0.80275  0.76457  1.0000
  C   C830      1.0  0.68203  0.75426  0.98537  1.0000
  C   C831      1.0  0.68743  0.85275  0.89929  1.0000
  H   H652      1.0  0.89327  0.87076  0.79406  1.0000
  Fe  Fe56      1.0  0.78687  0.71580  0.78319  1.0000
  H   H653      1.0  0.92325  0.91342  0.86242  1.0000
  C   C832      1.0  0.99511  0.80751  0.81649  1.0000
  C   C833      1.0  0.65516  0.79367  0.99595  1.0000
  C   C834      1.0  0.93815  0.86275  0.99494  1.0000
  H   H654      1.0  0.74402  0.97814  0.87468  1.0000
  H   H655      1.0  0.90419  0.13033  0.86927  1.0000
  C   C835      1.0  0.97560  0.98933  0.94957  1.0000
  H   H656      1.0  0.66986  0.73998  0.80494  1.0000
  Fe  Fe57      1.0  0.83310  0.75382  0.87068  1.0000
  H   H657      1.0  0.04326  0.96601  0.92172  1.0000
  C   C836      1.0  0.06060  0.92766  0.78991  1.0000
  H   H658      1.0  0.77808  0.04219  0.91771  1.0000
  H   H659      1.0  0.99743  0.88803  0.90254  1.0000
  H   H660      1.0  0.74968  0.87068  0.97118  1.0000
  H   H661      1.0  0.61824  0.79754  0.98350  1.0000
  C   C837      1.0  0.69330  0.88281  0.82673  1.0000
  P   P26       1.0  0.06501  0.80966  0.88582  1.0000
  H   H662      1.0  0.02047  0.96262  0.84186  1.0000
  H   H663      1.0  0.81846  0.12328  0.84572  1.0000
  H   H664      1.0  0.66543  0.72750  0.96547  1.0000
  C   C838      1.0  0.99955  0.75598  0.92210  1.0000
  P   P27       1.0  0.66373  0.96989  0.80866  1.0000
  C   C839      1.0  0.68792  0.09622  0.85973  1.0000
  C   C840      1.0  0.01669  0.67392  0.78344  1.0000
  H   H665      1.0  0.91063  0.02220  0.97566  1.0000
  H   H666      1.0  0.75170  0.71961  0.99089  1.0000
  C   C841      1.0  0.03287  0.14237  0.80173  1.0000
  C   C842      1.0  0.94210  0.02510  0.95586  1.0000
  C   C843      1.0  0.66443  0.00535  0.00113  1.0000
  H   H667      1.0  0.99854  0.10214  0.90332  1.0000
  H   H668      1.0  0.64091  0.95897  0.90222  1.0000
  H   H669      1.0  0.60005  0.08472  0.91812  1.0000
  H   H670      1.0  0.66105  0.65985  0.91258  1.0000
  C   C844      1.0  0.04752  0.76858  0.92232  1.0000
  C   C845      1.0  0.73033  0.74971  0.00002  1.0000
  H   H671      1.0  0.69445  0.82546  0.92056  1.0000
  C   C846      1.0  0.65725  0.92789  0.88855  1.0000
  C   C847      1.0  0.87738  0.15552  0.88065  1.0000
  H   H672      1.0  0.95774  0.89247  0.99851  1.0000
  C   C848      1.0  0.58653  0.68909  0.82480  1.0000
  C   C849      1.0  0.07655  0.08996  0.84835  1.0000
  C   C850      1.0  0.82894  0.15162  0.86730  1.0000
  H   H673      1.0  0.62543  0.11293  0.99281  1.0000
  C   C851      1.0  0.64989  0.08418  0.99540  1.0000
  H   H674      1.0  0.71324  0.12222  0.99743  1.0000
  H   H675      1.0  0.77012  0.05728  0.00591  1.0000
  C   C852      1.0  0.69952  0.08960  0.99833  1.0000
  P   P28       1.0  0.07929  0.03851  0.87563  1.0000
  H   H676      1.0  0.73863  0.98309  0.00918  1.0000
  S   S110      1.0  0.96534  0.70254  0.76118  1.0000
  H   H677      1.0  0.01652  0.86493  0.22748  1.0000
  C   C853      1.0  0.85588  0.78929  0.16116  1.0000
  C   C854      1.0  0.87352  0.80791  0.12394  1.0000
  C   C855      1.0  0.79429  0.11608  0.07940  1.0000
  H   H678      1.0  0.93077  0.13484  0.02064  1.0000
  C   C856      1.0  0.83906  0.07434  0.24792  1.0000
  H   H679      1.0  0.86541  0.12212  0.05604  1.0000
  S   S111      1.0  0.85606  0.99618  0.14831  1.0000
  C   C857      1.0  0.77791  0.82654  0.14844  1.0000
  H   H680      1.0  0.97451  0.06432  0.03915  1.0000
  C   C858      1.0  0.99296  0.09484  0.04198  1.0000
  H   H681      1.0  0.60289  0.08572  0.07594  1.0000
  C   C859      1.0  0.73228  0.71827  0.22877  1.0000
  C   C860      1.0  0.79269  0.92699  0.21382  1.0000
  C   C861      1.0  0.04206  0.09434  0.05414  1.0000
  S   S112      1.0  0.63209  0.10880  0.21255  1.0000
  S   S113      1.0  0.64899  0.74572  0.18329  1.0000
  S   S114      1.0  0.86336  0.66464  0.19190  1.0000
  Fe  Fe58      1.0  0.61323  0.75139  0.24991  1.0000
  S   S115      1.0  0.99789  0.83355  0.06314  1.0000
  Fe  Fe59      1.0  0.02980  0.99731  0.09586  1.0000
  C   C862      1.0  0.72405  0.82340  0.03808  1.0000
  H   H682      1.0  0.76026  0.03423  0.14144  1.0000
  H   H683      1.0  0.01191  0.78597  0.20193  1.0000
  S   S116      1.0  0.96470  0.96399  0.06574  1.0000
  C   C863      1.0  0.75141  0.78422  0.02604  1.0000
  C   C864      1.0  0.78288  0.90038  0.03202  1.0000
  H   H684      1.0  0.71419  0.71407  0.11471  1.0000
  H   H685      1.0  0.06232  0.07467  0.21199  1.0000
  H   H686      1.0  0.94653  0.74272  0.22737  1.0000
  H   H687      1.0  0.72103  0.95787  0.21419  1.0000
  Fe  Fe60      1.0  0.93344  0.97952  0.13388  1.0000
  H   H688      1.0  0.65468  0.85867  0.02914  1.0000
  C   C865      1.0  0.58310  0.67965  0.02624  1.0000
  C   C866      1.0  0.96808  0.13468  0.03203  1.0000
  S   S117      1.0  0.06555  0.93477  0.12023  1.0000
  H   H689      1.0  0.79738  0.93115  0.17837  1.0000
  C   C867      1.0  0.78323  0.05292  0.12232  1.0000
  C   C868      1.0  0.67364  0.97571  0.12770  1.0000
  Fe  Fe61      1.0  0.99795  0.90287  0.09509  1.0000
  C   C869      1.0  0.76427  0.09084  0.10269  1.0000
  S   S118      1.0  0.99553  0.01802  0.16178  1.0000
  C   C870      1.0  0.93178  0.14882  0.23813  1.0000
  C   C871      1.0  0.73235  0.71005  0.14715  1.0000
  H   H690      1.0  0.03941  0.73773  0.11903  1.0000
  H   H691      1.0  0.60985  0.97669  0.16673  1.0000
  C   C872      1.0  0.78028  0.70071  0.23080  1.0000
  C   C873      1.0  0.84255  0.10212  0.07362  1.0000
  C   C874      1.0  0.86184  0.06438  0.09378  1.0000
  H   H692      1.0  0.87801  0.76528  0.17877  1.0000
  H   H693      1.0  0.79550  0.78584  0.20366  1.0000
  H   H694      1.0  0.86254  0.89454  0.22233  1.0000
  C   C875      1.0  0.95092  0.82808  0.02221  1.0000
  C   C876      1.0  0.82975  0.90620  0.23906  1.0000
  C   C877      1.0  0.70897  0.94934  0.10458  1.0000
  H   H695      1.0  0.91045  0.80011  0.11422  1.0000
  C   C878      1.0  0.70706  0.90301  0.10098  1.0000
  H   H696      1.0  0.89987  0.05494  0.09138  1.0000
  C   C879      1.0  0.84286  0.83482  0.09794  1.0000
  H   H697      1.0  0.74079  0.83168  0.15797  1.0000
  P   P29       1.0  0.75202  0.86858  0.07008  1.0000
  H   H698      1.0  0.82556  0.93364  0.08462  1.0000
  H   H699      1.0  0.60640  0.89463  0.16178  1.0000
  C   C880      1.0  0.83224  0.04048  0.11901  1.0000
  H   H700      1.0  0.78915  0.78025  0.03633  1.0000
  C   C881      1.0  0.92609  0.78903  0.01666  1.0000
  C   C882      1.0  0.80881  0.80001  0.17446  1.0000
  C   C883      1.0  0.79211  0.06030  0.24131  1.0000
  C   C884      1.0  0.67603  0.82825  0.02194  1.0000
  C   C885      1.0  0.83838  0.95722  0.01988  1.0000
  C   C886      1.0  0.98510  0.80169  0.22403  1.0000
  H   H701      1.0  0.85649  0.84667  0.06764  1.0000
  H   H702      1.0  0.86370  0.98095  0.03359  1.0000
  H   H703      1.0  0.66695  0.84797  0.11941  1.0000
  C   C887      1.0  0.06563  0.13416  0.05842  1.0000
  S   S119      1.0  0.96206  0.91642  0.16096  1.0000
  H   H704      1.0  0.78538  0.03165  0.21859  1.0000
  C   C888      1.0  0.74958  0.94188  0.23398  1.0000
  H   H705      1.0  0.60415  0.67210  0.05631  1.0000
  C   C889      1.0  0.06018  0.72017  0.14445  1.0000
  C   C890      1.0  0.63477  0.91005  0.14549  1.0000
  C   C891      1.0  0.79440  0.84346  0.10938  1.0000
  H   H706      1.0  0.71381  0.72841  0.25948  1.0000
  S   S120      1.0  0.06126  0.94758  0.25294  1.0000
  H   H707      1.0  0.73770  0.96544  0.08991  1.0000
  C   C892      1.0  0.70842  0.72304  0.18687  1.0000
  C   C893      1.0  0.81651  0.93067  0.04891  1.0000
  Fe  Fe62      1.0  0.02693  0.95336  0.18402  1.0000
  C   C894      1.0  0.94835  0.77731  0.23857  1.0000
  C   C895      1.0  0.98726  0.84636  0.23808  1.0000
  C   C896      1.0  0.66947  0.88363  0.12160  1.0000
  C   C897      1.0  0.80375  0.68697  0.19097  1.0000
  H   H708      1.0  0.72665  0.10127  0.10661  1.0000
  H   H709      1.0  0.79802  0.68155  0.11832  1.0000
  S   S121      1.0  0.07449  0.04388  0.06201  1.0000
  C   C898      1.0  0.77974  0.69169  0.14920  1.0000
  C   C899      1.0  0.05096  0.67630  0.15085  1.0000
  C   C900      1.0  0.90334  0.14852  0.19785  1.0000
  H   H710      1.0  0.67523  0.01146  0.13014  1.0000
  H   H711      1.0  0.86775  0.05704  0.22886  1.0000
  H   H712      1.0  0.06644  0.91976  0.01625  1.0000
  C   C901      1.0  0.63671  0.95610  0.14833  1.0000
  H   H713      1.0  0.93587  0.76207  0.03769  1.0000
  S   S122      1.0  0.98156  0.66071  0.25695  1.0000
  H   H714      1.0  0.71733  0.07382  0.25635  1.0000
  H   H715      1.0  0.86769  0.13580  0.19564  1.0000
  H   H716      1.0  0.02333  0.65975  0.13033  1.0000
  C   C902      1.0  0.64811  0.67670  0.43844  1.0000
  C   C903      1.0  0.91297  0.79768  0.26641  1.0000
  H   H717      1.0  0.62957  0.98877  0.38530  1.0000
  H   H718      1.0  0.78810  0.72481  0.39272  1.0000
  C   C904      1.0  0.00888  0.12027  0.47007  1.0000
  C   C905      1.0  0.82367  0.89980  0.28480  1.0000
  H   H719      1.0  0.05361  0.70295  0.47631  1.0000
  C   C906      1.0  0.96893  0.00512  0.32048  1.0000
  H   H720      1.0  0.88079  0.99982  0.42694  1.0000
  C   C907      1.0  0.91469  0.84273  0.28057  1.0000
  S   S123      1.0  0.62781  0.80500  0.30323  1.0000
  H   H721      1.0  0.77870  0.82389  0.29722  1.0000
  C   C908      1.0  0.78262  0.04019  0.36037  1.0000
  C   C909      1.0  0.66559  0.71814  0.45188  1.0000
  C   C910      1.0  0.68107  0.72730  0.49664  1.0000
  C   C911      1.0  0.94566  0.95784  0.42763  1.0000
  C   C912      1.0  0.02758  0.05902  0.34233  1.0000
  C   C913      1.0  0.01166  0.14728  0.51011  1.0000
  H   H722      1.0  0.63088  0.91431  0.34453  1.0000
  H   H723      1.0  0.83950  0.95345  0.36768  1.0000
  P   P30       1.0  0.91012  0.12739  0.28862  1.0000
  C   C914      1.0  0.79207  0.76063  0.48837  1.0000
  C   C915      1.0  0.96146  0.76258  0.47227  1.0000
  H   H724      1.0  0.77935  0.88765  0.48336  1.0000
  C   C916      1.0  0.02244  0.81077  0.42406  1.0000
  H   H725      1.0  0.96431  0.86197  0.36292  1.0000
  H   H726      1.0  0.95394  0.90189  0.27573  1.0000
  C   C917      1.0  0.95193  0.86706  0.26582  1.0000
  H   H727      1.0  0.07496  0.77331  0.26759  1.0000
  H   H728      1.0  0.74341  0.76252  0.33157  1.0000
  C   C918      1.0  0.84633  0.76900  0.39675  1.0000
  H   H729      1.0  0.88441  0.77802  0.27642  1.0000
  C   C919      1.0  0.96894  0.91897  0.40958  1.0000
  C   C920      1.0  0.75387  0.08402  0.26263  1.0000
  C   C921      1.0  0.97124  0.74914  0.42729  1.0000
  Fe  Fe63      1.0  0.97677  0.69454  0.32584  1.0000
  H   H730      1.0  0.90024  0.81595  0.39236  1.0000
  H   H731      1.0  0.91968  0.12343  0.38692  1.0000
  S   S124      1.0  0.05058  0.99941  0.50849  1.0000
  C   C922      1.0  0.81718  0.09667  0.41140  1.0000
  H   H732      1.0  0.00711  0.12619  0.33038  1.0000
  H   H733      1.0  0.04650  0.82907  0.40560  1.0000
  H   H734      1.0  0.77463  0.69250  0.47454  1.0000
  H   H735      1.0  0.63540  0.66961  0.40396  1.0000
  C   C923      1.0  0.84127  0.82622  0.34356  1.0000
  C   C924      1.0  0.89891  0.90439  0.36013  1.0000
  C   C925      1.0  0.01243  0.82433  0.46903  1.0000
  C   C926      1.0  0.95093  0.08251  0.30652  1.0000
  C   C927      1.0  0.98264  0.79976  0.49338  1.0000
  S   S125      1.0  0.67251  0.75791  0.41300  1.0000
  H   H736      1.0  0.66294  0.84875  0.38374  1.0000
  C   C928      1.0  0.77770  0.77437  0.34450  1.0000
  C   C929      1.0  0.87564  0.94348  0.37866  1.0000
  C   C930      1.0  0.73728  0.05087  0.37826  1.0000
  H   H737      1.0  0.78670  0.01479  0.33302  1.0000
  H   H738      1.0  0.02829  0.85332  0.48510  1.0000
  H   H739      1.0  0.95537  0.71994  0.41147  1.0000
  C   C931      1.0  0.79483  0.71569  0.49612  1.0000
  C   C932      1.0  0.67519  0.92724  0.47028  1.0000
  P   P31       1.0  0.86932  0.86931  0.31686  1.0000
  C   C933      1.0  0.76263  0.12204  0.29041  1.0000
  C   C934      1.0  0.82255  0.06308  0.37698  1.0000
  C   C935      1.0  0.67681  0.88551  0.44661  1.0000
  H   H740      1.0  0.86599  0.90316  0.48270  1.0000
  H   H741      1.0  0.68940  0.85596  0.46290  1.0000
  H   H742      1.0  0.69648  0.09180  0.42640  1.0000
  H   H743      1.0  0.75383  0.68049  0.32726  1.0000
  P   P32       1.0  0.76594  0.14993  0.47567  1.0000
  C   C936      1.0  0.84063  0.92680  0.49952  1.0000
  H   H744      1.0  0.90301  0.02863  0.29051  1.0000
  C   C937      1.0  0.99630  0.09243  0.32618  1.0000
  H   H745      1.0  0.85761  0.05508  0.36288  1.0000
  H   H746      1.0  0.95871  0.97115  0.31803  1.0000
  H   H747      1.0  0.62615  0.12043  0.34811  1.0000
  C   C938      1.0  0.79738  0.81003  0.32596  1.0000
  C   C939      1.0  0.73188  0.08434  0.41292  1.0000
  C   C940      1.0  0.77995  0.91459  0.30474  1.0000
  S   S126      1.0  0.89633  0.69346  0.32509  1.0000
  H   H748      1.0  0.86593  0.75199  0.42321  1.0000
  H   H749      1.0  0.04512  0.83713  0.31637  1.0000
  H   H750      1.0  0.77380  0.90866  0.33954  1.0000
  H   H751      1.0  0.00478  0.90916  0.42206  1.0000
  H   H752      1.0  0.76830  0.77273  0.46175  1.0000
  C   C941      1.0  0.80261  0.75335  0.37925  1.0000
  H   H753      1.0  0.70630  0.03329  0.36512  1.0000
  H   H754      1.0  0.03800  0.98943  0.35205  1.0000
  H   H755      1.0  0.93816  0.74366  0.49095  1.0000
  C   C942      1.0  0.77193  0.10752  0.42985  1.0000
  H   H756      1.0  0.06240  0.06682  0.35730  1.0000
  S   S127      1.0  0.01535  0.75574  0.34745  1.0000
  C   C943      1.0  0.00195  0.77307  0.40325  1.0000
  C   C944      1.0  0.86557  0.80541  0.37918  1.0000
  C   C945      1.0  0.79175  0.91790  0.50037  1.0000
  C   C946      1.0  0.01938  0.07471  0.47049  1.0000
  Fe  Fe64      1.0  0.62250  0.75287  0.35230  1.0000
  H   H757      1.0  0.65974  0.99740  0.46480  1.0000
  H   H758      1.0  0.01936  0.05435  0.43912  1.0000
  C   C947      1.0  0.01381  0.01543  0.33966  1.0000
  C   C948      1.0  0.66204  0.88126  0.40122  1.0000
  H   H759      1.0  0.70932  0.94639  0.29478  1.0000
  C   C949      1.0  0.80985  0.13537  0.29822  1.0000
  C   C950      1.0  0.65984  0.96477  0.44745  1.0000
  S   S128      1.0  0.61503  0.69782  0.29828  1.0000
  C   C951      1.0  0.64361  0.96014  0.40225  1.0000
  H   H760      1.0  0.73269  0.14182  0.30484  1.0000
  C   C952      1.0  0.94576  0.89231  0.37606  1.0000
  C   C953      1.0  0.84874  0.11079  0.27809  1.0000
  C   C954      1.0  0.64460  0.91832  0.37916  1.0000
  H   H761      1.0  0.00100  0.13483  0.43832  1.0000
  H   H762      1.0  0.07586  0.12219  0.28110  1.0000
  C   C955      1.0  0.89901  0.97005  0.41224  1.0000
  C   C956      1.0  0.74317  0.93568  0.27943  1.0000
  H   H763      1.0  0.96370  0.97820  0.45389  1.0000
  C   C957      1.0  0.93754  0.03830  0.30409  1.0000
  H   H764      1.0  0.84838  0.11397  0.42413  1.0000
  H   H765      1.0  0.69364  0.75958  0.50715  1.0000
  H   H766      1.0  0.82092  0.82396  0.50676  1.0000
  H   H767      1.0  0.79915  0.69761  0.26300  1.0000
  C   C958      1.0  0.71341  0.13979  0.50667  1.0000
  H   H768      1.0  0.83585  0.07785  0.49982  1.0000
  C   C959      1.0  0.66716  0.15572  0.49240  1.0000
  C   C960      1.0  0.61988  0.15606  0.34976  1.0000
