data_image0
_chemical_formula_structural       FeCSCSCFeS2FeS2Fe2S3C3H2C3HC7H5C2H4PH3C2HCHCHPHCHSH3CHCH2C4HC3H2CHC2H3CHC2HCH5C3HCHC2HC2HCH4CH2CH4C2PC9HC5HC3HC7H2C3H5C2HCHC3H2CHCFeS2Fe2SHC6H3C2HC2H2FeS5C5H3C2H2CHCH4C6PC4H2C12H4CHCH13C4HCHCHCHCHPCHC3H2C7HCHCH3C3HCHC2HC3H4CH4S2HFeSFeS2FeSHFeSFeS3C3HC5HC6H6C3HC3HCHCH2C3PC18HSC2H12CH3SCHFeHCPC3HC9HCH2CH2SCH4CH3CHCFeHCH2SCH2CH2C2H2CH2C2HC2HCHCH2FeS2FeS2FeSCFeSFeS3HC3HC2H3C7H4C2SHC5HCHC2H3C2HC3PC18HCHCH3CH3CH9CH3CHC3HCH2CHC4PC2H3SPH3PFeHC2H2CHC2HC2HC2HFeS3FeSFeS2C6H5C3HFeS2C6HCH2C2H3PHC8HCH7CH3C4H2CHC2HC3H2CH2C2HCHC5HC4HCHCH4CH2C2H3CH2CH2C2HC2HC3PCHC3H3C2HC2HSC3HC3H4CH2CSH2FeSHCHFeS2FeS2FeSFeHS2C3H2C4HC6H5C2HC4HC3PC12H2CHCH2C2H7C2H4CHC2HFeHCHCHC2H2C3H2CH3C3HCHSHC2HC2H2CPC10HC2HCH2C2H3CH2C2H2C2PHSHC2H3CSC2HCPH2C2H3C2HC2H2CFeHSHC2S2FeS2FeS2FeSFeS2C3H2C3H2C6H4C3H2C6SCHC6PCPCFeCHC3H3C3HC2H5CH4CH3CHC6PC4H2C4HCH4CH3C3H2C2SC5HC2HCHC4H3C4H2C2H3CH2C6HPCH4C2HC2H2PHCH5CHCH2C3HFeHCSCH2S2HC6HC2H2FeSFeS2FeSFeS2C4H2C4H2C3HC2HCH4C5HC2H2CH2C3H4CH3CHPCPC2HC3H2C2H3C3HCHC2HC3HCHCH4S2FeSCFeS2FeSFeS3C3H2C3H2C6H8CHC2H2CHC4H4C2H4CH3C4HC6PC7FeH3C3HC3H7CH4C2HC4H2SCH3PH2CHCHC2H2C3HC4H2SH3CHCH2C3HC4H4C2HC2HC2HFeS2HFeSH3FeS2FeS2FeSFeS3C4H6C6H4C3H2C3HCH4C4HC2HCSCFeC5HCHCHC2H3C2H4CHC3HCH3CHC5PC15HC2H3CH2CH9SH2CHC2HC4FeS2C6H2CHCHFeS3FeSFeS2C3HSCHCH2PC3HC2H2C5HC3H5C2HCHCHC2HC5HC3H4C2H2C6HCHPC2H4CHC4HC2HC3HCHC2H3CH4CHC4HC2HCH2C2HCH3CH5CH7CH2FeSCFeSCFeS2FeSFeS3C2H2CSCPH2C6H4CHC6HC6H5CH3CH2CHCHCH2CHCH3CHC5H2C9SH2CH3C2HC2HC2H2C2HC3H3CHCHC6HCH2CH4CPC3H2C3HPCHC2H2CHCHCH2CHC
_chemical_formula_sum              "Fe64 C960 S128 H768 P32"
_cell_length_a       39.5072
_cell_length_b       39.1788
_cell_length_c       44.6653
_cell_angle_alpha    87.8805
_cell_angle_beta     83.2479
_cell_angle_gamma    89.9777

_space_group_name_H-M_alt    "P 1"
_space_group_IT_number       1

loop_
  _space_group_symop_operation_xyz
  'x, y, z'

loop_
  _atom_site_type_symbol
  _atom_site_label
  _atom_site_symmetry_multiplicity
  _atom_site_fract_x
  _atom_site_fract_y
  _atom_site_fract_z
  _atom_site_occupancy
  Fe  Fe1       1.0  0.30843  0.34207  0.01115  1.0000
  C   C1        1.0  0.01067  0.26151  0.09955  1.0000
  S   S1        1.0  0.27922  0.33775  0.05902  1.0000
  C   C2        1.0  0.08526  0.12870  0.15839  1.0000
  S   S2        1.0  0.35667  0.37409  0.00189  1.0000
  C   C3        1.0  0.08504  0.20570  0.06000  1.0000
  Fe  Fe2       1.0  0.17225  0.14001  0.23704  1.0000
  S   S3        1.0  0.15342  0.17101  0.27717  1.0000
  S   S4        1.0  0.15507  0.08459  0.23198  1.0000
  Fe  Fe3       1.0  0.19871  0.20500  0.19906  1.0000
  S   S5        1.0  0.18092  0.24031  0.23675  1.0000
  S   S6        1.0  0.22517  0.21392  0.15047  1.0000
  Fe  Fe4       1.0  0.20253  0.20145  0.26803  1.0000
  Fe  Fe5       1.0  0.13304  0.20742  0.24359  1.0000
  S   S7        1.0  0.07910  0.22849  0.25428  1.0000
  S   S8        1.0  0.22286  0.16746  0.22980  1.0000
  S   S9        1.0  0.14936  0.17544  0.20409  1.0000
  C   C4        1.0  0.20551  0.04002  0.24872  1.0000
  C   C5        1.0  0.17435  0.04389  0.23698  1.0000
  C   C6        1.0  0.15732  0.01442  0.22933  1.0000
  H   H1        1.0  0.21893  0.06235  0.25470  1.0000
  H   H2        1.0  0.13332  0.01695  0.22011  1.0000
  C   C7        1.0  0.04308  0.18526  0.22118  1.0000
  C   C8        1.0  0.04170  0.21191  0.24125  1.0000
  C   C9        1.0  0.16680  0.15905  0.03034  1.0000
  H   H3        1.0  0.06743  0.17424  0.21331  1.0000
  C   C10       1.0  0.22320  0.26943  0.98702  1.0000
  C   C11       1.0  0.26579  0.30296  0.08467  1.0000
  C   C12       1.0  0.24620  0.30979  0.11224  1.0000
  C   C13       1.0  0.23409  0.28311  0.13292  1.0000
  C   C14       1.0  0.24119  0.24904  0.12620  1.0000
  C   C15       1.0  0.26136  0.24228  0.09889  1.0000
  C   C16       1.0  0.27355  0.26898  0.07830  1.0000
  H   H4        1.0  0.24027  0.33599  0.11760  1.0000
  H   H5        1.0  0.21926  0.28902  0.15397  1.0000
  H   H6        1.0  0.26776  0.21617  0.09363  1.0000
  H   H7        1.0  0.28892  0.26337  0.05745  1.0000
  H   H8        1.0  0.02002  0.10264  0.12132  1.0000
  C   C17       1.0  0.10094  0.26169  0.07504  1.0000
  C   C18       1.0  0.05733  0.09868  0.25100  1.0000
  H   H9        1.0  0.12888  0.29363  0.04033  1.0000
  H   H10       1.0  0.10057  0.02625  0.28031  1.0000
  H   H11       1.0  0.21231  0.19843  0.07956  1.0000
  H   H12       1.0  0.27102  0.10731  0.25374  1.0000
  P   P1        1.0  0.22206  0.20335  0.01314  1.0000
  H   H13       1.0  0.27643  0.22226  0.24813  1.0000
  H   H14       1.0  0.28668  0.23870  0.99546  1.0000
  H   H15       1.0  0.12923  0.25056  0.00118  1.0000
  C   C19       1.0  0.46651  0.34602  0.00094  1.0000
  C   C20       1.0  0.26470  0.19553  0.02250  1.0000
  H   H16       1.0  0.05112  0.01807  0.14788  1.0000
  C   C21       1.0  0.11677  0.26901  0.04585  1.0000
  H   H17       1.0  0.20841  0.34824  0.01516  1.0000
  C   C22       1.0  0.06029  0.06345  0.24755  1.0000
  H   H18       1.0  0.37365  0.13970  0.25155  1.0000
  P   P2        1.0  0.34419  0.20732  0.26539  1.0000
  H   H19       1.0  0.10065  0.19448  0.01351  1.0000
  C   C23       1.0  0.27184  0.16730  0.04104  1.0000
  H   H20       1.0  0.36034  0.25682  0.16073  1.0000
  S   S10       1.0  0.23586  0.21009  0.30669  1.0000
  H   H21       1.0  0.30794  0.27321  0.27312  1.0000
  H   H22       1.0  0.06027  0.08036  0.15615  1.0000
  H   H23       1.0  0.10067  0.28114  0.09169  1.0000
  C   C24       1.0  0.34220  0.24919  0.17991  1.0000
  H   H24       1.0  0.16397  0.26208  0.16366  1.0000
  C   C25       1.0  0.42784  0.14658  0.24566  1.0000
  H   H25       1.0  0.01441  0.15186  0.19616  1.0000
  H   H26       1.0  0.08273  0.05370  0.23431  1.0000
  C   C26       1.0  0.29504  0.22957  0.22918  1.0000
  C   C27       1.0  0.14546  0.14382  0.08227  1.0000
  C   C28       1.0  0.21932  0.00710  0.25277  1.0000
  C   C29       1.0  0.06136  0.10689  0.14842  1.0000
  H   H27       1.0  0.02131  0.16364  0.10525  1.0000
  C   C30       1.0  0.33004  0.22536  0.23113  1.0000
  C   C31       1.0  0.14403  0.14068  0.05137  1.0000
  C   C32       1.0  0.30832  0.49553  0.99108  1.0000
  H   H28       1.0  0.12541  0.12379  0.04370  1.0000
  H   H29       1.0  0.25677  0.24627  0.20127  1.0000
  C   C33       1.0  0.03507  0.04107  0.26178  1.0000
  H   H30       1.0  0.43285  0.11991  0.24132  1.0000
  C   C34       1.0  0.10084  0.21317  0.03076  1.0000
  C   C35       1.0  0.35358  0.23541  0.20629  1.0000
  H   H31       1.0  0.13017  0.29095  0.20576  1.0000
  H   H32       1.0  0.12806  0.12937  0.09853  1.0000
  H   H33       1.0  0.06714  0.28936  0.21048  1.0000
  C   C36       1.0  0.31696  0.17170  0.27928  1.0000
  H   H34       1.0  0.10271  0.11903  0.17375  1.0000
  C   C37       1.0  0.00643  0.05467  0.27892  1.0000
  C   C38       1.0  0.33130  0.18411  0.03659  1.0000
  H   H35       1.0  0.22256  0.28393  0.31309  1.0000
  C   C39       1.0  0.48214  0.49043  0.99940  1.0000
  H   H36       1.0  0.35692  0.18008  0.04235  1.0000
  H   H37       1.0  0.02990  0.27322  0.08314  1.0000
  H   H38       1.0  0.02673  0.13926  0.27115  1.0000
  H   H39       1.0  0.30764  0.15624  0.23485  1.0000
  H   H40       1.0  0.31023  0.14042  0.06303  1.0000
  C   C40       1.0  0.44844  0.20394  0.25105  1.0000
  C   C41       1.0  0.19130  0.18073  0.04011  1.0000
  C   C42       1.0  0.19282  0.18319  0.07126  1.0000
  H   H41       1.0  0.38323  0.49406  0.00260  1.0000
  C   C43       1.0  0.28380  0.24334  0.20278  1.0000
  H   H42       1.0  0.17160  0.16714  0.11617  1.0000
  C   C44       1.0  0.32392  0.26946  0.29100  1.0000
  C   C45       1.0  0.20433  0.26523  0.04060  1.0000
  H   H43       1.0  0.29854  0.26360  0.15765  1.0000
  C   C46       1.0  0.30734  0.25309  0.17815  1.0000
  C   C47       1.0  0.28226  0.12293  0.26955  1.0000
  H   H44       1.0  0.19920  0.25093  0.06171  1.0000
  C   C48       1.0  0.11689  0.24472  0.02376  1.0000
  H   H45       1.0  0.07264  0.18121  0.06493  1.0000
  H   H46       1.0  0.10473  0.17954  0.15753  1.0000
  H   H47       1.0  0.99965  0.20239  0.15781  1.0000
  H   H48       1.0  0.02744  0.02808  0.20056  1.0000
  C   C49       1.0  0.16986  0.16510  0.09220  1.0000
  H   H49       1.0  0.44242  0.35605  0.01088  1.0000
  H   H50       1.0  0.07742  0.11566  0.24065  1.0000
  C   C50       1.0  0.20927  0.32061  0.01453  1.0000
  H   H51       1.0  0.29889  0.47201  0.00256  1.0000
  H   H52       1.0  0.03759  0.25934  0.17376  1.0000
  H   H53       1.0  0.16540  0.15590  0.00657  1.0000
  H   H54       1.0  0.38067  0.23266  0.20705  1.0000
  C   C51       1.0  0.21495  0.24908  0.01352  1.0000
  C   C52       1.0  0.08534  0.22976  0.08248  1.0000
  P   P3        1.0  0.06289  0.22148  0.11970  1.0000
  C   C53       1.0  0.06331  0.17632  0.12995  1.0000
  C   C54       1.0  0.08406  0.24444  0.14655  1.0000
  C   C55       1.0  0.06514  0.26059  0.17056  1.0000
  C   C56       1.0  0.08183  0.27784  0.19144  1.0000
  C   C57       1.0  0.11740  0.27855  0.18890  1.0000
  C   C58       1.0  0.13641  0.26228  0.16523  1.0000
  C   C59       1.0  0.11988  0.24542  0.14404  1.0000
  C   C60       1.0  0.08634  0.16319  0.14910  1.0000
  C   C61       1.0  0.39422  0.15793  0.25153  1.0000
  H   H55       1.0  0.13512  0.23248  0.12615  1.0000
  C   C62       1.0  0.03872  0.11950  0.12890  1.0000
  C   C63       1.0  0.03958  0.15409  0.11977  1.0000
  C   C64       1.0  0.01930  0.23586  0.12011  1.0000
  C   C65       1.0  0.00338  0.08998  0.28205  1.0000
  C   C66       1.0  0.31051  0.16378  0.31033  1.0000
  H   H56       1.0  0.19506  0.31315  0.06227  1.0000
  C   C67       1.0  0.30290  0.15085  0.25893  1.0000
  C   C68       1.0  0.32457  0.21165  0.01744  1.0000
  C   C69       1.0  0.01288  0.17259  0.21156  1.0000
  H   H57       1.0  0.13743  0.31413  0.30009  1.0000
  C   C70       1.0  0.20161  0.30079  0.04106  1.0000
  C   C71       1.0  0.00973  0.22595  0.25127  1.0000
  C   C72       1.0  0.09854  0.99973  0.28785  1.0000
  C   C73       1.0  0.04529  0.00740  0.19590  1.0000
  C   C74       1.0  0.45494  0.16954  0.24549  1.0000
  C   C75       1.0  0.38748  0.19241  0.25738  1.0000
  C   C76       1.0  0.41486  0.21538  0.25690  1.0000
  H   H58       1.0  0.46942  0.22177  0.25092  1.0000
  H   H59       1.0  0.41023  0.24217  0.26104  1.0000
  C   C77       1.0  0.29144  0.21724  0.01030  1.0000
  C   C78       1.0  0.02892  0.11194  0.26829  1.0000
  C   C79       1.0  0.34357  0.23979  0.29325  1.0000
  H   H60       1.0  0.00831  0.24663  0.26675  1.0000
  H   H61       1.0  0.24348  0.00443  0.26174  1.0000
  H   H62       1.0  0.25199  0.14949  0.05007  1.0000
  H   H63       1.0  0.14656  0.00132  0.30613  1.0000
  H   H64       1.0  0.34498  0.22893  0.00834  1.0000
  C   C80       1.0  0.30498  0.16184  0.04825  1.0000
  C   C81       1.0  0.27552  0.11558  0.30051  1.0000
  H   H65       1.0  0.48097  0.16065  0.24108  1.0000
  C   C82       1.0  0.05861  0.00180  0.16605  1.0000
  H   H66       1.0  0.25904  0.09430  0.30866  1.0000
  C   C83       1.0  0.32430  0.29467  0.31233  1.0000
  C   C84       1.0  0.21972  0.30489  0.98749  1.0000
  C   C85       1.0  0.41079  0.49337  0.00171  1.0000
  H   H67       1.0  0.10754  0.25831  0.30337  1.0000
  H   H68       1.0  0.30867  0.31725  0.31081  1.0000
  C   C86       1.0  0.42626  0.49625  0.02806  1.0000
  H   H69       1.0  0.47316  0.49679  0.04768  1.0000
  C   C87       1.0  0.46178  0.49476  0.02697  1.0000
  Fe  Fe6       1.0  0.32646  0.37839  0.48859  1.0000
  S   S11       1.0  0.35020  0.36222  0.44297  1.0000
  S   S12       1.0  0.33510  0.43118  0.50785  1.0000
  Fe  Fe7       1.0  0.37620  0.32125  0.46854  1.0000
  Fe  Fe8       1.0  0.30608  0.32506  0.44330  1.0000
  S   S13       1.0  0.27701  0.31978  0.40123  1.0000
  H   H70       1.0  0.31864  0.39828  0.64657  1.0000
  C   C88       1.0  0.24638  0.24094  0.33309  1.0000
  C   C89       1.0  0.26556  0.23060  0.35658  1.0000
  C   C90       1.0  0.27533  0.25408  0.37746  1.0000
  C   C91       1.0  0.26563  0.28846  0.37555  1.0000
  C   C92       1.0  0.24628  0.29872  0.35218  1.0000
  C   C93       1.0  0.23693  0.27531  0.33107  1.0000
  H   H71       1.0  0.27283  0.20413  0.35877  1.0000
  H   H72       1.0  0.29020  0.24554  0.39512  1.0000
  H   H73       1.0  0.23873  0.32516  0.35018  1.0000
  C   C94       1.0  0.20934  0.12811  0.37831  1.0000
  C   C95       1.0  0.47007  0.32759  0.50076  1.0000
  H   H74       1.0  0.44578  0.33142  0.51411  1.0000
  C   C96       1.0  0.44122  0.41548  0.43517  1.0000
  C   C97       1.0  0.19671  0.14771  0.35537  1.0000
  H   H75       1.0  0.34942  0.21696  0.51199  1.0000
  H   H76       1.0  0.28635  0.45996  0.46858  1.0000
  Fe  Fe9       1.0  0.30917  0.30377  0.51014  1.0000
  S   S14       1.0  0.33367  0.28303  0.46595  1.0000
  S   S15       1.0  0.28468  0.26360  0.54542  1.0000
  S   S16       1.0  0.43307  0.31241  0.45301  1.0000
  S   S17       1.0  0.35415  0.33816  0.51400  1.0000
  S   S18       1.0  0.27989  0.34471  0.48746  1.0000
  C   C98       1.0  0.26323  0.26082  0.58310  1.0000
  C   C99       1.0  0.25446  0.22834  0.59638  1.0000
  C   C100      1.0  0.23802  0.22455  0.62622  1.0000
  C   C101      1.0  0.23902  0.28580  0.63015  1.0000
  C   C102      1.0  0.25505  0.28960  0.60018  1.0000
  H   H77       1.0  0.26055  0.20584  0.58350  1.0000
  H   H78       1.0  0.37733  0.25693  0.35814  1.0000
  H   H79       1.0  0.26105  0.31478  0.59027  1.0000
  C   C103      1.0  0.47088  0.31904  0.47050  1.0000
  C   C104      1.0  0.34367  0.29021  0.33639  1.0000
  H   H80       1.0  0.34287  0.23108  0.56543  1.0000
  H   H81       1.0  0.48975  0.42329  0.40858  1.0000
  C   C105      1.0  0.15702  0.30648  0.34289  1.0000
  H   H82       1.0  0.21249  0.12258  0.42605  1.0000
  C   C106      1.0  0.45157  0.41988  0.53422  1.0000
  H   H83       1.0  0.23175  0.19936  0.63601  1.0000
  H   H84       1.0  0.42629  0.32968  0.60400  1.0000
  H   H85       1.0  0.42720  0.40689  0.53915  1.0000
  H   H86       1.0  0.37226  0.19217  0.60690  1.0000
  C   C107      1.0  0.20250  0.13761  0.40825  1.0000
  C   C108      1.0  0.35410  0.20477  0.62288  1.0000
  C   C109      1.0  0.45120  0.23677  0.61177  1.0000
  C   C110      1.0  0.17716  0.17675  0.36229  1.0000
  C   C111      1.0  0.17019  0.18654  0.39229  1.0000
  C   C112      1.0  0.18295  0.16664  0.41525  1.0000
  P   P4        1.0  0.14403  0.22334  0.40197  1.0000
  C   C113      1.0  0.16257  0.24451  0.43144  1.0000
  C   C114      1.0  0.14267  0.25225  0.36961  1.0000
  C   C115      1.0  0.12362  0.24336  0.34637  1.0000
  C   C116      1.0  0.41543  0.46569  0.45817  1.0000
  H   H87       1.0  0.11037  0.21906  0.34734  1.0000
  H   H88       1.0  0.02027  0.24311  0.42347  1.0000
  C   C117      1.0  0.15914  0.28416  0.36779  1.0000
  C   C118      1.0  0.14244  0.25546  0.45733  1.0000
  C   C119      1.0  0.15767  0.27146  0.47992  1.0000
  C   C120      1.0  0.19296  0.27671  0.47676  1.0000
  C   C121      1.0  0.21305  0.26590  0.45105  1.0000
  C   C122      1.0  0.19794  0.24972  0.42859  1.0000
  C   C123      1.0  0.10068  0.21022  0.41436  1.0000
  C   C124      1.0  0.09270  0.17607  0.42302  1.0000
  C   C125      1.0  0.05883  0.16625  0.43184  1.0000
  C   C126      1.0  0.07433  0.23434  0.41471  1.0000
  C   C127      1.0  0.39149  0.36969  0.59491  1.0000
  C   C128      1.0  0.47995  0.23262  0.62707  1.0000
  H   H89       1.0  0.44907  0.22181  0.59218  1.0000
  H   H90       1.0  0.16841  0.19174  0.34395  1.0000
  H   H91       1.0  0.17785  0.17364  0.43859  1.0000
  H   H92       1.0  0.31000  0.35808  0.57976  1.0000
  C   C129      1.0  0.42554  0.25983  0.62194  1.0000
  H   H93       1.0  0.46166  0.39919  0.49024  1.0000
  C   C130      1.0  0.44250  0.48614  0.44441  1.0000
  H   H94       1.0  0.17399  0.29194  0.38524  1.0000
  H   H95       1.0  0.11514  0.25166  0.46023  1.0000
  H   H96       1.0  0.14217  0.27988  0.49990  1.0000
  H   H97       1.0  0.20485  0.28920  0.49415  1.0000
  H   H98       1.0  0.24038  0.27033  0.44837  1.0000
  H   H99       1.0  0.21375  0.24148  0.40878  1.0000
  H   H100      1.0  0.11238  0.15686  0.42272  1.0000
  H   H101      1.0  0.07992  0.26079  0.40796  1.0000
  H   H102      1.0  0.44504  0.27251  0.55445  1.0000
  H   H103      1.0  0.23308  0.30826  0.64309  1.0000
  H   H104      1.0  0.44978  0.44222  0.57768  1.0000
  H   H105      1.0  0.39363  0.41525  0.46411  1.0000
  H   H106      1.0  0.44401  0.49108  0.50635  1.0000
  C   C131      1.0  0.32328  0.47378  0.49778  1.0000
  C   C132      1.0  0.35883  0.37785  0.58782  1.0000
  C   C133      1.0  0.46888  0.43529  0.42220  1.0000
  C   C134      1.0  0.41472  0.43067  0.45340  1.0000
  H   H107      1.0  0.05275  0.13983  0.43827  1.0000
  C   C135      1.0  0.46422  0.43986  0.55572  1.0000
  H   H108      1.0  0.44057  0.38820  0.43167  1.0000
  C   C136      1.0  0.32944  0.18515  0.64089  1.0000
  H   H109      1.0  0.17027  0.33080  0.34143  1.0000
  C   C137      1.0  0.04052  0.22444  0.42352  1.0000
  H   H110      1.0  0.32083  0.17940  0.32652  1.0000
  C   C138      1.0  0.35497  0.24040  0.62522  1.0000
  H   H111      1.0  0.40394  0.22950  0.47961  1.0000
  P   P5        1.0  0.38802  0.26511  0.60285  1.0000
  C   C139      1.0  0.37626  0.30943  0.59910  1.0000
  H   H112      1.0  0.45174  0.25618  0.50126  1.0000
  C   C140      1.0  0.03275  0.19040  0.43206  1.0000
  C   C141      1.0  0.34363  0.31784  0.59186  1.0000
  C   C142      1.0  0.33487  0.35193  0.58647  1.0000
  H   H113      1.0  0.35233  0.40408  0.58233  1.0000
  H   H114      1.0  0.32829  0.15777  0.63847  1.0000
  C   C143      1.0  0.40036  0.33558  0.60015  1.0000
  C   C144      1.0  0.39404  0.25138  0.56447  1.0000
  C   C145      1.0  0.42446  0.25909  0.54587  1.0000
  C   C146      1.0  0.42827  0.25022  0.51562  1.0000
  C   C147      1.0  0.40135  0.23493  0.50340  1.0000
  C   C148      1.0  0.37078  0.22781  0.52160  1.0000
  C   C149      1.0  0.36714  0.23591  0.55202  1.0000
  H   H115      1.0  0.22459  0.10574  0.37280  1.0000
  C   C150      1.0  0.36286  0.26055  0.33911  1.0000
  H   H116      1.0  0.41025  0.38969  0.59541  1.0000
  C   C151      1.0  0.47072  0.41601  0.50628  1.0000
  H   H117      1.0  0.28419  0.13062  0.34491  1.0000
  H   H118      1.0  0.34293  0.30932  0.35345  1.0000
  H   H119      1.0  0.32545  0.29785  0.58917  1.0000
  C   C152      1.0  0.29856  0.48081  0.47843  1.0000
  C   C153      1.0  0.12185  0.26560  0.32141  1.0000
  C   C154      1.0  0.46957  0.47045  0.42677  1.0000
  H   H120      1.0  0.20257  0.14095  0.33200  1.0000
  C   C155      1.0  0.23045  0.25328  0.64345  1.0000
  H   H121      1.0  0.00649  0.18272  0.43866  1.0000
  C   C156      1.0  0.42824  0.27739  0.64840  1.0000
  C   C157      1.0  0.33186  0.25591  0.64686  1.0000
  H   H122      1.0  0.39478  0.47667  0.47272  1.0000
  C   C158      1.0  0.36288  0.23544  0.31763  1.0000
  C   C159      1.0  0.28973  0.13594  0.32088  1.0000
  C   C160      1.0  0.13861  0.29710  0.31961  1.0000
  H   H123      1.0  0.37778  0.21254  0.32016  1.0000
  H   H124      1.0  0.49129  0.48501  0.41644  1.0000
  H   H125      1.0  0.05631  0.39844  0.61622  1.0000
  H   H126      1.0  0.29418  0.34035  0.64331  1.0000
  C   C161      1.0  0.04710  0.39647  0.64006  1.0000
  H   H127      1.0  0.06150  0.34397  0.64459  1.0000
  H   H128      1.0  0.35785  0.49643  0.52540  1.0000
  H   H129      1.0  0.02892  0.44831  0.64169  1.0000
  H   H130      1.0  0.28887  0.24802  0.68111  1.0000
  S   S19       1.0  0.35239  0.36054  0.92993  1.0000
  S   S20       1.0  0.32784  0.30008  0.98038  1.0000
  H   H131      1.0  0.17262  0.20348  0.91625  1.0000
  Fe  Fe10      1.0  0.30445  0.32966  0.94346  1.0000
  S   S21       1.0  0.26791  0.31194  0.90958  1.0000
  Fe  Fe11      1.0  0.16932  0.13438  0.73994  1.0000
  S   S22       1.0  0.14590  0.15259  0.78500  1.0000
  S   S23       1.0  0.15972  0.07963  0.72552  1.0000
  Fe  Fe12      1.0  0.18839  0.20810  0.71581  1.0000
  S   S24       1.0  0.16489  0.23002  0.75958  1.0000
  H   H132      1.0  0.30824  0.47228  0.88845  1.0000
  Fe  Fe13      1.0  0.19140  0.18829  0.78337  1.0000
  S   S25       1.0  0.22374  0.19472  0.82324  1.0000
  Fe  Fe14      1.0  0.12118  0.19323  0.75785  1.0000
  S   S26       1.0  0.06567  0.20970  0.77147  1.0000
  S   S27       1.0  0.21672  0.16710  0.73957  1.0000
  S   S28       1.0  0.14277  0.17417  0.71286  1.0000
  C   C162      1.0  0.20213  0.03165  0.75052  1.0000
  C   C163      1.0  0.17537  0.03777  0.73311  1.0000
  C   C164      1.0  0.06619  0.09712  0.71610  1.0000
  H   H133      1.0  0.21404  0.05287  0.76011  1.0000
  C   C165      1.0  0.01482  0.07913  0.69618  1.0000
  C   C166      1.0  0.30734  0.23615  0.66491  1.0000
  C   C167      1.0  0.02726  0.20142  0.75535  1.0000
  C   C168      1.0  0.02696  0.18408  0.72852  1.0000
  C   C169      1.0  0.28536  0.33158  0.69140  1.0000
  H   H134      1.0  0.05049  0.17405  0.71747  1.0000
  C   C170      1.0  0.23634  0.22825  0.84622  1.0000
  C   C171      1.0  0.21881  0.25924  0.84918  1.0000
  C   C172      1.0  0.22895  0.28437  0.86843  1.0000
  C   C173      1.0  0.25669  0.27905  0.88530  1.0000
  C   C174      1.0  0.27422  0.24802  0.88236  1.0000
  C   C175      1.0  0.26410  0.22294  0.86305  1.0000
  H   H135      1.0  0.19699  0.26352  0.83707  1.0000
  H   H136      1.0  0.21502  0.30810  0.87045  1.0000
  H   H137      1.0  0.29552  0.24324  0.89507  1.0000
  H   H138      1.0  0.27784  0.19908  0.86128  1.0000
  H   H139      1.0  0.40812  0.29440  0.65714  1.0000
  H   H140      1.0  0.26193  0.14206  0.92042  1.0000
  C   C176      1.0  0.21395  0.99798  0.75510  1.0000
  C   C177      1.0  0.09402  0.23813  0.67899  1.0000
  C   C178      1.0  0.03157  0.42453  0.65438  1.0000
  H   H141      1.0  0.36242  0.23801  0.72035  1.0000
  C   C179      1.0  0.99975  0.30411  0.71042  1.0000
  C   C180      1.0  0.04832  0.09153  0.69151  1.0000
  C   C181      1.0  0.31277  0.39674  0.69523  1.0000
  H   H142      1.0  0.17401  0.21894  0.96930  1.0000
  C   C182      1.0  0.12516  0.25162  0.66568  1.0000
  H   H143      1.0  0.15555  0.29693  0.65556  1.0000
  C   C183      1.0  0.21916  0.18935  0.97531  1.0000
  H   H144      1.0  0.21642  0.16523  0.89177  1.0000
  H   H145      1.0  0.06927  0.01906  0.71167  1.0000
  C   C184      1.0  0.15137  0.00349  0.82418  1.0000
  C   C185      1.0  0.28719  0.34502  0.71992  1.0000
  C   C186      1.0  0.21681  0.17138  0.91525  1.0000
  P   P6        1.0  0.27161  0.31983  0.75353  1.0000
  C   C187      1.0  0.28414  0.33729  0.78759  1.0000
  C   C188      1.0  0.22547  0.31795  0.75779  1.0000
  C   C189      1.0  0.20712  0.31589  0.78675  1.0000
  C   C190      1.0  0.17153  0.31371  0.79028  1.0000
  C   C191      1.0  0.15396  0.31340  0.76493  1.0000
  C   C192      1.0  0.17192  0.31554  0.73611  1.0000
  C   C193      1.0  0.20744  0.31782  0.73250  1.0000
  C   C194      1.0  0.30402  0.31813  0.80620  1.0000
  C   C195      1.0  0.31067  0.33048  0.83391  1.0000
  C   C196      1.0  0.29753  0.36189  0.84336  1.0000
  C   C197      1.0  0.27772  0.38112  0.82506  1.0000
  C   C198      1.0  0.27086  0.36881  0.79738  1.0000
  C   C199      1.0  0.28943  0.27762  0.74930  1.0000
  C   C200      1.0  0.32254  0.27358  0.73449  1.0000
  C   C201      1.0  0.33706  0.24109  0.73205  1.0000
  C   C202      1.0  0.31886  0.21251  0.74478  1.0000
  C   C203      1.0  0.28624  0.21646  0.76001  1.0000
  C   C204      1.0  0.27141  0.24883  0.76219  1.0000
  H   H146      1.0  0.09214  0.10680  0.71250  1.0000
  S   S29       1.0  0.34100  0.45507  0.94635  1.0000
  C   C205      1.0  0.05057  0.09040  0.74542  1.0000
  C   C206      1.0  0.29650  0.35076  0.66512  1.0000
  H   H147      1.0  0.30388  0.38852  0.74314  1.0000
  H   H148      1.0  0.22025  0.31523  0.80669  1.0000
  H   H149      1.0  0.15769  0.31109  0.81266  1.0000
  H   H150      1.0  0.12663  0.30980  0.76749  1.0000
  H   H151      1.0  0.15847  0.31389  0.71649  1.0000
  H   H152      1.0  0.22039  0.31839  0.70988  1.0000
  H   H153      1.0  0.31351  0.29312  0.80010  1.0000
  H   H154      1.0  0.32493  0.31511  0.84875  1.0000
  H   H155      1.0  0.30194  0.37075  0.86533  1.0000
  H   H156      1.0  0.26697  0.40510  0.83283  1.0000
  H   H157      1.0  0.25438  0.38337  0.78399  1.0000
  H   H158      1.0  0.33724  0.29551  0.72499  1.0000
  C   C207      1.0  0.16039  0.00968  0.72079  1.0000
  H   H159      1.0  0.33004  0.18730  0.74309  1.0000
  H   H160      1.0  0.27250  0.19436  0.77047  1.0000
  H   H161      1.0  0.24616  0.25125  0.77434  1.0000
  S   S30       1.0  0.21169  0.25030  0.68192  1.0000
  C   C208      1.0  0.30135  0.37768  0.72163  1.0000
  H   H162      1.0  0.06048  0.09705  0.66883  1.0000
  Fe  Fe15      1.0  0.37463  0.33409  0.96889  1.0000
  H   H163      1.0  0.26423  0.15743  0.97317  1.0000
  C   C209      1.0  0.19205  0.19295  0.92911  1.0000
  P   P7        1.0  0.04162  0.32310  0.70829  1.0000
  C   C210      1.0  0.05283  0.32846  0.74585  1.0000
  C   C211      1.0  0.07396  0.29522  0.69087  1.0000
  C   C212      1.0  0.06868  0.25977  0.69187  1.0000
  H   H164      1.0  0.22639  0.32031  0.96700  1.0000
  C   C213      1.0  0.24252  0.15844  0.93138  1.0000
  C   C214      1.0  0.32928  0.49430  0.96364  1.0000
  C   C215      1.0  0.10557  0.30857  0.67799  1.0000
  C   C216      1.0  0.06816  0.35866  0.75374  1.0000
  C   C217      1.0  0.07630  0.36219  0.78315  1.0000
  C   C218      1.0  0.06994  0.33532  0.80460  1.0000
  C   C219      1.0  0.05581  0.30477  0.79653  1.0000
  C   C220      1.0  0.04736  0.30136  0.76728  1.0000
  C   C221      1.0  0.03877  0.36303  0.68731  1.0000
  H   H165      1.0  0.99594  0.22731  0.79023  1.0000
  C   C222      1.0  0.46635  0.48822  0.97290  1.0000
  H   H166      1.0  0.14514  0.23475  0.65631  1.0000
  H   H167      1.0  0.01166  0.38894  0.72482  1.0000
  C   C223      1.0  0.02225  0.39099  0.70131  1.0000
  H   H168      1.0  0.14003  0.01411  0.70696  1.0000
  H   H169      1.0  0.03671  0.27741  0.76130  1.0000
  S   S31       1.0  0.42961  0.31405  0.95987  1.0000
  C   C224      1.0  0.30598  0.20087  0.66182  1.0000
  H   H170      1.0  0.04523  0.24867  0.70300  1.0000
  H   H171      1.0  0.14910  0.02821  0.81283  1.0000
  H   H172      1.0  0.06447  0.09514  0.76440  1.0000
  H   H173      1.0  0.32348  0.42200  0.69667  1.0000
  C   C225      1.0  0.99890  0.07229  0.72561  1.0000
  H   H174      1.0  0.07414  0.37935  0.73725  1.0000
  H   H175      1.0  0.08799  0.38557  0.78923  1.0000
  H   H176      1.0  0.07660  0.33785  0.82727  1.0000
  C   C226      1.0  0.01710  0.07797  0.75020  1.0000
  H   H177      1.0  0.00824  0.28291  0.66604  1.0000
  C   C227      1.0  0.31018  0.38336  0.66700  1.0000
  Fe  Fe16      1.0  0.33220  0.39928  0.96369  1.0000
  H   H178      1.0  0.00142  0.07519  0.67681  1.0000
  C   C228      1.0  0.43080  0.48941  0.97415  1.0000
  H   H179      1.0  0.27492  0.30629  0.68944  1.0000
  H   H180      1.0  0.00634  0.44328  0.69592  1.0000
  S   S32       1.0  0.28283  0.37042  0.97494  1.0000
  C   C229      1.0  0.13097  0.28680  0.66523  1.0000
  H   H181      1.0  0.23329  0.25830  0.96598  1.0000
  H   H182      1.0  0.45905  0.28691  0.68399  1.0000
  C   C230      1.0  0.01896  0.42172  0.68496  1.0000
  H   H183      1.0  0.28643  0.18586  0.67548  1.0000
  H   H184      1.0  0.41852  0.48689  0.95383  1.0000
  C   C231      1.0  0.99617  0.21395  0.76944  1.0000
  C   C232      1.0  0.05037  0.36570  0.65635  1.0000
  H   H185      1.0  0.05176  0.28339  0.81271  1.0000
  H   H186      1.0  0.16588  0.02439  0.86469  1.0000
  C   C233      1.0  0.24374  0.16732  0.96131  1.0000
  H   H187      1.0  0.08974  0.21079  0.67990  1.0000
  H   H188      1.0  0.00746  0.00897  0.75275  1.0000
  C   C234      1.0  0.19301  0.20170  0.95909  1.0000
  C   C235      1.0  0.45695  0.27308  0.66372  1.0000
  H   H189      1.0  0.11079  0.33568  0.67811  1.0000
  C   C236      1.0  0.46732  0.32553  0.97583  1.0000
  C   C237      1.0  0.48290  0.25086  0.65295  1.0000
  H   H190      1.0  0.99653  0.16755  0.69451  1.0000
  C   C238      1.0  0.16095  0.00126  0.85333  1.0000
  H   H191      1.0  0.48146  0.48536  0.95130  1.0000
  C   C239      1.0  0.99625  0.18045  0.71554  1.0000
  H   H192      1.0  0.00534  0.07295  0.77310  1.0000
  H   H193      1.0  0.33254  0.28316  0.64973  1.0000
  Fe  Fe17      1.0  0.32520  0.72192  0.02166  1.0000
  S   S33       1.0  0.31854  0.75378  0.06465  1.0000
  S   S34       1.0  0.35608  0.67339  0.02316  1.0000
  Fe  Fe18      1.0  0.12670  0.84769  0.25139  1.0000
  S   S35       1.0  0.16091  0.87117  0.21220  1.0000
  S   S36       1.0  0.07020  0.86191  0.26059  1.0000
  Fe  Fe19      1.0  0.18769  0.81445  0.28061  1.0000
  S   S37       1.0  0.22553  0.83559  0.24265  1.0000
  C   C240      1.0  0.42408  0.55555  0.15894  1.0000
  Fe  Fe20      1.0  0.19511  0.88483  0.24688  1.0000
  S   S38       1.0  0.22083  0.93670  0.25076  1.0000
  Fe  Fe21      1.0  0.18849  0.82040  0.21061  1.0000
  S   S39       1.0  0.19609  0.79007  0.16693  1.0000
  S   S40       1.0  0.15956  0.86424  0.28639  1.0000
  S   S41       1.0  0.15191  0.79631  0.24835  1.0000
  H   H194      1.0  0.36858  0.79787  0.27872  1.0000
  C   C241      1.0  0.44224  0.59770  0.98833  1.0000
  C   C242      1.0  0.45069  0.66438  0.07875  1.0000
  C   C243      1.0  0.46455  0.72273  0.08988  1.0000
  H   H195      1.0  0.15741  0.95917  0.22783  1.0000
  C   C244      1.0  0.03536  0.82105  0.22441  1.0000
  C   C245      1.0  0.03343  0.84581  0.24630  1.0000
  H   H196      1.0  0.09226  0.97100  0.13659  1.0000
  H   H197      1.0  0.05998  0.81143  0.21541  1.0000
  H   H198      1.0  0.39506  0.59056  0.06940  1.0000
  C   C246      1.0  0.43138  0.53997  0.13128  1.0000
  C   C247      1.0  0.28403  0.76345  0.09287  1.0000
  C   C248      1.0  0.29023  0.78446  0.11667  1.0000
  C   C249      1.0  0.26381  0.79307  0.13937  1.0000
  C   C250      1.0  0.23066  0.78071  0.13871  1.0000
  C   C251      1.0  0.22453  0.75954  0.11504  1.0000
  C   C252      1.0  0.25090  0.75097  0.09233  1.0000
  H   H199      1.0  0.31566  0.79434  0.11743  1.0000
  H   H200      1.0  0.26901  0.80935  0.15732  1.0000
  H   H201      1.0  0.19910  0.74969  0.11423  1.0000
  H   H202      1.0  0.24557  0.73479  0.07433  1.0000
  C   C253      1.0  0.44324  0.55959  0.10538  1.0000
  C   C254      1.0  0.07129  0.97916  0.28157  1.0000
  S   S42       1.0  0.28615  0.69929  0.99484  1.0000
  H   H203      1.0  0.29414  0.88533  0.27658  1.0000
  C   C255      1.0  0.40750  0.70872  0.07972  1.0000
  C   C256      1.0  0.29928  0.52729  0.00363  1.0000
  C   C257      1.0  0.20213  0.97761  0.24537  1.0000
  C   C258      1.0  0.47895  0.71811  0.00369  1.0000
  C   C259      1.0  0.09663  0.93068  0.30607  1.0000
  H   H204      1.0  0.06741  0.72641  0.18053  1.0000
  C   C260      1.0  0.05979  0.72848  0.20451  1.0000
  H   H205      1.0  0.09635  0.90365  0.31207  1.0000
  C   C261      1.0  0.47419  0.68859  0.08640  1.0000
  C   C262      1.0  0.42878  0.59076  0.16074  1.0000
  H   H206      1.0  0.41471  0.54035  0.17898  1.0000
  H   H207      1.0  0.44410  0.63769  0.13670  1.0000
  H   H208      1.0  0.10776  0.75006  0.21289  1.0000
  C   C263      1.0  0.40929  0.58426  0.99347  1.0000
  C   C264      1.0  0.31631  0.72870  0.29448  1.0000
  H   H209      1.0  0.08555  0.94240  0.23044  1.0000
  C   C265      1.0  0.07776  0.95938  0.21284  1.0000
  C   C266      1.0  0.33134  0.75741  0.27836  1.0000
  C   C267      1.0  0.17096  0.98151  0.23365  1.0000
  P   P8        1.0  0.32117  0.76902  0.24089  1.0000
  C   C268      1.0  0.28101  0.75113  0.23348  1.0000
  C   C269      1.0  0.31542  0.81455  0.23618  1.0000
  C   C270      1.0  0.31535  0.82934  0.20705  1.0000
  C   C271      1.0  0.30852  0.86414  0.20308  1.0000
  C   C272      1.0  0.30139  0.88438  0.22815  1.0000
  C   C273      1.0  0.30109  0.86983  0.25722  1.0000
  C   C274      1.0  0.30773  0.83497  0.26129  1.0000
  C   C275      1.0  0.25314  0.74999  0.25610  1.0000
  C   C276      1.0  0.22175  0.73699  0.25020  1.0000
  C   C277      1.0  0.21767  0.72592  0.22147  1.0000
  C   C278      1.0  0.24505  0.72769  0.19865  1.0000
  C   C279      1.0  0.27648  0.74067  0.20445  1.0000
  C   C280      1.0  0.35551  0.75368  0.21457  1.0000
  C   C281      1.0  0.38154  0.77582  0.20153  1.0000
  C   C282      1.0  0.40735  0.76388  0.18034  1.0000
  C   C283      1.0  0.40756  0.72971  0.17234  1.0000
  C   C284      1.0  0.38227  0.70731  0.18587  1.0000
  C   C285      1.0  0.35653  0.71915  0.20716  1.0000
  H   H210      1.0  0.20033  0.73635  0.26774  1.0000
  C   C286      1.0  0.09099  0.95388  0.18301  1.0000
  H   H211      1.0  0.30546  0.82391  0.28400  1.0000
  C   C287      1.0  0.31122  0.55822  0.98910  1.0000
  H   H212      1.0  0.31965  0.81378  0.18741  1.0000
  H   H213      1.0  0.30766  0.87522  0.18059  1.0000
  H   H214      1.0  0.29478  0.91108  0.22514  1.0000
  C   C288      1.0  0.35585  0.77632  0.29112  1.0000
  H   H215      1.0  0.19303  0.71705  0.21655  1.0000
  H   H216      1.0  0.25544  0.75966  0.27818  1.0000
  H   H217      1.0  0.05022  0.92789  0.28588  1.0000
  C   C289      1.0  0.08165  0.97522  0.15964  1.0000
  H   H218      1.0  0.24148  0.72032  0.17607  1.0000
  H   H219      1.0  0.29674  0.74331  0.18597  1.0000
  H   H220      1.0  0.38186  0.80234  0.20751  1.0000
  H   H221      1.0  0.42706  0.78120  0.16996  1.0000
  H   H222      1.0  0.42730  0.72060  0.15563  1.0000
  H   H223      1.0  0.38239  0.68085  0.17965  1.0000
  H   H224      1.0  0.33704  0.70152  0.21744  1.0000
  H   H225      1.0  0.15584  0.90195  0.99828  1.0000
  H   H226      1.0  0.09042  0.75611  0.26720  1.0000
  C   C290      1.0  0.02715  0.71828  0.21713  1.0000
  H   H227      1.0  0.03892  0.66888  0.28714  1.0000
  H   H228      1.0  0.44884  0.54718  0.08409  1.0000
  H   H229      1.0  0.29840  0.71275  0.28482  1.0000
  C   C291      1.0  0.07035  0.94461  0.29120  1.0000
  H   H230      1.0  0.39829  0.65643  0.07091  1.0000
  C   C292      1.0  0.44059  0.61047  0.13487  1.0000
  C   C293      1.0  0.07256  0.74534  0.25360  1.0000
  C   C294      1.0  0.43128  0.73283  0.08631  1.0000
  H   H231      1.0  0.36655  0.57208  0.02658  1.0000
  C   C295      1.0  0.41711  0.67463  0.07607  1.0000
  H   H232      1.0  0.42387  0.75937  0.08836  1.0000
  H   H233      1.0  0.02722  0.92380  0.16001  1.0000
  C   C296      1.0  0.39260  0.58146  0.02278  1.0000
  H   H234      1.0  0.45463  0.72709  0.01412  1.0000
  C   C297      1.0  0.08254  0.74181  0.22277  1.0000
  C   C298      1.0  0.45872  0.60814  0.01249  1.0000
  C   C299      1.0  0.44246  0.60488  0.04214  1.0000
  C   C300      1.0  0.40897  0.59190  0.04702  1.0000
  P   P9        1.0  0.46276  0.62025  0.07339  1.0000
  C   C301      1.0  0.44766  0.59503  0.10696  1.0000
  C   C302      1.0  0.03974  0.73546  0.26645  1.0000
  H   H235      1.0  0.38167  0.71660  0.07689  1.0000
  H   H236      1.0  0.28290  0.52789  0.02479  1.0000
  H   H237      1.0  0.42315  0.60280  0.18221  1.0000
  S   S43       1.0  0.29884  0.59749  0.00599  1.0000
  P   P10       1.0  0.02700  0.73958  0.30642  1.0000
  H   H238      1.0  0.10875  0.93310  0.17819  1.0000
  H   H239      1.0  0.00935  0.70836  0.20290  1.0000
  H   H240      1.0  0.00721  0.78954  0.19721  1.0000
  P   P11       1.0  0.03996  0.99539  0.25828  1.0000
  Fe  Fe22      1.0  0.31929  0.65174  0.99405  1.0000
  H   H241      1.0  0.48364  0.61970  0.00765  1.0000
  C   C303      1.0  0.00538  0.80878  0.21406  1.0000
  C   C304      1.0  0.05529  0.98660  0.21960  1.0000
  H   H242      1.0  0.05495  0.61652  0.31413  1.0000
  H   H243      1.0  0.42765  0.51268  0.12988  1.0000
  C   C305      1.0  0.00119  0.85849  0.25736  1.0000
  H   H244      1.0  0.48313  0.74150  0.09466  1.0000
  C   C306      1.0  0.01720  0.72152  0.24800  1.0000
  C   C307      1.0  0.04211  0.66988  0.31082  1.0000
  H   H245      1.0  0.99935  0.87788  0.27410  1.0000
  C   C308      1.0  0.12481  0.98568  0.30272  1.0000
  C   C309      1.0  0.12405  0.95109  0.31156  1.0000
  H   H246      1.0  0.99819  0.97632  0.14413  1.0000
  C   C310      1.0  0.99982  0.92615  0.16481  1.0000
  C   C311      1.0  0.99981  0.97367  0.26936  1.0000
  H   H247      1.0  0.41056  0.49936  0.04935  1.0000
  Fe  Fe23      1.0  0.31257  0.63719  0.48534  1.0000
  S   S44       1.0  0.34657  0.66074  0.44613  1.0000
  S   S45       1.0  0.28906  0.58483  0.47834  1.0000
  S   S46       1.0  0.35317  0.72701  0.48609  1.0000
  Fe  Fe24      1.0  0.31696  0.70932  0.45398  1.0000
  S   S47       1.0  0.30523  0.74809  0.41590  1.0000
  Fe  Fe25      1.0  0.37989  0.67650  0.48101  1.0000
  S   S48       1.0  0.43671  0.66453  0.46861  1.0000
  S   S49       1.0  0.28043  0.68518  0.49145  1.0000
  C   C312      1.0  0.27463  0.75555  0.38959  1.0000
  C   C313      1.0  0.24667  0.73397  0.38808  1.0000
  C   C314      1.0  0.22339  0.74104  0.36683  1.0000
  C   C315      1.0  0.04376  0.92820  0.59715  1.0000
  C   C316      1.0  0.03478  0.80712  0.32293  1.0000
  C   C317      1.0  0.27880  0.78420  0.36935  1.0000
  H   H248      1.0  0.24295  0.71183  0.40331  1.0000
  H   H249      1.0  0.20190  0.72413  0.36611  1.0000
  H   H250      1.0  0.09576  0.74558  0.32463  1.0000
  H   H251      1.0  0.25932  0.81334  0.33281  1.0000
  H   H252      1.0  0.31862  0.79234  0.46599  1.0000
  C   C318      1.0  0.28875  0.51489  0.47257  1.0000
  C   C319      1.0  0.30401  0.54253  0.48531  1.0000
  C   C320      1.0  0.32953  0.53556  0.50392  1.0000
  H   H253      1.0  0.26896  0.51987  0.45819  1.0000
  Fe  Fe26      1.0  0.31758  0.70085  0.52339  1.0000
  S   S50       1.0  0.30944  0.73005  0.56791  1.0000
  S   S51       1.0  0.34684  0.65092  0.52001  1.0000
  C   C321      1.0  0.27452  0.74574  0.59288  1.0000
  C   C322      1.0  0.24109  0.73386  0.59311  1.0000
  C   C323      1.0  0.21464  0.74617  0.61405  1.0000
  C   C324      1.0  0.48301  0.55110  0.43599  1.0000
  C   C325      1.0  0.25454  0.78226  0.63506  1.0000
  C   C326      1.0  0.28092  0.77022  0.61394  1.0000
  H   H254      1.0  0.23578  0.71463  0.57760  1.0000
  C   C327      1.0  0.38360  0.66162  0.63677  1.0000
  H   H255      1.0  0.21622  0.85559  0.46724  1.0000
  H   H256      1.0  0.30651  0.78003  0.61391  1.0000
  C   C328      1.0  0.47354  0.67388  0.48644  1.0000
  C   C329      1.0  0.47178  0.69164  0.51318  1.0000
  H   H257      1.0  0.44732  0.70015  0.52370  1.0000
  H   H258      1.0  0.34153  0.55643  0.51391  1.0000
  H   H259      1.0  0.38177  0.78316  0.33042  1.0000
  P   P12       1.0  0.44214  0.53192  0.44954  1.0000
  H   H260      1.0  0.42967  0.50521  0.55967  1.0000
  C   C330      1.0  0.43145  0.54122  0.48883  1.0000
  C   C331      1.0  0.42087  0.57423  0.49672  1.0000
  C   C332      1.0  0.41402  0.58237  0.52701  1.0000
  C   C333      1.0  0.41702  0.55746  0.54970  1.0000
  C   C334      1.0  0.42756  0.52452  0.54208  1.0000
  C   C335      1.0  0.43524  0.51650  0.51176  1.0000
  C   C336      1.0  0.05912  0.93433  0.62324  1.0000
  C   C337      1.0  0.04980  0.77473  0.32005  1.0000
  H   H261      1.0  0.10006  0.85042  0.34790  1.0000
  C   C338      1.0  0.18759  0.82063  0.40637  1.0000
  H   H262      1.0  0.12697  0.79354  0.34278  1.0000
  H   H263      1.0  0.41108  0.56375  0.57313  1.0000
  H   H264      1.0  0.21302  0.86782  0.41295  1.0000
  H   H265      1.0  0.16430  0.77111  0.40612  1.0000
  H   H266      1.0  0.41811  0.59390  0.47953  1.0000
  H   H267      1.0  0.40628  0.60809  0.53270  1.0000
  H   H268      1.0  0.05475  0.67148  0.39563  1.0000
  C   C339      1.0  0.35306  0.55415  0.41398  1.0000
  H   H269      1.0  0.03854  0.72426  0.36901  1.0000
  H   H270      1.0  0.12078  0.87971  0.59229  1.0000
  H   H271      1.0  0.18067  0.79044  0.57229  1.0000
  C   C340      1.0  0.33872  0.50143  0.51039  1.0000
  C   C341      1.0  0.22119  0.77018  0.63542  1.0000
  C   C342      1.0  0.17452  0.78993  0.41986  1.0000
  C   C343      1.0  0.22755  0.76969  0.34664  1.0000
  H   H272      1.0  0.12972  0.76470  0.51821  1.0000
  H   H273      1.0  0.39762  0.64458  0.62128  1.0000
  C   C344      1.0  0.18334  0.75303  0.51754  1.0000
  H   H274      1.0  0.35264  0.73436  0.35959  1.0000
  C   C345      1.0  0.20366  0.83748  0.45442  1.0000
  C   C346      1.0  0.08583  0.82924  0.34065  1.0000
  H   H275      1.0  0.30029  0.80111  0.37011  1.0000
  C   C347      1.0  0.31261  0.80587  0.51264  1.0000
  C   C348      1.0  0.25443  0.80909  0.53650  1.0000
  C   C349      1.0  0.30072  0.79742  0.48563  1.0000
  H   H276      1.0  0.29879  0.81712  0.55923  1.0000
  H   H277      1.0  0.33977  0.80698  0.51408  1.0000
  C   C350      1.0  0.19051  0.80669  0.46823  1.0000
  H   H278      1.0  0.18731  0.82548  0.38230  1.0000
  H   H279      1.0  0.23732  0.81294  0.55675  1.0000
  C   C351      1.0  0.26576  0.79434  0.48407  1.0000
  C   C352      1.0  0.37832  0.53705  0.42803  1.0000
  H   H280      1.0  0.36027  0.68907  0.60178  1.0000
  C   C353      1.0  0.49442  0.55228  0.40497  1.0000
  H   H281      1.0  0.06310  0.61754  0.36832  1.0000
  C   C354      1.0  0.16908  0.81366  0.56437  1.0000
  C   C355      1.0  0.16121  0.68629  0.53450  1.0000
  C   C356      1.0  0.41579  0.58596  0.41694  1.0000
  C   C357      1.0  0.17609  0.78284  0.45060  1.0000
  C   C358      1.0  0.15707  0.85321  0.52402  1.0000
  H   H282      1.0  0.32822  0.54241  0.41394  1.0000
  C   C359      1.0  0.19597  0.69412  0.53079  1.0000
  C   C360      1.0  0.13740  0.71181  0.53001  1.0000
  C   C361      1.0  0.10536  0.96424  0.59228  1.0000
  C   C362      1.0  0.17290  0.82325  0.53352  1.0000
  H   H283      1.0  0.49466  0.56639  0.47980  1.0000
  C   C363      1.0  0.36357  0.76797  0.32028  1.0000
  H   H284      1.0  0.18899  0.73655  0.61399  1.0000
  C   C364      1.0  0.25562  0.79117  0.34800  1.0000
  H   H285      1.0  0.39503  0.62863  0.39352  1.0000
  H   H286      1.0  0.33920  0.60049  0.39114  1.0000
  H   H287      1.0  0.12947  0.97786  0.59039  1.0000
  H   H288      1.0  0.38713  0.82719  0.63836  1.0000
  C   C365      1.0  0.04197  0.70086  0.35681  1.0000
  H   H289      1.0  0.23402  0.73316  0.52026  1.0000
  H   H290      1.0  0.37226  0.51219  0.43843  1.0000
  C   C366      1.0  0.14840  0.74510  0.52160  1.0000
  C   C367      1.0  0.24223  0.80085  0.50933  1.0000
  H   H291      1.0  0.10076  0.96903  0.54472  1.0000
  H   H292      1.0  0.12615  0.89654  0.53776  1.0000
  H   H293      1.0  0.11043  0.70578  0.53307  1.0000
  C   C368      1.0  0.36265  0.68666  0.62576  1.0000
  H   H294      1.0  0.00634  0.85202  0.64617  1.0000
  H   H295      1.0  0.14873  0.82669  0.60921  1.0000
  C   C369      1.0  0.15067  0.83410  0.58544  1.0000
  H   H296      1.0  0.16718  0.75823  0.46007  1.0000
  H   H297      1.0  0.21447  0.67440  0.53448  1.0000
  C   C370      1.0  0.13516  0.86397  0.57588  1.0000
  C   C371      1.0  0.34477  0.70890  0.64557  1.0000
  H   H298      1.0  0.15896  0.86097  0.50042  1.0000
  C   C372      1.0  0.20703  0.72742  0.52246  1.0000
  C   C373      1.0  0.13826  0.87345  0.54517  1.0000
  H   H299      1.0  0.25737  0.78649  0.46311  1.0000
  C   C374      1.0  0.05272  0.83419  0.33331  1.0000
  C   C375      1.0  0.41006  0.55270  0.42951  1.0000
  C   C376      1.0  0.39065  0.60273  0.40251  1.0000
  P   P13       1.0  0.19707  0.79614  0.50696  1.0000
  C   C377      1.0  0.20209  0.84443  0.42366  1.0000
  H   H300      1.0  0.15281  0.66045  0.54096  1.0000
  C   C378      1.0  0.08927  0.95914  0.56655  1.0000
  C   C379      1.0  0.35922  0.58692  0.40118  1.0000
  C   C380      1.0  0.28948  0.81168  0.53804  1.0000
  H   H301      1.0  0.43914  0.59965  0.41913  1.0000
  H   H302      1.0  0.10391  0.95505  0.64003  1.0000
  H   H303      1.0  0.04639  0.93643  0.54895  1.0000
  C   C381      1.0  0.05104  0.67099  0.37200  1.0000
  C   C382      1.0  0.05860  0.94090  0.56896  1.0000
  H   H304      1.0  0.47874  0.54191  0.38911  1.0000
  C   C383      1.0  0.10103  0.79718  0.33770  1.0000
  C   C384      1.0  0.05573  0.64061  0.35662  1.0000
  H   H305      1.0  0.31118  0.69934  0.33663  1.0000
  S   S52       1.0  0.19621  0.77781  0.32117  1.0000
  C   C385      1.0  0.08318  0.77002  0.32740  1.0000
  C   C386      1.0  0.32391  0.72059  0.32371  1.0000
  C   C387      1.0  0.04297  0.81210  0.64867  1.0000
  H   H306      1.0  0.02038  0.91343  0.59860  1.0000
  C   C388      1.0  0.05117  0.64004  0.32609  1.0000
  C   C389      1.0  0.34737  0.74031  0.33667  1.0000
  C   C390      1.0  0.09056  0.95159  0.62049  1.0000
  H   H307      1.0  0.32912  0.72839  0.63641  1.0000
  H   H308      1.0  0.02547  0.79240  0.64364  1.0000
  H   H309      1.0  0.04139  0.85935  0.33445  1.0000
  H   H310      1.0  0.14518  0.93993  0.32186  1.0000
  C   C391      1.0  0.03766  0.70059  0.32604  1.0000
  H   H311      1.0  0.00345  0.97630  0.31722  1.0000
  H   H312      1.0  0.00964  0.81195  0.31645  1.0000
  C   C392      1.0  0.35576  0.73289  0.79825  1.0000
  S   S53       1.0  0.35074  0.66809  0.95108  1.0000
  H   H313      1.0  0.35319  0.58611  0.89371  1.0000
  H   H314      1.0  0.39637  0.57689  0.97465  1.0000
  Fe  Fe27      1.0  0.32048  0.71696  0.95274  1.0000
  S   S54       1.0  0.31084  0.74337  0.90700  1.0000
  H   H315      1.0  0.37190  0.67869  0.71120  1.0000
  C   C393      1.0  0.26346  0.71181  0.68359  1.0000
  H   H316      1.0  0.08752  0.92318  0.75687  1.0000
  Fe  Fe28      1.0  0.12258  0.83675  0.75166  1.0000
  S   S55       1.0  0.15343  0.86245  0.71140  1.0000
  S   S56       1.0  0.06631  0.84815  0.76746  1.0000
  Fe  Fe29      1.0  0.18728  0.80427  0.77535  1.0000
  S   S57       1.0  0.22211  0.82760  0.73618  1.0000
  S   S58       1.0  0.19825  0.76779  0.81514  1.0000
  Fe  Fe30      1.0  0.19078  0.87595  0.74339  1.0000
  S   S59       1.0  0.21539  0.92806  0.74878  1.0000
  Fe  Fe31      1.0  0.18224  0.81240  0.70660  1.0000
  H   H317      1.0  0.20852  0.73665  0.75730  1.0000
  S   S60       1.0  0.15866  0.85322  0.78392  1.0000
  S   S61       1.0  0.14889  0.78620  0.74545  1.0000
  C   C394      1.0  0.19889  0.96990  0.74282  1.0000
  C   C395      1.0  0.22824  0.70616  0.68719  1.0000
  C   C396      1.0  0.34035  0.70448  0.78748  1.0000
  H   H318      1.0  0.19392  0.65760  0.96806  1.0000
  H   H319      1.0  0.16001  0.95480  0.71603  1.0000
  C   C397      1.0  0.26470  0.62054  0.78524  1.0000
  C   C398      1.0  0.02760  0.83632  0.75356  1.0000
  C   C399      1.0  0.02675  0.81378  0.73009  1.0000
  C   C400      1.0  0.27616  0.60879  0.81227  1.0000
  H   H320      1.0  0.05025  0.80294  0.71977  1.0000
  C   C401      1.0  0.27892  0.74958  0.88193  1.0000
  C   C402      1.0  0.24556  0.73713  0.88856  1.0000
  C   C403      1.0  0.22137  0.74310  0.86795  1.0000
  C   C404      1.0  0.22987  0.76198  0.84057  1.0000
  C   C405      1.0  0.26338  0.77391  0.83372  1.0000
  C   C406      1.0  0.28765  0.76767  0.85419  1.0000
  H   H321      1.0  0.23839  0.72294  0.90959  1.0000
  H   H322      1.0  0.19574  0.73322  0.87341  1.0000
  H   H323      1.0  0.27062  0.78794  0.81263  1.0000
  H   H324      1.0  0.31335  0.77734  0.84866  1.0000
  H   H325      1.0  0.37484  0.78391  0.78785  1.0000
  C   C407      1.0  0.25584  0.67674  0.80528  1.0000
  C   C408      1.0  0.39003  0.62623  0.89061  1.0000
  H   H326      1.0  0.21257  0.92146  0.91136  1.0000
  C   C409      1.0  0.27928  0.72640  0.70667  1.0000
  C   C410      1.0  0.39678  0.66088  0.88419  1.0000
  C   C411      1.0  0.12104  0.80852  0.84961  1.0000
  C   C412      1.0  0.08921  0.81938  0.84239  1.0000
  H   H327      1.0  0.26319  0.60317  0.76712  1.0000
  C   C413      1.0  0.10290  0.87730  0.85407  1.0000
  C   C414      1.0  0.13560  0.86687  0.85994  1.0000
  C   C415      1.0  0.14413  0.83209  0.85850  1.0000
  P   P14       1.0  0.16595  0.89763  0.87014  1.0000
  C   C416      1.0  0.16211  0.90008  0.91072  1.0000
  C   C417      1.0  0.20837  0.88343  0.85655  1.0000
  C   C418      1.0  0.22609  0.86117  0.87454  1.0000
  C   C419      1.0  0.25903  0.85052  0.86425  1.0000
  C   C420      1.0  0.27425  0.86125  0.83562  1.0000
  C   C421      1.0  0.25653  0.88276  0.81731  1.0000
  C   C422      1.0  0.22380  0.89390  0.82774  1.0000
  C   C423      1.0  0.18935  0.91263  0.92475  1.0000
  C   C424      1.0  0.22395  0.72936  0.73686  1.0000
  C   C425      1.0  0.99664  0.84990  0.76686  1.0000
  C   C426      1.0  0.09854  0.82887  0.66063  1.0000
  C   C427      1.0  0.13233  0.88876  0.92862  1.0000
  H   H328      1.0  0.17266  0.96825  0.88993  1.0000
  H   H329      1.0  0.36175  0.73266  0.82132  1.0000
  C   C428      1.0  0.33880  0.73421  0.73887  1.0000
  H   H330      1.0  0.37592  0.70923  0.87135  1.0000
  C   C429      1.0  0.25912  0.73515  0.73338  1.0000
  H   H331      1.0  0.40915  0.61025  0.89954  1.0000
  H   H332      1.0  0.12843  0.78201  0.84725  1.0000
  C   C430      1.0  0.29356  0.56975  0.87506  1.0000
  C   C431      1.0  0.25446  0.65445  0.78178  1.0000
  H   H333      1.0  0.23492  0.99367  0.76830  1.0000
  H   H334      1.0  0.16899  0.82312  0.86310  1.0000
  H   H335      1.0  0.21443  0.85169  0.89642  1.0000
  H   H336      1.0  0.27252  0.83336  0.87830  1.0000
  H   H337      1.0  0.29954  0.85244  0.82750  1.0000
  H   H338      1.0  0.26792  0.89077  0.79487  1.0000
  H   H339      1.0  0.21068  0.91043  0.81304  1.0000
  C   C432      1.0  0.34727  0.70617  0.67670  1.0000
  C   C433      1.0  0.20848  0.71508  0.71371  1.0000
  H   H340      1.0  0.09534  0.90377  0.85573  1.0000
  H   H341      1.0  0.11098  0.87893  0.91842  1.0000
  H   H342      1.0  0.14582  0.91912  0.81096  1.0000
  H   H343      1.0  0.24507  0.66336  0.76104  1.0000
  C   C434      1.0  0.15914  0.93918  0.85266  1.0000
  H   H344      1.0  0.10722  0.88041  0.97381  1.0000
  C   C435      1.0  0.38665  0.65886  0.66764  1.0000
  C   C436      1.0  0.36864  0.68106  0.68755  1.0000
  H   H345      1.0  0.08956  0.98673  0.75474  1.0000
  Fe  Fe32      1.0  0.38601  0.69293  0.98002  1.0000
  H   H346      1.0  0.05552  0.86204  0.83877  1.0000
  C   C437      1.0  0.36307  0.76182  0.77936  1.0000
  H   H347      1.0  0.36030  0.78539  0.73570  1.0000
  C   C438      1.0  0.37147  0.68196  0.87438  1.0000
  H   H348      1.0  0.33425  0.56612  0.83835  1.0000
  C   C439      1.0  0.31112  0.83741  0.68137  1.0000
  C   C440      1.0  0.35803  0.61264  0.88715  1.0000
  H   H349      1.0  0.25536  0.56381  0.91418  1.0000
  H   H350      1.0  0.42095  0.67175  0.88842  1.0000
  C   C441      1.0  0.05617  0.93802  0.68968  1.0000
  C   C442      1.0  0.33037  0.77864  0.68531  1.0000
  C   C443      1.0  0.35476  0.76251  0.74974  1.0000
  H   H351      1.0  0.28288  0.58221  0.81458  1.0000
  H   H352      1.0  0.18105  0.71179  0.71600  1.0000
  C   C444      1.0  0.16480  0.96927  0.86756  1.0000
  H   H353      1.0  0.24736  0.70296  0.80288  1.0000
  H   H354      1.0  0.40319  0.63965  0.67610  1.0000
  H   H355      1.0  0.12421  0.82208  0.66474  1.0000
  C   C445      1.0  0.14946  0.94177  0.82336  1.0000
  C   C446      1.0  0.17177  0.97598  0.72580  1.0000
  C   C447      1.0  0.18701  0.91337  0.95621  1.0000
  H   H356      1.0  0.37944  0.76857  0.66003  1.0000
  C   C448      1.0  0.13007  0.88959  0.96009  1.0000
  H   H357      1.0  0.33472  0.68208  0.80217  1.0000
  S   S62       1.0  0.35774  0.74279  0.97966  1.0000
  H   H358      1.0  0.35744  0.52465  0.92784  1.0000
  C   C449      1.0  0.07886  0.93747  0.73795  1.0000
  C   C450      1.0  0.35996  0.78740  0.66593  1.0000
  H   H359      1.0  0.99691  0.86718  0.78516  1.0000
  C   C451      1.0  0.33161  0.70521  0.75801  1.0000
  C   C452      1.0  0.27386  0.55128  0.89852  1.0000
  H   H360      1.0  0.45447  0.60151  0.96545  1.0000
  H   H361      1.0  0.06572  0.89239  0.71611  1.0000
  C   C453      1.0  0.14541  0.97374  0.80934  1.0000
  P   P15       1.0  0.29104  0.61597  0.87182  1.0000
  C   C454      1.0  0.27792  0.63106  0.83601  1.0000
  C   C455      1.0  0.26047  0.63060  0.90195  1.0000
  C   C456      1.0  0.22713  0.63951  0.89662  1.0000
  C   C457      1.0  0.20339  0.64974  0.92027  1.0000
  C   C458      1.0  0.21229  0.64996  0.94960  1.0000
  C   C459      1.0  0.24488  0.63985  0.95525  1.0000
  C   C460      1.0  0.26905  0.63059  0.93155  1.0000
  C   C461      1.0  0.26755  0.66517  0.83219  1.0000
  C   C462      1.0  0.08789  0.86286  0.66218  1.0000
  C   C463      1.0  0.33258  0.63348  0.87652  1.0000
  H   H362      1.0  0.27024  0.74725  0.75137  1.0000
  C   C464      1.0  0.30638  0.80407  0.69339  1.0000
  C   C465      1.0  0.05633  0.97391  0.68909  1.0000
  H   H363      1.0  0.13861  0.97543  0.78656  1.0000
  C   C466      1.0  0.33958  0.66837  0.87052  1.0000
  H   H364      1.0  0.21913  0.63839  0.87435  1.0000
  H   H365      1.0  0.17800  0.65728  0.91591  1.0000
  C   C467      1.0  0.33229  0.55701  0.96171  1.0000
  C   C468      1.0  0.07982  0.97316  0.73683  1.0000
  H   H366      1.0  0.29408  0.62255  0.93653  1.0000
  H   H367      1.0  0.26739  0.68272  0.85036  1.0000
  H   H368      1.0  0.32020  0.68563  0.86411  1.0000
  C   C469      1.0  0.08002  0.85368  0.84492  1.0000
  H   H369      1.0  0.29213  0.85675  0.68744  1.0000
  H   H370      1.0  0.28379  0.79811  0.70872  1.0000
  C   C470      1.0  0.06843  0.99137  0.71247  1.0000
  C   C471      1.0  0.34126  0.52526  0.94910  1.0000
  H   H371      1.0  0.34158  0.58055  0.95029  1.0000
  H   H372      1.0  0.31882  0.68335  0.75023  1.0000
  C   C472      1.0  0.06676  0.91998  0.71460  1.0000
  C   C473      1.0  0.31800  0.55228  0.85593  1.0000
  P   P16       1.0  0.32450  0.73594  0.70183  1.0000
  H   H373      1.0  0.07191  0.80141  0.83419  1.0000
  S   S63       1.0  0.44255  0.68231  0.96483  1.0000
  H   H374      1.0  0.20833  0.92257  0.96691  1.0000
  C   C474      1.0  0.36458  0.82073  0.65377  1.0000
  C   C475      1.0  0.32288  0.51717  0.86043  1.0000
  H   H375      1.0  0.26480  0.50240  0.92193  1.0000
  H   H376      1.0  0.27773  0.70563  0.66240  1.0000
  H   H377      1.0  0.10580  0.88230  0.66689  1.0000
  C   C476      1.0  0.34011  0.84570  0.66140  1.0000
  S   S64       1.0  0.18671  0.78444  0.66157  1.0000
  C   C477      1.0  0.05429  0.87157  0.65799  1.0000
  C   C478      1.0  0.27894  0.51622  0.90298  1.0000
  H   H378      1.0  0.21606  0.69608  0.66886  1.0000
  C   C479      1.0  0.15743  0.90176  0.97388  1.0000
  P   P17       1.0  0.04116  0.91570  0.65912  1.0000
  H   H379      1.0  0.34360  0.87149  0.65190  1.0000
  H   H380      1.0  0.00675  0.94709  0.76454  1.0000
  C   C480      1.0  0.30352  0.49920  0.88407  1.0000
  C   C481      1.0  0.48002  0.69625  0.97954  1.0000
  H   H381      1.0  0.25135  0.63896  0.97816  1.0000
  H   H382      1.0  0.34245  0.50400  0.84627  1.0000
  H   H383      1.0  0.04743  0.98837  0.67044  1.0000
  C   C482      1.0  0.03210  0.84602  0.65051  1.0000
  C   C483      1.0  0.07613  0.80348  0.65395  1.0000
  H   H384      1.0  0.08449  0.77714  0.65306  1.0000
  C   C484      1.0  0.99531  0.80478  0.72029  1.0000
  C   C485      1.0  0.99539  0.91937  0.66498  1.0000
  H   H385      1.0  0.25987  0.80116  0.65086  1.0000
  H   H386      1.0  0.56880  0.44373  0.11094  1.0000
  C   C486      1.0  0.64278  0.26388  0.08457  1.0000
  Fe  Fe33      1.0  0.69109  0.33665  0.03213  1.0000
  H   H387      1.0  0.92533  0.26661  0.12189  1.0000
  S   S65       1.0  0.71113  0.32745  0.07845  1.0000
  H   H388      1.0  0.72873  0.40813  0.07372  1.0000
  C   C487      1.0  0.62840  0.15584  0.08806  1.0000
  C   C488      1.0  0.72311  0.20318  0.99647  1.0000
  S   S66       1.0  0.65326  0.37974  0.02941  1.0000
  S   S67       1.0  0.65856  0.30048  0.00976  1.0000
  Fe  Fe34      1.0  0.82330  0.20441  0.18762  1.0000
  S   S68       1.0  0.78740  0.18773  0.22815  1.0000
  S   S69       1.0  0.80525  0.21872  0.14132  1.0000
  Fe  Fe35      1.0  0.88655  0.18148  0.21940  1.0000
  S   S70       1.0  0.85393  0.16334  0.26208  1.0000
  S   S71       1.0  0.94380  0.17025  0.20766  1.0000
  Fe  Fe36      1.0  0.81963  0.14030  0.23108  1.0000
  S   S72       1.0  0.79096  0.08909  0.23543  1.0000
  Fe  Fe37      1.0  0.82382  0.21192  0.25636  1.0000
  S   S73       1.0  0.85350  0.15557  0.18893  1.0000
  S   S74       1.0  0.85884  0.23153  0.21510  1.0000
  C   C489      1.0  0.80838  0.04754  0.24036  1.0000
  C   C490      1.0  0.78807  0.01859  0.23723  1.0000
  C   C491      1.0  0.84186  0.04264  0.24683  1.0000
  H   H389      1.0  0.76207  0.02202  0.23240  1.0000
  H   H390      1.0  0.85765  0.06454  0.24977  1.0000
  C   C492      1.0  0.98085  0.18657  0.22161  1.0000
  C   C493      1.0  0.58708  0.29013  0.08708  1.0000
  C   C494      1.0  0.97948  0.21337  0.24155  1.0000
  H   H391      1.0  0.69025  0.13567  0.11157  1.0000
  H   H392      1.0  0.95513  0.22449  0.24946  1.0000
  C   C495      1.0  0.73664  0.29626  0.09562  1.0000
  C   C496      1.0  0.74736  0.26599  0.08177  1.0000
  C   C497      1.0  0.76791  0.24253  0.09626  1.0000
  C   C498      1.0  0.77763  0.24856  0.12500  1.0000
  C   C499      1.0  0.76640  0.27855  0.13903  1.0000
  C   C500      1.0  0.74620  0.30220  0.12440  1.0000
  H   H393      1.0  0.73996  0.26068  0.05985  1.0000
  H   H394      1.0  0.77642  0.21950  0.08510  1.0000
  H   H395      1.0  0.77397  0.28399  0.16080  1.0000
  H   H396      1.0  0.73832  0.32554  0.13535  1.0000
  C   C501      1.0  0.57180  0.25799  0.09249  1.0000
  C   C502      1.0  0.76870  0.43281  0.00473  1.0000
  C   C503      1.0  0.54019  0.47431  0.03397  1.0000
  H   H397      1.0  0.66297  0.46831  0.02641  1.0000
  H   H398      1.0  0.67022  0.26649  0.08035  1.0000
  C   C504      1.0  0.93787  0.39733  0.98638  1.0000
  C   C505      1.0  0.82631  0.02131  0.16807  1.0000
  C   C506      1.0  0.56059  0.45226  0.08961  1.0000
  C   C507      1.0  0.68619  0.21724  0.13592  1.0000
  C   C508      1.0  0.93823  0.00891  0.11149  1.0000
  C   C509      1.0  0.95823  0.05959  0.16373  1.0000
  S   S75       1.0  0.56532  0.34710  0.01996  1.0000
  C   C510      1.0  0.87973  0.40649  0.00855  1.0000
  H   H399      1.0  0.72382  0.45035  0.03167  1.0000
  C   C511      1.0  0.84586  0.33542  0.11132  1.0000
  C   C512      1.0  0.84958  0.29996  0.11314  1.0000
  C   C513      1.0  0.84832  0.28089  0.08749  1.0000
  C   C514      1.0  0.84257  0.29708  0.06014  1.0000
  C   C515      1.0  0.83782  0.33260  0.05831  1.0000
  C   C516      1.0  0.84046  0.35177  0.08390  1.0000
  P   P18       1.0  0.83193  0.35399  0.02280  1.0000
  C   C517      1.0  0.86179  0.02241  0.16692  1.0000
  P   P19       1.0  0.52816  0.48874  0.99784  1.0000
  C   C518      1.0  0.74502  0.43276  0.03053  1.0000
  Fe  Fe38      1.0  0.62272  0.34451  0.00393  1.0000
  C   C519      1.0  0.59198  0.22871  0.09395  1.0000
  H   H400      1.0  0.76541  0.45028  0.98588  1.0000
  C   C520      1.0  0.79553  0.40940  0.00275  1.0000
  C   C521      1.0  0.68916  0.21363  0.99857  1.0000
  C   C522      1.0  0.92611  0.03966  0.09964  1.0000
  H   H401      1.0  0.63446  0.31797  0.07895  1.0000
  H   H402      1.0  0.57149  0.31270  0.08484  1.0000
  H   H403      1.0  0.92184  0.00082  0.21576  1.0000
  C   C523      1.0  0.79914  0.38612  0.02684  1.0000
  C   C524      1.0  0.77481  0.38581  0.05243  1.0000
  C   C525      1.0  0.74796  0.40918  0.05428  1.0000
  H   H404      1.0  0.71000  0.31732  0.28523  1.0000
  C   C526      1.0  0.93161  0.36221  0.98647  1.0000
  C   C527      1.0  0.63435  0.30224  0.28559  1.0000
  H   H405      1.0  0.84681  0.35016  0.13125  1.0000
  H   H406      1.0  0.85285  0.28705  0.13452  1.0000
  H   H407      1.0  0.85077  0.25332  0.08914  1.0000
  H   H408      1.0  0.84154  0.28170  0.04064  1.0000
  H   H409      1.0  0.83786  0.37930  0.08275  1.0000
  C   C528      1.0  0.91199  0.41942  0.99754  1.0000
  H   H410      1.0  0.96528  0.09865  0.22957  1.0000
  H   H411      1.0  0.77564  0.30602  0.03091  1.0000
  H   H412      1.0  0.76681  0.34352  0.28160  1.0000
  H   H413      1.0  0.63548  0.14952  0.03965  1.0000
  C   C529      1.0  0.67129  0.49131  0.01349  1.0000
  H   H414      1.0  0.77557  0.36676  0.07050  1.0000
  H   H415      1.0  0.76317  0.18289  0.02063  1.0000
  H   H416      1.0  0.87354  0.04495  0.17460  1.0000
  C   C530      1.0  0.93466  0.02398  0.20658  1.0000
  H   H417      1.0  0.81123  0.04272  0.17670  1.0000
  C   C531      1.0  0.60869  0.27475  0.19402  1.0000
  C   C532      1.0  0.62591  0.29228  0.16895  1.0000
  C   C533      1.0  0.66004  0.30153  0.16895  1.0000
  C   C534      1.0  0.67710  0.29309  0.19394  1.0000
  C   C535      1.0  0.66011  0.27506  0.21914  1.0000
  C   C536      1.0  0.62566  0.26623  0.21904  1.0000
  P   P20       1.0  0.68198  0.26238  0.25124  1.0000
  C   C537      1.0  0.68924  0.21671  0.25243  1.0000
  C   C538      1.0  0.72318  0.28300  0.24854  1.0000
  C   C539      1.0  0.74962  0.27241  0.22714  1.0000
  C   C540      1.0  0.78163  0.28807  0.22483  1.0000
  H   H418      1.0  0.88023  0.00580  0.25606  1.0000
  H   H419      1.0  0.56467  0.40225  0.07067  1.0000
  C   C541      1.0  0.72947  0.30913  0.26794  1.0000
  C   C542      1.0  0.71310  0.20301  0.27043  1.0000
  C   C543      1.0  0.67186  0.19455  0.23537  1.0000
  C   C544      1.0  0.73666  0.19046  0.02217  1.0000
  H   H420      1.0  0.57111  0.07473  0.09046  1.0000
  C   C545      1.0  0.95944  0.07891  0.21453  1.0000
  H   H421      1.0  0.58216  0.26776  0.19403  1.0000
  H   H422      1.0  0.61281  0.29884  0.14953  1.0000
  H   H423      1.0  0.67335  0.31513  0.14941  1.0000
  H   H424      1.0  0.70351  0.30063  0.19326  1.0000
  C   C546      1.0  0.93274  0.04809  0.06881  1.0000
  H   H425      1.0  0.74564  0.25181  0.21242  1.0000
  H   H426      1.0  0.98126  0.10043  0.29524  1.0000
  H   H427      1.0  0.57909  0.10312  0.13787  1.0000
  C   C547      1.0  0.67814  0.15937  0.23662  1.0000
  C   C548      1.0  0.95995  0.23282  0.14199  1.0000
  C   C549      1.0  0.52842  0.33963  0.00147  1.0000
  H   H428      1.0  0.65395  0.20414  0.22068  1.0000
  H   H429      1.0  0.73744  0.15750  0.28598  1.0000
  C   C550      1.0  0.72107  0.18158  0.16542  1.0000
  C   C551      1.0  0.62347  0.13980  0.06128  1.0000
  S   S76       1.0  0.80834  0.25079  0.29311  1.0000
  C   C552      1.0  0.96688  0.08432  0.18337  1.0000
  C   C553      1.0  0.87304  0.37133  0.00802  1.0000
  C   C554      1.0  0.97687  0.27249  0.10013  1.0000
  C   C555      1.0  0.68182  0.19785  0.05213  1.0000
  C   C556      1.0  0.66860  0.21105  0.02625  1.0000
  H   H430      1.0  0.54652  0.42112  0.02231  1.0000
  C   C557      1.0  0.94362  0.04858  0.22616  1.0000
  C   C558      1.0  0.62773  0.23145  0.08982  1.0000
  H   H431      1.0  0.61204  0.25253  0.23830  1.0000
  C   C559      1.0  0.61198  0.14259  0.11565  1.0000
  H   H432      1.0  0.61513  0.15482  0.13653  1.0000
  C   C560      1.0  0.65735  0.27487  0.28589  1.0000
  C   C561      1.0  0.55828  0.42890  0.06703  1.0000
  C   C562      1.0  0.76169  0.32439  0.26582  1.0000
  C   C563      1.0  0.78783  0.30409  0.00801  1.0000
  H   H433      1.0  0.64234  0.21943  0.02738  1.0000
  H   H434      1.0  0.72730  0.17801  0.06948  1.0000
  H   H435      1.0  0.93741  0.04451  0.25031  1.0000
  C   C564      1.0  0.67999  0.18938  0.11841  1.0000
  C   C565      1.0  0.70153  0.14599  0.25505  1.0000
  C   C566      1.0  0.49678  0.35274  0.01377  1.0000
  C   C567      1.0  0.58697  0.09739  0.08980  1.0000
  H   H436      1.0  0.54427  0.25576  0.09466  1.0000
  H   H437      1.0  0.59930  0.09825  0.04150  1.0000
  C   C568      1.0  0.81628  0.32444  0.99762  1.0000
  C   C569      1.0  0.78773  0.31392  0.24424  1.0000
  H   H438      1.0  0.73769  0.17884  0.18302  1.0000
  H   H439      1.0  0.72650  0.12927  0.15290  1.0000
  H   H440      1.0  0.57951  0.20409  0.09731  1.0000
  C   C570      1.0  0.85480  0.00928  0.24994  1.0000
  H   H441      1.0  0.96424  0.06446  0.13977  1.0000
  H   H442      1.0  0.81301  0.32487  0.24338  1.0000
  C   C571      1.0  0.59148  0.11340  0.11650  1.0000
  C   C572      1.0  0.71484  0.15368  0.14831  1.0000
  C   C573      1.0  0.69434  0.15749  0.12493  1.0000
  C   C574      1.0  0.62255  0.29309  0.08355  1.0000
  C   C575      1.0  0.71613  0.18773  0.04992  1.0000
  C   C576      1.0  0.95151  0.25810  0.12131  1.0000
  H   H443      1.0  0.66520  0.14244  0.22304  1.0000
  P   P21       1.0  0.65438  0.19387  0.08749  1.0000
  C   C577      1.0  0.70657  0.21322  0.15936  1.0000
  H   H444      1.0  0.80204  0.27941  0.20861  1.0000
  H   H445      1.0  0.67606  0.24222  0.13130  1.0000
  H   H446      1.0  0.71217  0.23490  0.17222  1.0000
  H   H447      1.0  0.70701  0.11884  0.25566  1.0000
  C   C578      1.0  0.71868  0.16778  0.27222  1.0000
  C   C579      1.0  0.60289  0.11063  0.06222  1.0000
  H   H448      1.0  0.91696  0.44661  0.99780  1.0000
  C   C580      1.0  0.55244  0.48658  0.08457  1.0000
  C   C581      1.0  0.54800  0.43981  0.03938  1.0000
  H   H449      1.0  0.63043  0.31563  0.26466  1.0000
  H   H450      1.0  0.91115  0.05698  0.11424  1.0000
  P   P22       1.0  0.92744  0.99775  0.15106  1.0000
  H   H451      1.0  0.86026  0.42395  0.01765  1.0000
  C   C582      1.0  0.94135  0.02950  0.17527  1.0000
  H   H452      1.0  0.92326  0.07187  0.05987  1.0000
  H   H453      1.0  0.97032  0.29231  0.08428  1.0000
  H   H454      1.0  0.72801  0.21967  0.28264  1.0000
  H   H455      1.0  0.89494  0.32189  0.99773  1.0000
  H   H456      1.0  0.94039  0.22182  0.15867  1.0000
  C   C583      1.0  0.95092  0.02555  0.04946  1.0000
  H   H457      1.0  0.95571  0.03192  0.02550  1.0000
  C   C584      1.0  0.68595  0.48903  0.98353  1.0000
  H   H458      1.0  0.97836  0.10832  0.17462  1.0000
  H   H459      1.0  0.75128  0.26764  0.99650  1.0000
  C   C585      1.0  0.99366  0.22178  0.14142  1.0000
  C   C586      1.0  0.66296  0.25926  0.31372  1.0000
  C   C587      1.0  0.89938  0.34920  0.99747  1.0000
  H   H460      1.0  0.98641  0.03825  0.28996  1.0000
  Fe  Fe39      1.0  0.68155  0.39443  0.98442  1.0000
  H   H461      1.0  0.59923  0.33443  0.31227  1.0000
  C   C588      1.0  0.77402  0.28225  0.98858  1.0000
  S   S77       1.0  0.72207  0.35411  0.98845  1.0000
  C   C589      1.0  0.61680  0.31323  0.31257  1.0000
  H   H462      1.0  0.49558  0.36800  0.03356  1.0000
  H   H463      1.0  0.68131  0.23902  0.31511  1.0000
  S   S78       1.0  0.64744  0.34519  0.44841  1.0000
  S   S79       1.0  0.69637  0.26519  0.40911  1.0000
  H   H464      1.0  0.74200  0.44786  0.60301  1.0000
  C   C590      1.0  0.72846  0.26160  0.37746  1.0000
  C   C591      1.0  0.75058  0.28847  0.36689  1.0000
  C   C592      1.0  0.77464  0.28462  0.34112  1.0000
  C   C593      1.0  0.71736  0.45105  0.61604  1.0000
  C   C594      1.0  0.75547  0.22684  0.33643  1.0000
  C   C595      1.0  0.73104  0.23086  0.36188  1.0000
  H   H465      1.0  0.74900  0.31229  0.37843  1.0000
  C   C596      1.0  0.50191  0.43296  0.49926  1.0000
  C   C597      1.0  0.77660  0.38133  0.52776  1.0000
  H   H466      1.0  0.71427  0.20980  0.36983  1.0000
  H   H467      1.0  0.81562  0.35503  0.54923  1.0000
  Fe  Fe40      1.0  0.62684  0.32537  0.49484  1.0000
  S   S80       1.0  0.57053  0.32701  0.51540  1.0000
  Fe  Fe41      1.0  0.69941  0.31358  0.51412  1.0000
  S   S81       1.0  0.72436  0.33375  0.46857  1.0000
  S   S82       1.0  0.73696  0.29854  0.54868  1.0000
  Fe  Fe42      1.0  0.68449  0.37523  0.47203  1.0000
  S   S83       1.0  0.69520  0.43073  0.45562  1.0000
  Fe  Fe43      1.0  0.68589  0.30230  0.44816  1.0000
  S   S84       1.0  0.66230  0.35769  0.51845  1.0000
  S   S85       1.0  0.66253  0.28001  0.49364  1.0000
  C   C598      1.0  0.74301  0.27466  0.58277  1.0000
  C   C599      1.0  0.71673  0.25617  0.59995  1.0000
  C   C600      1.0  0.72281  0.23815  0.62687  1.0000
  C   C601      1.0  0.77541  0.27470  0.59315  1.0000
  H   H468      1.0  0.69176  0.25552  0.59235  1.0000
  H   H469      1.0  0.63213  0.42242  0.42977  1.0000
  C   C602      1.0  0.62244  0.29735  0.34008  1.0000
  C   C603      1.0  0.68763  0.46936  0.47508  1.0000
  C   C604      1.0  0.68493  0.47021  0.50655  1.0000
  C   C605      1.0  0.79093  0.36723  0.55255  1.0000
  H   H470      1.0  0.68520  0.44663  0.51981  1.0000
  H   H471      1.0  0.75759  0.20272  0.32539  1.0000
  C   C606      1.0  0.59953  0.44422  0.46614  1.0000
  C   C607      1.0  0.53268  0.32494  0.49715  1.0000
  C   C608      1.0  0.53347  0.31720  0.46674  1.0000
  H   H472      1.0  0.55770  0.31285  0.45347  1.0000
  C   C609      1.0  0.62490  0.44963  0.57301  1.0000
  C   C610      1.0  0.57290  0.46711  0.47407  1.0000
  H   H473      1.0  0.60696  0.45567  0.38975  1.0000
  C   C611      1.0  0.59728  0.45882  0.41319  1.0000
  H   H474      1.0  0.63623  0.40024  0.59212  1.0000
  H   H475      1.0  0.78375  0.35473  0.59990  1.0000
  H   H476      1.0  0.64325  0.46305  0.58444  1.0000
  H   H477      1.0  0.61140  0.42965  0.48312  1.0000
  C   C612      1.0  0.78152  0.25665  0.62008  1.0000
  C   C613      1.0  0.77731  0.25384  0.32562  1.0000
  C   C614      1.0  0.57082  0.48170  0.42093  1.0000
  C   C615      1.0  0.67062  0.33596  0.59733  1.0000
  C   C616      1.0  0.78817  0.47788  0.49931  1.0000
  H   H478      1.0  0.76816  0.43881  0.47329  1.0000
  C   C617      1.0  0.66679  0.42768  0.64567  1.0000
  C   C618      1.0  0.57868  0.41487  0.54227  1.0000
  H   H479      1.0  0.60936  0.30614  0.36110  1.0000
  H   H480      1.0  0.91823  0.02806  0.63366  1.0000
  C   C619      1.0  0.59784  0.39695  0.56199  1.0000
  H   H481      1.0  0.79130  0.46072  0.51835  1.0000
  H   H482      1.0  0.79607  0.28866  0.58011  1.0000
  C   C620      1.0  0.74417  0.39582  0.53180  1.0000
  C   C621      1.0  0.72591  0.39595  0.56057  1.0000
  C   C622      1.0  0.77531  0.46545  0.47398  1.0000
  H   H483      1.0  0.76082  0.47765  0.42998  1.0000
  H   H484      1.0  0.55990  0.49639  0.40345  1.0000
  H   H485      1.0  0.65055  0.25865  0.36203  1.0000
  H   H486      1.0  0.63649  0.30260  0.57798  1.0000
  C   C623      1.0  0.64554  0.27045  0.34062  1.0000
  H   H487      1.0  0.73268  0.40590  0.51246  1.0000
  H   H488      1.0  0.70055  0.40673  0.56316  1.0000
  H   H489      1.0  0.68441  0.34257  0.57564  1.0000
  C   C624      1.0  0.50075  0.33036  0.51398  1.0000
  H   H490      1.0  0.79019  0.38007  0.50530  1.0000
  P   P23       1.0  0.55638  0.47297  0.51293  1.0000
  C   C625      1.0  0.73969  0.38092  0.58550  1.0000
  P   P24       1.0  0.71485  0.37993  0.62226  1.0000
  C   C626      1.0  0.67289  0.48892  0.63681  1.0000
  C   C627      1.0  0.70448  0.48405  0.61995  1.0000
  H   H491      1.0  0.56136  0.40078  0.53014  1.0000
  C   C628      1.0  0.77257  0.36693  0.58134  1.0000
  C   C629      1.0  0.75523  0.23812  0.63720  1.0000
  C   C630      1.0  0.60544  0.46774  0.55360  1.0000
  H   H492      1.0  0.79146  0.30566  0.33322  1.0000
  H   H493      1.0  0.59515  0.36941  0.56476  1.0000
  C   C631      1.0  0.58224  0.45045  0.53795  1.0000
  C   C632      1.0  0.62103  0.41428  0.57727  1.0000
  H   H494      1.0  0.80662  0.25697  0.62746  1.0000
  H   H495      1.0  0.89047  0.08410  0.62658  1.0000
  H   H496      1.0  0.51647  0.42868  0.47766  1.0000
  C   C633      1.0  0.61148  0.44005  0.43577  1.0000
  C   C634      1.0  0.64345  0.31292  0.59865  1.0000
  C   C635      1.0  0.62596  0.30260  0.62649  1.0000
  H   H497      1.0  0.76870  0.07742  0.63472  1.0000
  C   C636      1.0  0.51440  0.45392  0.52039  1.0000
  H   H498      1.0  0.70222  0.22391  0.63972  1.0000
  C   C637      1.0  0.68033  0.34928  0.62377  1.0000
  C   C638      1.0  0.69846  0.42253  0.62861  1.0000
  H   H499      1.0  0.73828  0.31290  0.64099  1.0000
  C   C639      1.0  0.49574  0.45643  0.54900  1.0000
  C   C640      1.0  0.55859  0.48573  0.45125  1.0000
  C   C641      1.0  0.50281  0.31411  0.45362  1.0000
  H   H500      1.0  0.50385  0.30735  0.43027  1.0000
  C   C642      1.0  0.77126  0.48744  0.44938  1.0000
  H   H501      1.0  0.50581  0.47090  0.56619  1.0000
  C   C643      1.0  0.90302  0.07867  0.64652  1.0000
  H   H502      1.0  0.60516  0.28443  0.62739  1.0000
  H   H503      1.0  0.49990  0.21514  0.61884  1.0000
  H   H504      1.0  0.49974  0.33646  0.53748  1.0000
  H   H505      1.0  0.60896  0.49507  0.55081  1.0000
  S   S86       1.0  0.64951  0.36106  0.95844  1.0000
  S   S87       1.0  0.70626  0.27671  0.93355  1.0000
  Fe  Fe44      1.0  0.79942  0.20378  0.70623  1.0000
  S   S88       1.0  0.77343  0.18870  0.75266  1.0000
  C   C644      1.0  0.60678  0.18222  0.81341  1.0000
  Fe  Fe45      1.0  0.87074  0.19491  0.72873  1.0000
  S   S89       1.0  0.84867  0.18106  0.77633  1.0000
  S   S90       1.0  0.92760  0.18962  0.71115  1.0000
  Fe  Fe46      1.0  0.81306  0.14745  0.75441  1.0000
  S   S91       1.0  0.79987  0.09401  0.77497  1.0000
  Fe  Fe47      1.0  0.81058  0.22332  0.77114  1.0000
  S   S92       1.0  0.79489  0.26661  0.80365  1.0000
  S   S93       1.0  0.83619  0.15954  0.70697  1.0000
  S   S94       1.0  0.83547  0.24017  0.72452  1.0000
  C   C645      1.0  0.81356  0.05507  0.75811  1.0000
  C   C646      1.0  0.80735  0.02404  0.77474  1.0000
  C   C647      1.0  0.82960  0.05419  0.72848  1.0000
  H   H506      1.0  0.79523  0.02435  0.79774  1.0000
  H   H507      1.0  0.83475  0.07778  0.71539  1.0000
  C   C648      1.0  0.96524  0.19338  0.72946  1.0000
  C   C649      1.0  0.96536  0.20978  0.75675  1.0000
  C   C650      1.0  0.95750  0.27260  0.68711  1.0000
  H   H508      1.0  0.94184  0.21994  0.76774  1.0000
  H   H509      1.0  0.74863  0.26396  0.73138  1.0000
  C   C651      1.0  0.73195  0.27477  0.89781  1.0000
  C   C652      1.0  0.74673  0.30369  0.88216  1.0000
  C   C653      1.0  0.76593  0.30062  0.85355  1.0000
  C   C654      1.0  0.77091  0.26866  0.84019  1.0000
  C   C655      1.0  0.75677  0.23968  0.85618  1.0000
  C   C656      1.0  0.73766  0.24276  0.88481  1.0000
  H   H510      1.0  0.74298  0.32849  0.89188  1.0000
  H   H511      1.0  0.77686  0.32326  0.84159  1.0000
  H   H512      1.0  0.76061  0.21488  0.84650  1.0000
  H   H513      1.0  0.72714  0.22014  0.89701  1.0000
  H   H514      1.0  0.64750  0.25798  0.70581  1.0000
  H   H515      1.0  0.92881  0.15484  0.79644  1.0000
  H   H516      1.0  0.98174  0.32360  0.75428  1.0000
  H   H517      1.0  0.77386  0.29344  0.68008  1.0000
  C   C657      1.0  0.92172  0.12901  0.79181  1.0000
  H   H518      1.0  0.62190  0.43866  0.93048  1.0000
  C   C658      1.0  0.54653  0.19569  0.81938  1.0000
  C   C659      1.0  0.83819  0.02262  0.71543  1.0000
  H   H519      1.0  0.67888  0.22419  0.97875  1.0000
  H   H520      1.0  0.95060  0.25766  0.66878  1.0000
  C   C660      1.0  0.89253  0.11395  0.80754  1.0000
  H   H521      1.0  0.62234  0.30707  0.67466  1.0000
  C   C661      1.0  0.90215  0.06332  0.77826  1.0000
  C   C662      1.0  0.52701  0.43021  0.96407  1.0000
  C   C663      1.0  0.93492  0.06465  0.69854  1.0000
  C   C664      1.0  0.74154  0.05414  0.71933  1.0000
  H   H522      1.0  0.62715  0.28974  0.90894  1.0000
  H   H523      1.0  0.62486  0.24246  0.75834  1.0000
  H   H524      1.0  0.52707  0.38324  0.94057  1.0000
  H   H525      1.0  0.56663  0.14490  0.81390  1.0000
  C   C665      1.0  0.76819  0.32041  0.67732  1.0000
  C   C666      1.0  0.81633  0.30138  0.94784  1.0000
  H   H526      1.0  0.85002  0.02231  0.69234  1.0000
  H   H527      1.0  0.90871  0.26554  0.71352  1.0000
  H   H528      1.0  0.50118  0.42610  0.97472  1.0000
  H   H529      1.0  0.73487  0.04823  0.74313  1.0000
  C   C667      1.0  0.93489  0.04018  0.67632  1.0000
  H   H530      1.0  0.96285  0.40741  0.97787  1.0000
  H   H531      1.0  0.70922  0.26878  0.69214  1.0000
  H   H532      1.0  0.77741  0.26404  0.94342  1.0000
  C   C668      1.0  0.95584  0.01059  0.74064  1.0000
  C   C669      1.0  0.93378  0.27704  0.71240  1.0000
  C   C670      1.0  0.78101  0.34401  0.69584  1.0000
  C   C671      1.0  0.91936  0.09637  0.69417  1.0000
  H   H533      1.0  0.61759  0.03270  0.66314  1.0000
  C   C672      1.0  0.66449  0.25647  0.72313  1.0000
  C   C673      1.0  0.94114  0.11130  0.76927  1.0000
  C   C674      1.0  0.72152  0.25986  0.73747  1.0000
  C   C675      1.0  0.70905  0.25053  0.76723  1.0000
  C   C676      1.0  0.67412  0.24419  0.77522  1.0000
  C   C677      1.0  0.65184  0.24745  0.75296  1.0000
  P   P25       1.0  0.65869  0.23077  0.81358  1.0000
  C   C678      1.0  0.61485  0.21688  0.81562  1.0000
  C   C679      1.0  0.68390  0.19491  0.82469  1.0000
  C   C680      1.0  0.69988  0.17347  0.80278  1.0000
  C   C681      1.0  0.71952  0.14581  0.81123  1.0000
  C   C682      1.0  0.72300  0.13902  0.84161  1.0000
  C   C683      1.0  0.70639  0.15958  0.86363  1.0000
  C   C684      1.0  0.68682  0.18735  0.85524  1.0000
  Fe  Fe48      1.0  0.68801  0.31965  0.96562  1.0000
  H   H534      1.0  0.66146  0.34142  0.89277  1.0000
  H   H535      1.0  0.91937  0.11588  0.71071  1.0000
  H   H536      1.0  0.69536  0.34490  0.84248  1.0000
  C   C685      1.0  0.58838  0.24089  0.81918  1.0000
  C   C686      1.0  0.66041  0.26574  0.83880  1.0000
  C   C687      1.0  0.64106  0.26416  0.86733  1.0000
  H   H537      1.0  0.52014  0.18748  0.82117  1.0000
  C   C688      1.0  0.66057  0.32066  0.87752  1.0000
  C   C689      1.0  0.67971  0.32259  0.84917  1.0000
  C   C690      1.0  0.67983  0.29523  0.82993  1.0000
  H   H538      1.0  0.72679  0.24783  0.78396  1.0000
  H   H539      1.0  0.62666  0.16322  0.81031  1.0000
  H   H540      1.0  0.69753  0.17817  0.77907  1.0000
  H   H541      1.0  0.73260  0.12990  0.79417  1.0000
  H   H542      1.0  0.73880  0.11794  0.84796  1.0000
  H   H543      1.0  0.70921  0.15440  0.88719  1.0000
  H   H544      1.0  0.67463  0.20317  0.87265  1.0000
  C   C691      1.0  0.78846  0.28062  0.95859  1.0000
  H   H545      1.0  0.75720  0.10542  0.72728  1.0000
  H   H546      1.0  0.87695  0.12803  0.82443  1.0000
  H   H547      1.0  0.62589  0.24177  0.87482  1.0000
  H   H548      1.0  0.59401  0.26782  0.82058  1.0000
  C   C692      1.0  0.66144  0.01362  0.68283  1.0000
  C   C693      1.0  0.69929  0.26265  0.71539  1.0000
  H   H549      1.0  0.69544  0.29734  0.80843  1.0000
  C   C694      1.0  0.54181  0.40546  0.94497  1.0000
  C   C695      1.0  0.57587  0.40862  0.93261  1.0000
  C   C696      1.0  0.91870  0.04711  0.65053  1.0000
  C   C697      1.0  0.54590  0.45902  0.97023  1.0000
  H   H550      1.0  0.95175  0.34504  0.97808  1.0000
  H   H551      1.0  0.62959  0.46459  0.66280  1.0000
  S   S95       1.0  0.69330  0.44913  0.96590  1.0000
  C   C698      1.0  0.63571  0.31530  0.65305  1.0000
  H   H552      1.0  0.50519  0.24757  0.66475  1.0000
  H   H553      1.0  0.89326  0.03849  0.77284  1.0000
  H   H554      1.0  0.96284  0.12408  0.75658  1.0000
  P   P26       1.0  0.95560  0.05613  0.73200  1.0000
  H   H555      1.0  0.58756  0.38887  0.91858  1.0000
  H   H556      1.0  0.90408  0.00239  0.73083  1.0000
  C   C699      1.0  0.93180  0.07806  0.76257  1.0000
  H   H557      1.0  0.67037  0.34777  0.67253  1.0000
  C   C700      1.0  0.64127  0.29146  0.88661  1.0000
  H   H558      1.0  0.65165  0.40636  0.65571  1.0000
  C   C701      1.0  0.57272  0.17171  0.81535  1.0000
  C   C702      1.0  0.59512  0.43671  0.93919  1.0000
  H   H559      1.0  0.55339  0.30943  0.96622  1.0000
  H   H560      1.0  0.82663  0.30087  0.92426  1.0000
  C   C703      1.0  0.88268  0.08121  0.80065  1.0000
  C   C704      1.0  0.94267  0.29545  0.73650  1.0000
  C   C705      1.0  0.75419  0.39003  0.66950  1.0000
  H   H561      1.0  0.53405  0.24887  0.82444  1.0000
  C   C706      1.0  0.55437  0.23028  0.82121  1.0000
  C   C707      1.0  0.75435  0.08672  0.71046  1.0000
  C   C708      1.0  0.73786  0.02976  0.69764  1.0000
  C   C709      1.0  0.74786  0.03838  0.66704  1.0000
  H   H562      1.0  0.85927  0.07008  0.81199  1.0000
  H   H563      1.0  0.79640  0.33526  0.71317  1.0000
  S   S96       1.0  0.76094  0.21488  0.67170  1.0000
  H   H564      1.0  0.89194  0.12806  0.66501  1.0000
  H   H565      1.0  0.92421  0.29858  0.75615  1.0000
  H   H566      1.0  0.74918  0.41704  0.66674  1.0000
  C   C710      1.0  0.90362  0.10336  0.66821  1.0000
  H   H567      1.0  0.59606  0.48269  0.96331  1.0000
  C   C711      1.0  0.97546  0.30922  0.73545  1.0000
  H   H568      1.0  0.94722  0.01577  0.67894  1.0000
  H   H569      1.0  0.78409  0.39705  0.70628  1.0000
  C   C712      1.0  0.74813  0.33151  0.65512  1.0000
  C   C713      1.0  0.66286  0.33845  0.65173  1.0000
  C   C714      1.0  0.58025  0.46180  0.95791  1.0000
  H   H570      1.0  0.68218  0.01155  0.76511  1.0000
  C   C715      1.0  0.77404  0.37880  0.69192  1.0000
  C   C716      1.0  0.52940  0.31987  0.97590  1.0000
  C   C717      1.0  0.62679  0.01438  0.67905  1.0000
  C   C718      1.0  0.76415  0.09510  0.68003  1.0000
  H   H571      1.0  0.85080  0.34026  0.95812  1.0000
  H   H572      1.0  0.50004  0.29682  0.94398  1.0000
  H   H573      1.0  0.73899  0.20561  0.97497  1.0000
  H   H574      1.0  0.77421  0.12038  0.67334  1.0000
  C   C719      1.0  0.76105  0.07087  0.65832  1.0000
  C   C720      1.0  0.83008  0.32349  0.96720  1.0000
  H   H575      1.0  0.67850  0.03152  0.66966  1.0000
  C   C721      1.0  0.99025  0.28646  0.68590  1.0000
  C   C722      1.0  0.49904  0.31272  0.96334  1.0000
  H   H576      1.0  0.81286  0.40887  0.98210  1.0000
  C   C723      1.0  0.74103  0.36637  0.65099  1.0000
  C   C724      1.0  0.65412  0.46076  0.64975  1.0000
  H   H577      1.0  0.74513  0.02012  0.64985  1.0000
  Fe  Fe49      1.0  0.67910  0.64874  0.01038  1.0000
  S   S97       1.0  0.65899  0.68779  0.04394  1.0000
  S   S98       1.0  0.67523  0.59325  0.02924  1.0000
  H   H578      1.0  0.99181  0.71342  0.25732  1.0000
  Fe  Fe50      1.0  0.70504  0.72018  0.02748  1.0000
  S   S99       1.0  0.74457  0.74659  0.05367  1.0000
  H   H579      1.0  0.99390  0.87653  0.18700  1.0000
  H   H580      1.0  0.71760  0.76258  0.26467  1.0000
  H   H581      1.0  0.57712  0.65584  0.02544  1.0000
  Fe  Fe51      1.0  0.80759  0.82219  0.21270  1.0000
  S   S100      1.0  0.78974  0.85165  0.25480  1.0000
  S   S101      1.0  0.76651  0.80414  0.18366  1.0000
  Fe  Fe52      1.0  0.88170  0.82117  0.22788  1.0000
  S   S102      1.0  0.86815  0.84888  0.27027  1.0000
  S   S103      1.0  0.93603  0.80404  0.21228  1.0000
  Fe  Fe53      1.0  0.82188  0.81462  0.27915  1.0000
  S   S104      1.0  0.57906  0.73055  0.01589  1.0000
  Fe  Fe54      1.0  0.83749  0.88374  0.24269  1.0000
  S   S105      1.0  0.85427  0.93930  0.24731  1.0000
  S   S106      1.0  0.83772  0.78412  0.23808  1.0000
  S   S107      1.0  0.85304  0.85690  0.19931  1.0000
  C   C725      1.0  0.97310  0.82112  0.22539  1.0000
  C   C726      1.0  0.52733  0.63929  0.04566  1.0000
  C   C727      1.0  0.97121  0.84623  0.24705  1.0000
  C   C728      1.0  0.81179  0.65039  0.99388  1.0000
  H   H582      1.0  0.94668  0.85617  0.25594  1.0000
  H   H583      1.0  0.80169  0.69722  0.23731  1.0000
  H   H584      1.0  0.51279  0.57259  0.09677  1.0000
  H   H585      1.0  0.81717  0.94237  0.14077  1.0000
  H   H586      1.0  0.78583  0.96331  0.23608  1.0000
  H   H587      1.0  0.70137  0.62678  0.09428  1.0000
  C   C729      1.0  0.74964  0.76340  0.08975  1.0000
  C   C730      1.0  0.72262  0.76592  0.11285  1.0000
  C   C731      1.0  0.72834  0.77853  0.14117  1.0000
  C   C732      1.0  0.76109  0.78873  0.14708  1.0000
  C   C733      1.0  0.78805  0.78637  0.12390  1.0000
  C   C734      1.0  0.78237  0.77378  0.09558  1.0000
  H   H588      1.0  0.69729  0.75816  0.10893  1.0000
  H   H589      1.0  0.70713  0.78045  0.15867  1.0000
  H   H590      1.0  0.81325  0.79456  0.12770  1.0000
  H   H591      1.0  0.80355  0.77210  0.07802  1.0000
  C   C735      1.0  0.66801  0.52339  0.02697  1.0000
  C   C736      1.0  0.67868  0.55369  0.01059  1.0000
  C   C737      1.0  0.95557  0.98592  0.09174  1.0000
  H   H592      1.0  0.65726  0.52472  0.05031  1.0000
  H   H593      1.0  0.79150  0.60635  0.02042  1.0000
  C   C738      1.0  0.79928  0.63285  0.02078  1.0000
  C   C739      1.0  0.80145  0.98522  0.23932  1.0000
  C   C740      1.0  0.94759  0.94792  0.25676  1.0000
  H   H594      1.0  0.77573  0.74100  0.99320  1.0000
  C   C741      1.0  0.56183  0.58886  0.07572  1.0000
  H   H595      1.0  0.87707  0.59218  0.19640  1.0000
  H   H596      1.0  0.60766  0.61118  0.05202  1.0000
  H   H597      1.0  0.87999  0.94523  0.13602  1.0000
  H   H598      1.0  0.93150  0.94011  0.24023  1.0000
  C   C742      1.0  0.88155  0.99480  0.15583  1.0000
  C   C743      1.0  0.92917  0.93217  0.17851  1.0000
  C   C744      1.0  0.85158  0.60108  0.20377  1.0000
  C   C745      1.0  0.86526  0.96637  0.14553  1.0000
  H   H599      1.0  0.53617  0.52422  0.05312  1.0000
  C   C746      1.0  0.73008  0.74514  0.24867  1.0000
  C   C747      1.0  0.50951  0.72874  0.01417  1.0000
  H   H600      1.0  0.91145  0.93084  0.29406  1.0000
  C   C748      1.0  0.80529  0.68402  0.04838  1.0000
  S   S108      1.0  0.72687  0.67933  0.99634  1.0000
  C   C749      1.0  0.54224  0.49758  0.05686  1.0000
  Fe  Fe55      1.0  0.63402  0.71174  0.00535  1.0000
  C   C750      1.0  0.97925  0.96340  0.24769  1.0000
  C   C751      1.0  0.96584  0.76802  0.29283  1.0000
  C   C752      1.0  0.94576  0.90245  0.18710  1.0000
  C   C753      1.0  0.50865  0.61616  0.06594  1.0000
  C   C754      1.0  0.54145  0.71721  0.00105  1.0000
  H   H601      1.0  0.97551  0.97656  0.04577  1.0000
  C   C755      1.0  0.54546  0.53108  0.98830  1.0000
  H   H602      1.0  0.50839  0.74593  0.03264  1.0000
  C   C756      1.0  0.98102  0.89943  0.18018  1.0000
  H   H603      1.0  0.50010  0.68147  0.08928  1.0000
  C   C757      1.0  0.93619  0.94263  0.28734  1.0000
  C   C758      1.0  0.76070  0.72968  0.25419  1.0000
  H   H604      1.0  0.98742  0.96730  0.22385  1.0000
  H   H605      1.0  0.96338  0.96111  0.09982  1.0000
  H   H606      1.0  0.69292  0.75176  0.21736  1.0000
  C   C759      1.0  0.98330  0.95572  0.15588  1.0000
  C   C760      1.0  0.52624  0.59075  0.08090  1.0000
  H   H607      1.0  0.80167  0.69752  0.06926  1.0000
  H   H608      1.0  0.82443  0.72839  0.02229  1.0000
  H   H609      1.0  0.78475  0.58436  0.25763  1.0000
  H   H610      1.0  0.98072  0.77943  0.27317  1.0000
  C   C761      1.0  0.83245  0.58516  0.22873  1.0000
  H   H611      1.0  0.59349  0.52114  0.00613  1.0000
  C   C762      1.0  0.82022  0.68525  0.99394  1.0000
  C   C763      1.0  0.94777  0.95869  0.16207  1.0000
  C   C764      1.0  0.79577  0.64973  0.04798  1.0000
  H   H612      1.0  0.51439  0.65915  0.03403  1.0000
  C   C765      1.0  0.82968  0.96487  0.14773  1.0000
  H   H613      1.0  0.57546  0.56944  0.08731  1.0000
  H   H614      1.0  0.84309  0.56392  0.24071  1.0000
  H   H615      1.0  0.78519  0.63640  0.06864  1.0000
  C   C766      1.0  0.71610  0.73891  0.22205  1.0000
  H   H616      1.0  0.77191  0.73510  0.27456  1.0000
  C   C767      1.0  0.81783  0.70161  0.02156  1.0000
  C   C768      1.0  0.79960  0.59667  0.23827  1.0000
  C   C769      1.0  0.78588  0.62414  0.22290  1.0000
  C   C770      1.0  0.80506  0.64049  0.19796  1.0000
  C   C771      1.0  0.83794  0.62859  0.18835  1.0000
  P   P27       1.0  0.78674  0.67564  0.17815  1.0000
  C   C772      1.0  0.75903  0.65980  0.15224  1.0000
  C   C773      1.0  0.76380  0.70208  0.20600  1.0000
  C   C774      1.0  0.73286  0.71748  0.20076  1.0000
  C   C775      1.0  0.81021  0.99234  0.15902  1.0000
  C   C776      1.0  0.74999  0.68143  0.12878  1.0000
  C   C777      1.0  0.72914  0.66961  0.10812  1.0000
  C   C778      1.0  0.71737  0.63591  0.11052  1.0000
  C   C779      1.0  0.72628  0.61409  0.13380  1.0000
  C   C780      1.0  0.74697  0.62595  0.15466  1.0000
  C   C781      1.0  0.82035  0.70073  0.15674  1.0000
  C   C782      1.0  0.83427  0.69059  0.12803  1.0000
  C   C783      1.0  0.86051  0.70962  0.11146  1.0000
  C   C784      1.0  0.87334  0.73866  0.12358  1.0000
  C   C785      1.0  0.85979  0.74880  0.15216  1.0000
  C   C786      1.0  0.83318  0.73015  0.16854  1.0000
  H   H617      1.0  0.90209  0.93443  0.18547  1.0000
  C   C787      1.0  0.56286  0.63749  0.04075  1.0000
  C   C788      1.0  0.58010  0.61233  0.05579  1.0000
  H   H618      1.0  0.76033  0.63274  0.23051  1.0000
  H   H619      1.0  0.85324  0.64057  0.16915  1.0000
  H   H620      1.0  0.72202  0.71392  0.17997  1.0000
  C   C789      1.0  0.77749  0.70820  0.23300  1.0000
  H   H621      1.0  0.75917  0.70750  0.12654  1.0000
  H   H622      1.0  0.72216  0.68660  0.09014  1.0000
  C   C790      1.0  0.83509  0.98040  0.24544  1.0000
  H   H623      1.0  0.71707  0.58796  0.13562  1.0000
  H   H624      1.0  0.75351  0.60860  0.17244  1.0000
  H   H625      1.0  0.82479  0.66802  0.11843  1.0000
  H   H626      1.0  0.87083  0.70195  0.08919  1.0000
  H   H627      1.0  0.89359  0.75353  0.11079  1.0000
  H   H628      1.0  0.86942  0.77155  0.16150  1.0000
  H   H629      1.0  0.82247  0.73922  0.19013  1.0000
  H   H630      1.0  0.93132  0.88191  0.19962  1.0000
  H   H631      1.0  0.91901  0.79061  0.28169  1.0000
  S   S109      1.0  0.67888  0.74716  0.99084  1.0000
  H   H632      1.0  0.78264  0.99112  0.16101  1.0000
  H   H633      1.0  0.61655  0.57904  0.99355  1.0000
  C   C791      1.0  0.95649  0.95274  0.30904  1.0000
  H   H634      1.0  0.74433  0.79328  0.98347  1.0000
  C   C792      1.0  0.93091  0.77456  0.29775  1.0000
  C   C793      1.0  0.98157  0.74694  0.31310  1.0000
  H   H635      1.0  0.55432  0.50467  0.10205  1.0000
  C   C794      1.0  0.98814  0.96828  0.30013  1.0000
  C   C795      1.0  0.59139  0.57247  0.98813  1.0000
  C   C796      1.0  0.96218  0.99442  0.06090  1.0000
  C   C797      1.0  0.57813  0.53970  0.99527  1.0000
  Fe  Fe56      1.0  0.68859  0.69222  0.46603  1.0000
  S   S110      1.0  0.69857  0.70949  0.41581  1.0000
  S   S111      1.0  0.64590  0.65331  0.47707  1.0000
  C   C798      1.0  0.73108  0.73223  0.39181  1.0000
  C   C799      1.0  0.76299  0.73954  0.40076  1.0000
  C   C800      1.0  0.78798  0.75706  0.38065  1.0000
  C   C801      1.0  0.78160  0.76745  0.35128  1.0000
  C   C802      1.0  0.74975  0.75994  0.34227  1.0000
  C   C803      1.0  0.72476  0.74243  0.36239  1.0000
  H   H636      1.0  0.76848  0.73159  0.42313  1.0000
  H   H637      1.0  0.81243  0.76277  0.38797  1.0000
  C   C804      1.0  0.80714  0.62736  0.42807  1.0000
  H   H638      1.0  0.70023  0.73691  0.35513  1.0000
  C   C805      1.0  0.53570  0.67017  0.48611  1.0000
  H   H639      1.0  0.56017  0.66191  0.47542  1.0000
  Fe  Fe57      1.0  0.67900  0.62865  0.50937  1.0000
  S   S112      1.0  0.65822  0.66064  0.54825  1.0000
  S   S113      1.0  0.68077  0.57169  0.52352  1.0000
  S   S114      1.0  0.66777  0.72775  0.50239  1.0000
  Fe  Fe58      1.0  0.70019  0.69854  0.53315  1.0000
  S   S115      1.0  0.73945  0.71897  0.56323  1.0000
  Fe  Fe59      1.0  0.62731  0.68711  0.51493  1.0000
  S   S116      1.0  0.57102  0.69878  0.52982  1.0000
  S   S117      1.0  0.72315  0.66484  0.49576  1.0000
  C   C806      1.0  0.74440  0.74480  0.59493  1.0000
  C   C807      1.0  0.71724  0.76209  0.61074  1.0000
  C   C808      1.0  0.68681  0.50040  0.45826  1.0000
  H   H640      1.0  0.68181  0.50219  0.54511  1.0000
  S   S118      1.0  0.81409  0.79033  0.32736  1.0000
  C   C809      1.0  0.77705  0.74817  0.60441  1.0000
  H   H641      1.0  0.69198  0.75994  0.60390  1.0000
  C   C810      1.0  0.92689  0.73993  0.34399  1.0000
  H   H642      1.0  0.76081  0.75269  0.48472  1.0000
  H   H643      1.0  0.65397  0.83699  0.38624  1.0000
  P   P28       1.0  0.80574  0.57887  0.47595  1.0000
  C   C811      1.0  0.68269  0.53285  0.50398  1.0000
  C   C812      1.0  0.68399  0.53196  0.47259  1.0000
  C   C813      1.0  0.61736  0.74938  0.43096  1.0000
  H   H644      1.0  0.68317  0.55552  0.45932  1.0000
  C   C814      1.0  0.53398  0.68833  0.51266  1.0000
  C   C815      1.0  0.75725  0.64409  0.40443  1.0000
  H   H645      1.0  0.79836  0.73510  0.59248  1.0000
  H   H646      1.0  0.78034  0.84274  0.37177  1.0000
  C   C816      1.0  0.76474  0.58407  0.53103  1.0000
  C   C817      1.0  0.75182  0.60106  0.55689  1.0000
  C   C818      1.0  0.75202  0.60247  0.44615  1.0000
  C   C819      1.0  0.73712  0.62214  0.42449  1.0000
  C   C820      1.0  0.92282  0.57356  0.45697  1.0000
  H   H647      1.0  0.53441  0.56834  0.37025  1.0000
  C   C821      1.0  0.75541  0.78563  0.64491  1.0000
  C   C822      1.0  0.78725  0.60432  0.44761  1.0000
  C   C823      1.0  0.96189  0.73318  0.33898  1.0000
  H   H648      1.0  0.75290  0.56030  0.52623  1.0000
  H   H649      1.0  0.73043  0.59027  0.57161  1.0000
  H   H650      1.0  0.73602  0.58624  0.46213  1.0000
  H   H651      1.0  0.70982  0.62107  0.42369  1.0000
  H   H652      1.0  0.72369  0.77388  0.44725  1.0000
  C   C824      1.0  0.70480  0.81680  0.47321  1.0000
  C   C825      1.0  0.64237  0.77492  0.42728  1.0000
  H   H653      1.0  0.95033  0.57195  0.45247  1.0000
  C   C826      1.0  0.79695  0.51242  0.50003  1.0000
  H   H654      1.0  0.80730  0.66509  0.39152  1.0000
  C   C827      1.0  0.52713  0.53633  0.52904  1.0000
  H   H655      1.0  0.80740  0.52164  0.51958  1.0000
  C   C828      1.0  0.54607  0.58131  0.41434  1.0000
  C   C829      1.0  0.90761  0.58175  0.48565  1.0000
  H   H656      1.0  0.61755  0.72969  0.41453  1.0000
  C   C830      1.0  0.74654  0.79230  0.51586  1.0000
  C   C831      1.0  0.72592  0.82078  0.52193  1.0000
  C   C832      1.0  0.70492  0.83293  0.50077  1.0000
  C   C833      1.0  0.69977  0.83464  0.40849  1.0000
  C   C834      1.0  0.68157  0.83789  0.38336  1.0000
  H   H657      1.0  0.86083  0.58921  0.51412  1.0000
  C   C835      1.0  0.50182  0.69881  0.52614  1.0000
  C   C836      1.0  0.75272  0.84167  0.37513  1.0000
  C   C837      1.0  0.73551  0.83704  0.40419  1.0000
  H   H658      1.0  0.66174  0.77424  0.40805  1.0000
  H   H659      1.0  0.76241  0.78261  0.53247  1.0000
  H   H660      1.0  0.72580  0.83293  0.54334  1.0000
  H   H661      1.0  0.68844  0.85439  0.50628  1.0000
  C   C838      1.0  0.78255  0.76833  0.62912  1.0000
  C   C839      1.0  0.80402  0.63091  0.51677  1.0000
  H   H662      1.0  0.55000  0.59232  0.46065  1.0000
  H   H663      1.0  0.75028  0.83549  0.42310  1.0000
  C   C840      1.0  0.55664  0.51869  0.51777  1.0000
  C   C841      1.0  0.63742  0.94047  0.46133  1.0000
  C   C842      1.0  0.59315  0.74833  0.45642  1.0000
  C   C843      1.0  0.58685  0.53725  0.50911  1.0000
  C   C844      1.0  0.58800  0.57244  0.51307  1.0000
  C   C845      1.0  0.55882  0.58964  0.52504  1.0000
  H   H664      1.0  0.70145  0.79537  0.64736  1.0000
  C   C846      1.0  0.52588  0.56723  0.39422  1.0000
  H   H665      1.0  0.71088  0.89473  0.45652  1.0000
  P   P29       1.0  0.67705  0.83106  0.44601  1.0000
  C   C847      1.0  0.68387  0.89990  0.45700  1.0000
  C   C848      1.0  0.67206  0.93322  0.46135  1.0000
  H   H666      1.0  0.61166  0.58639  0.50699  1.0000
  H   H667      1.0  0.55985  0.61698  0.52811  1.0000
  H   H668      1.0  0.57608  0.77084  0.49868  1.0000
  H   H669      1.0  0.83401  0.63067  0.42973  1.0000
  C   C849      1.0  0.72275  0.78225  0.63546  1.0000
  H   H670      1.0  0.60975  0.52441  0.49965  1.0000
  C   C850      1.0  0.74582  0.77558  0.48885  1.0000
  C   C851      1.0  0.97832  0.94433  0.64914  1.0000
  C   C852      1.0  0.68294  0.50179  0.52083  1.0000
  C   C853      1.0  0.79117  0.59872  0.51092  1.0000
  H   H671      1.0  0.57420  0.72815  0.45959  1.0000
  C   C854      1.0  0.64311  0.79988  0.44893  1.0000
  C   C855      1.0  0.72487  0.78765  0.46768  1.0000
  H   H672      1.0  0.97335  0.71733  0.35532  1.0000
  C   C856      1.0  0.61920  0.79813  0.47485  1.0000
  C   C857      1.0  0.87210  0.58364  0.49156  1.0000
  C   C858      1.0  0.59413  0.77262  0.47841  1.0000
  H   H673      1.0  0.74558  0.65956  0.38784  1.0000
  C   C859      1.0  0.90252  0.56703  0.43421  1.0000
  H   H674      1.0  0.88429  0.76582  0.32716  1.0000
  C   C860      1.0  0.85159  0.57784  0.46861  1.0000
  C   C861      1.0  0.76513  0.63280  0.56282  1.0000
  H   H675      1.0  0.75433  0.64655  0.58230  1.0000
  H   H676      1.0  0.50733  0.64957  0.45232  1.0000
  H   H677      1.0  0.91426  0.56025  0.41208  1.0000
  C   C862      1.0  0.73448  0.84403  0.35019  1.0000
  H   H678      1.0  0.85152  0.56333  0.42233  1.0000
  H   H679      1.0  0.60839  0.86154  0.44800  1.0000
  H   H680      1.0  0.62039  0.81599  0.49263  1.0000
  H   H681      1.0  0.94753  0.94867  0.33277  1.0000
  C   C863      1.0  0.86701  0.56893  0.44004  1.0000
  H   H682      1.0  0.80048  0.67296  0.54690  1.0000
  C   C864      1.0  0.79213  0.64704  0.40644  1.0000
  C   C865      1.0  0.66101  0.87349  0.45299  1.0000
  C   C866      1.0  0.79126  0.64769  0.54279  1.0000
  C   C867      1.0  0.52831  0.57166  0.53271  1.0000
  H   H683      1.0  0.82321  0.64349  0.50082  1.0000
  C   C868      1.0  0.62635  0.88110  0.45233  1.0000
  C   C869      1.0  0.50324  0.56580  0.45597  1.0000
  H   H684      1.0  0.77673  0.53837  0.43055  1.0000
  C   C870      1.0  0.79211  0.53490  0.47567  1.0000
  H   H685      1.0  0.91167  0.72934  0.36392  1.0000
  H   H686      1.0  0.58783  0.92016  0.45624  1.0000
  C   C871      1.0  0.50567  0.66310  0.47310  1.0000
  C   C872      1.0  0.69891  0.84222  0.35429  1.0000
  H   H687      1.0  0.92333  0.58637  0.50342  1.0000
  C   C873      1.0  0.61461  0.91444  0.45673  1.0000
  H   H688      1.0  0.74421  0.76802  0.31997  1.0000
  H   H689      1.0  0.57028  0.59327  0.40604  1.0000
  H   H690      1.0  0.68985  0.95350  0.46442  1.0000
  C   C874      1.0  0.53472  0.58064  0.44516  1.0000
  H   H691      1.0  0.92936  0.96463  0.64072  1.0000
  H   H692      1.0  0.53796  0.50333  0.45699  1.0000
  H   H693      1.0  0.78507  0.88048  0.64324  1.0000
  H   H694      1.0  0.68484  0.84411  0.33490  1.0000
  H   H695      1.0  0.80784  0.77056  0.63587  1.0000
  C   C875      1.0  0.91139  0.76053  0.32333  1.0000
  H   H696      1.0  0.74808  0.84687  0.32767  1.0000
  H   H697      1.0  0.50550  0.58530  0.54123  1.0000
  H   H698      1.0  0.50014  0.71286  0.54666  1.0000
  H   H699      1.0  0.62833  0.96634  0.46451  1.0000
  H   H700      1.0  0.68875  0.50004  0.43391  1.0000
  H   H701      1.0  0.66291  0.51454  0.63972  1.0000
  H   H702      1.0  0.71895  0.50590  0.60976  1.0000
  C   C876      1.0  0.77981  0.52199  0.45006  1.0000
  H   H703      1.0  0.50310  0.52326  0.53464  1.0000
  H   H704      1.0  0.99236  0.96251  0.63360  1.0000
  Fe  Fe60      1.0  0.69831  0.70481  0.96073  1.0000
  S   S119      1.0  0.72587  0.70839  0.91230  1.0000
  C   C877      1.0  0.94096  0.89891  0.69014  1.0000
  Fe  Fe61      1.0  0.80141  0.82881  0.70634  1.0000
  S   S120      1.0  0.78230  0.86885  0.73933  1.0000
  C   C878      1.0  0.73401  0.73689  0.75304  1.0000
  Fe  Fe62      1.0  0.87195  0.82917  0.73063  1.0000
  S   S121      1.0  0.85669  0.86824  0.76534  1.0000
  S   S122      1.0  0.92547  0.80650  0.71996  1.0000
  Fe  Fe63      1.0  0.80721  0.83819  0.77449  1.0000
  S   S123      1.0  0.77650  0.83425  0.82171  1.0000
  Fe  Fe64      1.0  0.83247  0.89609  0.72841  1.0000
  S   S124      1.0  0.84249  0.95252  0.71404  1.0000
  S   S125      1.0  0.82408  0.79689  0.74224  1.0000
  S   S126      1.0  0.85015  0.85840  0.69283  1.0000
  C   C879      1.0  0.96434  0.81842  0.73353  1.0000
  C   C880      1.0  0.96523  0.84106  0.75693  1.0000
  H   H705      1.0  0.62349  0.77409  0.75814  1.0000
  H   H706      1.0  0.94163  0.85137  0.76763  1.0000
  C   C881      1.0  0.74359  0.73646  0.72177  1.0000
  S   S127      1.0  0.76052  0.81172  0.67639  1.0000
  C   C882      1.0  0.74615  0.94171  0.78540  1.0000
  P   P30       1.0  0.69201  0.75140  0.76735  1.0000
  H   H707      1.0  0.81249  0.96899  0.77519  1.0000
  H   H708      1.0  0.51312  0.66843  0.94733  1.0000
  C   C883      1.0  0.73990  0.74395  0.88773  1.0000
  C   C884      1.0  0.72685  0.77687  0.89189  1.0000
  C   C885      1.0  0.73821  0.80401  0.87140  1.0000
  C   C886      1.0  0.76269  0.79872  0.84643  1.0000
  C   C887      1.0  0.77570  0.76580  0.84224  1.0000
  C   C888      1.0  0.76418  0.73861  0.86260  1.0000
  H   H709      1.0  0.70799  0.78142  0.91090  1.0000
  H   H710      1.0  0.72796  0.82932  0.87500  1.0000
  H   H711      1.0  0.79481  0.76136  0.82340  1.0000
  H   H712      1.0  0.77438  0.71330  0.85900  1.0000
  C   C889      1.0  0.75799  0.72768  0.77269  1.0000
  H   H713      1.0  0.78342  0.72590  0.68621  1.0000
  C   C890      1.0  0.67969  0.69641  0.84783  1.0000
  C   C891      1.0  0.66033  0.71825  0.86700  1.0000
  C   C892      1.0  0.64954  0.74963  0.85578  1.0000
  C   C893      1.0  0.65874  0.75954  0.82551  1.0000
  C   C894      1.0  0.67971  0.73850  0.80643  1.0000
  C   C895      1.0  0.66572  0.70363  0.73114  1.0000
  H   H714      1.0  0.69784  0.89610  0.75036  1.0000
  C   C896      1.0  0.68691  0.81280  0.73456  1.0000
  C   C897      1.0  0.70352  0.81774  0.78470  1.0000
  C   C898      1.0  0.68883  0.70618  0.81752  1.0000
  C   C899      1.0  0.79041  0.71646  0.76126  1.0000
  C   C900      1.0  0.64095  0.69086  0.71453  1.0000
  C   C901      1.0  0.83377  0.68375  0.92663  1.0000
  H   H715      1.0  0.82485  0.63621  0.85298  1.0000
  H   H716      1.0  0.68819  0.67222  0.85678  1.0000
  H   H717      1.0  0.65411  0.71100  0.89069  1.0000
  H   H718      1.0  0.63443  0.76644  0.87072  1.0000
  H   H719      1.0  0.64975  0.78378  0.81723  1.0000
  C   C902      1.0  0.72438  0.95657  0.80814  1.0000
  H   H720      1.0  0.68324  0.85999  0.70907  1.0000
  H   H721      1.0  0.68155  0.79746  0.71598  1.0000
  H   H722      1.0  0.68929  0.68969  0.73194  1.0000
  C   C903      1.0  0.66002  0.73418  0.74640  1.0000
  H   H723      1.0  0.95488  0.91301  0.76045  1.0000
  H   H724      1.0  0.75198  0.72973  0.79677  1.0000
  C   C904      1.0  0.79024  0.93093  0.65998  1.0000
  H   H725      1.0  0.70352  0.68874  0.80295  1.0000
  C   C905      1.0  0.79941  0.71519  0.73010  1.0000
  H   H726      1.0  0.65936  0.94841  0.73581  1.0000
  C   C906      1.0  0.77609  0.72548  0.71038  1.0000
  H   H727      1.0  0.92649  0.88138  0.70612  1.0000
  H   H728      1.0  0.76302  0.94100  0.73811  1.0000
  C   C907      1.0  0.92405  0.92291  0.67348  1.0000
  H   H729      1.0  0.84030  0.75858  0.90917  1.0000
  C   C908      1.0  0.68794  0.84836  0.73052  1.0000
  H   H730      1.0  0.82485  0.70749  0.72123  1.0000
  H   H731      1.0  0.59835  0.95014  0.72899  1.0000
  H   H732      1.0  0.80891  0.70982  0.77656  1.0000
  C   C909      1.0  0.92631  0.95585  0.74564  1.0000
  H   H733      1.0  0.90360  0.94085  0.74392  1.0000
  C   C910      1.0  0.95518  0.94015  0.75499  1.0000
  C   C911      1.0  0.72040  0.92645  0.67913  1.0000
  C   C912      1.0  0.73710  0.89968  0.66367  1.0000
  C   C913      1.0  0.85893  0.66298  0.87842  1.0000
  C   C914      1.0  0.60390  0.73805  0.72934  1.0000
  H   H734      1.0  0.71101  0.80627  0.80534  1.0000
  H   H735      1.0  0.72622  0.74525  0.70610  1.0000
  C   C915      1.0  0.62867  0.75095  0.74588  1.0000
  C   C916      1.0  0.70427  0.85330  0.78071  1.0000
  C   C917      1.0  0.69624  0.86865  0.75371  1.0000
  C   C918      1.0  0.69377  0.79728  0.76203  1.0000
  C   C919      1.0  0.82747  0.64920  0.87359  1.0000
  C   C920      1.0  0.80228  0.67015  0.92141  1.0000
  C   C921      1.0  0.65057  0.96707  0.71999  1.0000
  C   C922      1.0  0.54248  0.69511  0.97705  1.0000
  C   C923      1.0  0.81984  0.76624  0.92584  1.0000
  S   S128      1.0  0.65161  0.67108  0.97284  1.0000
  H   H736      1.0  0.71235  0.86875  0.79824  1.0000
  H   H737      1.0  0.72551  0.94862  0.83151  1.0000
  C   C924      1.0  0.81156  0.74656  0.95264  1.0000
  H   H738      1.0  0.70037  0.57455  0.96736  1.0000
  H   H739      1.0  0.80746  0.81050  0.89913  1.0000
  H   H740      1.0  0.78850  0.97955  0.68057  1.0000
  C   C925      1.0  0.69598  0.51940  0.96700  1.0000
  C   C926      1.0  0.51197  0.68490  0.96629  1.0000
  H   H741      1.0  0.81753  0.93223  0.65350  1.0000
  C   C927      1.0  0.86209  0.68041  0.90476  1.0000
  C   C928      1.0  0.77452  0.80582  0.94106  1.0000
  H   H742      1.0  0.77988  0.67356  0.93750  1.0000
  C   C929      1.0  0.89026  0.75361  0.96402  1.0000
  C   C930      1.0  0.74522  0.95221  0.75523  1.0000
  H   H743      1.0  0.76419  0.92232  0.79117  1.0000
  H   H744      1.0  0.57990  0.75129  0.72874  1.0000
  C   C931      1.0  0.53979  0.58863  0.96713  1.0000
  C   C932      1.0  0.57223  0.59694  0.97414  1.0000
  H   H745      1.0  0.69356  0.92375  0.68680  1.0000
  C   C933      1.0  0.80145  0.79580  0.92014  1.0000
  C   C934      1.0  0.61596  0.96790  0.71614  1.0000
  C   C935      1.0  0.97653  0.89746  0.68625  1.0000
  H   H746      1.0  0.87249  0.77437  0.96200  1.0000
  H   H747      1.0  0.59106  0.69831  0.70047  1.0000
  H   H748      1.0  0.88072  0.66076  0.86146  1.0000
  C   C936      1.0  0.79915  0.65285  0.89508  1.0000
  H   H749      1.0  0.68492  0.99367  0.81844  1.0000
  C   C937      1.0  0.78386  0.75632  0.97310  1.0000
  H   H750      1.0  0.77441  0.64318  0.89112  1.0000
  C   C938      1.0  0.69220  0.55154  0.98034  1.0000
  C   C939      1.0  0.61013  0.70814  0.71350  1.0000
  C   C940      1.0  0.73862  0.95571  0.68522  1.0000
  C   C941      1.0  0.94269  0.94585  0.65324  1.0000
  C   C942      1.0  0.70016  0.99205  0.77053  1.0000
  C   C943      1.0  0.77363  0.95779  0.67534  1.0000
  H   H751      1.0  0.56679  0.68629  0.96654  1.0000
  C   C944      1.0  0.81673  0.99253  0.76191  1.0000
  H   H752      1.0  0.70712  0.51804  0.94377  1.0000
  H   H753      1.0  0.75987  0.82837  0.93637  1.0000
  C   C945      1.0  0.98439  0.95945  0.75728  1.0000
  H   H754      1.0  0.89648  0.92382  0.67642  1.0000
  H   H755      1.0  0.88636  0.69189  0.90753  1.0000
  H   H756      1.0  0.64573  0.66760  0.70235  1.0000
  H   H757      1.0  0.50126  0.55012  0.96841  1.0000
  C   C946      1.0  0.76567  0.78601  0.96747  1.0000
  P   P31       1.0  0.71839  0.98860  0.70839  1.0000
  C   C947      1.0  0.67362  0.98997  0.70339  1.0000
  C   C948      1.0  0.52643  0.55585  0.97411  1.0000
  C   C949      1.0  0.70153  0.98190  0.80073  1.0000
  H   H758      1.0  0.58253  0.62239  0.96884  1.0000
  H   H759      1.0  0.52494  0.60768  0.95633  1.0000
  C   C950      1.0  0.72178  0.97700  0.74749  1.0000
  C   C951      1.0  0.98468  0.99459  0.75041  1.0000
  C   C952      1.0  0.87969  0.71944  0.96346  1.0000
  H   H760      1.0  0.81425  0.63668  0.97320  1.0000
  P   P32       1.0  0.83610  0.70871  0.95950  1.0000
  C   C953      1.0  0.83149  0.99155  0.73194  1.0000
  H   H761      1.0  0.98930  0.87890  0.69953  1.0000
  C   C954      1.0  0.92666  0.99083  0.73831  1.0000
  C   C955      1.0  0.77203  0.90181  0.65429  1.0000
  H   H762      1.0  0.72332  0.87669  0.65960  1.0000
  H   H763      1.0  0.93214  0.78774  0.96787  1.0000
  C   C956      1.0  0.92410  0.76132  0.96756  1.0000
  H   H764      1.0  0.57723  0.99216  0.69268  1.0000
  C   C957      1.0  0.60406  0.99156  0.69568  1.0000
  H   H765      1.0  0.99493  0.78703  0.70236  1.0000
  C   C958      1.0  0.94748  0.73505  0.97083  1.0000
  H   H766      1.0  0.95506  0.68062  0.97347  1.0000
  H   H767      1.0  0.89525  0.66668  0.96735  1.0000
  C   C959      1.0  0.90317  0.69318  0.96721  1.0000
  H   H768      1.0  0.97368  0.74110  0.97357  1.0000
  C   C960      1.0  0.93699  0.70098  0.97074  1.0000
