data_image0
_chemical_formula_structural       CSHSCHPFeSCSFeSHFeS3H2C2FeS2FeS2FeSFeS3FeSCSFeSFeCHC4H2C5H2C2HC6HC6H4CFeCHC2H2C8H4C6H7C2HCHC3H2C5PCHCHC2HCHCHC2H4CHC2HC7PC7HC5SH4FeH5C2HC3HPCH2CHCHC3HSH2CH3CH2CHC6HCH4C2HC5SC6H4FeCH5C2HPCH3C2HC6HCH9CH2CH4CSCHCHCHC2PC4H2C12H4C2H9CHC6PC19HCH9CH9C2HCHCHCHC4H3SC4H2CHCFeHCHCH2C2HFeH2C2H2SCHSHSH6C2SCHC2H4SCH2C5HCH2C3HC3H2C2PH3C2H3SHC4HC2HC5H2CHCH2C2H3C4H2C3H4CHCHC2HCH2C2PHC3HC2HFeSCFeS2FeSFeS2C2SC3HC2HC3HSC2SHC2H3C3HCHC3HSH3CHCHC2HCHC6H4C6H5CHCHCHC4HCHCHCFeC9PC4H2C8HCH5PCH7CHC2PC2SH2C2HSHC3HCHCH4CH2CHCH2C5SH2C2HCH2CHCHCH2C2H3C2HCHC3H2C3HCHCHCH3C3PH2C2HC2H2C2H2CS2C3FeCSFeCSHSCS2C3H2CH2C5H2C2HCPC2H3C3HCHCHCH2C2H3C8H2CHC6HC3HC6SHC2FeCH4C3HCSH2CHCH2CH3CH3FeHC2HCHC6HC5H3C2H2SHC2HC6PC2HC9H6SH6CH2C3SCH4C2HCH3C4PH2CH2CH3C3HPC6HFeC2H3CH2CH3C3HC2H3SCSFe2HC3HC2FeCHSFeCHCH3SH4CH4C2H2CH3C5H4CHCH2C3FeH4S2PFeCHC2SHCHC3H2C2H2SFeHSCS2C3SHCSPH2CH4C2SHC3H4C3HSH2C2HC3HSCH2CFeCHC3HC6HCH4C2H2C3HSHC5H2CHC2HC5H2CH3C2H4CSC3PH2SH3FeH3C2SC3H3CPH2SHSCPHCSPFeHCSC4H2CHC3HCSFeHCHCH2FeH2CSH2CH4C7PC16H8CH2CH6C6FeC2HSC2HCHC2HCHCH3CH3CSHC3H2CH2C2SHCHSCSC5SC6HC3H3CHCHC2Fe2H5CHCHC2HC3PC4SC2SHPHCSHCHSC7FeCHFeC2SHCH2C2H2CHSHSCH2C2HC2HC2H2CFeCHFeHCHC2H2SCSFeCHC2H2Fe2C6H3SHCHCHFeSC5HFeHCH3C2HC3HCH3CHCHCH2C2HC2H3CHSCH2C2HCHC2SCH4CFeSFeSFeSFeS4C3H4C3HC2H4CHFeC2H2C4PHC5HC7HFeH4C4HSCHC6HCHC6H3CHCH2C9H10FeC2H3CHC2HCHCHSCHSC2H3C4PC7H2C4H14SCH2CH2C2H2C3H2PC9HC3H6CSC2H2C2HCSC2HCHCHC3HC2HC5S2CHC2HC4H2C2H3PCHSHC5HC2HCH2CHC2FeHCFeH6CH3C4HC2HC3PCH3PHC3HCHC3SC3H3C3HCH3CSCPH3CHCHSFeCH3C2HCHCFeHSFeS2FeC2S2FeS2FeS2FeSFeS3FeS2FeS2Fe2S3C6H4C6H4C6H4C6H4C7H4C6H5C5H2SCH2C2H6CHC2HC2H2C4H2CSCH2CHC3H2C7H5SHC2H3C5SH3CH2PHC2H2C3HCHC7H7C4H3C2HC3H2C4H2C7FeH5CHC5H5C4PC7HC10H2CHCH3C2PH4CH4C7H8C2HCHC2HCHC4HC3HC4SC9H3PC2HPCHCHPC3H2CH2CHC4S2CHC2H4C4H2CHCHCH3C2HCH5C3PC2H2C2SH7C3HC3H4FeCHC3HC3S2PC4HSH2CHCHSCHCHC3H2CH2C2HCH2CH3C2H2CSC2H6C4HFeC4HFeC3HC4PHSCHCH2C3HC4H2CFeCH6CH3CH2CH3CHC3FeSHFeS2FeSFeS3HFe2S2FeHFeS3FeS2FeSCFeSFeS3HSHC2HPH2FeC8H4C6H2CH2CHCHC7H4C4HFeH2C2HFeCHC3H3C3HC2PCHC2HCH3C3HC5H3C7H4FeC4PC9H12C3H2PC4HC5HSHCHC2HC2H4CHCHCHCH2FeSCHC2HC2SCHC7HC3H2CS2C2H4C2H2C2H4CHCHC2HSC2HC2HCH4C2SC2H2C3HCH3C4HS2CHCHSHC4HSHCH6CHC4HC2H2PH2CHC2HCH2C3H2C2HC8HC4H2C4HCH2CHCHCHCH4CHC4H2C2PC2H2C3HC2H2C2H2SC3SH2C2H5SCH4CHFeH2FeCSHC2S3FeS2FeS2FeSFeHS2C3HC5H2C2PC3H2CH3CHC7H7C2HC3H3CSC2SC4H2C2HCFeC7HC2HCH3C2HC2H4C2HC2H2C2H2PCH2C3HC2PC2SCFeH2C3H4PHC9H3CH3CH2CHCSHCHCHCHCHC2H2C3HCH8C2HC2H5CHC3SCHC5HC3H2C2HCHC2HSH2CHCHCH4C2H2C3H2FeC2SCH2FeHCH2FeHCSH2CFeS2FeS2FeCFeS3FeS2FeS2FeSFeHS2FeS2FeSFeSFeS3C6H3CHC5SC6SH3CH2PC2H3C6H4C6H5C2HCH4C3HC4HC2SC2FeHC3H2CH4CH2C6PC3HC10H3CH7CH3CH3SCHC6PC5HC12H2CSH2CHCH3CFeH6CFeC2HCPC11HC6HCHCH8CH6PC13SH2CH11C2HCH3C4HC3PSH2PCHC2H6CH2SCHSHCHC3SC4H4CH4C2H2C3H2CH2C5H2C4H2CH2CH2C2H3C3H3CH2C3H2C2HPHC4H2C6H3CH4C10HC3H2C5H3CHC2HCHS2HSC2SHSFeSC2HCHCH2C2H3CH4C3H3SHC3HCHFeCHC4SH2CH2CH2C2HC2H3C2H2PCHCHCSFe2CHFeC5HC2H2CHCH4SC3H2C3H2CHCSHCFeHC2H2SCH2SC6HCH2C2HC4HC3HFeCFeHPCH2CPHSHCH8C2SH3C2H2SFeC2SCH3C5H2CH2C6H2C2HSCHC3HCH2PH4C2HCFeCH3C6HC2SC2H3C2HCHCH3C3HC2HC3
_chemical_formula_sum              "C1920 S256 H1536 P64 Fe128"
_cell_length_a       69.0818
_cell_length_b       69.1167
_cell_length_c       32.5103
_cell_angle_alpha    78.9595
_cell_angle_beta     77.5414
_cell_angle_gamma    76.3884

_space_group_name_H-M_alt    "P 1"
_space_group_IT_number       1

loop_
  _space_group_symop_operation_xyz
  'x, y, z'

loop_
  _atom_site_type_symbol
  _atom_site_label
  _atom_site_symmetry_multiplicity
  _atom_site_fract_x
  _atom_site_fract_y
  _atom_site_fract_z
  _atom_site_occupancy
  C   C1        1.0  0.00412  0.01323  0.09870  1.0000
  S   S1        1.0  0.27451  0.15504  0.21547  1.0000
  H   H1        1.0  0.02055  0.19540  0.27702  1.0000
  S   S2        1.0  0.23696  0.15912  0.29754  1.0000
  C   C2        1.0  0.09809  0.17134  0.45331  1.0000
  H   H2        1.0  0.22111  0.01699  0.04183  1.0000
  P   P1        1.0  0.12312  0.07353  0.63896  1.0000
  Fe  Fe1       1.0  0.25119  0.13745  0.25107  1.0000
  S   S3        1.0  0.25615  0.10489  0.27770  1.0000
  C   C3        1.0  0.23025  0.01475  0.06622  1.0000
  S   S4        1.0  0.22921  0.14983  0.20651  1.0000
  Fe  Fe2       1.0  0.30204  0.13048  0.49095  1.0000
  S   S5        1.0  0.29956  0.11997  0.56124  1.0000
  H   H3        1.0  0.07241  0.17636  0.15227  1.0000
  Fe  Fe3       1.0  0.30029  0.09000  0.54370  1.0000
  S   S6        1.0  0.28298  0.06864  0.58918  1.0000
  S   S7        1.0  0.30018  0.10106  0.47398  1.0000
  S   S8        1.0  0.06685  0.04758  0.29652  1.0000
  H   H4        1.0  0.00315  0.13586  0.12813  1.0000
  H   H5        1.0  0.09789  0.04279  0.42518  1.0000
  C   C4        1.0  0.14122  0.08661  0.64841  1.0000
  C   C5        1.0  0.16518  0.02207  0.61711  1.0000
  Fe  Fe4       1.0  0.16544  0.09612  0.45065  1.0000
  S   S9        1.0  0.15476  0.07519  0.50853  1.0000
  S   S10       1.0  0.14915  0.12848  0.44102  1.0000
  Fe  Fe5       1.0  0.19733  0.06272  0.41382  1.0000
  S   S11       1.0  0.18914  0.03884  0.46773  1.0000
  S   S12       1.0  0.22138  0.05712  0.35665  1.0000
  Fe  Fe6       1.0  0.15721  0.05388  0.46291  1.0000
  S   S13       1.0  0.13289  0.03694  0.46512  1.0000
  Fe  Fe7       1.0  0.18774  0.06218  0.50817  1.0000
  S   S14       1.0  0.19959  0.05210  0.56940  1.0000
  S   S15       1.0  0.16532  0.07589  0.40504  1.0000
  S   S16       1.0  0.19831  0.08503  0.45465  1.0000
  Fe  Fe8       1.0  0.05023  0.07778  0.31443  1.0000
  S   S17       1.0  0.07648  0.09290  0.28738  1.0000
  C   C6        1.0  0.27282  0.04626  0.15770  1.0000
  S   S18       1.0  0.08231  0.07219  0.20244  1.0000
  Fe  Fe9       1.0  0.09214  0.06357  0.26565  1.0000
  S   S19       1.0  0.12465  0.05157  0.27193  1.0000
  Fe  Fe10      1.0  0.06394  0.10028  0.22688  1.0000
  C   C7        1.0  0.06359  0.13960  0.31360  1.0000
  H   H6        1.0  0.01457  0.02377  0.51957  1.0000
  C   C8        1.0  0.12676  0.04578  0.32588  1.0000
  C   C9        1.0  0.13039  0.03898  0.41194  1.0000
  C   C10       1.0  0.14763  0.03835  0.38019  1.0000
  C   C11       1.0  0.14589  0.04119  0.33728  1.0000
  H   H7        1.0  0.16235  0.03589  0.38880  1.0000
  H   H8        1.0  0.15936  0.04022  0.31311  1.0000
  C   C12       1.0  0.27180  0.00202  0.37396  1.0000
  C   C13       1.0  0.27227  0.01509  0.33553  1.0000
  C   C14       1.0  0.25672  0.03193  0.33075  1.0000
  C   C15       1.0  0.24107  0.03633  0.36488  1.0000
  C   C16       1.0  0.25617  0.00624  0.40836  1.0000
  H   H9        1.0  0.28459  0.01215  0.30934  1.0000
  H   H10       1.0  0.25695  0.04167  0.30059  1.0000
  C   C17       1.0  0.24098  0.02363  0.40402  1.0000
  C   C18       1.0  0.03046  0.13251  0.15314  1.0000
  H   H11       1.0  0.16660  0.00154  0.57386  1.0000
  C   C19       1.0  0.15441  0.03963  0.63333  1.0000
  C   C20       1.0  0.11130  0.04231  0.40077  1.0000
  C   C21       1.0  0.02709  0.15261  0.36713  1.0000
  C   C22       1.0  0.13701  0.09717  0.68325  1.0000
  C   C23       1.0  0.10945  0.04620  0.35768  1.0000
  C   C24       1.0  0.10881  0.08936  0.60010  1.0000
  H   H12       1.0  0.16052  0.04513  0.65583  1.0000
  C   C25       1.0  0.25974  0.06503  0.58174  1.0000
  C   C26       1.0  0.25006  0.07607  0.54832  1.0000
  C   C27       1.0  0.23164  0.07210  0.54341  1.0000
  C   C28       1.0  0.22287  0.05735  0.57240  1.0000
  C   C29       1.0  0.23253  0.04661  0.60585  1.0000
  C   C30       1.0  0.25094  0.05032  0.61029  1.0000
  H   H13       1.0  0.25679  0.08755  0.52637  1.0000
  H   H14       1.0  0.22421  0.08055  0.51762  1.0000
  H   H15       1.0  0.22585  0.03522  0.62828  1.0000
  H   H16       1.0  0.25841  0.04174  0.63604  1.0000
  C   C31       1.0  0.15983  0.08629  0.62049  1.0000
  Fe  Fe11      1.0  0.25818  0.17816  0.25730  1.0000
  C   C32       1.0  0.28315  0.15723  0.38967  1.0000
  H   H17       1.0  0.00821  0.10727  0.33667  1.0000
  C   C33       1.0  0.01395  0.02107  0.20776  1.0000
  C   C34       1.0  0.26529  0.98863  0.25520  1.0000
  H   H18       1.0  0.27787  0.15568  0.32743  1.0000
  H   H19       1.0  0.28379  0.14140  0.40088  1.0000
  C   C35       1.0  0.01469  0.00657  0.29384  1.0000
  C   C36       1.0  0.19098  0.22202  0.17803  1.0000
  C   C37       1.0  0.31156  0.06009  0.22633  1.0000
  C   C38       1.0  0.30701  0.07929  0.20279  1.0000
  C   C39       1.0  0.29034  0.09365  0.21862  1.0000
  C   C40       1.0  0.27822  0.08858  0.25789  1.0000
  C   C41       1.0  0.28304  0.06958  0.28152  1.0000
  C   C42       1.0  0.29953  0.05529  0.26563  1.0000
  H   H20       1.0  0.01359  0.02669  0.17463  1.0000
  H   H21       1.0  0.28661  0.10834  0.20011  1.0000
  H   H22       1.0  0.27374  0.06582  0.31201  1.0000
  H   H23       1.0  0.30267  0.04045  0.28347  1.0000
  C   C43       1.0  0.17356  0.16691  0.31840  1.0000
  C   C44       1.0  0.18240  0.14642  0.32638  1.0000
  C   C45       1.0  0.17435  0.13419  0.36296  1.0000
  C   C46       1.0  0.15816  0.14267  0.39255  1.0000
  C   C47       1.0  0.14931  0.16308  0.38419  1.0000
  C   C48       1.0  0.15671  0.17505  0.34691  1.0000
  H   H24       1.0  0.19534  0.13996  0.30429  1.0000
  H   H25       1.0  0.18104  0.11835  0.36892  1.0000
  H   H26       1.0  0.13689  0.16976  0.40685  1.0000
  H   H27       1.0  0.03667  0.18553  0.14559  1.0000
  H   H28       1.0  0.01274  0.04093  0.36496  1.0000
  H   H29       1.0  0.16329  0.07848  0.59317  1.0000
  H   H30       1.0  0.30053  0.14449  0.11883  1.0000
  C   C49       1.0  0.10607  0.06811  0.68828  1.0000
  C   C50       1.0  0.99626  0.11764  0.45355  1.0000
  H   H31       1.0  0.18517  0.17330  0.41190  1.0000
  C   C51       1.0  0.19707  0.18188  0.40431  1.0000
  H   H32       1.0  0.14330  0.17693  0.53354  1.0000
  C   C52       1.0  0.03532  0.03409  0.08919  1.0000
  C   C53       1.0  0.04520  0.14265  0.29957  1.0000
  C   C54       1.0  0.28481  0.18379  0.09461  1.0000
  H   H33       1.0  0.00729  0.18051  0.12830  1.0000
  H   H34       1.0  0.18750  0.00421  0.22418  1.0000
  C   C55       1.0  0.04565  0.08570  0.03669  1.0000
  C   C56       1.0  0.06267  0.09354  0.03591  1.0000
  C   C57       1.0  0.06712  0.09655  0.07385  1.0000
  C   C58       1.0  0.05473  0.09147  0.11256  1.0000
  C   C59       1.0  0.03764  0.08380  0.11350  1.0000
  P   P2        1.0  0.01014  0.07218  0.07667  1.0000
  C   C60       1.0  0.27591  0.99650  0.52965  1.0000
  H   H35       1.0  0.31625  0.08290  0.17225  1.0000
  C   C61       1.0  0.08920  0.08284  0.70161  1.0000
  H   H36       1.0  0.05188  0.15852  0.04159  1.0000
  C   C62       1.0  0.09655  0.04533  0.75253  1.0000
  C   C63       1.0  0.17423  0.09586  0.62769  1.0000
  H   H37       1.0  0.27527  0.07606  0.45981  1.0000
  C   C64       1.0  0.02797  0.02583  0.22740  1.0000
  H   H38       1.0  0.04749  0.04179  0.08741  1.0000
  C   C65       1.0  0.99990  0.00966  0.23121  1.0000
  H   H39       1.0  0.02480  0.12457  0.18364  1.0000
  C   C66       1.0  0.15137  0.10696  0.69017  1.0000
  C   C67       1.0  0.08135  0.19373  0.39891  1.0000
  H   H40       1.0  0.04239  0.08346  0.00705  1.0000
  H   H41       1.0  0.07224  0.09754  0.00587  1.0000
  H   H42       1.0  0.08004  0.10298  0.07343  1.0000
  H   H43       1.0  0.05805  0.09391  0.14192  1.0000
  C   C68       1.0  0.10970  0.04934  0.71413  1.0000
  H   H44       1.0  0.08625  0.09752  0.68246  1.0000
  C   C69       1.0  0.28008  0.16526  0.34794  1.0000
  C   C70       1.0  0.01682  0.09862  0.39831  1.0000
  H   H45       1.0  0.07241  0.14970  0.09877  1.0000
  C   C71       1.0  0.22099  0.01435  0.10899  1.0000
  C   C72       1.0  0.15539  0.16421  0.52653  1.0000
  C   C73       1.0  0.15201  0.14461  0.53947  1.0000
  C   C74       1.0  0.16767  0.12821  0.53055  1.0000
  C   C75       1.0  0.18664  0.13135  0.50849  1.0000
  C   C76       1.0  0.18995  0.15097  0.49430  1.0000
  C   C77       1.0  0.17437  0.16740  0.50430  1.0000
  P   P3        1.0  0.21468  0.15494  0.46772  1.0000
  C   C78       1.0  0.22814  0.15474  0.50959  1.0000
  C   C79       1.0  0.22698  0.13503  0.43695  1.0000
  C   C80       1.0  0.24764  0.12669  0.43531  1.0000
  C   C81       1.0  0.25720  0.11202  0.40935  1.0000
  C   C82       1.0  0.24622  0.10565  0.38493  1.0000
  C   C83       1.0  0.22587  0.11438  0.38531  1.0000
  C   C84       1.0  0.21623  0.12901  0.41134  1.0000
  H   H46       1.0  0.31762  0.20585  0.21379  1.0000
  C   C85       1.0  0.04065  0.18638  0.17541  1.0000
  C   C86       1.0  0.24904  0.15359  0.57534  1.0000
  C   C87       1.0  0.24561  0.13576  0.56671  1.0000
  C   C88       1.0  0.23505  0.13635  0.53423  1.0000
  C   C89       1.0  0.21299  0.17692  0.42751  1.0000
  S   S20       1.0  0.28451  0.16143  0.47154  1.0000
  H   H47       1.0  0.01644  0.15495  0.23704  1.0000
  H   H48       1.0  0.13725  0.14216  0.55613  1.0000
  H   H49       1.0  0.16512  0.11301  0.53971  1.0000
  H   H50       1.0  0.19865  0.11846  0.50221  1.0000
  Fe  Fe12      1.0  0.31847  0.98647  0.33079  1.0000
  H   H51       1.0  0.25648  0.13177  0.45330  1.0000
  H   H52       1.0  0.27317  0.10588  0.40771  1.0000
  H   H53       1.0  0.25338  0.09416  0.36503  1.0000
  H   H54       1.0  0.21768  0.10968  0.36534  1.0000
  H   H55       1.0  0.20043  0.13570  0.41149  1.0000
  C   C90       1.0  0.08980  0.08612  0.59748  1.0000
  C   C91       1.0  0.01246  0.10237  0.44046  1.0000
  H   H56       1.0  0.23257  0.12238  0.52787  1.0000
  C   C92       1.0  0.21186  0.01204  0.32011  1.0000
  C   C93       1.0  0.30389  0.12194  0.29174  1.0000
  C   C94       1.0  0.30207  0.10758  0.32801  1.0000
  H   H57       1.0  0.22928  0.02709  0.43086  1.0000
  P   P4        1.0  0.26869  0.00627  0.17027  1.0000
  C   C95       1.0  0.26777  0.06598  0.16684  1.0000
  H   H58       1.0  0.15752  0.99907  0.20070  1.0000
  H   H59       1.0  0.29487  0.12286  0.26784  1.0000
  C   C96       1.0  0.03173  0.19195  0.24906  1.0000
  H   H60       1.0  0.14976  0.19082  0.34084  1.0000
  C   C97       1.0  0.10898  0.99113  0.31198  1.0000
  H   H61       1.0  0.02174  0.09353  0.46301  1.0000
  C   C98       1.0  0.05737  0.14648  0.10519  1.0000
  C   C99       1.0  0.24763  0.03677  0.21789  1.0000
  C   C100      1.0  0.19695  0.19727  0.36945  1.0000
  H   H62       1.0  0.04517  0.13972  0.26804  1.0000
  S   S21       1.0  0.03727  0.07924  0.38376  1.0000
  H   H63       1.0  0.20231  0.02144  0.38187  1.0000
  H   H64       1.0  0.27282  0.00000  0.25929  1.0000
  C   C101      1.0  0.20876  0.19958  0.12730  1.0000
  H   H65       1.0  0.20467  0.01641  0.11773  1.0000
  H   H66       1.0  0.27583  0.07726  0.14771  1.0000
  H   H67       1.0  0.25778  0.15307  0.59963  1.0000
  C   C102      1.0  0.04992  0.13665  0.14520  1.0000
  H   H68       1.0  0.14814  0.11498  0.71721  1.0000
  H   H69       1.0  0.23132  0.06037  0.25453  1.0000
  C   C103      1.0  0.31633  0.23281  0.96830  1.0000
  H   H70       1.0  0.08338  0.07430  0.61909  1.0000
  C   C104      1.0  0.30801  0.01191  0.55308  1.0000
  C   C105      1.0  0.06691  0.18151  0.21742  1.0000
  C   C106      1.0  0.02696  0.14915  0.32629  1.0000
  C   C107      1.0  0.01273  0.03700  0.39882  1.0000
  C   C108      1.0  0.25270  0.07107  0.20148  1.0000
  C   C109      1.0  0.21277  0.20772  0.35723  1.0000
  H   H71       1.0  0.17953  0.01452  0.62653  1.0000
  C   C110      1.0  0.99291  0.23210  0.24408  1.0000
  H   H72       1.0  0.23958  0.02577  0.23780  1.0000
  H   H73       1.0  0.15635  0.00030  0.29665  1.0000
  H   H74       1.0  0.28447  0.04259  0.13059  1.0000
  H   H75       1.0  0.04523  0.15133  0.41381  1.0000
  C   C111      1.0  0.25745  0.01004  0.52591  1.0000
  C   C112      1.0  0.09017  0.19082  0.43507  1.0000
  H   H76       1.0  0.24445  0.18580  0.55845  1.0000
  C   C113      1.0  0.07911  0.09789  0.56630  1.0000
  C   C114      1.0  0.08738  0.11284  0.53734  1.0000
  C   C115      1.0  0.10640  0.11594  0.53940  1.0000
  C   C116      1.0  0.11703  0.10428  0.57062  1.0000
  C   C117      1.0  0.31480  0.13563  0.12641  1.0000
  S   S22       1.0  0.04455  0.04106  0.19720  1.0000
  C   C118      1.0  0.13645  0.05030  0.61930  1.0000
  C   C119      1.0  0.26002  0.22967  0.03398  1.0000
  C   C120      1.0  0.15797  0.01483  0.58730  1.0000
  C   C121      1.0  0.13985  0.02502  0.57407  1.0000
  C   C122      1.0  0.12915  0.04274  0.58977  1.0000
  C   C123      1.0  0.26313  0.00939  0.08635  1.0000
  H   H77       1.0  0.07929  0.12164  0.51260  1.0000
  H   H78       1.0  0.11323  0.12703  0.51622  1.0000
  H   H79       1.0  0.13185  0.10669  0.57095  1.0000
  H   H80       1.0  0.27937  0.00790  0.07691  1.0000
  Fe  Fe13      1.0  0.05531  0.05894  0.23520  1.0000
  C   C124      1.0  0.00470  0.11004  0.36932  1.0000
  H   H81       1.0  0.13436  0.01946  0.55072  1.0000
  H   H82       1.0  0.11550  0.05060  0.57794  1.0000
  H   H83       1.0  0.03912  0.02228  0.28594  1.0000
  H   H84       1.0  0.25848  0.01264  0.02175  1.0000
  H   H85       1.0  0.25702  0.02546  0.51074  1.0000
  C   C125      1.0  0.20984  0.99923  0.29359  1.0000
  C   C126      1.0  0.28253  0.19807  0.35969  1.0000
  H   H86       1.0  0.31858  0.14555  0.25724  1.0000
  P   P5        1.0  0.29976  0.00459  0.51027  1.0000
  C   C127      1.0  0.29580  0.02602  0.46953  1.0000
  H   H87       1.0  0.21887  0.99931  0.26198  1.0000
  H   H88       1.0  0.01488  0.00105  0.32724  1.0000
  H   H89       1.0  0.99289  0.12773  0.96150  1.0000
  C   C128      1.0  0.06111  0.18125  0.17899  1.0000
  C   C129      1.0  0.02363  0.00262  0.10296  1.0000
  H   H90       1.0  0.22496  0.01438  0.53866  1.0000
  C   C130      1.0  0.28795  0.04526  0.48099  1.0000
  C   C131      1.0  0.28233  0.06156  0.45028  1.0000
  C   C132      1.0  0.28514  0.05889  0.40778  1.0000
  C   C133      1.0  0.29323  0.03990  0.39606  1.0000
  C   C134      1.0  0.29851  0.02346  0.42677  1.0000
  C   C135      1.0  0.01572  0.04489  0.08485  1.0000
  H   H91       1.0  0.28233  0.21386  0.34822  1.0000
  C   C136      1.0  0.28444  0.16995  0.41722  1.0000
  H   H92       1.0  0.24910  0.08624  0.20915  1.0000
  H   H93       1.0  0.05891  0.07831  0.46122  1.0000
  H   H94       1.0  0.09109  0.20366  0.44862  1.0000
  H   H95       1.0  0.18498  0.20059  0.35089  1.0000
  H   H96       1.0  0.21301  0.21920  0.32941  1.0000
  H   H97       1.0  0.09944  0.03081  0.77235  1.0000
  H   H98       1.0  0.28537  0.20018  0.42326  1.0000
  H   H99       1.0  0.13610  0.02779  0.16230  1.0000
  H   H100      1.0  0.24120  0.21058  0.36964  1.0000
  C   C137      1.0  0.02617  0.14762  0.08078  1.0000
  H   H101      1.0  0.31768  0.15553  0.16723  1.0000
  H   H102      1.0  0.04651  0.02110  0.46642  1.0000
  C   C138      1.0  0.03134  0.03044  0.41257  1.0000
  H   H103      1.0  0.28539  0.04750  0.51391  1.0000
  H   H104      1.0  0.06457  0.09520  0.56400  1.0000
  H   H105      1.0  0.28074  0.07133  0.38387  1.0000
  H   H106      1.0  0.29477  0.03785  0.36331  1.0000
  C   C139      1.0  0.32058  0.02384  0.61926  1.0000
  S   S23       1.0  0.01251  0.15358  0.03850  1.0000
  C   C140      1.0  0.05222  0.18703  0.25235  1.0000
  H   H107      1.0  0.22522  0.18707  0.50195  1.0000
  C   C141      1.0  0.99272  0.13883  0.24369  1.0000
  H   H108      1.0  0.18530  0.19250  0.17982  1.0000
  C   C142      1.0  0.30600  0.20167  0.11717  1.0000
  H   H109      1.0  0.30555  0.01855  0.17982  1.0000
  C   C143      1.0  0.25396  0.00860  0.12943  1.0000
  C   C144      1.0  0.17001  0.10622  0.66250  1.0000
  P   P6        1.0  0.08702  0.13626  0.37586  1.0000
  C   C145      1.0  0.10898  0.13105  0.33480  1.0000
  C   C146      1.0  0.08827  0.15752  0.39937  1.0000
  C   C147      1.0  0.08043  0.17716  0.38107  1.0000
  C   C148      1.0  0.00027  0.00235  0.27423  1.0000
  H   H110      1.0  0.30875  0.20929  0.14070  1.0000
  H   H111      1.0  0.18125  0.11358  0.66807  1.0000
  C   C149      1.0  0.23093  0.17266  0.51953  1.0000
  C   C150      1.0  0.11457  0.11203  0.32143  1.0000
  C   C151      1.0  0.13200  0.10738  0.29113  1.0000
  C   C152      1.0  0.14401  0.12168  0.27388  1.0000
  C   C153      1.0  0.13861  0.14062  0.28708  1.0000
  C   C154      1.0  0.12118  0.14532  0.31749  1.0000
  C   C155      1.0  0.08737  0.11346  0.41400  1.0000
  C   C156      1.0  0.10526  0.10401  0.42946  1.0000
  C   C157      1.0  0.10604  0.08607  0.45785  1.0000
  C   C158      1.0  0.08924  0.07699  0.47008  1.0000
  C   C159      1.0  0.07161  0.08585  0.45366  1.0000
  C   C160      1.0  0.07062  0.10402  0.42577  1.0000
  H   H112      1.0  0.29171  0.09756  0.33164  1.0000
  H   H113      1.0  0.12279  0.09782  0.70527  1.0000
  H   H114      1.0  0.07750  0.13457  0.29233  1.0000
  H   H115      1.0  0.07375  0.17968  0.35279  1.0000
  C   C161      1.0  0.19400  0.20372  0.16300  1.0000
  C   C162      1.0  0.04542  0.14929  0.38150  1.0000
  H   H116      1.0  0.04526  0.02970  0.38938  1.0000
  H   H117      1.0  0.10569  0.10058  0.33500  1.0000
  H   H118      1.0  0.13628  0.09253  0.28167  1.0000
  H   H119      1.0  0.15765  0.11801  0.25077  1.0000
  H   H120      1.0  0.14822  0.15153  0.27442  1.0000
  H   H121      1.0  0.11763  0.15990  0.32796  1.0000
  H   H122      1.0  0.11880  0.11028  0.41894  1.0000
  H   H123      1.0  0.11990  0.07889  0.46944  1.0000
  H   H124      1.0  0.09024  0.06268  0.49092  1.0000
  C   C163      1.0  0.03201  0.02573  0.45602  1.0000
  H   H125      1.0  0.22222  0.02227  0.30917  1.0000
  C   C164      1.0  0.14928  0.03000  0.17246  1.0000
  C   C165      1.0  0.16131  0.01384  0.19419  1.0000
  C   C166      1.0  0.17813  0.01678  0.20771  1.0000
  C   C167      1.0  0.18277  0.03594  0.20016  1.0000
  C   C168      1.0  0.17048  0.05235  0.17920  1.0000
  C   C169      1.0  0.15401  0.04912  0.16437  1.0000
  P   P7        1.0  0.17743  0.07669  0.16671  1.0000
  C   C170      1.0  0.15583  0.09670  0.15903  1.0000
  C   C171      1.0  0.18627  0.08238  0.21039  1.0000
  C   C172      1.0  0.17951  0.07384  0.25219  1.0000
  C   C173      1.0  0.18602  0.07846  0.28625  1.0000
  C   C174      1.0  0.19877  0.09220  0.27902  1.0000
  C   C175      1.0  0.20508  0.10126  0.23759  1.0000
  C   C176      1.0  0.19884  0.09643  0.20327  1.0000
  C   C177      1.0  0.15785  0.11398  0.12900  1.0000
  C   C178      1.0  0.14102  0.12960  0.12432  1.0000
  C   C179      1.0  0.12222  0.12820  0.15010  1.0000
  C   C180      1.0  0.12031  0.11135  0.18095  1.0000
  C   C181      1.0  0.13705  0.09575  0.18558  1.0000
  C   C182      1.0  0.19692  0.07493  0.11998  1.0000
  C   C183      1.0  0.19168  0.07808  0.07948  1.0000
  C   C184      1.0  0.20677  0.07549  0.04341  1.0000
  C   C185      1.0  0.22711  0.06939  0.04766  1.0000
  C   C186      1.0  0.23238  0.06574  0.08800  1.0000
  C   C187      1.0  0.21734  0.06836  0.12409  1.0000
  C   C188      1.0  0.00067  0.10325  0.01084  1.0000
  H   H126      1.0  0.99319  0.12062  0.48605  1.0000
  C   C189      1.0  0.01403  0.02734  0.48588  1.0000
  H   H127      1.0  0.19589  0.03798  0.21080  1.0000
  H   H128      1.0  0.14460  0.06135  0.14704  1.0000
  H   H129      1.0  0.16901  0.06380  0.25854  1.0000
  H   H130      1.0  0.18128  0.07130  0.31830  1.0000
  H   H131      1.0  0.20402  0.09561  0.30547  1.0000
  H   H132      1.0  0.21510  0.11176  0.23231  1.0000
  H   H133      1.0  0.20382  0.10366  0.17136  1.0000
  H   H134      1.0  0.17240  0.11550  0.10951  1.0000
  H   H135      1.0  0.14256  0.14285  0.10089  1.0000
  C   C190      1.0  0.09724  0.15478  0.43541  1.0000
  H   H136      1.0  0.10583  0.11036  0.20140  1.0000
  H   H137      1.0  0.13531  0.08295  0.21001  1.0000
  H   H138      1.0  0.17595  0.08233  0.07583  1.0000
  H   H139      1.0  0.20268  0.07808  0.01216  1.0000
  H   H140      1.0  0.23880  0.06732  0.01975  1.0000
  H   H141      1.0  0.24811  0.06070  0.09137  1.0000
  H   H142      1.0  0.22167  0.06500  0.15515  1.0000
  H   H143      1.0  0.09461  0.04978  0.34924  1.0000
  H   H144      1.0  0.18876  0.09501  0.60636  1.0000
  C   C191      1.0  0.30991  0.00601  0.16199  1.0000
  C   C192      1.0  0.22870  0.20281  0.37992  1.0000
  H   H145      1.0  0.17875  0.99849  0.40814  1.0000
  C   C193      1.0  0.06379  0.14251  0.35497  1.0000
  H   H146      1.0  0.32510  0.02887  0.64467  1.0000
  C   C194      1.0  0.23280  0.01132  0.14049  1.0000
  H   H147      1.0  0.10908  0.14017  0.14653  1.0000
  C   C195      1.0  0.31631  0.18985  0.04890  1.0000
  H   H148      1.0  0.25150  0.12142  0.58460  1.0000
  C   C196      1.0  0.18721  0.99843  0.37605  1.0000
  C   C197      1.0  0.24262  0.05649  0.22694  1.0000
  C   C198      1.0  0.26104  0.98815  0.21518  1.0000
  C   C199      1.0  0.26304  0.03140  0.18370  1.0000
  H   H149      1.0  0.00679  0.11247  0.02617  1.0000
  H   H150      1.0  0.27801  0.19499  0.15468  1.0000
  H   H151      1.0  0.31609  0.11348  0.08709  1.0000
  S   S24       1.0  0.03607  0.08778  0.25569  1.0000
  C   C200      1.0  0.22901  0.18726  0.41452  1.0000
  C   C201      1.0  0.03277  0.08120  0.07548  1.0000
  C   C202      1.0  0.29867  0.18196  0.05645  1.0000
  C   C203      1.0  0.24154  0.17204  0.55206  1.0000
  H   H152      1.0  0.29587  0.17429  0.03292  1.0000
  H   H153      1.0  0.17690  0.18262  0.49477  1.0000
  C   C204      1.0  0.29534  0.99716  0.15261  1.0000
  H   H154      1.0  0.01288  0.15719  0.38815  1.0000
  C   C205      1.0  0.25130  0.01230  0.05491  1.0000
  Fe  Fe14      1.0  0.21657  0.17294  0.25029  1.0000
  H   H155      1.0  0.05699  0.11004  0.41246  1.0000
  C   C206      1.0  0.28863  0.19346  0.12516  1.0000
  H   H156      1.0  0.29804  0.00908  0.66127  1.0000
  C   C207      1.0  0.00031  0.19626  0.12177  1.0000
  H   H157      1.0  0.07536  0.20884  0.38452  1.0000
  H   H158      1.0  0.12269  0.03779  0.70485  1.0000
  C   C208      1.0  0.99293  0.11198  0.97374  1.0000
  C   C209      1.0  0.07608  0.07877  0.74002  1.0000
  H   H159      1.0  0.12503  0.01153  0.26684  1.0000
  Fe  Fe15      1.0  0.25130  0.16961  0.17457  1.0000
  H   H160      1.0  0.10398  0.13996  0.44928  1.0000
  H   H161      1.0  0.99322  0.11287  0.09594  1.0000
  C   C210      1.0  0.27967  0.18572  0.33306  1.0000
  C   C211      1.0  0.04574  0.15151  0.07285  1.0000
  H   H162      1.0  0.08273  0.17701  0.22035  1.0000
  H   H163      1.0  0.21162  0.18511  0.11646  1.0000
  S   S25       1.0  0.06523  0.13006  0.18461  1.0000
  C   C212      1.0  0.07975  0.06001  0.76546  1.0000
  H   H164      1.0  0.10544  0.16903  0.48063  1.0000
  S   S26       1.0  0.23650  0.19426  0.21376  1.0000
  H   H165      1.0  0.01266  0.15113  0.31586  1.0000
  S   S27       1.0  0.18312  0.18282  0.27325  1.0000
  H   H166      1.0  0.06959  0.05688  0.79527  1.0000
  H   H167      1.0  0.06309  0.09018  0.75015  1.0000
  H   H168      1.0  0.05665  0.18682  0.28243  1.0000
  H   H169      1.0  0.24209  0.18283  0.42999  1.0000
  H   H170      1.0  0.02821  0.08003  0.14395  1.0000
  H   H171      1.0  0.22548  0.01118  0.17349  1.0000
  C   C213      1.0  0.02833  0.01864  0.27058  1.0000
  C   C214      1.0  0.01834  0.13856  0.12139  1.0000
  S   S28       1.0  0.26264  0.17422  0.10402  1.0000
  C   C215      1.0  0.28425  0.19034  0.40207  1.0000
  H   H172      1.0  0.31781  0.20401  0.94987  1.0000
  C   C216      1.0  0.03923  0.01305  0.09812  1.0000
  C   C217      1.0  0.20063  0.01155  0.36131  1.0000
  H   H173      1.0  0.26579  0.21952  0.06029  1.0000
  H   H174      1.0  0.26423  0.23460  0.22586  1.0000
  H   H175      1.0  0.05421  0.00491  0.10290  1.0000
  H   H176      1.0  0.00580  0.23563  0.22056  1.0000
  S   S29       1.0  0.27483  0.19644  0.28197  1.0000
  C   C218      1.0  0.02576  0.19183  0.21042  1.0000
  H   H177      1.0  0.00099  0.19475  0.05598  1.0000
  H   H178      1.0  0.30420  0.00875  0.41709  1.0000
  C   C219      1.0  0.22049  0.21373  0.10647  1.0000
  C   C220      1.0  0.00022  0.03422  0.08962  1.0000
  C   C221      1.0  0.32354  0.11805  0.10866  1.0000
  C   C222      1.0  0.00061  0.08292  0.02762  1.0000
  C   C223      1.0  0.26819  0.22587  0.99244  1.0000
  H   H179      1.0  0.02653  0.98639  0.11118  1.0000
  C   C224      1.0  0.30532  0.01270  0.62858  1.0000
  H   H180      1.0  0.17995  0.22482  0.20663  1.0000
  H   H181      1.0  0.00180  0.12453  0.25483  1.0000
  C   C225      1.0  0.23909  0.00380  0.54190  1.0000
  C   C226      1.0  0.32309  0.02344  0.54395  1.0000
  C   C227      1.0  0.99458  0.03890  0.42861  1.0000
  H   H182      1.0  0.28000  0.21269  0.98713  1.0000
  C   C228      1.0  0.99536  0.03386  0.47226  1.0000
  C   C229      1.0  0.21759  0.23220  0.12125  1.0000
  C   C230      1.0  0.32037  0.21920  0.93930  1.0000
  H   H183      1.0  0.23201  0.20984  0.07948  1.0000
  H   H184      1.0  0.31053  0.22825  0.00159  1.0000
  C   C231      1.0  0.31741  0.13481  0.28610  1.0000
  C   C232      1.0  0.12590  0.99957  0.29370  1.0000
  P   P8        1.0  0.99913  0.19742  0.20735  1.0000
  H   H185      1.0  0.25602  0.99631  0.43845  1.0000
  H   H186      1.0  0.31336  0.09400  0.38579  1.0000
  H   H187      1.0  0.12983  0.99328  0.50053  1.0000
  C   C233      1.0  0.99464  0.20836  0.15424  1.0000
  C   C234      1.0  0.31977  0.20009  0.07894  1.0000
  H   H188      1.0  0.32399  0.17052  0.44967  1.0000
  H   H189      1.0  0.28707  0.99830  0.60372  1.0000
  H   H190      1.0  0.09509  0.99659  0.29919  1.0000
  S   S30       1.0  0.32073  0.98929  0.26032  1.0000
  H   H191      1.0  0.31939  0.18283  0.28123  1.0000
  C   C235      1.0  0.99655  0.20424  0.08076  1.0000
  C   C236      1.0  0.99305  0.07145  0.00577  1.0000
  C   C237      1.0  0.00093  0.15616  0.23404  1.0000
  C   C238      1.0  0.32436  0.14168  0.15410  1.0000
  H   H192      1.0  0.99305  0.05573  0.01692  1.0000
  C   C239      1.0  0.14373  0.99302  0.31062  1.0000
  C   C240      1.0  0.29910  0.00667  0.59569  1.0000
  H   H193      1.0  0.13935  0.99510  0.42278  1.0000
  C   C241      1.0  0.31402  0.10580  0.35861  1.0000
  C   C242      1.0  0.19646  0.98603  0.30820  1.0000
  C   C243      1.0  0.29443  0.29838  0.92598  1.0000
  C   C244      1.0  0.19360  0.31387  0.09810  1.0000
  C   C245      1.0  0.19822  0.27909  0.08828  1.0000
  H   H194      1.0  0.29098  0.28562  0.91621  1.0000
  H   H195      1.0  0.30269  0.25334  0.10954  1.0000
  C   C246      1.0  0.28500  0.24432  0.17037  1.0000
  H   H196      1.0  0.31743  0.26229  0.97786  1.0000
  C   C247      1.0  0.18607  0.29836  0.08908  1.0000
  H   H197      1.0  0.31250  0.31369  0.75796  1.0000
  H   H198      1.0  0.18413  0.32876  0.09899  1.0000
  C   C248      1.0  0.31456  0.30070  0.92007  1.0000
  C   C249      1.0  0.27862  0.31252  0.94468  1.0000
  H   H199      1.0  0.31782  0.37913  0.56929  1.0000
  H   H200      1.0  0.29717  0.24260  0.18777  1.0000
  H   H201      1.0  0.27051  0.34009  0.97174  1.0000
  C   C250      1.0  0.31859  0.31760  0.93213  1.0000
  C   C251      1.0  0.28277  0.32916  0.95715  1.0000
  C   C252      1.0  0.28804  0.25047  0.12634  1.0000
  C   C253      1.0  0.27249  0.25211  0.10375  1.0000
  H   H202      1.0  0.27523  0.25680  0.06965  1.0000
  H   H203      1.0  0.30596  0.34462  0.96045  1.0000
  C   C254      1.0  0.21332  0.31013  0.10620  1.0000
  C   C255      1.0  0.22552  0.29088  0.10539  1.0000
  C   C256      1.0  0.30274  0.33172  0.95078  1.0000
  H   H204      1.0  0.24072  0.28828  0.11193  1.0000
  H   H205      1.0  0.21912  0.32212  0.11342  1.0000
  H   H206      1.0  0.30801  0.30737  0.83650  1.0000
  H   H207      1.0  0.26314  0.31054  0.94952  1.0000
  C   C257      1.0  0.21801  0.27520  0.09659  1.0000
  H   H208      1.0  0.17077  0.30123  0.08292  1.0000
  C   C258      1.0  0.26643  0.23979  0.19182  1.0000
  H   H209      1.0  0.32276  0.34303  0.60077  1.0000
  C   C259      1.0  0.32221  0.30090  0.81795  1.0000
  C   C260      1.0  0.32037  0.25211  0.95471  1.0000
  H   H210      1.0  0.19218  0.26719  0.08132  1.0000
  C   C261      1.0  0.25377  0.24750  0.12510  1.0000
  H   H211      1.0  0.22480  0.27208  0.01184  1.0000
  H   H212      1.0  0.20050  0.25008  0.17012  1.0000
  C   C262      1.0  0.23697  0.25921  0.00700  1.0000
  C   C263      1.0  0.25083  0.24149  0.16938  1.0000
  P   P9        1.0  0.23346  0.25020  0.09609  1.0000
  H   H213      1.0  0.23983  0.26560  0.93857  1.0000
  C   C264      1.0  0.24417  0.24617  0.04173  1.0000
  C   C265      1.0  0.24548  0.25561  0.96529  1.0000
  C   C266      1.0  0.26106  0.23891  0.95803  1.0000
  H   H214      1.0  0.23661  0.23793  0.18680  1.0000
  C   C267      1.0  0.32469  0.30452  0.77340  1.0000
  C   C268      1.0  0.20273  0.23621  0.15735  1.0000
  H   H215      1.0  0.26754  0.23594  0.92581  1.0000
  Fe  Fe16      1.0  0.09574  0.70017  0.12303  1.0000
  S   S31       1.0  0.07194  0.70726  0.08209  1.0000
  C   C269      1.0  0.07446  0.72280  0.97132  1.0000
  Fe  Fe17      1.0  0.07927  0.66542  0.17855  1.0000
  S   S32       1.0  0.05371  0.66929  0.14380  1.0000
  S   S33       1.0  0.08537  0.64186  0.23461  1.0000
  Fe  Fe18      1.0  0.07686  0.67388  0.08508  1.0000
  S   S34       1.0  0.07597  0.65981  0.02918  1.0000
  Fe  Fe19      1.0  0.05053  0.70227  0.14346  1.0000
  S   S35       1.0  0.10306  0.66709  0.11959  1.0000
  S   S36       1.0  0.07382  0.69801  0.18458  1.0000
  C   C270      1.0  0.99854  0.73242  0.49543  1.0000
  C   C271      1.0  0.32264  0.69313  0.09673  1.0000
  S   S37       1.0  0.14928  0.71873  0.28432  1.0000
  C   C272      1.0  0.99473  0.68501  0.21652  1.0000
  C   C273      1.0  0.07101  0.59647  0.14705  1.0000
  C   C274      1.0  0.04858  0.60838  0.34757  1.0000
  H   H216      1.0  0.27276  0.62272  0.27153  1.0000
  C   C275      1.0  0.18244  0.72416  0.10669  1.0000
  C   C276      1.0  0.22655  0.61568  0.11607  1.0000
  H   H217      1.0  0.07268  0.68378  0.92338  1.0000
  C   C277      1.0  0.02232  0.70088  0.50615  1.0000
  C   C278      1.0  0.29901  0.72602  0.50023  1.0000
  C   C279      1.0  0.00148  0.65571  0.26952  1.0000
  H   H218      1.0  0.00559  0.69719  0.04687  1.0000
  S   S38       1.0  0.03421  0.67180  0.40433  1.0000
  C   C280      1.0  0.26143  0.72624  0.35971  1.0000
  C   C281      1.0  0.25036  0.72606  0.32828  1.0000
  S   S39       1.0  0.29112  0.72709  0.01302  1.0000
  H   H219      1.0  0.06394  0.60834  0.35034  1.0000
  C   C282      1.0  0.00825  0.65216  0.19478  1.0000
  C   C283      1.0  0.30045  0.61286  0.80832  1.0000
  H   H220      1.0  0.99345  0.70855  0.54706  1.0000
  H   H221      1.0  0.31650  0.58225  0.80518  1.0000
  H   H222      1.0  0.28619  0.73002  0.48382  1.0000
  C   C284      1.0  0.00796  0.52477  0.68334  1.0000
  C   C285      1.0  0.03527  0.72673  0.35367  1.0000
  C   C286      1.0  0.29268  0.72004  0.30918  1.0000
  H   H223      1.0  0.23784  0.71965  0.14700  1.0000
  C   C287      1.0  0.08082  0.70470  0.95457  1.0000
  H   H224      1.0  0.00339  0.58010  0.30223  1.0000
  C   C288      1.0  0.25819  0.69424  0.06276  1.0000
  C   C289      1.0  0.11363  0.70386  0.38078  1.0000
  C   C290      1.0  0.28561  0.66757  0.26838  1.0000
  H   H225      1.0  0.29708  0.68619  0.21173  1.0000
  S   S40       1.0  0.01939  0.72160  0.15052  1.0000
  H   H226      1.0  0.25360  0.72885  0.39129  1.0000
  H   H227      1.0  0.01348  0.64309  0.16931  1.0000
  H   H228      1.0  0.25075  0.65064  0.05022  1.0000
  C   C291      1.0  0.24035  0.62370  0.08290  1.0000
  H   H229      1.0  0.02926  0.58059  0.20666  1.0000
  C   C292      1.0  0.02996  0.72584  0.44458  1.0000
  H   H230      1.0  0.27586  0.63939  0.11934  1.0000
  C   C293      1.0  0.17536  0.72257  0.07063  1.0000
  C   C294      1.0  0.30658  0.64303  0.11442  1.0000
  H   H231      1.0  0.27339  0.64652  0.31931  1.0000
  C   C295      1.0  0.04365  0.61022  0.30729  1.0000
  H   H232      1.0  0.08023  0.62364  0.15140  1.0000
  C   C296      1.0  0.05131  0.66685  0.01769  1.0000
  C   C297      1.0  0.04670  0.65926  0.98483  1.0000
  C   C298      1.0  0.02739  0.66558  0.97390  1.0000
  C   C299      1.0  0.01246  0.67911  0.99651  1.0000
  C   C300      1.0  0.01692  0.68645  0.02984  1.0000
  C   C301      1.0  0.03640  0.68051  0.04009  1.0000
  H   H233      1.0  0.05818  0.64878  0.96734  1.0000
  H   H234      1.0  0.02400  0.65995  0.94799  1.0000
  H   H235      1.0  0.00159  0.67966  0.15142  1.0000
  H   H236      1.0  0.03989  0.68682  0.06485  1.0000
  C   C302      1.0  0.07058  0.64983  0.28163  1.0000
  C   C303      1.0  0.07950  0.64705  0.31759  1.0000
  C   C304      1.0  0.06808  0.65372  0.35519  1.0000
  C   C305      1.0  0.04752  0.66251  0.35751  1.0000
  C   C306      1.0  0.03835  0.66463  0.32208  1.0000
  C   C307      1.0  0.05003  0.65877  0.28367  1.0000
  H   H237      1.0  0.09536  0.64021  0.31606  1.0000
  H   H238      1.0  0.07517  0.65206  0.38259  1.0000
  H   H239      1.0  0.02251  0.67160  0.32383  1.0000
  H   H240      1.0  0.04315  0.66108  0.25577  1.0000
  H   H241      1.0  0.00119  0.64955  0.30272  1.0000
  C   C308      1.0  0.00150  0.67290  0.18443  1.0000
  H   H242      1.0  0.22660  0.59971  0.12125  1.0000
  C   C309      1.0  0.05664  0.58437  0.16292  1.0000
  H   H243      1.0  0.00254  0.54580  0.72764  1.0000
  C   C310      1.0  0.09930  0.69212  0.38393  1.0000
  H   H244      1.0  0.05545  0.61155  0.27962  1.0000
  C   C311      1.0  0.29733  0.61687  0.08653  1.0000
  C   C312      1.0  0.04848  0.70951  0.93277  1.0000
  C   C313      1.0  0.26485  0.69647  0.14335  1.0000
  C   C314      1.0  0.08668  0.73311  0.39044  1.0000
  H   H245      1.0  0.31674  0.70579  0.45694  1.0000
  C   C315      1.0  0.01847  0.71637  0.29156  1.0000
  H   H246      1.0  0.08697  0.71697  0.24598  1.0000
  C   C316      1.0  0.00390  0.71355  0.51923  1.0000
  H   H247      1.0  0.28583  0.67214  0.05753  1.0000
  C   C317      1.0  0.28480  0.64090  0.21440  1.0000
  Fe  Fe20      1.0  0.00042  0.67508  0.41831  1.0000
  C   C318      1.0  0.12482  0.70348  0.19532  1.0000
  C   C319      1.0  0.29835  0.73433  0.53662  1.0000
  C   C320      1.0  0.00820  0.64333  0.23750  1.0000
  C   C321      1.0  0.23238  0.67726  0.23328  1.0000
  C   C322      1.0  0.21933  0.68464  0.26856  1.0000
  C   C323      1.0  0.19852  0.68611  0.27300  1.0000
  C   C324      1.0  0.19074  0.68019  0.24219  1.0000
  C   C325      1.0  0.20377  0.67244  0.20695  1.0000
  C   C326      1.0  0.22469  0.67122  0.20241  1.0000
  P   P10       1.0  0.19314  0.66592  0.16657  1.0000
  C   C327      1.0  0.17241  0.65383  0.19402  1.0000
  C   C328      1.0  0.18530  0.68822  0.13001  1.0000
  C   C329      1.0  0.17853  0.68663  0.09326  1.0000
  C   C330      1.0  0.17337  0.70381  0.06394  1.0000
  H   H248      1.0  0.02279  0.51739  0.69052  1.0000
  H   H249      1.0  0.23134  0.71692  0.07620  1.0000
  C   C331      1.0  0.18735  0.70708  0.13624  1.0000
  C   C332      1.0  0.15377  0.65866  0.18005  1.0000
  C   C333      1.0  0.13780  0.64955  0.20270  1.0000
  C   C334      1.0  0.14020  0.63565  0.23939  1.0000
  C   C335      1.0  0.15868  0.63076  0.25362  1.0000
  C   C336      1.0  0.17472  0.63981  0.23108  1.0000
  C   C337      1.0  0.21198  0.64906  0.13517  1.0000
  C   C338      1.0  0.21239  0.62829  0.14214  1.0000
  H   H250      1.0  0.30898  0.71807  0.30142  1.0000
  C   C339      1.0  0.31627  0.71246  0.48481  1.0000
  H   H251      1.0  0.18832  0.69246  0.29961  1.0000
  H   H252      1.0  0.17448  0.68210  0.24549  1.0000
  H   H253      1.0  0.23507  0.66609  0.17485  1.0000
  H   H254      1.0  0.17708  0.67217  0.08744  1.0000
  H   H255      1.0  0.16754  0.70265  0.03634  1.0000
  P   P11       1.0  0.29918  0.66536  0.14021  1.0000
  C   C340      1.0  0.04027  0.59010  0.19499  1.0000
  H   H256      1.0  0.15115  0.66983  0.15252  1.0000
  H   H257      1.0  0.12331  0.65358  0.19235  1.0000
  H   H258      1.0  0.12759  0.62891  0.25693  1.0000
  H   H259      1.0  0.16045  0.62017  0.28242  1.0000
  H   H260      1.0  0.18887  0.63608  0.24285  1.0000
  H   H261      1.0  0.20164  0.62180  0.16709  1.0000
  H   H262      1.0  0.28844  0.64420  0.81366  1.0000
  C   C341      1.0  0.29219  0.67207  0.22448  1.0000
  H   H263      1.0  0.03814  0.70394  0.91941  1.0000
  C   C342      1.0  0.03531  0.70697  0.46899  1.0000
  C   C343      1.0  0.05276  0.61996  0.19539  1.0000
  P   P12       1.0  0.01662  0.61640  0.25090  1.0000
  C   C344      1.0  0.07215  0.72152  0.39257  1.0000
  C   C345      1.0  0.28257  0.72364  0.34989  1.0000
  S   S41       1.0  0.24732  0.72196  0.24740  1.0000
  H   H264      1.0  0.22532  0.68987  0.29170  1.0000
  H   H265      1.0  0.05810  0.57065  0.15009  1.0000
  C   C346      1.0  0.22601  0.65695  0.10200  1.0000
  C   C347      1.0  0.02359  0.61128  0.30308  1.0000
  H   H266      1.0  0.08357  0.59223  0.12189  1.0000
  S   S42       1.0  0.11896  0.71931  0.11351  1.0000
  H   H267      1.0  0.28549  0.67807  0.28931  1.0000
  C   C348      1.0  0.29174  0.63363  0.10799  1.0000
  C   C349      1.0  0.03928  0.71092  0.29089  1.0000
  C   C350      1.0  0.24793  0.70872  0.12810  1.0000
  H   H268      1.0  0.05144  0.63375  0.20778  1.0000
  C   C351      1.0  0.03815  0.60807  0.21120  1.0000
  H   H269      1.0  0.02622  0.68599  0.52386  1.0000
  C   C352      1.0  0.24015  0.64432  0.07602  1.0000
  H   H270      1.0  0.04907  0.69656  0.45887  1.0000
  H   H271      1.0  0.06384  0.71172  0.31985  1.0000
  H   H272      1.0  0.04886  0.70242  0.26679  1.0000
  H   H273      1.0  0.09547  0.69529  0.95829  1.0000
  C   C353      1.0  0.27829  0.63644  0.25835  1.0000
  H   H274      1.0  0.25103  0.61398  0.06223  1.0000
  H   H275      1.0  0.03734  0.60673  0.41504  1.0000
  C   C354      1.0  0.27505  0.68182  0.07809  1.0000
  H   H276      1.0  0.26761  0.69844  0.17366  1.0000
  C   C355      1.0  0.31773  0.60946  0.07108  1.0000
  H   H277      1.0  0.01210  0.71239  0.26747  1.0000
  H   H278      1.0  0.25600  0.69413  0.03079  1.0000
  C   C356      1.0  0.01364  0.60841  0.38019  1.0000
  C   C357      1.0  0.26055  0.72238  0.28755  1.0000
  C   C358      1.0  0.06911  0.61420  0.16349  1.0000
  C   C359      1.0  0.12774  0.71869  0.16075  1.0000
  C   C360      1.0  0.07867  0.70086  0.39006  1.0000
  S   S43       1.0  0.29624  0.72441  0.38896  1.0000
  H   H279      1.0  0.00905  0.50581  0.63709  1.0000
  H   H280      1.0  0.12967  0.69727  0.37448  1.0000
  C   C361      1.0  0.14408  0.73379  0.20199  1.0000
  C   C362      1.0  0.29189  0.65873  0.19711  1.0000
  H   H281      1.0  0.28962  0.71529  0.24758  1.0000
  C   C363      1.0  0.27815  0.68236  0.11917  1.0000
  H   H282      1.0  0.24838  0.67694  0.22939  1.0000
  H   H283      1.0  0.28618  0.60996  0.80487  1.0000
  C   C364      1.0  0.27867  0.64979  0.28531  1.0000
  H   H284      1.0  0.22581  0.67295  0.09593  1.0000
  C   C365      1.0  0.28171  0.71874  0.27859  1.0000
  H   H285      1.0  0.06785  0.69166  0.39094  1.0000
  C   C366      1.0  0.03360  0.60752  0.38398  1.0000
  H   H286      1.0  0.12917  0.69164  0.25988  1.0000
  H   H287      1.0  0.32077  0.65094  0.82194  1.0000
  C   C367      1.0  0.30174  0.63216  0.81311  1.0000
  C   C368      1.0  0.06793  0.69815  0.93500  1.0000
  H   H288      1.0  0.19271  0.70870  0.16386  1.0000
  H   H289      1.0  0.28585  0.60971  0.08161  1.0000
  H   H290      1.0  0.11722  0.69185  0.19300  1.0000
  C   C369      1.0  0.24440  0.70735  0.08813  1.0000
  C   C370      1.0  0.04770  0.71614  0.32155  1.0000
  H   H291      1.0  0.10417  0.67633  0.38049  1.0000
  C   C371      1.0  0.13153  0.70340  0.23322  1.0000
  H   H292      1.0  0.31067  0.69945  0.07856  1.0000
  C   C372      1.0  0.32068  0.67721  0.13012  1.0000
  C   C373      1.0  0.32015  0.63597  0.81746  1.0000
  C   C374      1.0  0.14110  0.71864  0.23669  1.0000
  H   H293      1.0  0.28419  0.63042  0.19423  1.0000
  H   H294      1.0  0.02718  0.72946  0.05451  1.0000
  C   C375      1.0  0.00857  0.61063  0.33991  1.0000
  C   C376      1.0  0.31753  0.59727  0.80843  1.0000
  C   C377      1.0  0.99656  0.54078  0.70423  1.0000
  H   H295      1.0  0.00196  0.60817  0.40846  1.0000
  C   C378      1.0  0.10732  0.72429  0.38446  1.0000
  H   H296      1.0  0.09537  0.72937  0.30457  1.0000
  C   C379      1.0  0.99681  0.60356  0.24949  1.0000
  H   H297      1.0  0.32171  0.68476  0.27341  1.0000
  C   C380      1.0  0.31507  0.72920  0.55729  1.0000
  H   H298      1.0  0.08459  0.72713  0.98732  1.0000
  H   H299      1.0  0.99281  0.61253  0.33747  1.0000
  H   H300      1.0  0.23404  0.72862  0.33567  1.0000
  C   C381      1.0  0.99369  0.58631  0.27885  1.0000
  C   C382      1.0  0.00024  0.51826  0.65320  1.0000
  C   C383      1.0  0.00611  0.72760  0.32227  1.0000
  P   P13       1.0  0.04565  0.73335  0.39447  1.0000
  H   H301      1.0  0.32208  0.59667  0.05393  1.0000
  H   H302      1.0  0.11854  0.73340  0.38101  1.0000
  C   C384      1.0  0.13736  0.73384  0.16420  1.0000
  C   C385      1.0  0.08669  0.73285  0.24388  1.0000
  H   H303      1.0  0.31404  0.73520  0.58623  1.0000
  C   C386      1.0  0.99473  0.67644  0.25902  1.0000
  C   C387      1.0  0.01442  0.73273  0.35321  1.0000
  H   H304      1.0  0.22909  0.73328  0.49164  1.0000
  H   H305      1.0  0.20165  0.73040  0.45621  1.0000
  C   C388      1.0  0.04202  0.72756  0.94968  1.0000
  C   C389      1.0  0.05503  0.73449  0.96870  1.0000
  H   H306      1.0  0.04675  0.73507  0.18857  1.0000
  H   H307      1.0  0.99195  0.72958  0.08953  1.0000
  C   C390      1.0  0.23806  0.89819  0.08467  1.0000
  S   S44       1.0  0.29828  0.87254  0.22880  1.0000
  S   S45       1.0  0.20762  0.87848  0.23701  1.0000
  C   C391      1.0  0.99348  0.86175  0.97906  1.0000
  C   C392      1.0  0.99729  0.80041  0.13841  1.0000
  C   C393      1.0  0.30727  0.92867  0.18568  1.0000
  Fe  Fe21      1.0  0.18696  0.76969  0.19825  1.0000
  C   C394      1.0  0.26077  0.79006  0.33883  1.0000
  S   S46       1.0  0.17788  0.78551  0.13635  1.0000
  Fe  Fe22      1.0  0.18502  0.77492  0.28918  1.0000
  C   C395      1.0  0.28496  0.78529  0.25877  1.0000
  S   S47       1.0  0.17620  0.79944  0.33031  1.0000
  H   H308      1.0  0.24633  0.81742  0.45635  1.0000
  S   S48       1.0  0.26053  0.84863  0.26231  1.0000
  C   C396      1.0  0.21213  0.91914  0.34258  1.0000
  S   S49       1.0  0.20992  0.77492  0.23206  1.0000
  S   S50       1.0  0.16158  0.77234  0.25375  1.0000
  C   C397      1.0  0.22544  0.74400  0.46404  1.0000
  C   C398      1.0  0.20123  0.93707  0.35707  1.0000
  C   C399      1.0  0.08987  0.80298  0.31589  1.0000
  H   H309      1.0  0.17359  0.78792  0.04969  1.0000
  H   H310      1.0  0.08229  0.74908  0.39169  1.0000
  C   C400      1.0  0.09942  0.80614  0.34714  1.0000
  H   H311      1.0  0.00449  0.74160  0.37629  1.0000
  H   H312      1.0  0.09220  0.80438  0.38031  1.0000
  C   C401      1.0  0.20823  0.82012  0.39580  1.0000
  C   C402      1.0  0.00667  0.87870  0.18332  1.0000
  C   C403      1.0  0.26211  0.78829  0.16997  1.0000
  C   C404      1.0  0.30851  0.74602  0.19168  1.0000
  C   C405      1.0  0.01542  0.74213  0.04571  1.0000
  H   H313      1.0  0.17022  0.93569  0.51679  1.0000
  H   H314      1.0  0.27987  0.81030  0.34139  1.0000
  C   C406      1.0  0.19397  0.83897  0.12794  1.0000
  C   C407      1.0  0.00842  0.76640  0.24241  1.0000
  H   H315      1.0  0.00047  0.88905  0.34953  1.0000
  C   C408      1.0  0.23635  0.75934  0.44811  1.0000
  P   P14       1.0  0.24592  0.79310  0.39110  1.0000
  C   C409      1.0  0.26014  0.80608  0.45348  1.0000
  C   C410      1.0  0.14063  0.98094  0.48714  1.0000
  H   H316      1.0  0.07523  0.79881  0.32520  1.0000
  H   H317      1.0  0.15703  0.93981  0.32328  1.0000
  H   H318      1.0  0.17665  0.90834  0.29746  1.0000
  C   C411      1.0  0.32027  0.91154  0.32782  1.0000
  C   C412      1.0  0.17228  0.93419  0.32936  1.0000
  C   C413      1.0  0.18330  0.91634  0.31464  1.0000
  H   H319      1.0  0.21165  0.89509  0.30947  1.0000
  C   C414      1.0  0.06122  0.76013  0.02782  1.0000
  H   H320      1.0  0.24591  0.76807  0.32584  1.0000
  C   C415      1.0  0.24509  0.82311  0.15597  1.0000
  H   H321      1.0  0.00939  0.79070  0.15350  1.0000
  C   C416      1.0  0.14606  0.98193  0.44295  1.0000
  H   H322      1.0  0.03102  0.80196  0.31521  1.0000
  H   H323      1.0  0.25403  0.83396  0.36557  1.0000
  C   C417      1.0  0.02547  0.87952  0.15723  1.0000
  C   C418      1.0  0.99535  0.86790  0.12720  1.0000
  H   H324      1.0  0.04813  0.82910  0.93345  1.0000
  H   H325      1.0  0.22763  0.91325  0.34741  1.0000
  H   H326      1.0  0.20852  0.94506  0.37292  1.0000
  C   C419      1.0  0.21363  0.76439  0.09815  1.0000
  C   C420      1.0  0.29460  0.83786  0.05213  1.0000
  C   C421      1.0  0.19921  0.85621  0.26195  1.0000
  C   C422      1.0  0.21204  0.83729  0.26007  1.0000
  C   C423      1.0  0.20503  0.81975  0.28061  1.0000
  C   C424      1.0  0.18523  0.82112  0.30354  1.0000
  C   C425      1.0  0.17243  0.84004  0.30548  1.0000
  C   C426      1.0  0.17931  0.85751  0.28427  1.0000
  H   H327      1.0  0.22730  0.83608  0.24243  1.0000
  H   H328      1.0  0.21514  0.80524  0.27943  1.0000
  C   C427      1.0  0.22638  0.86126  0.09122  1.0000
  H   H329      1.0  0.23222  0.86718  0.35479  1.0000
  C   C428      1.0  0.29494  0.84032  0.09396  1.0000
  C   C429      1.0  0.22170  0.76194  0.02263  1.0000
  C   C430      1.0  0.11847  0.81126  0.33565  1.0000
  C   C431      1.0  0.20203  0.77211  0.01827  1.0000
  C   C432      1.0  0.18852  0.77936  0.05341  1.0000
  C   C433      1.0  0.19448  0.77576  0.09315  1.0000
  H   H330      1.0  0.19759  0.77514  0.98738  1.0000
  C   C434      1.0  0.27455  0.80554  0.47827  1.0000
  C   C435      1.0  0.05289  0.76037  0.07123  1.0000
  C   C436      1.0  0.29622  0.77724  0.44663  1.0000
  H   H331      1.0  0.31039  0.76637  0.44321  1.0000
  C   C437      1.0  0.00462  0.77450  0.00422  1.0000
  C   C438      1.0  0.08140  0.76223  0.01322  1.0000
  C   C439      1.0  0.27562  0.97681  0.55079  1.0000
  C   C440      1.0  0.08292  0.76640  0.20404  1.0000
  C   C441      1.0  0.04316  0.76990  0.42151  1.0000
  C   C442      1.0  0.29889  0.81851  0.04083  1.0000
  S   S51       1.0  0.30230  0.82564  0.17558  1.0000
  H   H332      1.0  0.30025  0.80693  0.27001  1.0000
  C   C443      1.0  0.29611  0.84739  0.36535  1.0000
  C   C444      1.0  0.30568  0.83425  0.33590  1.0000
  Fe  Fe23      1.0  0.21601  0.74136  0.25218  1.0000
  C   C445      1.0  0.04253  0.76038  0.38746  1.0000
  H   H333      1.0  0.24791  0.94736  0.31134  1.0000
  H   H334      1.0  0.30409  0.79111  0.49278  1.0000
  H   H335      1.0  0.25710  0.95532  0.58248  1.0000
  H   H336      1.0  0.28513  0.76708  0.39951  1.0000
  C   C446      1.0  0.29261  0.79116  0.47473  1.0000
  C   C447      1.0  0.26392  0.79240  0.42448  1.0000
  C   C448      1.0  0.24250  0.81519  0.98437  1.0000
  H   H337      1.0  0.08806  0.76233  0.97983  1.0000
  C   C449      1.0  0.08666  0.77387  0.23819  1.0000
  S   S52       1.0  0.27334  0.77236  0.03848  1.0000
  H   H338      1.0  0.03700  0.88413  0.16884  1.0000
  H   H339      1.0  0.29417  0.78385  0.22761  1.0000
  C   C450      1.0  0.24759  0.95790  0.24458  1.0000
  H   H340      1.0  0.27195  0.81659  0.49944  1.0000
  C   C451      1.0  0.20559  0.75594  0.40801  1.0000
  H   H341      1.0  0.30799  0.79106  0.13593  1.0000
  H   H342      1.0  0.03955  0.79820  0.44376  1.0000
  C   C452      1.0  0.01543  0.73947  0.18426  1.0000
  H   H343      1.0  0.04604  0.76104  0.45170  1.0000
  H   H344      1.0  0.28960  0.94271  0.23907  1.0000
  H   H345      1.0  0.09677  0.96933  0.36112  1.0000
  C   C453      1.0  0.22740  0.75792  0.06266  1.0000
  H   H346      1.0  0.00445  0.82758  0.14782  1.0000
  H   H347      1.0  0.29701  0.97155  0.46832  1.0000
  H   H348      1.0  0.03159  0.81881  0.37564  1.0000
  Fe  Fe24      1.0  0.27318  0.87075  0.28500  1.0000
  H   H349      1.0  0.14015  0.84488  0.19771  1.0000
  C   C454      1.0  0.23784  0.83504  0.37210  1.0000
  C   C455      1.0  0.25720  0.97060  0.56666  1.0000
  H   H350      1.0  0.00614  0.92064  0.30163  1.0000
  C   C456      1.0  0.27649  0.80064  0.32270  1.0000
  H   H351      1.0  0.14516  0.96360  0.54804  1.0000
  C   C457      1.0  0.04792  0.77892  0.94802  1.0000
  C   C458      1.0  0.08307  0.74596  0.20683  1.0000
  C   C459      1.0  0.31665  0.82718  0.41617  1.0000
  C   C460      1.0  0.29997  0.82342  0.12410  1.0000
  C   C461      1.0  0.08511  0.76333  0.08502  1.0000
  C   C462      1.0  0.06480  0.76209  0.09957  1.0000
  H   H352      1.0  0.19360  0.75482  0.39249  1.0000
  C   C463      1.0  0.04724  0.79801  0.95796  1.0000
  C   C464      1.0  0.04849  0.81446  0.92560  1.0000
  C   C465      1.0  0.05037  0.81199  0.88314  1.0000
  C   C466      1.0  0.05096  0.79307  0.87303  1.0000
  C   C467      1.0  0.04975  0.77657  0.90531  1.0000
  H   H353      1.0  0.20101  0.80741  0.40763  1.0000
  H   H354      1.0  0.30160  0.83700  0.30468  1.0000
  H   H355      1.0  0.00348  0.85180  0.95793  1.0000
  C   C468      1.0  0.02934  0.87438  0.11625  1.0000
  C   C469      1.0  0.25751  0.77680  0.31453  1.0000
  H   H356      1.0  0.27286  0.77681  0.18523  1.0000
  H   H357      1.0  0.04574  0.80012  0.99077  1.0000
  S   S53       1.0  0.29366  0.76747  0.93943  1.0000
  H   H358      1.0  0.05028  0.76207  0.89668  1.0000
  C   C470      1.0  0.02814  0.75653  0.22805  1.0000
  C   C471      1.0  0.30336  0.80174  0.07147  1.0000
  H   H359      1.0  0.18003  0.93732  0.43902  1.0000
  C   C472      1.0  0.03670  0.84394  0.26279  1.0000
  C   C473      1.0  0.02158  0.83759  0.24955  1.0000
  C   C474      1.0  0.02643  0.82045  0.22969  1.0000
  C   C475      1.0  0.04618  0.80909  0.22465  1.0000
  C   C476      1.0  0.06139  0.81494  0.23915  1.0000
  C   C477      1.0  0.05659  0.83281  0.25720  1.0000
  P   P15       1.0  0.08702  0.80032  0.23295  1.0000
  C   C478      1.0  0.09942  0.80468  0.27296  1.0000
  C   C479      1.0  0.26967  0.77430  0.27489  1.0000
  H   H360      1.0  0.05243  0.79113  0.84012  1.0000
  C   C480      1.0  0.20404  0.82777  0.03149  1.0000
  C   C481      1.0  0.11850  0.80996  0.26168  1.0000
  C   C482      1.0  0.12787  0.81336  0.29296  1.0000
  C   C483      1.0  0.10068  0.80769  0.18053  1.0000
  C   C484      1.0  0.09518  0.82707  0.15821  1.0000
  C   C485      1.0  0.10619  0.83271  0.11791  1.0000
  C   C486      1.0  0.12262  0.81901  0.09965  1.0000
  C   C487      1.0  0.12805  0.79969  0.12164  1.0000
  C   C488      1.0  0.11735  0.79412  0.16215  1.0000
  H   H361      1.0  0.03290  0.85739  0.27776  1.0000
  H   H362      1.0  0.00603  0.84581  0.25496  1.0000
  H   H363      1.0  0.01463  0.81548  0.21975  1.0000
  H   H364      1.0  0.04922  0.79553  0.21050  1.0000
  H   H365      1.0  0.06811  0.83803  0.26748  1.0000
  H   H366      1.0  0.20209  0.81433  0.17758  1.0000
  S   S54       1.0  0.23939  0.75515  0.97773  1.0000
  H   H367      1.0  0.19524  0.97600  0.28746  1.0000
  H   H368      1.0  0.14276  0.81705  0.28433  1.0000
  H   H369      1.0  0.08257  0.83787  0.17200  1.0000
  H   H370      1.0  0.10209  0.84772  0.10092  1.0000
  H   H371      1.0  0.13136  0.82335  0.06871  1.0000
  H   H372      1.0  0.14091  0.78909  0.10778  1.0000
  C   C489      1.0  0.18483  0.98571  0.34939  1.0000
  H   H373      1.0  0.24169  0.94541  0.23996  1.0000
  H   H374      1.0  0.20676  0.86951  0.14967  1.0000
  C   C490      1.0  0.25788  0.80810  0.17840  1.0000
  C   C491      1.0  0.20316  0.90885  0.32127  1.0000
  C   C492      1.0  0.22530  0.81369  0.97020  1.0000
  S   S55       1.0  0.28609  0.92629  0.16661  1.0000
  C   C493      1.0  0.18117  0.94468  0.35081  1.0000
  H   H375      1.0  0.19473  0.87083  0.36901  1.0000
  H   H376      1.0  0.31902  0.94940  0.26158  1.0000
  H   H377      1.0  0.24829  0.76022  0.46395  1.0000
  H   H378      1.0  0.09516  0.76523  0.30079  1.0000
  C   C494      1.0  0.10993  0.97584  0.34692  1.0000
  C   C495      1.0  0.20608  0.82013  0.99355  1.0000
  H   H379      1.0  0.12621  0.81332  0.35972  1.0000
  C   C496      1.0  0.30173  0.84394  0.40536  1.0000
  H   H380      1.0  0.24888  0.85740  0.03389  1.0000
  H   H381      1.0  0.29079  0.97210  0.12717  1.0000
  H   H382      1.0  0.15140  0.74563  0.20423  1.0000
  C   C497      1.0  0.23199  0.77310  0.41180  1.0000
  C   C498      1.0  0.19019  0.82609  0.16647  1.0000
  C   C499      1.0  0.03507  0.80253  0.37880  1.0000
  C   C500      1.0  0.09337  0.76349  0.04185  1.0000
  P   P16       1.0  0.21926  0.83720  0.09696  1.0000
  H   H383      1.0  0.00014  0.84177  0.03565  1.0000
  H   H384      1.0  0.26492  0.81203  0.20143  1.0000
  C   C501      1.0  0.03491  0.79309  0.34458  1.0000
  H   H385      1.0  0.09468  0.76362  0.10719  1.0000
  H   H386      1.0  0.00664  0.75303  0.43980  1.0000
  C   C502      1.0  0.28830  0.79852  0.28259  1.0000
  H   H387      1.0  0.29108  0.85089  0.02861  1.0000
  H   H388      1.0  0.24233  0.83842  0.16234  1.0000
  H   H389      1.0  0.12646  0.81107  0.22903  1.0000
  C   C503      1.0  0.24052  0.82291  0.02207  1.0000
  C   C504      1.0  0.09112  0.76037  0.27475  1.0000
  C   C505      1.0  0.12779  0.96905  0.36364  1.0000
  H   H390      1.0  0.24246  0.74979  0.06638  1.0000
  P   P17       1.0  0.16774  0.96844  0.36775  1.0000
  C   C506      1.0  0.99436  0.82134  0.13527  1.0000
  C   C507      1.0  0.16042  0.96635  0.42496  1.0000
  C   C508      1.0  0.16901  0.94960  0.45189  1.0000
  C   C509      1.0  0.16345  0.94860  0.49616  1.0000
  C   C510      1.0  0.14932  0.96429  0.51378  1.0000
  C   C511      1.0  0.99540  0.74204  0.06536  1.0000
  H   H391      1.0  0.30648  0.78677  0.06358  1.0000
  Fe  Fe25      1.0  0.27017  0.75507  0.98982  1.0000
  C   C512      1.0  0.09112  0.73996  0.27738  1.0000
  C   C513      1.0  0.19582  0.83919  0.38963  1.0000
  H   H392      1.0  0.22694  0.80686  0.94196  1.0000
  H   H393      1.0  0.08019  0.77634  0.17495  1.0000
  H   H394      1.0  0.29367  0.74506  0.20973  1.0000
  C   C514      1.0  0.21759  0.87401  0.12207  1.0000
  H   H395      1.0  0.21675  0.90188  0.14321  1.0000
  H   H396      1.0  0.23271  0.79402  0.09606  1.0000
  C   C515      1.0  0.15871  0.85628  0.14001  1.0000
  H   H397      1.0  0.29941  0.89749  0.30948  1.0000
  H   H398      1.0  0.22468  0.97931  0.57436  1.0000
  H   H399      1.0  0.25903  0.88960  0.02864  1.0000
  C   C516      1.0  0.25279  0.78325  0.14078  1.0000
  C   C517      1.0  0.22326  0.89246  0.11854  1.0000
  C   C518      1.0  0.31297  0.74329  0.14895  1.0000
  H   H400      1.0  0.24296  0.91216  0.08285  1.0000
  C   C519      1.0  0.28194  0.77780  0.42165  1.0000
  C   C520      1.0  0.21004  0.74232  0.44404  1.0000
  H   H401      1.0  0.15714  0.84119  0.32316  1.0000
  H   H402      1.0  0.16932  0.87207  0.28569  1.0000
  H   H403      1.0  0.17954  0.84071  0.39562  1.0000
  S   S56       1.0  0.19260  0.74160  0.31203  1.0000
  C   C521      1.0  0.31504  0.89657  0.31154  1.0000
  S   S57       1.0  0.25214  0.89776  0.25834  1.0000
  Fe  Fe26      1.0  0.29661  0.74563  0.05738  1.0000
  Fe  Fe27      1.0  0.24127  0.87569  0.23087  1.0000
  H   H404      1.0  0.16829  0.81809  0.22093  1.0000
  C   C522      1.0  0.24713  0.88547  0.05422  1.0000
  C   C523      1.0  0.24132  0.86709  0.05739  1.0000
  C   C524      1.0  0.17086  0.82823  0.19140  1.0000
  H   H405      1.0  0.26379  0.97456  0.32066  1.0000
  C   C525      1.0  0.17811  0.85421  0.11504  1.0000
  C   C526      1.0  0.23616  0.81823  0.12556  1.0000
  Fe  Fe28      1.0  0.27616  0.89777  0.19997  1.0000
  C   C527      1.0  0.23975  0.79814  0.11879  1.0000
  H   H406      1.0  0.25596  0.76780  0.13481  1.0000
  S   S58       1.0  0.26337  0.87829  0.16925  1.0000
  Fe  Fe29      1.0  0.28365  0.85291  0.20297  1.0000
  C   C528      1.0  0.15509  0.84327  0.17820  1.0000
  H   H407      1.0  0.18087  0.86455  0.08589  1.0000
  C   C529      1.0  0.22127  0.82936  0.04592  1.0000
  H   H408      1.0  0.18910  0.83152  0.05021  1.0000
  H   H409      1.0  0.00781  0.78713  0.98044  1.0000
  H   H410      1.0  0.25747  0.80971  0.96701  1.0000
  S   S59       1.0  0.27675  0.86785  0.35296  1.0000
  H   H411      1.0  0.05142  0.82472  0.85803  1.0000
  H   H412      1.0  0.12230  0.77926  0.17920  1.0000
  H   H413      1.0  0.14655  0.86806  0.12996  1.0000
  H   H414      1.0  0.30871  0.92412  0.33812  1.0000
  C   C530      1.0  0.26025  0.97417  0.28993  1.0000
  H   H415      1.0  0.05835  0.76197  0.13300  1.0000
  H   H416      1.0  0.19281  0.81831  0.98326  1.0000
  H   H417      1.0  0.32245  0.80149  0.88046  1.0000
  H   H418      1.0  0.29452  0.85422  0.42799  1.0000
  C   C531      1.0  0.22540  0.85410  0.36627  1.0000
  C   C532      1.0  0.03906  0.77210  0.34852  1.0000
  H   H419      1.0  0.12832  0.95715  0.39068  1.0000
  H   H420      1.0  0.25413  0.82293  0.03358  1.0000
  C   C533      1.0  0.22942  0.81777  0.38614  1.0000
  H   H421      1.0  0.21816  0.76134  0.12899  1.0000
  H   H422      1.0  0.21316  0.78136  0.36335  1.0000
  H   H423      1.0  0.26712  0.76378  0.25686  1.0000
  C   C534      1.0  0.21663  0.77110  0.39171  1.0000
  C   C535      1.0  0.20439  0.85616  0.37454  1.0000
  C   C536      1.0  0.03948  0.79092  0.41712  1.0000
  C   C537      1.0  0.25127  0.95888  0.28470  1.0000
  C   C538      1.0  0.30458  0.93818  0.22137  1.0000
  H   H424      1.0  0.13960  0.74568  0.13766  1.0000
  H   H425      1.0  0.10922  0.76406  0.03089  1.0000
  H   H426      1.0  0.00352  0.88269  0.21515  1.0000
  H   H427      1.0  0.03884  0.76512  0.32154  1.0000
  C   C539      1.0  0.99577  0.74982  0.19764  1.0000
  H   H428      1.0  0.04394  0.87498  0.09607  1.0000
  C   C540      1.0  0.99224  0.76338  0.22668  1.0000
  H   H429      1.0  0.04058  0.75872  0.24070  1.0000
  H   H430      1.0  0.25076  0.97063  0.17856  1.0000
  C   C541      1.0  0.01432  0.86865  0.10117  1.0000
  C   C542      1.0  0.02022  0.75846  0.01540  1.0000
  C   C543      1.0  0.03163  0.74307  0.19887  1.0000
  Fe  Fe30      1.0  0.17161  0.73916  0.27013  1.0000
  H   H431      1.0  0.02671  0.73589  0.94847  1.0000
  H   H432      1.0  0.29185  0.85524  0.10253  1.0000
  H   H433      1.0  0.03738  0.75891  0.08373  1.0000
  H   H434      1.0  0.32266  0.94648  0.43139  1.0000
  S   S60       1.0  0.29892  0.81509  0.98853  1.0000
  S   S61       1.0  0.00420  0.78195  0.28103  1.0000
  P   P18       1.0  0.04625  0.75791  0.99031  1.0000
  Fe  Fe31      1.0  0.29869  0.78243  0.99071  1.0000
  C   C544      1.0  0.30413  0.80418  0.11273  1.0000
  H   H435      1.0  0.28964  0.96627  0.55488  1.0000
  C   C545      1.0  0.30172  0.97990  0.13254  1.0000
  C   C546      1.0  0.25269  0.97232  0.20978  1.0000
  S   S62       1.0  0.29103  0.98066  0.37874  1.0000
  H   H436      1.0  0.01757  0.86486  0.06931  1.0000
  C   C547      1.0  0.14481  0.97764  0.34571  1.0000
  H   H437      1.0  0.08095  0.74009  0.17993  1.0000
  C   C548      1.0  0.31284  0.97101  0.46795  1.0000
  C   C549      1.0  0.01146  0.73856  0.45831  1.0000
  C   C550      1.0  0.23895  0.98408  0.56211  1.0000
  H   H438      1.0  0.32102  0.82461  0.44707  1.0000
  H   H439      1.0  0.28484  0.74465  0.54882  1.0000
  C   C551      1.0  0.32007  0.81708  0.34731  1.0000
  C   C552      1.0  0.32127  0.94223  0.23377  1.0000
  H   H440      1.0  0.18367  0.73871  0.11239  1.0000
  H   H441      1.0  0.31953  0.75201  0.24420  1.0000
  S   S63       1.0  0.29515  0.73574  0.12754  1.0000
  Fe  Fe32      1.0  0.31519  0.74054  0.96638  1.0000
  H   H442      1.0  0.17121  0.73594  0.04824  1.0000
  S   S64       1.0  0.19561  0.73622  0.21213  1.0000
  C   C553      1.0  0.31871  0.98504  0.48632  1.0000
  S   S65       1.0  0.32510  0.76508  0.32509  1.0000
  S   S66       1.0  0.32258  0.75672  0.01275  1.0000
  C   C554      1.0  0.32236  0.97203  0.12076  1.0000
  C   C555      1.0  0.32305  0.75027  0.21089  1.0000
  C   C556      1.0  0.40307  0.10823  0.19607  1.0000
  S   S67       1.0  0.37031  0.20495  0.53979  1.0000
  H   H443      1.0  0.33511  0.05166  0.42869  1.0000
  C   C557      1.0  0.49605  0.21674  0.37447  1.0000
  S   S68       1.0  0.52904  0.13860  0.69429  1.0000
  P   P19       1.0  0.37410  0.09634  0.16326  1.0000
  H   H444      1.0  0.57419  0.12372  0.68115  1.0000
  H   H445      1.0  0.40573  0.02477  0.36195  1.0000
  C   C558      1.0  0.37642  0.21461  0.83205  1.0000
  H   H446      1.0  0.46818  0.11650  0.84509  1.0000
  H   H447      1.0  0.39646  0.05897  0.38197  1.0000
  H   H448      1.0  0.53184  0.18027  0.64527  1.0000
  H   H449      1.0  0.36634  0.17700  0.79137  1.0000
  C   C559      1.0  0.34396  0.07311  0.27849  1.0000
  C   C560      1.0  0.46961  0.10121  0.96708  1.0000
  S   S69       1.0  0.36778  0.99446  0.25304  1.0000
  H   H450      1.0  0.44451  0.09781  0.01841  1.0000
  C   C561      1.0  0.47093  0.16307  0.67959  1.0000
  C   C562      1.0  0.39323  0.09669  0.30919  1.0000
  C   C563      1.0  0.44701  0.16098  0.84375  1.0000
  H   H451      1.0  0.50200  0.09962  0.81384  1.0000
  H   H452      1.0  0.49081  0.16585  0.72007  1.0000
  H   H453      1.0  0.42768  0.11251  0.63612  1.0000
  H   H454      1.0  0.49122  0.20171  0.05790  1.0000
  C   C564      1.0  0.34875  0.08560  0.24013  1.0000
  C   C565      1.0  0.45599  0.15649  0.37558  1.0000
  C   C566      1.0  0.42485  0.17772  0.79372  1.0000
  H   H455      1.0  0.40231  0.09533  0.22056  1.0000
  S   S70       1.0  0.49307  0.20346  0.83920  1.0000
  H   H456      1.0  0.39415  0.08080  0.30929  1.0000
  H   H457      1.0  0.65558  0.01938  0.86697  1.0000
  C   C567      1.0  0.52343  0.20044  0.56216  1.0000
  C   C568      1.0  0.50420  0.13644  0.64172  1.0000
  H   H458      1.0  0.42612  0.11689  0.21970  1.0000
  C   C569      1.0  0.57062  0.09244  0.88068  1.0000
  C   C570      1.0  0.60306  0.11312  0.75848  1.0000
  C   C571      1.0  0.59466  0.12343  0.72296  1.0000
  H   H459      1.0  0.42159  0.12933  0.31762  1.0000
  S   S71       1.0  0.58462  0.14337  0.83241  1.0000
  C   C572      1.0  0.58550  0.07644  0.86589  1.0000
  H   H460      1.0  0.45887  0.18033  0.87228  1.0000
  H   H461      1.0  0.65293  0.16153  0.86687  1.0000
  C   C573      1.0  0.57603  0.09721  0.72836  1.0000
  Fe  Fe33      1.0  0.51431  0.12948  0.85487  1.0000
  C   C574      1.0  0.43485  0.15980  0.81522  1.0000
  H   H462      1.0  0.56503  0.09147  0.71742  1.0000
  C   C575      1.0  0.45960  0.18779  0.00736  1.0000
  C   C576      1.0  0.46892  0.15333  0.64718  1.0000
  C   C577      1.0  0.62180  0.09581  0.84638  1.0000
  H   H463      1.0  0.38313  0.03335  0.10478  1.0000
  C   C578      1.0  0.37566  0.01890  0.38285  1.0000
  C   C579      1.0  0.39036  0.03053  0.37670  1.0000
  C   C580      1.0  0.38508  0.04991  0.38781  1.0000
  C   C581      1.0  0.58427  0.08694  0.76411  1.0000
  C   C582      1.0  0.65187  0.11004  0.83612  1.0000
  C   C583      1.0  0.35117  0.11192  0.14774  1.0000
  H   H464      1.0  0.44078  0.21166  0.83555  1.0000
  C   C584      1.0  0.45013  0.16136  0.30308  1.0000
  H   H465      1.0  0.41112  0.04103  0.04593  1.0000
  H   H466      1.0  0.46410  0.20313  0.48555  1.0000
  H   H467      1.0  0.37277  0.20059  0.72455  1.0000
  H   H468      1.0  0.46023  0.18767  0.07321  1.0000
  C   C585      1.0  0.38239  0.13932  0.72938  1.0000
  C   C586      1.0  0.46910  0.19232  0.96525  1.0000
  H   H469      1.0  0.41911  0.17144  0.49460  1.0000
  H   H470      1.0  0.35948  0.20748  0.35733  1.0000
  C   C587      1.0  0.62962  0.22485  0.77185  1.0000
  C   C588      1.0  0.55492  0.16102  0.94833  1.0000
  C   C589      1.0  0.44376  0.18205  0.30393  1.0000
  H   H471      1.0  0.40778  0.18534  0.41760  1.0000
  S   S72       1.0  0.33406  0.08047  0.53601  1.0000
  H   H472      1.0  0.43956  0.09319  0.85242  1.0000
  C   C590      1.0  0.42416  0.09346  0.91719  1.0000
  C   C591      1.0  0.32919  0.13349  0.31722  1.0000
  C   C592      1.0  0.42450  0.20502  0.43319  1.0000
  C   C593      1.0  0.42988  0.10242  0.87524  1.0000
  C   C594      1.0  0.48867  0.20297  0.59879  1.0000
  H   H473      1.0  0.55370  0.14738  0.93818  1.0000
  H   H474      1.0  0.59295  0.04406  0.86662  1.0000
  C   C595      1.0  0.39025  0.13761  0.31073  1.0000
  H   H475      1.0  0.40738  0.09836  0.97980  1.0000
  C   C596      1.0  0.57376  0.16347  0.95314  1.0000
  C   C597      1.0  0.43919  0.19728  0.82943  1.0000
  H   H476      1.0  0.56249  0.16282  0.67366  1.0000
  C   C598      1.0  0.48823  0.21745  0.45045  1.0000
  C   C599      1.0  0.60522  0.16737  0.85629  1.0000
  C   C600      1.0  0.54973  0.06921  0.92103  1.0000
  C   C601      1.0  0.38595  0.07904  0.12561  1.0000
  C   C602      1.0  0.58215  0.05670  0.87857  1.0000
  H   H477      1.0  0.38320  0.13464  0.60770  1.0000
  H   H478      1.0  0.61717  0.15419  0.85901  1.0000
  C   C603      1.0  0.53082  0.22319  0.08765  1.0000
  H   H479      1.0  0.42408  0.09290  0.31704  1.0000
  H   H480      1.0  0.57963  0.07312  0.78040  1.0000
  H   H481      1.0  0.48396  0.16032  0.45181  1.0000
  C   C604      1.0  0.40463  0.12563  0.93508  1.0000
  C   C605      1.0  0.50603  0.14534  0.67546  1.0000
  H   H482      1.0  0.45433  0.14754  0.86176  1.0000
  H   H483      1.0  0.36705  0.05734  0.15506  1.0000
  H   H484      1.0  0.38857  0.03946  0.27792  1.0000
  H   H485      1.0  0.60221  0.09821  0.90793  1.0000
  C   C606      1.0  0.44939  0.17958  0.85034  1.0000
  S   S73       1.0  0.33232  0.04212  0.20689  1.0000
  C   C607      1.0  0.49973  0.22252  0.41054  1.0000
  C   C608      1.0  0.38264  0.14217  0.43557  1.0000
  C   C609      1.0  0.41161  0.10510  0.94714  1.0000
  P   P20       1.0  0.60739  0.08176  0.82712  1.0000
  H   H486      1.0  0.41489  0.17758  0.77243  1.0000
  H   H487      1.0  0.56166  0.03795  0.91554  1.0000
  S   S74       1.0  0.54206  0.12094  0.80653  1.0000
  H   H488      1.0  0.53737  0.21400  0.11415  1.0000
  H   H489      1.0  0.63148  0.05113  0.88038  1.0000
  H   H490      1.0  0.61286  0.11999  0.77037  1.0000
  Fe  Fe34      1.0  0.42891  0.22894  0.56937  1.0000
  H   H491      1.0  0.34803  0.09251  0.10547  1.0000
  H   H492      1.0  0.64501  0.09551  0.78978  1.0000
  H   H493      1.0  0.40694  0.09735  0.08752  1.0000
  C   C610      1.0  0.45321  0.14246  0.96121  1.0000
  C   C611      1.0  0.56434  0.05313  0.90618  1.0000
  S   S75       1.0  0.33153  0.01371  0.32657  1.0000
  C   C612      1.0  0.38836  0.04730  0.10111  1.0000
  C   C613      1.0  0.64002  0.09999  0.82113  1.0000
  C   C614      1.0  0.41004  0.10354  0.31361  1.0000
  H   H494      1.0  0.57249  0.10781  0.87022  1.0000
  H   H495      1.0  0.48413  0.13258  0.60320  1.0000
  H   H496      1.0  0.42288  0.07305  0.03785  1.0000
  C   C615      1.0  0.58116  0.11548  0.70791  1.0000
  P   P21       1.0  0.34888  0.14795  0.30781  1.0000
  H   H497      1.0  0.58706  0.15182  0.94642  1.0000
  H   H498      1.0  0.59815  0.13790  0.70794  1.0000
  S   S76       1.0  0.44548  0.15597  0.63191  1.0000
  H   H499      1.0  0.39020  0.16907  0.58823  1.0000
  S   S77       1.0  0.59230  0.22436  0.88245  1.0000
  C   C616      1.0  0.38824  0.21287  0.43395  1.0000
  P   P22       1.0  0.51235  0.22284  0.62940  1.0000
  H   H500      1.0  0.37455  0.17264  0.15666  1.0000
  C   C617      1.0  0.56410  0.21085  0.68079  1.0000
  S   S78       1.0  0.62822  0.21258  0.96843  1.0000
  P   P23       1.0  0.51741  0.21425  0.97692  1.0000
  Fe  Fe35      1.0  0.37809  0.18764  0.93137  1.0000
  H   H501      1.0  0.33990  0.20019  0.43028  1.0000
  C   C618      1.0  0.47095  0.11422  0.81215  1.0000
  S   S79       1.0  0.49757  0.15126  0.80780  1.0000
  C   C619      1.0  0.48946  0.15884  0.69415  1.0000
  C   C620      1.0  0.40861  0.12403  0.31392  1.0000
  C   C621      1.0  0.47127  0.13540  0.93405  1.0000
  C   C622      1.0  0.47305  0.14215  0.50949  1.0000
  H   H502      1.0  0.45800  0.12732  0.56782  1.0000
  H   H503      1.0  0.34090  0.18694  0.51902  1.0000
  C   C623      1.0  0.46909  0.20091  0.41825  1.0000
  H   H504      1.0  0.39145  0.12336  0.83012  1.0000
  C   C624      1.0  0.37947  0.13096  0.77236  1.0000
  C   C625      1.0  0.44973  0.17730  0.37658  1.0000
  C   C626      1.0  0.40701  0.19977  0.42689  1.0000
  H   H505      1.0  0.42965  0.07755  0.92659  1.0000
  C   C627      1.0  0.45124  0.16777  0.46825  1.0000
  S   S80       1.0  0.35936  0.08271  0.41587  1.0000
  Fe  Fe36      1.0  0.62160  0.22329  0.90251  1.0000
  H   H506      1.0  0.46107  0.13254  0.33827  1.0000
  C   C628      1.0  0.64281  0.03452  0.76871  1.0000
  H   H507      1.0  0.42374  0.14601  0.55762  1.0000
  C   C629      1.0  0.52010  0.18835  0.53545  1.0000
  H   H508      1.0  0.42728  0.15303  0.72153  1.0000
  H   H509      1.0  0.47888  0.14594  0.91099  1.0000
  Fe  Fe37      1.0  0.52633  0.14477  0.76087  1.0000
  H   H510      1.0  0.38721  0.15898  0.48079  1.0000
  H   H511      1.0  0.62014  0.18602  0.87981  1.0000
  C   C630      1.0  0.34241  0.12978  0.16501  1.0000
  S   S81       1.0  0.53927  0.16940  0.77332  1.0000
  H   H512      1.0  0.44709  0.15840  0.95912  1.0000
  H   H513      1.0  0.49847  0.17404  0.52026  1.0000
  C   C631      1.0  0.35054  0.04572  0.41457  1.0000
  H   H514      1.0  0.39500  0.13467  0.95831  1.0000
  H   H515      1.0  0.53224  0.19789  0.05685  1.0000
  H   H516      1.0  0.47802  0.20192  0.34982  1.0000
  H   H517      1.0  0.52346  0.17418  0.95076  1.0000
  C   C632      1.0  0.39414  0.12988  0.79692  1.0000
  C   C633      1.0  0.47144  0.09549  0.43931  1.0000
  C   C634      1.0  0.48542  0.08373  0.46403  1.0000
  C   C635      1.0  0.47868  0.07266  0.50306  1.0000
  C   C636      1.0  0.45797  0.07341  0.51751  1.0000
  C   C637      1.0  0.44381  0.08536  0.49311  1.0000
  C   C638      1.0  0.45070  0.09628  0.45367  1.0000
  P   P24       1.0  0.41707  0.08651  0.51271  1.0000
  C   C639      1.0  0.40968  0.06409  0.50557  1.0000
  C   C640      1.0  0.41192  0.08970  0.56834  1.0000
  C   C641      1.0  0.39626  0.08208  0.59718  1.0000
  C   C642      1.0  0.39202  0.08536  0.63968  1.0000
  C   C643      1.0  0.40340  0.09621  0.65377  1.0000
  C   C644      1.0  0.41911  0.10373  0.62540  1.0000
  C   C645      1.0  0.42337  0.10044  0.58295  1.0000
  C   C646      1.0  0.38913  0.06413  0.50805  1.0000
  C   C647      1.0  0.38326  0.04751  0.49945  1.0000
  C   C648      1.0  0.39781  0.03067  0.48843  1.0000
  C   C649      1.0  0.41829  0.03035  0.48644  1.0000
  C   C650      1.0  0.42425  0.04699  0.49494  1.0000
  C   C651      1.0  0.40316  0.10824  0.48307  1.0000
  C   C652      1.0  0.39603  0.10629  0.44701  1.0000
  C   C653      1.0  0.38553  0.12314  0.42387  1.0000
  C   C654      1.0  0.40012  0.12742  0.49467  1.0000
  H   H518      1.0  0.47669  0.10396  0.40896  1.0000
  H   H519      1.0  0.50149  0.08310  0.45287  1.0000
  H   H520      1.0  0.48951  0.06348  0.52219  1.0000
  H   H521      1.0  0.45294  0.06475  0.54787  1.0000
  H   H522      1.0  0.44012  0.10545  0.43404  1.0000
  H   H523      1.0  0.38672  0.07430  0.58684  1.0000
  H   H524      1.0  0.37936  0.08013  0.66123  1.0000
  H   H525      1.0  0.39975  0.09915  0.68643  1.0000
  C   C655      1.0  0.61592  0.10144  0.88729  1.0000
  H   H526      1.0  0.43536  0.10656  0.56127  1.0000
  H   H527      1.0  0.37770  0.07733  0.51529  1.0000
  C   C656      1.0  0.39000  0.14432  0.47085  1.0000
  H   H528      1.0  0.39321  0.01805  0.48061  1.0000
  H   H529      1.0  0.42955  0.01731  0.47756  1.0000
  H   H530      1.0  0.44020  0.04650  0.49239  1.0000
  H   H531      1.0  0.39811  0.09175  0.43701  1.0000
  H   H532      1.0  0.37901  0.12122  0.39783  1.0000
  H   H533      1.0  0.40512  0.12933  0.52260  1.0000
  C   C657      1.0  0.40641  0.14128  0.13219  1.0000
  C   C658      1.0  0.41836  0.13695  0.16364  1.0000
  C   C659      1.0  0.41666  0.12045  0.19565  1.0000
  C   C660      1.0  0.57555  0.18127  0.96492  1.0000
  C   C661      1.0  0.39090  0.11258  0.16471  1.0000
  C   C662      1.0  0.39270  0.12920  0.13270  1.0000
  Fe  Fe38      1.0  0.55270  0.14618  0.82310  1.0000
  C   C663      1.0  0.63452  0.04657  0.84912  1.0000
  C   C664      1.0  0.45620  0.14859  0.33890  1.0000
  H   H534      1.0  0.64609  0.02987  0.73751  1.0000
  S   S82       1.0  0.38256  0.99551  0.36423  1.0000
  C   C665      1.0  0.62479  0.05857  0.81651  1.0000
  C   C666      1.0  0.62915  0.05250  0.77610  1.0000
  H   H535      1.0  0.53567  0.06663  0.94157  1.0000
  C   C667      1.0  0.59786  0.09482  0.77948  1.0000
  H   H536      1.0  0.62172  0.21128  0.72518  1.0000
  C   C668      1.0  0.47927  0.11472  0.93649  1.0000
  C   C669      1.0  0.40163  0.08342  0.09200  1.0000
  H   H537      1.0  0.46058  0.14629  0.40303  1.0000
  C   C670      1.0  0.49094  0.21067  0.70980  1.0000
  H   H538      1.0  0.54146  0.10136  0.91930  1.0000
  C   C671      1.0  0.55295  0.08884  0.90845  1.0000
  H   H539      1.0  0.40806  0.15374  0.10659  1.0000
  H   H540      1.0  0.42918  0.14618  0.16261  1.0000
  H   H541      1.0  0.59029  0.18348  0.96721  1.0000
  C   C672      1.0  0.42718  0.19635  0.80063  1.0000
  H   H542      1.0  0.38393  0.13256  0.10731  1.0000
  H   H543      1.0  0.34440  0.01733  0.40764  1.0000
  H   H544      1.0  0.51698  0.12607  0.62716  1.0000
  C   C673      1.0  0.36518  0.05765  0.40632  1.0000
  S   S83       1.0  0.50121  0.10534  0.90154  1.0000
  H   H545      1.0  0.39728  0.06112  0.20941  1.0000
  C   C674      1.0  0.58757  0.16622  0.84313  1.0000
  C   C675      1.0  0.37789  0.16554  0.57748  1.0000
  C   C676      1.0  0.33054  0.99798  0.15051  1.0000
  H   H546      1.0  0.47585  0.08523  0.96928  1.0000
  H   H547      1.0  0.34938  0.13437  0.18730  1.0000
  C   C677      1.0  0.48561  0.14014  0.62815  1.0000
  H   H548      1.0  0.37423  0.15514  0.41807  1.0000
  H   H549      1.0  0.37644  0.14892  0.22399  1.0000
  C   C678      1.0  0.37931  0.06093  0.12974  1.0000
  C   C679      1.0  0.36586  0.18037  0.55280  1.0000
  S   S84       1.0  0.34042  0.21215  0.06850  1.0000
  H   H550      1.0  0.48255  0.10511  0.69466  1.0000
  C   C680      1.0  0.41070  0.06969  0.06349  1.0000
  H   H551      1.0  0.45805  0.17323  0.69457  1.0000
  S   S85       1.0  0.39821  0.19514  0.02796  1.0000
  C   C681      1.0  0.44339  0.12890  0.99140  1.0000
  S   S86       1.0  0.37018  0.17062  0.99649  1.0000
  C   C682      1.0  0.38248  0.06489  0.22888  1.0000
  C   C683      1.0  0.65229  0.02256  0.80145  1.0000
  C   C684      1.0  0.37157  0.19622  0.83105  1.0000
  C   C685      1.0  0.47065  0.15698  0.47412  1.0000
  C   C686      1.0  0.45186  0.10830  0.99478  1.0000
  S   S87       1.0  0.52636  0.15257  0.87586  1.0000
  C   C687      1.0  0.36371  0.16145  0.22239  1.0000
  C   C688      1.0  0.36272  0.17477  0.18424  1.0000
  C   C689      1.0  0.60697  0.18538  0.86773  1.0000
  C   C690      1.0  0.54100  0.18912  0.65383  1.0000
  C   C691      1.0  0.37495  0.11022  0.30555  1.0000
  C   C692      1.0  0.35027  0.17550  0.53803  1.0000
  H   H552      1.0  0.62918  0.21176  0.79622  1.0000
  C   C693      1.0  0.37401  0.14602  0.58828  1.0000
  C   C694      1.0  0.49023  0.10441  0.79462  1.0000
  C   C695      1.0  0.34169  0.19028  0.40699  1.0000
  H   H553      1.0  0.43898  0.19196  0.27623  1.0000
  H   H554      1.0  0.58302  0.18205  0.69787  1.0000
  H   H555      1.0  0.38934  0.15332  0.31190  1.0000
  C   C696      1.0  0.40408  0.05164  0.06804  1.0000
  H   H556      1.0  0.47060  0.18724  0.57606  1.0000
  C   C697      1.0  0.33268  0.17351  0.41795  1.0000
  H   H557      1.0  0.44875  0.12197  0.72473  1.0000
  C   C698      1.0  0.44353  0.19000  0.34054  1.0000
  C   C699      1.0  0.35839  0.14115  0.57363  1.0000
  Fe  Fe39      1.0  0.42763  0.18761  0.62116  1.0000
  Fe  Fe40      1.0  0.51199  0.17381  0.82472  1.0000
  H   H558      1.0  0.50963  0.09437  0.73822  1.0000
  H   H559      1.0  0.32673  0.14837  0.39716  1.0000
  H   H560      1.0  0.36578  0.12539  0.78678  1.0000
  H   H561      1.0  0.35441  0.04690  0.32142  1.0000
  H   H562      1.0  0.32964  0.02833  0.51128  1.0000
  C   C700      1.0  0.55846  0.17910  0.67003  1.0000
  H   H563      1.0  0.53278  0.20949  0.79265  1.0000
  C   C701      1.0  0.49448  0.10129  0.75220  1.0000
  H   H564      1.0  0.36743  0.04796  0.49987  1.0000
  C   C702      1.0  0.45612  0.13808  0.53926  1.0000
  C   C703      1.0  0.56996  0.18993  0.68374  1.0000
  H   H565      1.0  0.55831  0.18240  0.83019  1.0000
  C   C704      1.0  0.57205  0.18321  0.83988  1.0000
  C   C705      1.0  0.36808  0.08156  0.21489  1.0000
  C   C706      1.0  0.45563  0.12108  0.78737  1.0000
  P   P25       1.0  0.43126  0.13534  0.80990  1.0000
  C   C707      1.0  0.37765  0.05259  0.26751  1.0000
  C   C708      1.0  0.43676  0.14856  0.53339  1.0000
  C   C709      1.0  0.37313  0.13076  0.30737  1.0000
  C   C710      1.0  0.41420  0.14643  0.73591  1.0000
  S   S88       1.0  0.42058  0.13718  0.02539  1.0000
  C   C711      1.0  0.47925  0.10745  0.72764  1.0000
  C   C712      1.0  0.45994  0.11728  0.74500  1.0000
  S   S89       1.0  0.35422  0.11648  0.58620  1.0000
  H   H566      1.0  0.40218  0.15330  0.67780  1.0000
  P   P26       1.0  0.44863  0.18784  0.42402  1.0000
  H   H567      1.0  0.36223  0.10436  0.30240  1.0000
  C   C713      1.0  0.50776  0.20770  0.59429  1.0000
  S   S90       1.0  0.39404  0.19496  0.64278  1.0000
  H   H568      1.0  0.40484  0.15062  0.88456  1.0000
  C   C714      1.0  0.57402  0.20130  0.85015  1.0000
  H   H569      1.0  0.50336  0.19792  0.71290  1.0000
  S   S91       1.0  0.36673  0.17971  0.87834  1.0000
  C   C715      1.0  0.48527  0.19912  0.03177  1.0000
  C   C716      1.0  0.53512  0.21018  0.65013  1.0000
  C   C717      1.0  0.35838  0.05672  0.29219  1.0000
  C   C718      1.0  0.41181  0.13739  0.77873  1.0000
  C   C719      1.0  0.35578  0.02636  0.40245  1.0000
  C   C720      1.0  0.46771  0.19113  0.04064  1.0000
  C   C721      1.0  0.59123  0.20227  0.86509  1.0000
  Fe  Fe41      1.0  0.33416  0.09386  0.46783  1.0000
  C   C722      1.0  0.48535  0.19100  0.57192  1.0000
  H   H570      1.0  0.53232  0.18255  0.51115  1.0000
  Fe  Fe42      1.0  0.40299  0.16706  0.99922  1.0000
  C   C723      1.0  0.39981  0.14692  0.71116  1.0000
  C   C724      1.0  0.41040  0.13465  0.89333  1.0000
  S   S92       1.0  0.41128  0.18172  0.93224  1.0000
  H   H571      1.0  0.48804  0.13424  0.51468  1.0000
  C   C725      1.0  0.42334  0.12320  0.86328  1.0000
  H   H572      1.0  0.37764  0.21852  0.86182  1.0000
  H   H573      1.0  0.53826  0.20394  0.55824  1.0000
  C   C726      1.0  0.34653  0.15590  0.54844  1.0000
  C   C727      1.0  0.50108  0.18355  0.54050  1.0000
  H   H574      1.0  0.45035  0.15524  0.27462  1.0000
  H   H575      1.0  0.56196  0.21436  0.84724  1.0000
  C   C728      1.0  0.43425  0.16315  0.49766  1.0000
  H   H576      1.0  0.43844  0.20607  0.34086  1.0000
  S   S93       1.0  0.42610  0.19993  0.55291  1.0000
  H   H577      1.0  0.44584  0.23126  0.76689  1.0000
  S   S94       1.0  0.37158  0.21792  0.95292  1.0000
  C   C729      1.0  0.53781  0.17636  0.95529  1.0000
  H   H578      1.0  0.37465  0.20839  0.43110  1.0000
  H   H579      1.0  0.41951  0.21009  0.78386  1.0000
  C   C730      1.0  0.47310  0.20656  0.45437  1.0000
  C   C731      1.0  0.32957  0.02905  0.57701  1.0000
  H   H580      1.0  0.32881  0.07562  0.29691  1.0000
  C   C732      1.0  0.54680  0.22096  0.66398  1.0000
  C   C733      1.0  0.37402  0.20447  0.75429  1.0000
  H   H581      1.0  0.33676  0.11700  0.37705  1.0000
  C   C734      1.0  0.37018  0.19121  0.79221  1.0000
  C   C735      1.0  0.50159  0.22441  0.80763  1.0000
  H   H582      1.0  0.37108  0.14012  0.71023  1.0000
  H   H583      1.0  0.33703  0.09782  0.22985  1.0000
  C   C736      1.0  0.53944  0.19431  0.96725  1.0000
  Fe  Fe43      1.0  0.36609  0.20034  0.01831  1.0000
  C   C737      1.0  0.34815  0.16435  0.25773  1.0000
  H   H584      1.0  0.32696  0.18841  0.01947  1.0000
  Fe  Fe44      1.0  0.39930  0.22445  0.65184  1.0000
  H   H585      1.0  0.34561  0.20118  0.15185  1.0000
  C   C738      1.0  0.49136  0.22522  0.67327  1.0000
  H   H586      1.0  0.44586  0.18186  0.01400  1.0000
  C   C739      1.0  0.62533  0.22464  0.73189  1.0000
  C   C740      1.0  0.47433  0.21259  0.74308  1.0000
  H   H587      1.0  0.47419  0.20138  0.77131  1.0000
  H   H588      1.0  0.54891  0.22937  0.91160  1.0000
  S   S95       1.0  0.43326  0.21590  0.63628  1.0000
  C   C741      1.0  0.48073  0.20603  0.37820  1.0000
  S   S96       1.0  0.42593  0.23142  0.94625  1.0000
  Fe  Fe45      1.0  0.40422  0.21029  0.96029  1.0000
  C   C742      1.0  0.48670  0.20009  0.95637  1.0000
  H   H589      1.0  0.33425  0.15232  0.53758  1.0000
  C   C743      1.0  0.34171  0.10623  0.11912  1.0000
  C   C744      1.0  0.55851  0.19663  0.97184  1.0000
  H   H590      1.0  0.65500  0.12339  0.88848  1.0000
  H   H591      1.0  0.47640  0.20823  0.62343  1.0000
  Fe  Fe46      1.0  0.39293  0.20947  0.57551  1.0000
  Fe  Fe47      1.0  0.33693  0.01430  0.25583  1.0000
  C   C745      1.0  0.37969  0.22803  0.79434  1.0000
  C   C746      1.0  0.34628  0.19088  0.18130  1.0000
  C   C747      1.0  0.32732  0.11886  0.35351  1.0000
  C   C748      1.0  0.33163  0.18051  0.25436  1.0000
  C   C749      1.0  0.52187  0.22334  0.78786  1.0000
  C   C750      1.0  0.34571  0.16449  0.34696  1.0000
  H   H592      1.0  0.34166  0.00453  0.15906  1.0000
  H   H593      1.0  0.64506  0.16763  0.79393  1.0000
  H   H594      1.0  0.46263  0.19019  0.93928  1.0000
  S   S97       1.0  0.33586  0.12442  0.47856  1.0000
  H   H595      1.0  0.34455  0.99568  0.49477  1.0000
  C   C751      1.0  0.33447  0.16079  0.38802  1.0000
  H   H596      1.0  0.36322  0.18497  0.30454  1.0000
  C   C752      1.0  0.37887  0.22290  0.75535  1.0000
  H   H597      1.0  0.62217  0.06159  0.75011  1.0000
  Fe  Fe48      1.0  0.33328  0.11151  0.54722  1.0000
  S   S98       1.0  0.65214  0.20887  0.86969  1.0000
  C   C753      1.0  0.62783  0.11143  0.90221  1.0000
  C   C754      1.0  0.49484  0.20375  0.98943  1.0000
  C   C755      1.0  0.35475  0.18147  0.33620  1.0000
  C   C756      1.0  0.42286  0.22360  0.44662  1.0000
  C   C757      1.0  0.35271  0.19430  0.36605  1.0000
  H   H598      1.0  0.56039  0.21044  0.97997  1.0000
  Fe  Fe49      1.0  0.36103  0.99190  0.32450  1.0000
  H   H599      1.0  0.34120  0.03789  0.56991  1.0000
  C   C758      1.0  0.45829  0.22919  0.74048  1.0000
  H   H600      1.0  0.43584  0.22811  0.45252  1.0000
  H   H601      1.0  0.50491  0.22080  0.34350  1.0000
  H   H602      1.0  0.62304  0.11599  0.93354  1.0000
  C   C759      1.0  0.52790  0.21412  0.05513  1.0000
  C   C760      1.0  0.51640  0.23307  0.92998  1.0000
  H   H603      1.0  0.49388  0.20345  0.92356  1.0000
  C   C761      1.0  0.32827  0.22499  0.89663  1.0000
  C   C762      1.0  0.64581  0.11568  0.87672  1.0000
  C   C763      1.0  0.64817  0.02860  0.84162  1.0000
  H   H604      1.0  0.57270  0.21921  0.69246  1.0000
  C   C764      1.0  0.51974  0.22594  0.02030  1.0000
  H   H605      1.0  0.65656  0.21933  0.04620  1.0000
  H   H606      1.0  0.51129  0.23117  0.40758  1.0000
  H   H607      1.0  0.33167  0.21431  0.87430  1.0000
  C   C765      1.0  0.33065  0.19365  0.21621  1.0000
  H   H608      1.0  0.49061  0.22238  0.47841  1.0000
  C   C766      1.0  0.38675  0.23126  0.44747  1.0000
  H   H609      1.0  0.38615  0.33639  0.81711  1.0000
  C   C767      1.0  0.39400  0.28376  0.93855  1.0000
  H   H610      1.0  0.64241  0.39328  0.99376  1.0000
  H   H611      1.0  0.54377  0.23962  0.74763  1.0000
  C   C768      1.0  0.40505  0.27935  0.63950  1.0000
  C   C769      1.0  0.42578  0.43181  0.50666  1.0000
  H   H612      1.0  0.38556  0.26131  0.99083  1.0000
  C   C770      1.0  0.51390  0.24800  0.60225  1.0000
  C   C771      1.0  0.55101  0.45214  0.94827  1.0000
  H   H613      1.0  0.40830  0.28333  0.94770  1.0000
  H   H614      1.0  0.41013  0.26386  0.63408  1.0000
  H   H615      1.0  0.51236  0.24219  0.53988  1.0000
  C   C772      1.0  0.64876  0.30847  0.94473  1.0000
  H   H616      1.0  0.40227  0.29091  0.57436  1.0000
  S   S99       1.0  0.51784  0.44984  0.74211  1.0000
  C   C773      1.0  0.41644  0.38484  0.66320  1.0000
  H   H617      1.0  0.34987  0.32814  0.64278  1.0000
  H   H618      1.0  0.40242  0.26081  0.81175  1.0000
  C   C774      1.0  0.58118  0.26398  0.79319  1.0000
  C   C775      1.0  0.39628  0.30382  0.68790  1.0000
  H   H619      1.0  0.43784  0.41612  0.81961  1.0000
  C   C776      1.0  0.43189  0.38088  0.62847  1.0000
  H   H620      1.0  0.56165  0.26656  0.74813  1.0000
  C   C777      1.0  0.34168  0.34725  0.78023  1.0000
  C   C778      1.0  0.41396  0.46690  0.86276  1.0000
  S   S100      1.0  0.62919  0.25337  0.89805  1.0000
  C   C779      1.0  0.65473  0.43080  0.76621  1.0000
  H   H621      1.0  0.34468  0.29829  0.71427  1.0000
  H   H622      1.0  0.52789  0.25114  0.11080  1.0000
  H   H623      1.0  0.33887  0.35070  0.71480  1.0000
  H   H624      1.0  0.53990  0.45479  0.97678  1.0000
  C   C780      1.0  0.34277  0.29593  0.74872  1.0000
  Fe  Fe50      1.0  0.46645  0.34417  0.71879  1.0000
  S   S101      1.0  0.49102  0.33053  0.66891  1.0000
  Fe  Fe51      1.0  0.44772  0.30702  0.74293  1.0000
  S   S102      1.0  0.47020  0.29050  0.69440  1.0000
  Fe  Fe52      1.0  0.49271  0.30252  0.71721  1.0000
  S   S103      1.0  0.52145  0.28014  0.72549  1.0000
  Fe  Fe53      1.0  0.46653  0.31953  0.65023  1.0000
  S   S104      1.0  0.46542  0.32226  0.58054  1.0000
  S   S105      1.0  0.47042  0.31713  0.76957  1.0000
  S   S106      1.0  0.44183  0.33514  0.69649  1.0000
  S   S107      1.0  0.51491  0.40441  0.82803  1.0000
  C   C781      1.0  0.49983  0.39649  0.79988  1.0000
  C   C782      1.0  0.50182  0.37598  0.79807  1.0000
  C   C783      1.0  0.48982  0.36977  0.77517  1.0000
  H   H625      1.0  0.51273  0.36489  0.81403  1.0000
  H   H626      1.0  0.49143  0.35396  0.77369  1.0000
  H   H627      1.0  0.53430  0.37178  0.97176  1.0000
  H   H628      1.0  0.54955  0.39939  0.92715  1.0000
  C   C784      1.0  0.55926  0.38612  0.94097  1.0000
  C   C785      1.0  0.39340  0.31456  0.61370  1.0000
  C   C786      1.0  0.48768  0.24255  0.80244  1.0000
  H   H629      1.0  0.35372  0.26105  0.96941  1.0000
  C   C787      1.0  0.49384  0.25955  0.77713  1.0000
  C   C788      1.0  0.51402  0.25856  0.75700  1.0000
  H   H630      1.0  0.63947  0.27177  0.75656  1.0000
  H   H631      1.0  0.56957  0.47708  0.85271  1.0000
  H   H632      1.0  0.65252  0.29725  0.80431  1.0000
  H   H633      1.0  0.48289  0.27344  0.77391  1.0000
  C   C789      1.0  0.45465  0.48382  0.93779  1.0000
  H   H634      1.0  0.36800  0.27051  0.82785  1.0000
  Fe  Fe54      1.0  0.50512  0.47906  0.83772  1.0000
  C   C790      1.0  0.54245  0.32391  0.91009  1.0000
  C   C791      1.0  0.43951  0.26077  0.88530  1.0000
  H   H635      1.0  0.48408  0.42654  0.78024  1.0000
  H   H636      1.0  0.62368  0.38062  0.84457  1.0000
  C   C792      1.0  0.34794  0.34392  0.62914  1.0000
  C   C793      1.0  0.41343  0.24669  0.86967  1.0000
  C   C794      1.0  0.43123  0.36680  0.60347  1.0000
  C   C795      1.0  0.35785  0.37622  0.61729  1.0000
  P   P27       1.0  0.38071  0.34484  0.66544  1.0000
  H   H637      1.0  0.44776  0.44768  0.78007  1.0000
  C   C796      1.0  0.41562  0.35600  0.61424  1.0000
  C   C797      1.0  0.56601  0.27406  0.77001  1.0000
  C   C798      1.0  0.52938  0.35959  0.89285  1.0000
  C   C799      1.0  0.40032  0.35949  0.64984  1.0000
  C   C800      1.0  0.42494  0.27507  0.82193  1.0000
  H   H638      1.0  0.41726  0.39535  0.68321  1.0000
  C   C801      1.0  0.41685  0.43072  0.86931  1.0000
  C   C802      1.0  0.45391  0.26723  0.53812  1.0000
  C   C803      1.0  0.46126  0.28244  0.50817  1.0000
  C   C804      1.0  0.46456  0.29935  0.52151  1.0000
  C   C805      1.0  0.46081  0.30101  0.56490  1.0000
  C   C806      1.0  0.45354  0.28575  0.59486  1.0000
  C   C807      1.0  0.45022  0.26881  0.58145  1.0000
  H   H639      1.0  0.46416  0.28127  0.47461  1.0000
  Fe  Fe55      1.0  0.53536  0.46950  0.75939  1.0000
  H   H640      1.0  0.45021  0.28709  0.62831  1.0000
  H   H641      1.0  0.65707  0.32600  0.83338  1.0000
  H   H642      1.0  0.44469  0.38826  0.62169  1.0000
  H   H643      1.0  0.32549  0.34961  0.79155  1.0000
  C   C808      1.0  0.39089  0.31926  0.65499  1.0000
  C   C809      1.0  0.57345  0.26179  0.00080  1.0000
  C   C810      1.0  0.56252  0.34459  0.85726  1.0000
  C   C811      1.0  0.59400  0.40007  0.84657  1.0000
  H   H644      1.0  0.54905  0.37601  0.84567  1.0000
  S   S108      1.0  0.56508  0.47594  0.72226  1.0000
  C   C812      1.0  0.53437  0.23761  0.90462  1.0000
  H   H645      1.0  0.60965  0.47459  0.79300  1.0000
  C   C813      1.0  0.58308  0.27796  0.99552  1.0000
  C   C814      1.0  0.58592  0.29017  0.95602  1.0000
  C   C815      1.0  0.57874  0.28651  0.92159  1.0000
  C   C816      1.0  0.56845  0.27062  0.92760  1.0000
  C   C817      1.0  0.60463  0.31078  0.85947  1.0000
  C   C818      1.0  0.63429  0.28390  0.99868  1.0000
  H   H646      1.0  0.63825  0.24219  0.81084  1.0000
  C   C819      1.0  0.33790  0.28868  0.83795  1.0000
  H   H647      1.0  0.38986  0.32621  0.58744  1.0000
  C   C820      1.0  0.55602  0.29364  0.77587  1.0000
  C   C821      1.0  0.32884  0.25789  0.91203  1.0000
  C   C822      1.0  0.64239  0.32200  0.84006  1.0000
  C   C823      1.0  0.62634  0.33261  0.86626  1.0000
  C   C824      1.0  0.60763  0.32685  0.87646  1.0000
  C   C825      1.0  0.62990  0.25919  0.70984  1.0000
  H   H648      1.0  0.41001  0.47897  0.65713  1.0000
  H   H649      1.0  0.59382  0.30234  0.95251  1.0000
  H   H650      1.0  0.57592  0.34628  0.83358  1.0000
  C   C826      1.0  0.34237  0.38460  0.59373  1.0000
  H   H651      1.0  0.34021  0.40036  0.57996  1.0000
  C   C827      1.0  0.38346  0.34075  0.75121  1.0000
  H   H652      1.0  0.62873  0.34473  0.88012  1.0000
  H   H653      1.0  0.59558  0.33487  0.89788  1.0000
  C   C828      1.0  0.57946  0.40417  0.78296  1.0000
  C   C829      1.0  0.59718  0.39244  0.76339  1.0000
  C   C830      1.0  0.63502  0.25895  0.74938  1.0000
  C   C831      1.0  0.37575  0.33996  0.79477  1.0000
  C   C832      1.0  0.57780  0.40783  0.82454  1.0000
  C   C833      1.0  0.55058  0.37039  0.96587  1.0000
  C   C834      1.0  0.56287  0.35275  0.98239  1.0000
  C   C835      1.0  0.58387  0.35086  0.97412  1.0000
  C   C836      1.0  0.59257  0.36661  0.94946  1.0000
  H   H654      1.0  0.36782  0.30450  0.85851  1.0000
  H   H655      1.0  0.44964  0.26094  0.90624  1.0000
  H   H656      1.0  0.56692  0.41047  0.76603  1.0000
  H   H657      1.0  0.59849  0.38976  0.73103  1.0000
  H   H658      1.0  0.36748  0.38570  0.62161  1.0000
  H   H659      1.0  0.56384  0.41670  0.83939  1.0000
  H   H660      1.0  0.55615  0.34046  0.00117  1.0000
  H   H661      1.0  0.59352  0.33710  0.98630  1.0000
  H   H662      1.0  0.60887  0.36463  0.94238  1.0000
  H   H663      1.0  0.39780  0.44885  0.91484  1.0000
  Fe  Fe56      1.0  0.63872  0.24154  0.96101  1.0000
  C   C837      1.0  0.55329  0.46803  0.91499  1.0000
  C   C838      1.0  0.36319  0.27100  0.95007  1.0000
  H   H664      1.0  0.40749  0.27216  0.70576  1.0000
  H   H665      1.0  0.41610  0.34444  0.59561  1.0000
  H   H666      1.0  0.64905  0.27839  0.93539  1.0000
  C   C839      1.0  0.40033  0.29462  0.60611  1.0000
  H   H667      1.0  0.62250  0.24125  0.66979  1.0000
  C   C840      1.0  0.57566  0.29279  0.83009  1.0000
  C   C841      1.0  0.37037  0.34460  0.72169  1.0000
  H   H668      1.0  0.61940  0.28751  0.82017  1.0000
  C   C842      1.0  0.57665  0.42934  0.90678  1.0000
  H   H669      1.0  0.60506  0.44792  0.75811  1.0000
  C   C843      1.0  0.44611  0.48070  0.59890  1.0000
  H   H670      1.0  0.51299  0.27216  0.04992  1.0000
  S   S109      1.0  0.53308  0.45501  0.82748  1.0000
  C   C844      1.0  0.33251  0.35233  0.60550  1.0000
  H   H671      1.0  0.39475  0.30673  0.71990  1.0000
  S   S110      1.0  0.46009  0.37703  0.72614  1.0000
  C   C845      1.0  0.63286  0.32723  0.73122  1.0000
  C   C846      1.0  0.63582  0.43134  0.75658  1.0000
  H   H672      1.0  0.51300  0.33935  0.93788  1.0000
  H   H673      1.0  0.58860  0.24859  0.78950  1.0000
  H   H674      1.0  0.42050  0.42528  0.61436  1.0000
  C   C847      1.0  0.43781  0.44634  0.49606  1.0000
  C   C848      1.0  0.44373  0.45331  0.52816  1.0000
  C   C849      1.0  0.43747  0.44592  0.57118  1.0000
  C   C850      1.0  0.42539  0.43134  0.58154  1.0000
  P   P28       1.0  0.44623  0.45402  0.61230  1.0000
  C   C851      1.0  0.42947  0.44936  0.66253  1.0000
  C   C852      1.0  0.47149  0.43997  0.61732  1.0000
  C   C853      1.0  0.48384  0.42991  0.58431  1.0000
  C   C854      1.0  0.50305  0.41852  0.58933  1.0000
  C   C855      1.0  0.51007  0.41712  0.62724  1.0000
  C   C856      1.0  0.49796  0.42720  0.66002  1.0000
  C   C857      1.0  0.47879  0.43860  0.65511  1.0000
  H   H675      1.0  0.42135  0.42629  0.48175  1.0000
  H   H676      1.0  0.60848  0.39447  0.97956  1.0000
  C   C858      1.0  0.40443  0.44217  0.74193  1.0000
  C   C859      1.0  0.42042  0.42699  0.72786  1.0000
  C   C860      1.0  0.43281  0.43051  0.68824  1.0000
  C   C861      1.0  0.63981  0.30562  0.82407  1.0000
  H   H677      1.0  0.56108  0.42086  0.97084  1.0000
  H   H678      1.0  0.41044  0.41289  0.55763  1.0000
  H   H679      1.0  0.62025  0.29403  0.05880  1.0000
  H   H680      1.0  0.39510  0.43955  0.77303  1.0000
  H   H681      1.0  0.44593  0.25623  0.70180  1.0000
  H   H682      1.0  0.44270  0.45210  0.46292  1.0000
  H   H683      1.0  0.45335  0.46432  0.51942  1.0000
  H   H684      1.0  0.54248  0.23706  0.66288  1.0000
  H   H685      1.0  0.47868  0.43054  0.55490  1.0000
  H   H686      1.0  0.51241  0.41054  0.56406  1.0000
  H   H687      1.0  0.52481  0.40805  0.63147  1.0000
  H   H688      1.0  0.50328  0.42594  0.68965  1.0000
  H   H689      1.0  0.46954  0.44609  0.68114  1.0000
  H   H690      1.0  0.62809  0.41692  0.84743  1.0000
  S   S111      1.0  0.62985  0.25945  0.01547  1.0000
  C   C862      1.0  0.62803  0.29813  0.02679  1.0000
  H   H691      1.0  0.42352  0.41251  0.74781  1.0000
  H   H692      1.0  0.44520  0.41853  0.67807  1.0000
  C   C863      1.0  0.51712  0.25595  0.05145  1.0000
  H   H693      1.0  0.38836  0.47265  0.72703  1.0000
  H   H694      1.0  0.54418  0.30141  0.75795  1.0000
  C   C864      1.0  0.61599  0.40496  0.91198  1.0000
  C   C865      1.0  0.37110  0.29543  0.88811  1.0000
  H   H695      1.0  0.62728  0.29556  0.57948  1.0000
  H   H696      1.0  0.39972  0.33776  0.74069  1.0000
  C   C866      1.0  0.64118  0.46172  0.79703  1.0000
  C   C867      1.0  0.41302  0.46434  0.67634  1.0000
  C   C868      1.0  0.52696  0.34081  0.91588  1.0000
  H   H697      1.0  0.58891  0.28071  0.02179  1.0000
  H   H698      1.0  0.37217  0.27666  0.74965  1.0000
  P   P29       1.0  0.62956  0.28155  0.67065  1.0000
  C   C869      1.0  0.61039  0.28328  0.63910  1.0000
  C   C870      1.0  0.61332  0.29092  0.59546  1.0000
  C   C871      1.0  0.59807  0.29268  0.57192  1.0000
  C   C872      1.0  0.57978  0.28693  0.59176  1.0000
  C   C873      1.0  0.57678  0.27925  0.63511  1.0000
  C   C874      1.0  0.59206  0.27732  0.65853  1.0000
  C   C875      1.0  0.56043  0.32575  0.88104  1.0000
  C   C876      1.0  0.62281  0.30305  0.69886  1.0000
  C   C877      1.0  0.38116  0.27131  0.96286  1.0000
  H   H699      1.0  0.43342  0.47980  0.80774  1.0000
  C   C878      1.0  0.61254  0.33553  0.74514  1.0000
  C   C879      1.0  0.59733  0.32775  0.73588  1.0000
  C   C880      1.0  0.60241  0.31158  0.71285  1.0000
  H   H700      1.0  0.60860  0.34769  0.76386  1.0000
  H   H701      1.0  0.57196  0.25193  0.03102  1.0000
  H   H702      1.0  0.60039  0.29864  0.53828  1.0000
  H   H703      1.0  0.56789  0.28847  0.57366  1.0000
  H   H704      1.0  0.56251  0.27495  0.65072  1.0000
  H   H705      1.0  0.58954  0.27134  0.69198  1.0000
  C   C881      1.0  0.53378  0.25272  0.86937  1.0000
  S   S112      1.0  0.48440  0.46013  0.82914  1.0000
  C   C882      1.0  0.35596  0.28026  0.81288  1.0000
  C   C883      1.0  0.42831  0.46628  0.82488  1.0000
  H   H706      1.0  0.58157  0.33414  0.74684  1.0000
  H   H707      1.0  0.59034  0.30569  0.70660  1.0000
  C   C884      1.0  0.40054  0.37445  0.67349  1.0000
  C   C885      1.0  0.35806  0.28293  0.91232  1.0000
  H   H708      1.0  0.63375  0.41961  0.74109  1.0000
  C   C886      1.0  0.44130  0.48120  0.91355  1.0000
  S   S113      1.0  0.44921  0.24654  0.52061  1.0000
  C   C887      1.0  0.51328  0.25321  0.55853  1.0000
  C   C888      1.0  0.54720  0.36147  0.86374  1.0000
  H   H709      1.0  0.51060  0.46322  0.59504  1.0000
  C   C889      1.0  0.43662  0.44806  0.80919  1.0000
  H   H710      1.0  0.44342  0.36345  0.57698  1.0000
  C   C890      1.0  0.58597  0.27328  0.82317  1.0000
  H   H711      1.0  0.51734  0.37269  0.89723  1.0000
  C   C891      1.0  0.48577  0.41072  0.77897  1.0000
  C   C892      1.0  0.40839  0.44893  0.88505  1.0000
  C   C893      1.0  0.38897  0.29582  0.90119  1.0000
  H   H712      1.0  0.38886  0.37765  0.70078  1.0000
  C   C894      1.0  0.35486  0.34326  0.80931  1.0000
  C   C895      1.0  0.58032  0.38456  0.93363  1.0000
  H   H713      1.0  0.34893  0.34251  0.84313  1.0000
  C   C896      1.0  0.40065  0.46080  0.71606  1.0000
  C   C897      1.0  0.61310  0.38404  0.78574  1.0000
  C   C898      1.0  0.63457  0.24197  0.78035  1.0000
  C   C899      1.0  0.51527  0.26385  0.85968  1.0000
  C   C900      1.0  0.47569  0.38409  0.75444  1.0000
  S   S114      1.0  0.42070  0.29456  0.77945  1.0000
  S   S115      1.0  0.46520  0.47882  0.72480  1.0000
  C   C901      1.0  0.61966  0.44717  0.76646  1.0000
  H   H714      1.0  0.47469  0.25261  0.64218  1.0000
  C   C902      1.0  0.47483  0.24140  0.67026  1.0000
  C   C903      1.0  0.61996  0.39914  0.95364  1.0000
  H   H715      1.0  0.44828  0.28583  0.83992  1.0000
  C   C904      1.0  0.36081  0.35578  0.63493  1.0000
  C   C905      1.0  0.65019  0.41086  0.88776  1.0000
  C   C906      1.0  0.52811  0.24046  0.76263  1.0000
  C   C907      1.0  0.64269  0.32270  0.97262  1.0000
  H   H716      1.0  0.62681  0.37476  0.77087  1.0000
  H   H717      1.0  0.47202  0.24339  0.81775  1.0000
  C   C908      1.0  0.61137  0.38755  0.82745  1.0000
  C   C909      1.0  0.43099  0.43028  0.83145  1.0000
  H   H718      1.0  0.48357  0.24164  0.93979  1.0000
  H   H719      1.0  0.50778  0.25639  0.99250  1.0000
  H   H720      1.0  0.50381  0.47251  0.66733  1.0000
  P   P30       1.0  0.33486  0.28262  0.89524  1.0000
  C   C910      1.0  0.43875  0.27481  0.84786  1.0000
  H   H721      1.0  0.39942  0.30476  0.88135  1.0000
  S   S116      1.0  0.64813  0.34692  0.95663  1.0000
  H   H722      1.0  0.64849  0.31305  0.61451  1.0000
  C   C911      1.0  0.51278  0.27312  0.53876  1.0000
  C   C912      1.0  0.51286  0.28798  0.56242  1.0000
  C   C913      1.0  0.51337  0.28295  0.60590  1.0000
  C   C914      1.0  0.51362  0.26314  0.62585  1.0000
  C   C915      1.0  0.49725  0.25977  0.88525  1.0000
  H   H723      1.0  0.41274  0.41684  0.88682  1.0000
  C   C916      1.0  0.57933  0.44552  0.87415  1.0000
  C   C917      1.0  0.63913  0.39868  0.96196  1.0000
  H   H724      1.0  0.44613  0.46930  0.89410  1.0000
  C   C918      1.0  0.65432  0.40430  0.92891  1.0000
  H   H725      1.0  0.40279  0.25052  0.46582  1.0000
  H   H726      1.0  0.59713  0.26489  0.84222  1.0000
  C   C919      1.0  0.63800  0.31086  0.70882  1.0000
  H   H727      1.0  0.44492  0.25691  0.60467  1.0000
  C   C920      1.0  0.36269  0.47958  0.99208  1.0000
  C   C921      1.0  0.49775  0.24453  0.92047  1.0000
  Fe  Fe57      1.0  0.51278  0.43770  0.81139  1.0000
  H   H728      1.0  0.46288  0.41566  0.74061  1.0000
  C   C922      1.0  0.63100  0.41159  0.87945  1.0000
  Fe  Fe58      1.0  0.49062  0.47356  0.76044  1.0000
  H   H729      1.0  0.51150  0.27722  0.50546  1.0000
  H   H730      1.0  0.51162  0.30355  0.54752  1.0000
  H   H731      1.0  0.51273  0.29454  0.62464  1.0000
  H   H732      1.0  0.51268  0.25984  0.66010  1.0000
  H   H733      1.0  0.39507  0.47445  0.97501  1.0000
  H   H734      1.0  0.46963  0.47429  0.93608  1.0000
  C   C923      1.0  0.47370  0.40452  0.75652  1.0000
  H   H735      1.0  0.59018  0.44324  0.84520  1.0000
  H   H736      1.0  0.54773  0.25555  0.84925  1.0000
  H   H737      1.0  0.55862  0.24567  0.97072  1.0000
  C   C924      1.0  0.35836  0.28381  0.76855  1.0000
  C   C925      1.0  0.34937  0.34785  0.73658  1.0000
  C   C926      1.0  0.40403  0.23658  0.45389  1.0000
  C   C927      1.0  0.62231  0.46229  0.78658  1.0000
  H   H738      1.0  0.51487  0.27534  0.83184  1.0000
  C   C928      1.0  0.56770  0.46475  0.87831  1.0000
  C   C929      1.0  0.56605  0.25819  0.96687  1.0000
  H   H739      1.0  0.54021  0.30943  0.92782  1.0000
  C   C930      1.0  0.40345  0.28402  0.68007  1.0000
  C   C931      1.0  0.42660  0.24695  0.89662  1.0000
  C   C932      1.0  0.52550  0.24410  0.08574  1.0000
  P   P31       1.0  0.59166  0.40456  0.90048  1.0000
  C   C933      1.0  0.41267  0.26076  0.83242  1.0000
  H   H740      1.0  0.47199  0.47932  0.62747  1.0000
  H   H741      1.0  0.47015  0.31111  0.49820  1.0000
  H   H742      1.0  0.55236  0.31797  0.81035  1.0000
  P   P32       1.0  0.58012  0.30386  0.87240  1.0000
  H   H743      1.0  0.56232  0.26768  0.90208  1.0000
  C   C934      1.0  0.64423  0.28926  0.95734  1.0000
  C   C935      1.0  0.41959  0.42431  0.54938  1.0000
  C   C936      1.0  0.56284  0.43289  0.94449  1.0000
  H   H744      1.0  0.48290  0.26809  0.87700  1.0000
  C   C937      1.0  0.63200  0.31760  0.01357  1.0000
  H   H745      1.0  0.62722  0.32855  0.03534  1.0000
  C   C938      1.0  0.62094  0.30014  0.83327  1.0000
  C   C939      1.0  0.62565  0.24170  0.70076  1.0000
  C   C940      1.0  0.56076  0.30299  0.80580  1.0000
  S   S117      1.0  0.39535  0.23988  0.58589  1.0000
  C   C941      1.0  0.51022  0.48232  0.64041  1.0000
  C   C942      1.0  0.38090  0.48047  0.96360  1.0000
  C   C943      1.0  0.51419  0.24692  0.01888  1.0000
  H   H746      1.0  0.33926  0.24796  0.84995  1.0000
  H   H747      1.0  0.37204  0.24094  0.45495  1.0000
  H   H748      1.0  0.36290  0.47303  0.02509  1.0000
  C   C944      1.0  0.33262  0.24419  0.88299  1.0000
  C   C945      1.0  0.65749  0.44607  0.78577  1.0000
  C   C946      1.0  0.65431  0.28105  0.63773  1.0000
  H   H749      1.0  0.65692  0.31219  0.91325  1.0000
  C   C947      1.0  0.45842  0.24344  0.70385  1.0000
  H   H750      1.0  0.64113  0.47043  0.91456  1.0000
  H   H751      1.0  0.33396  0.31982  0.92748  1.0000
  H   H752      1.0  0.61299  0.47726  0.97394  1.0000
  C   C948      1.0  0.51394  0.47714  0.59955  1.0000
  S   S118      1.0  0.38412  0.23978  0.70868  1.0000
  C   C949      1.0  0.62680  0.47920  0.90749  1.0000
  P   P33       1.0  0.64461  0.48207  0.82070  1.0000
  H   H753      1.0  0.64474  0.33300  0.73899  1.0000
  H   H754      1.0  0.54378  0.48286  0.91740  1.0000
  H   H755      1.0  0.65386  0.30410  0.70015  1.0000
  C   C950      1.0  0.32973  0.37265  0.58775  1.0000
  H   H756      1.0  0.38367  0.24206  0.79504  1.0000
  C   C951      1.0  0.61082  0.48307  0.94151  1.0000
  H   H757      1.0  0.40353  0.23600  0.87804  1.0000
  S   S119      1.0  0.59874  0.57784  0.69328  1.0000
  Fe  Fe59      1.0  0.60422  0.60548  0.71117  1.0000
  C   C952      1.0  0.33884  0.66199  0.65653  1.0000
  H   H758      1.0  0.33529  0.65707  0.17924  1.0000
  H   H759      1.0  0.45779  0.72206  0.16530  1.0000
  H   H760      1.0  0.36604  0.67129  0.16080  1.0000
  C   C953      1.0  0.35572  0.69348  0.10988  1.0000
  C   C954      1.0  0.37719  0.72350  0.49117  1.0000
  H   H761      1.0  0.33013  0.48659  0.00020  1.0000
  C   C955      1.0  0.38012  0.67053  0.94817  1.0000
  H   H762      1.0  0.34648  0.69732  0.49181  1.0000
  C   C956      1.0  0.35394  0.67746  0.14299  1.0000
  Fe  Fe60      1.0  0.57966  0.57457  0.75814  1.0000
  H   H763      1.0  0.47308  0.57205  0.71702  1.0000
  S   S120      1.0  0.58178  0.54536  0.80205  1.0000
  Fe  Fe61      1.0  0.56048  0.61834  0.75207  1.0000
  S   S121      1.0  0.57760  0.62564  0.68647  1.0000
  S   S122      1.0  0.53967  0.64340  0.78374  1.0000
  Fe  Fe62      1.0  0.57053  0.59767  0.67369  1.0000
  C   C957      1.0  0.39530  0.69575  0.53513  1.0000
  C   C958      1.0  0.64385  0.50354  0.77891  1.0000
  S   S123      1.0  0.55070  0.59200  0.73734  1.0000
  S   S124      1.0  0.58770  0.60043  0.77826  1.0000
  Fe  Fe63      1.0  0.41276  0.62178  0.54772  1.0000
  S   S125      1.0  0.42704  0.64496  0.56161  1.0000
  S   S126      1.0  0.39207  0.62723  0.50026  1.0000
  Fe  Fe64      1.0  0.42602  0.59144  0.62220  1.0000
  S   S127      1.0  0.44144  0.61218  0.64382  1.0000
  S   S128      1.0  0.41634  0.56212  0.65035  1.0000
  Fe  Fe65      1.0  0.41440  0.63618  0.63000  1.0000
  S   S129      1.0  0.39766  0.66231  0.66380  1.0000
  Fe  Fe66      1.0  0.45309  0.61963  0.57374  1.0000
  S   S130      1.0  0.48290  0.62787  0.54198  1.0000
  S   S131      1.0  0.39799  0.61498  0.61524  1.0000
  S   S132      1.0  0.43991  0.59694  0.55304  1.0000
  Fe  Fe67      1.0  0.43116  0.64179  0.87610  1.0000
  S   S133      1.0  0.43558  0.64453  0.94082  1.0000
  S   S134      1.0  0.42712  0.67012  0.82930  1.0000
  Fe  Fe68      1.0  0.42877  0.59743  0.90101  1.0000
  S   S135      1.0  0.43214  0.59671  0.96842  1.0000
  S   S136      1.0  0.42564  0.57037  0.87562  1.0000
  Fe  Fe69      1.0  0.41094  0.62695  0.96462  1.0000
  Fe  Fe70      1.0  0.45629  0.61441  0.93755  1.0000
  S   S137      1.0  0.48756  0.60695  0.95237  1.0000
  S   S138      1.0  0.40534  0.62603  0.89994  1.0000
  S   S139      1.0  0.45422  0.61322  0.87021  1.0000
  C   C959      1.0  0.39442  0.64912  0.46382  1.0000
  C   C960      1.0  0.41296  0.65527  0.45207  1.0000
  C   C961      1.0  0.41494  0.67242  0.42182  1.0000
  C   C962      1.0  0.39823  0.68377  0.40425  1.0000
  C   C963      1.0  0.37956  0.67786  0.41657  1.0000
  C   C964      1.0  0.37773  0.66035  0.44597  1.0000
  H   H764      1.0  0.42591  0.64656  0.46559  1.0000
  H   H765      1.0  0.42941  0.67695  0.41215  1.0000
  H   H766      1.0  0.36664  0.68658  0.40293  1.0000
  H   H767      1.0  0.36336  0.65560  0.45511  1.0000
  C   C965      1.0  0.40723  0.66395  0.70845  1.0000
  C   C966      1.0  0.40505  0.68285  0.72020  1.0000
  C   C967      1.0  0.41173  0.68460  0.75673  1.0000
  C   C968      1.0  0.41995  0.66736  0.78258  1.0000
  C   C969      1.0  0.42235  0.64838  0.77076  1.0000
  C   C970      1.0  0.41623  0.64672  0.73323  1.0000
  H   H768      1.0  0.39813  0.69614  0.70105  1.0000
  H   H769      1.0  0.39477  0.73502  0.43230  1.0000
  H   H770      1.0  0.42901  0.63506  0.79042  1.0000
  H   H771      1.0  0.41799  0.63215  0.72392  1.0000
  C   C971      1.0  0.54193  0.60717  0.59397  1.0000
  C   C972      1.0  0.54113  0.61846  0.55366  1.0000
  C   C973      1.0  0.52268  0.62543  0.53949  1.0000
  C   C974      1.0  0.50488  0.62059  0.56480  1.0000
  C   C975      1.0  0.50540  0.60964  0.60579  1.0000
  C   C976      1.0  0.52400  0.60307  0.62062  1.0000
  H   H772      1.0  0.49051  0.56341  0.64674  1.0000
  H   H773      1.0  0.52232  0.63396  0.50797  1.0000
  H   H774      1.0  0.49165  0.60597  0.62562  1.0000
  H   H775      1.0  0.52454  0.59427  0.65184  1.0000
  C   C977      1.0  0.52566  0.63339  0.83136  1.0000
  C   C978      1.0  0.53367  0.61502  0.85434  1.0000
  C   C979      1.0  0.52225  0.60718  0.89244  1.0000
  C   C980      1.0  0.50258  0.61738  0.90673  1.0000
  C   C981      1.0  0.49452  0.63559  0.88331  1.0000
  C   C982      1.0  0.50616  0.64372  0.84605  1.0000
  H   H776      1.0  0.54867  0.60690  0.84293  1.0000
  H   H777      1.0  0.52838  0.59295  0.91013  1.0000
  H   H778      1.0  0.47929  0.64345  0.89397  1.0000
  H   H779      1.0  0.49985  0.65773  0.82802  1.0000
  C   C983      1.0  0.47072  0.63322  0.70532  1.0000
  C   C984      1.0  0.45197  0.50313  0.70933  1.0000
  C   C985      1.0  0.43271  0.50467  0.70080  1.0000
  C   C986      1.0  0.42216  0.52298  0.68297  1.0000
  C   C987      1.0  0.43063  0.54008  0.67401  1.0000
  C   C988      1.0  0.44974  0.53893  0.68360  1.0000
  C   C989      1.0  0.46048  0.52032  0.70159  1.0000
  H   H780      1.0  0.35917  0.70880  0.76875  1.0000
  H   H781      1.0  0.40751  0.52381  0.67520  1.0000
  H   H782      1.0  0.45621  0.55222  0.67672  1.0000
  H   H783      1.0  0.47541  0.51919  0.70831  1.0000
  C   C990      1.0  0.48080  0.51894  0.88259  1.0000
  C   C991      1.0  0.47718  0.53419  0.90778  1.0000
  C   C992      1.0  0.46065  0.55040  0.90464  1.0000
  C   C993      1.0  0.44754  0.55127  0.87670  1.0000
  C   C994      1.0  0.45157  0.53637  0.85048  1.0000
  C   C995      1.0  0.46815  0.52024  0.85341  1.0000
  H   H784      1.0  0.48701  0.53337  0.93011  1.0000
  H   H785      1.0  0.45786  0.56198  0.92454  1.0000
  H   H786      1.0  0.44192  0.53725  0.82784  1.0000
  H   H787      1.0  0.47081  0.50855  0.83384  1.0000
  H   H788      1.0  0.47211  0.51543  0.60837  1.0000
  C   C996      1.0  0.55783  0.50109  0.78157  1.0000
  C   C997      1.0  0.56137  0.51667  0.79896  1.0000
  C   C998      1.0  0.57662  0.52703  0.77793  1.0000
  C   C999      1.0  0.58870  0.52148  0.73985  1.0000
  C   C1000     1.0  0.58551  0.50542  0.72310  1.0000
  H   H789      1.0  0.33381  0.70972  0.21415  1.0000
  H   H790      1.0  0.55204  0.52086  0.82850  1.0000
  S   S140      1.0  0.56598  0.59721  0.60756  1.0000
  C   C1001     1.0  0.38155  0.73155  0.00017  1.0000
  H   H791      1.0  0.37274  0.65632  0.85979  1.0000
  H   H792      1.0  0.59156  0.55467  0.63378  1.0000
  C   C1002     1.0  0.35547  0.72573  0.60180  1.0000
  C   C1003     1.0  0.33640  0.66949  0.15351  1.0000
  H   H793      1.0  0.40886  0.68599  0.97608  1.0000
  H   H794      1.0  0.39023  0.55413  0.74777  1.0000
  H   H795      1.0  0.44470  0.69097  0.17301  1.0000
  H   H796      1.0  0.44001  0.64534  0.19896  1.0000
  H   H797      1.0  0.38436  0.52045  0.74532  1.0000
  H   H798      1.0  0.45224  0.69854  0.69321  1.0000
  C   C1004     1.0  0.36433  0.71843  0.63826  1.0000
  H   H799      1.0  0.34129  0.71364  0.06093  1.0000
  C   C1005     1.0  0.38079  0.48907  0.92081  1.0000
  C   C1006     1.0  0.64782  0.67051  0.61377  1.0000
  H   H800      1.0  0.53247  0.51764  0.54335  1.0000
  C   C1007     1.0  0.64338  0.62337  0.72506  1.0000
  C   C1008     1.0  0.63701  0.58949  0.89413  1.0000
  H   H801      1.0  0.40995  0.69928  0.76576  1.0000
  H   H802      1.0  0.33900  0.64198  0.10345  1.0000
  C   C1009     1.0  0.43022  0.51217  0.96346  1.0000
  C   C1010     1.0  0.44251  0.72147  0.18189  1.0000
  C   C1011     1.0  0.64313  0.57242  0.87338  1.0000
  C   C1012     1.0  0.51014  0.58269  0.50591  1.0000
  H   H803      1.0  0.44536  0.53824  0.57202  1.0000
  H   H804      1.0  0.63115  0.66998  0.70100  1.0000
  C   C1013     1.0  0.34424  0.48722  0.97806  1.0000
  S   S141      1.0  0.34025  0.72249  0.92394  1.0000
  C   C1014     1.0  0.41661  0.50929  0.94010  1.0000
  H   H805      1.0  0.62178  0.61397  0.77917  1.0000
  H   H806      1.0  0.38820  0.71931  0.24382  1.0000
  C   C1015     1.0  0.60209  0.59143  0.88874  1.0000
  H   H807      1.0  0.37045  0.70250  0.64615  1.0000
  C   C1016     1.0  0.43797  0.70028  0.64003  1.0000
  C   C1017     1.0  0.33316  0.70773  0.50465  1.0000
  C   C1018     1.0  0.49771  0.55692  0.67395  1.0000
  H   H808      1.0  0.58626  0.59888  0.89414  1.0000
  H   H809      1.0  0.61192  0.61232  0.91706  1.0000
  C   C1019     1.0  0.65262  0.51749  0.70435  1.0000
  C   C1020     1.0  0.38199  0.61151  0.78912  1.0000
  C   C1021     1.0  0.40131  0.60562  0.80008  1.0000
  C   C1022     1.0  0.41718  0.59422  0.77477  1.0000
  C   C1023     1.0  0.41395  0.58893  0.73784  1.0000
  C   C1024     1.0  0.39495  0.59544  0.72586  1.0000
  C   C1025     1.0  0.37912  0.60693  0.75095  1.0000
  H   H810      1.0  0.40416  0.60966  0.82835  1.0000
  H   H811      1.0  0.43188  0.58928  0.78429  1.0000
  H   H812      1.0  0.42614  0.57983  0.71849  1.0000
  H   H813      1.0  0.39240  0.59149  0.69720  1.0000
  H   H814      1.0  0.42542  0.71202  0.65039  1.0000
  S   S142      1.0  0.50032  0.49772  0.88969  1.0000
  H   H815      1.0  0.61216  0.68910  0.52617  1.0000
  C   C1026     1.0  0.40510  0.70209  0.97677  1.0000
  C   C1027     1.0  0.37717  0.70901  0.52791  1.0000
  H   H816      1.0  0.54582  0.49343  0.79796  1.0000
  H   H817      1.0  0.61058  0.66407  0.77194  1.0000
  H   H818      1.0  0.37998  0.58712  0.87072  1.0000
  C   C1028     1.0  0.63448  0.62126  0.76815  1.0000
  C   C1029     1.0  0.62768  0.73379  0.54520  1.0000
  C   C1030     1.0  0.59935  0.71879  0.61149  1.0000
  C   C1031     1.0  0.36578  0.73174  0.66439  1.0000
  C   C1032     1.0  0.42218  0.49401  0.91428  1.0000
  S   S143      1.0  0.63463  0.61381  0.68790  1.0000
  H   H819      1.0  0.38288  0.57693  0.94599  1.0000
  H   H820      1.0  0.56315  0.50160  0.59868  1.0000
  H   H821      1.0  0.64417  0.70325  0.54692  1.0000
  C   C1033     1.0  0.52180  0.49000  0.56461  1.0000
  H   H822      1.0  0.42629  0.52462  0.98153  1.0000
  H   H823      1.0  0.34637  0.65790  0.30795  1.0000
  P   P34       1.0  0.40444  0.49026  0.88444  1.0000
  H   H824      1.0  0.59688  0.56875  0.85758  1.0000
  C   C1034     1.0  0.61516  0.67076  0.70345  1.0000
  C   C1035     1.0  0.41523  0.70304  0.20772  1.0000
  H   H825      1.0  0.36470  0.61212  0.74046  1.0000
  H   H826      1.0  0.63569  0.62630  0.83089  1.0000
  C   C1036     1.0  0.39309  0.50738  0.80601  1.0000
  C   C1037     1.0  0.60808  0.57447  0.86808  1.0000
  C   C1038     1.0  0.41294  0.71088  0.46840  1.0000
  H   H827      1.0  0.63298  0.55243  0.84304  1.0000
  C   C1039     1.0  0.51656  0.54353  0.66979  1.0000
  H   H828      1.0  0.60090  0.67003  0.48204  1.0000
  C   C1040     1.0  0.60342  0.66326  0.51387  1.0000
  C   C1041     1.0  0.52558  0.53598  0.70601  1.0000
  C   C1042     1.0  0.51581  0.54152  0.74566  1.0000
  C   C1043     1.0  0.49675  0.55419  0.74979  1.0000
  C   C1044     1.0  0.48778  0.56204  0.71389  1.0000
  C   C1045     1.0  0.50247  0.55701  0.56536  1.0000
  C   C1046     1.0  0.49667  0.57106  0.53089  1.0000
  H   H829      1.0  0.54008  0.52562  0.70389  1.0000
  H   H830      1.0  0.52279  0.53558  0.77353  1.0000
  H   H831      1.0  0.48897  0.55779  0.78095  1.0000
  H   H832      1.0  0.49185  0.54805  0.58429  1.0000
  H   H833      1.0  0.48162  0.57321  0.52386  1.0000
  H   H834      1.0  0.50538  0.59409  0.48013  1.0000
  H   H835      1.0  0.59487  0.63551  0.51074  1.0000
  C   C1047     1.0  0.63423  0.53948  0.75561  1.0000
  C   C1048     1.0  0.46088  0.48874  0.60962  1.0000
  C   C1049     1.0  0.41858  0.71419  0.95398  1.0000
  C   C1050     1.0  0.43088  0.51435  0.56822  1.0000
  H   H836      1.0  0.37816  0.69641  0.89945  1.0000
  H   H837      1.0  0.42656  0.71117  0.44458  1.0000
  H   H838      1.0  0.34263  0.64417  0.89977  1.0000
  C   C1051     1.0  0.35253  0.68381  0.59459  1.0000
  C   C1052     1.0  0.63074  0.71319  0.56079  1.0000
  H   H839      1.0  0.57816  0.67760  0.64443  1.0000
  C   C1053     1.0  0.34626  0.64548  0.63457  1.0000
  C   C1054     1.0  0.35636  0.64818  0.59241  1.0000
  C   C1055     1.0  0.35966  0.66721  0.57255  1.0000
  H   H840      1.0  0.42611  0.49151  0.70734  1.0000
  H   H841      1.0  0.42648  0.69828  0.58483  1.0000
  C   C1056     1.0  0.56911  0.51348  0.60573  1.0000
  C   C1057     1.0  0.60986  0.64571  0.59589  1.0000
  C   C1058     1.0  0.34008  0.70125  0.08669  1.0000
  C   C1059     1.0  0.43103  0.49370  0.57818  1.0000
  H   H842      1.0  0.62754  0.52542  0.82016  1.0000
  H   H843      1.0  0.55779  0.67179  0.71627  1.0000
  C   C1060     1.0  0.33779  0.68400  0.26270  1.0000
  C   C1061     1.0  0.63472  0.52298  0.78810  1.0000
  C   C1062     1.0  0.41311  0.69662  0.50523  1.0000
  C   C1063     1.0  0.34246  0.68985  0.98791  1.0000
  C   C1064     1.0  0.38669  0.71073  0.00014  1.0000
  C   C1065     1.0  0.33595  0.60102  0.81288  1.0000
  C   C1066     1.0  0.33752  0.62053  0.81623  1.0000
  Fe  Fe71      1.0  0.37175  0.72520  0.35438  1.0000
  H   H844      1.0  0.33524  0.69389  0.65328  1.0000
  H   H845      1.0  0.64251  0.54958  0.68861  1.0000
  H   H846      1.0  0.34845  0.61313  0.06542  1.0000
  H   H847      1.0  0.36182  0.63548  0.57501  1.0000
  H   H848      1.0  0.36753  0.66892  0.53980  1.0000
  C   C1067     1.0  0.44841  0.63332  0.25990  1.0000
  H   H849      1.0  0.65224  0.58135  0.78565  1.0000
  C   C1068     1.0  0.39243  0.54217  0.77432  1.0000
  C   C1069     1.0  0.57376  0.67183  0.71259  1.0000
  C   C1070     1.0  0.60334  0.63504  0.57086  1.0000
  C   C1071     1.0  0.58538  0.54311  0.62598  1.0000
  C   C1072     1.0  0.58282  0.66784  0.74860  1.0000
  H   H850      1.0  0.55924  0.63929  0.61141  1.0000
  H   H851      1.0  0.42697  0.68600  0.51010  1.0000
  H   H852      1.0  0.39567  0.68472  0.56374  1.0000
  H   H853      1.0  0.57969  0.49770  0.96000  1.0000
  H   H854      1.0  0.36911  0.69996  0.10235  1.0000
  C   C1073     1.0  0.35170  0.66889  0.28208  1.0000
  C   C1074     1.0  0.37248  0.66795  0.26812  1.0000
  C   C1075     1.0  0.37950  0.68257  0.23551  1.0000
  C   C1076     1.0  0.36537  0.69776  0.21634  1.0000
  P   P35       1.0  0.40615  0.68007  0.21340  1.0000
  C   C1077     1.0  0.42126  0.66223  0.24815  1.0000
  C   C1078     1.0  0.40903  0.67208  0.16231  1.0000
  C   C1079     1.0  0.41224  0.68554  0.12443  1.0000
  C   C1080     1.0  0.41342  0.67954  0.08511  1.0000
  C   C1081     1.0  0.41081  0.66030  0.08328  1.0000
  C   C1082     1.0  0.40725  0.64693  0.12087  1.0000
  C   C1083     1.0  0.40635  0.65277  0.16029  1.0000
  H   H855      1.0  0.46029  0.62143  0.24771  1.0000
  C   C1084     1.0  0.35172  0.69896  0.94876  1.0000
  C   C1085     1.0  0.44487  0.63524  0.30308  1.0000
  C   C1086     1.0  0.42983  0.65080  0.31867  1.0000
  C   C1087     1.0  0.41821  0.66440  0.29128  1.0000
  C   C1088     1.0  0.64244  0.62815  0.79751  1.0000
  C   C1089     1.0  0.39990  0.51067  0.84136  1.0000
  C   C1090     1.0  0.36177  0.65144  0.80554  1.0000
  C   C1091     1.0  0.44922  0.49940  0.96237  1.0000
  C   C1092     1.0  0.45468  0.67729  0.58971  1.0000
  C   C1093     1.0  0.46994  0.66949  0.61390  1.0000
  H   H856      1.0  0.40321  0.64239  0.18923  1.0000
  H   H857      1.0  0.41899  0.52446  0.55317  1.0000
  C   C1094     1.0  0.46090  0.50931  0.59900  1.0000
  H   H858      1.0  0.38290  0.65571  0.28279  1.0000
  C   C1095     1.0  0.33258  0.61864  0.07758  1.0000
  H   H859      1.0  0.41351  0.70079  0.12503  1.0000
  H   H860      1.0  0.41618  0.68991  0.05606  1.0000
  H   H861      1.0  0.41137  0.65577  0.05277  1.0000
  C   C1096     1.0  0.37058  0.68924  0.92904  1.0000
  C   C1097     1.0  0.61299  0.66532  0.58039  1.0000
  P   P36       1.0  0.35439  0.70871  0.56706  1.0000
  H   H862      1.0  0.37033  0.70899  0.19053  1.0000
  H   H863      1.0  0.45388  0.62480  0.32448  1.0000
  H   H864      1.0  0.42718  0.65244  0.35202  1.0000
  H   H865      1.0  0.40681  0.67660  0.30384  1.0000
  C   C1098     1.0  0.59001  0.51062  0.60379  1.0000
  H   H866      1.0  0.34560  0.63354  0.97534  1.0000
  H   H867      1.0  0.36613  0.60020  0.99852  1.0000
  H   H868      1.0  0.37618  0.70127  0.01717  1.0000
  H   H869      1.0  0.36347  0.73414  0.48526  1.0000
  C   C1099     1.0  0.49547  0.61431  0.76513  1.0000
  C   C1100     1.0  0.47921  0.60622  0.76215  1.0000
  C   C1101     1.0  0.46704  0.61551  0.73184  1.0000
  C   C1102     1.0  0.48682  0.64168  0.70872  1.0000
  C   C1103     1.0  0.49927  0.63192  0.73843  1.0000
  C   C1104     1.0  0.47245  0.68141  0.75769  1.0000
  C   C1105     1.0  0.47210  0.69135  0.79153  1.0000
  H   H870      1.0  0.50475  0.60736  0.78912  1.0000
  H   H871      1.0  0.47576  0.59307  0.78409  1.0000
  H   H872      1.0  0.51138  0.63846  0.74217  1.0000
  H   H873      1.0  0.46030  0.67377  0.75879  1.0000
  H   H874      1.0  0.45962  0.69145  0.81827  1.0000
  H   H875      1.0  0.57472  0.51097  0.88571  1.0000
  H   H876      1.0  0.55489  0.62167  0.53304  1.0000
  H   H877      1.0  0.45425  0.60945  0.72992  1.0000
  C   C1106     1.0  0.40327  0.71973  0.22591  1.0000
  C   C1107     1.0  0.60348  0.66741  0.74403  1.0000
  H   H878      1.0  0.60071  0.52928  0.72380  1.0000
  C   C1108     1.0  0.46930  0.67695  0.65152  1.0000
  H   H879      1.0  0.34505  0.66436  0.03780  1.0000
  C   C1109     1.0  0.43504  0.70391  0.18626  1.0000
  C   C1110     1.0  0.39499  0.72431  0.46141  1.0000
  H   H880      1.0  0.64381  0.53120  0.90724  1.0000
  C   C1111     1.0  0.51260  0.66721  0.64342  1.0000
  H   H881      1.0  0.43279  0.70739  0.93572  1.0000
  C   C1112     1.0  0.61655  0.59894  0.90173  1.0000
  C   C1113     1.0  0.52172  0.55475  0.57560  1.0000
  C   C1114     1.0  0.36417  0.60445  0.96564  1.0000
  C   C1115     1.0  0.37368  0.59140  0.93605  1.0000
  H   H882      1.0  0.37018  0.69265  0.83670  1.0000
  C   C1116     1.0  0.39891  0.54563  0.80959  1.0000
  C   C1117     1.0  0.51432  0.68492  0.61449  1.0000
  C   C1118     1.0  0.56450  0.54588  0.62845  1.0000
  H   H883      1.0  0.61431  0.52333  0.61218  1.0000
  C   C1119     1.0  0.48817  0.70036  0.79170  1.0000
  C   C1120     1.0  0.60500  0.49768  0.85800  1.0000
  C   C1121     1.0  0.36218  0.49663  0.90692  1.0000
  C   C1122     1.0  0.60626  0.67441  0.66700  1.0000
  S   S144      1.0  0.40119  0.70501  0.36622  1.0000
  C   C1123     1.0  0.35658  0.66054  0.76583  1.0000
  C   C1124     1.0  0.36190  0.61686  0.87910  1.0000
  C   C1125     1.0  0.35138  0.62941  0.90941  1.0000
  C   C1126     1.0  0.35272  0.62330  0.95245  1.0000
  C   C1127     1.0  0.37229  0.59743  0.89304  1.0000
  C   C1128     1.0  0.36726  0.66305  0.83051  1.0000
  C   C1129     1.0  0.55624  0.53133  0.61739  1.0000
  C   C1130     1.0  0.48863  0.68082  0.72318  1.0000
  C   C1131     1.0  0.38927  0.52311  0.77282  1.0000
  H   H884      1.0  0.56210  0.67052  0.56099  1.0000
  H   H885      1.0  0.57385  0.66474  0.77999  1.0000
  H   H886      1.0  0.52801  0.63686  0.66401  1.0000
  P   P37       1.0  0.52928  0.53579  0.61896  1.0000
  C   C1132     1.0  0.52895  0.65076  0.64240  1.0000
  C   C1133     1.0  0.40257  0.53001  0.84300  1.0000
  H   H887      1.0  0.59501  0.50087  0.69414  1.0000
  P   P38       1.0  0.36116  0.62514  0.82318  1.0000
  C   C1134     1.0  0.36597  0.68373  0.81741  1.0000
  H   H888      1.0  0.64795  0.59588  0.90360  1.0000
  C   C1135     1.0  0.62851  0.56516  0.86008  1.0000
  H   H889      1.0  0.50182  0.69777  0.61482  1.0000
  P   P39       1.0  0.48946  0.66653  0.68154  1.0000
  C   C1136     1.0  0.59205  0.49451  0.93375  1.0000
  C   C1137     1.0  0.58541  0.67499  0.67196  1.0000
  C   C1138     1.0  0.52947  0.58019  0.51520  1.0000
  H   H890      1.0  0.55473  0.55949  0.63866  1.0000
  H   H891      1.0  0.53326  0.69977  0.56247  1.0000
  C   C1139     1.0  0.53213  0.68615  0.58493  1.0000
  H   H892      1.0  0.40789  0.53322  0.86935  1.0000
  H   H893      1.0  0.35355  0.65163  0.74487  1.0000
  C   C1140     1.0  0.65302  0.50093  0.73680  1.0000
  H   H894      1.0  0.60065  0.61999  0.58350  1.0000
  C   C1141     1.0  0.61660  0.70553  0.59410  1.0000
  C   C1142     1.0  0.45323  0.69250  0.66438  1.0000
  C   C1143     1.0  0.52610  0.50793  0.57065  1.0000
  C   C1144     1.0  0.53522  0.56642  0.55010  1.0000
  S   S145      1.0  0.38353  0.63827  0.01209  1.0000
  S   S146      1.0  0.35180  0.71925  0.31426  1.0000
  C   C1145     1.0  0.50460  0.69946  0.75793  1.0000
  H   H895      1.0  0.46044  0.64060  0.68365  1.0000
  C   C1146     1.0  0.60980  0.67404  0.53904  1.0000
  C   C1147     1.0  0.52245  0.51318  0.61174  1.0000
  H   H896      1.0  0.53977  0.58949  0.49629  1.0000
  H   H897      1.0  0.34414  0.63060  0.64999  1.0000
  H   H898      1.0  0.34902  0.58875  0.81354  1.0000
  H   H899      1.0  0.45532  0.67124  0.56095  1.0000
  C   C1148     1.0  0.50487  0.68972  0.72377  1.0000
  C   C1149     1.0  0.51458  0.50020  0.64663  1.0000
  C   C1150     1.0  0.35217  0.67119  0.00742  1.0000
  C   C1151     1.0  0.41351  0.73502  0.95388  1.0000
  H   H900      1.0  0.62655  0.55437  0.76283  1.0000
  H   H901      1.0  0.61242  0.63869  0.62749  1.0000
  C   C1152     1.0  0.56989  0.49539  0.74371  1.0000
  H   H902      1.0  0.65155  0.49818  0.95087  1.0000
  C   C1153     1.0  0.35549  0.68118  0.75269  1.0000
  H   H903      1.0  0.40153  0.56031  0.81094  1.0000
  C   C1154     1.0  0.43859  0.69257  0.60295  1.0000
  H   H904      1.0  0.51807  0.68861  0.69883  1.0000
  H   H905      1.0  0.51185  0.50381  0.67855  1.0000
  H   H906      1.0  0.55010  0.56521  0.55712  1.0000
  C   C1155     1.0  0.54836  0.66972  0.58408  1.0000
  C   C1156     1.0  0.54676  0.65210  0.61273  1.0000
  H   H907      1.0  0.59982  0.49673  0.59530  1.0000
  C   C1157     1.0  0.35983  0.69284  0.77887  1.0000
  H   H908      1.0  0.65187  0.64573  0.57852  1.0000
  H   H909      1.0  0.41918  0.48797  0.57038  1.0000
  H   H910      1.0  0.40189  0.51926  0.94159  1.0000
  H   H911      1.0  0.48217  0.65742  0.60346  1.0000
  H   H912      1.0  0.46007  0.50200  0.97930  1.0000
  C   C1158     1.0  0.59816  0.52553  0.61350  1.0000
  C   C1159     1.0  0.43674  0.64684  0.23240  1.0000
  C   C1160     1.0  0.60009  0.64381  0.52988  1.0000
  P   P40       1.0  0.62092  0.67889  0.61405  1.0000
  C   C1161     1.0  0.58919  0.50189  0.89198  1.0000
  C   C1162     1.0  0.34463  0.69829  0.22967  1.0000
  H   H913      1.0  0.39475  0.66346  0.93256  1.0000
  H   H914      1.0  0.40501  0.63211  0.11925  1.0000
  C   C1163     1.0  0.37109  0.66150  0.98763  1.0000
  C   C1164     1.0  0.64312  0.53674  0.71373  1.0000
  S   S147      1.0  0.50852  0.49466  0.77042  1.0000
  H   H915      1.0  0.60242  0.50340  0.82595  1.0000
  H   H916      1.0  0.32784  0.69719  0.00310  1.0000
  H   H917      1.0  0.51741  0.70576  0.75883  1.0000
  H   H918      1.0  0.32968  0.50169  0.92465  1.0000
  H   H919      1.0  0.58825  0.71342  0.63733  1.0000
  H   H920      1.0  0.48814  0.70749  0.81862  1.0000
  H   H921      1.0  0.64955  0.69386  0.64804  1.0000
  C   C1165     1.0  0.44584  0.52215  0.57854  1.0000
  C   C1166     1.0  0.65789  0.68118  0.63218  1.0000
  C   C1167     1.0  0.34399  0.49571  0.93550  1.0000
  H   H922      1.0  0.39085  0.49265  0.80392  1.0000
  C   C1168     1.0  0.62407  0.48664  0.86529  1.0000
  C   C1169     1.0  0.34169  0.68115  0.63641  1.0000
  C   C1170     1.0  0.33284  0.71637  0.54052  1.0000
  H   H923      1.0  0.36161  0.50334  0.87419  1.0000
  H   H924      1.0  0.33073  0.65996  0.68896  1.0000
  H   H925      1.0  0.52467  0.48604  0.53288  1.0000
  H   H926      1.0  0.35179  0.68800  0.72179  1.0000
  Fe  Fe72      1.0  0.32599  0.73385  0.36069  1.0000
  C   C1171     1.0  0.32707  0.63523  0.09935  1.0000
  H   H927      1.0  0.37249  0.72603  0.69264  1.0000
  C   C1172     1.0  0.43708  0.80342  0.89388  1.0000
  C   C1173     1.0  0.59634  0.73938  0.59578  1.0000
  C   C1174     1.0  0.39698  0.82596  0.39756  1.0000
  H   H928      1.0  0.39724  0.91333  0.17588  1.0000
  C   C1175     1.0  0.37295  0.78725  0.10965  1.0000
  C   C1176     1.0  0.41940  0.86351  0.18508  1.0000
  C   C1177     1.0  0.34217  0.80864  0.91584  1.0000
  S   S148      1.0  0.34775  0.96441  0.33364  1.0000
  S   S149      1.0  0.34602  0.73665  0.40430  1.0000
  P   P41       1.0  0.37002  0.85942  0.27937  1.0000
  C   C1178     1.0  0.34651  0.74966  0.14402  1.0000
  C   C1179     1.0  0.32686  0.92233  0.16361  1.0000
  C   C1180     1.0  0.39473  0.76878  0.05498  1.0000
  C   C1181     1.0  0.34044  0.91038  0.33036  1.0000
  H   H929      1.0  0.40737  0.84008  0.22964  1.0000
  S   S150      1.0  0.34387  0.79238  0.40207  1.0000
  H   H930      1.0  0.40880  0.75873  0.04452  1.0000
  H   H931      1.0  0.36698  0.82016  0.42287  1.0000
  C   C1182     1.0  0.35939  0.76753  0.92490  1.0000
  H   H932      1.0  0.36319  0.81134  0.95321  1.0000
  C   C1183     1.0  0.38841  0.86936  0.23728  1.0000
  H   H933      1.0  0.43206  0.79180  0.84094  1.0000
  S   S151      1.0  0.36034  0.75739  0.21084  1.0000
  C   C1184     1.0  0.35787  0.80107  0.93904  1.0000
  H   H934      1.0  0.37102  0.89391  0.31764  1.0000
  C   C1185     1.0  0.40684  0.78350  0.94313  1.0000
  H   H935      1.0  0.35859  0.79329  0.26230  1.0000
  C   C1186     1.0  0.41664  0.88414  0.16986  1.0000
  C   C1187     1.0  0.35853  0.79451  0.08327  1.0000
  C   C1188     1.0  0.36213  0.78898  0.04267  1.0000
  H   H936      1.0  0.35033  0.79437  0.02373  1.0000
  H   H937      1.0  0.35862  0.92204  0.15808  1.0000
  C   C1189     1.0  0.35668  0.80925  0.25051  1.0000
  H   H938      1.0  0.34902  0.86640  0.20767  1.0000
  H   H939      1.0  0.35924  0.94596  0.42536  1.0000
  C   C1190     1.0  0.40928  0.83517  0.36304  1.0000
  C   C1191     1.0  0.36330  0.82198  0.27079  1.0000
  H   H940      1.0  0.42418  0.74402  0.93573  1.0000
  C   C1192     1.0  0.39477  0.74391  0.97640  1.0000
  H   H941      1.0  0.63872  0.73960  0.51968  1.0000
  H   H942      1.0  0.43836  0.81317  0.95216  1.0000
  C   C1193     1.0  0.38059  0.77656  0.02765  1.0000
  H   H943      1.0  0.32545  0.86868  0.28665  1.0000
  H   H944      1.0  0.42502  0.83428  0.36419  1.0000
  H   H945      1.0  0.36990  0.97092  0.45641  1.0000
  C   C1194     1.0  0.35083  0.75987  0.61654  1.0000
  C   C1195     1.0  0.42770  0.79255  0.87477  1.0000
  H   H946      1.0  0.34437  0.80418  0.09474  1.0000
  H   H947      1.0  0.37223  0.90044  0.23340  1.0000
  C   C1196     1.0  0.33504  0.79570  0.89728  1.0000
  S   S152      1.0  0.36147  0.94400  0.22278  1.0000
  C   C1197     1.0  0.61049  0.74688  0.56268  1.0000
  C   C1198     1.0  0.39966  0.89733  0.18778  1.0000
  H   H948      1.0  0.42752  0.88990  0.14392  1.0000
  H   H949      1.0  0.37053  0.81544  0.29803  1.0000
  H   H950      1.0  0.58305  0.74955  0.60949  1.0000
  H   H951      1.0  0.36977  0.79113  0.14156  1.0000
  H   H952      1.0  0.43603  0.75182  0.19608  1.0000
  H   H953      1.0  0.36134  0.75054  0.12566  1.0000
  C   C1199     1.0  0.35397  0.97056  0.46083  1.0000
  C   C1200     1.0  0.34203  0.75224  0.18698  1.0000
  C   C1201     1.0  0.43127  0.80454  0.93743  1.0000
  C   C1202     1.0  0.35890  0.75243  0.65372  1.0000
  H   H954      1.0  0.33835  0.76514  0.88690  1.0000
  Fe  Fe73      1.0  0.35119  0.96916  0.26246  1.0000
  C   C1203     1.0  0.41615  0.79469  0.96200  1.0000
  C   C1204     1.0  0.34722  0.81709  0.21536  1.0000
  C   C1205     1.0  0.33192  0.74544  0.12490  1.0000
  C   C1206     1.0  0.38551  0.88996  0.22103  1.0000
  H   H955      1.0  0.43239  0.85323  0.17078  1.0000
  Fe  Fe74      1.0  0.35267  0.75088  0.28220  1.0000
  C   C1207     1.0  0.34075  0.93689  0.21044  1.0000
  C   C1208     1.0  0.36622  0.78036  0.94479  1.0000
  C   C1209     1.0  0.35124  0.85046  0.21996  1.0000
  H   H956      1.0  0.44875  0.81111  0.87488  1.0000
  C   C1210     1.0  0.34460  0.83767  0.19994  1.0000
  C   C1211     1.0  0.34359  0.92641  0.17602  1.0000
  C   C1212     1.0  0.39093  0.77416  0.09577  1.0000
  C   C1213     1.0  0.33677  0.98094  0.13010  1.0000
  P   P42       1.0  0.38696  0.77093  0.97360  1.0000
  H   H957      1.0  0.41099  0.85270  0.30090  1.0000
  S   S153      1.0  0.37438  0.75588  0.31938  1.0000
  C   C1214     1.0  0.36042  0.84276  0.25587  1.0000
  H   H958      1.0  0.40529  0.77447  0.88393  1.0000
  C   C1215     1.0  0.40527  0.85612  0.21850  1.0000
  H   H959      1.0  0.34172  0.80721  0.20034  1.0000
  H   H960      1.0  0.35275  0.83876  0.35996  1.0000
  C   C1216     1.0  0.41257  0.78271  0.89922  1.0000
  C   C1217     1.0  0.38094  0.84647  0.32523  1.0000
  C   C1218     1.0  0.37661  0.82734  0.39633  1.0000
  H   H961      1.0  0.40318  0.81778  0.42529  1.0000
  C   C1219     1.0  0.34385  0.77522  0.90130  1.0000
  C   C1220     1.0  0.36858  0.83773  0.36050  1.0000
  C   C1221     1.0  0.35031  0.87953  0.29884  1.0000
  C   C1222     1.0  0.40129  0.84548  0.32698  1.0000
  H   H962      1.0  0.33709  0.84372  0.17283  1.0000
  H   H963      1.0  0.60817  0.76285  0.55071  1.0000
  C   C1223     1.0  0.35541  0.89441  0.31609  1.0000
  Fe  Fe75      1.0  0.34680  0.76700  0.36560  1.0000
  C   C1224     1.0  0.34797  0.95654  0.44311  1.0000
  H   H964      1.0  0.36013  0.76272  0.67391  1.0000
  H   H965      1.0  0.40127  0.75022  0.23492  1.0000
  H   H966      1.0  0.33502  0.82445  0.91350  1.0000
  H   H967      1.0  0.41167  0.79615  0.99542  1.0000
  H   H968      1.0  0.40167  0.76794  0.11710  1.0000
  H   H969      1.0  0.32903  0.91483  0.13617  1.0000
  C   C1225     1.0  0.34933  0.74660  0.59038  1.0000
  H   H970      1.0  0.34452  0.92204  0.34268  1.0000
  H   H971      1.0  0.36700  0.73809  0.01761  1.0000
  H   H972      1.0  0.36581  0.75157  0.92760  1.0000
  C   C1226     1.0  0.41075  0.73729  0.22131  1.0000
  H   H973      1.0  0.32715  0.95849  0.10602  1.0000
  H   H974      1.0  0.33556  0.74343  0.09193  1.0000
  C   C1227     1.0  0.32994  0.88042  0.29779  1.0000
  H   H975      1.0  0.35271  0.97419  0.12296  1.0000
  H   H976      1.0  0.34365  0.75264  0.56096  1.0000
  H   H977      1.0  0.32705  0.80674  0.32483  1.0000
  C   C1228     1.0  0.32741  0.95677  0.44668  1.0000
  H   H978      1.0  0.34596  0.77595  0.60767  1.0000
  C   C1229     1.0  0.33944  0.98471  0.48248  1.0000
  C   C1230     1.0  0.43032  0.73820  0.19926  1.0000
  C   C1231     1.0  0.32553  0.81349  0.38750  1.0000
  Fe  Fe76      1.0  0.97843  0.16234  0.05220  1.0000
  S   S154      1.0  0.95945  0.16590  0.11657  1.0000
  H   H979      1.0  0.96806  0.09072  0.37744  1.0000
  Fe  Fe77      1.0  0.94212  0.17541  0.00740  1.0000
  S   S155      1.0  0.92027  0.18021  0.06800  1.0000
  S   S156      1.0  0.93000  0.18104  0.94659  1.0000
  Fe  Fe78      1.0  0.94307  0.19452  0.08341  1.0000
  S   S157      1.0  0.93375  0.22392  0.10918  1.0000
  Fe  Fe79      1.0  0.93849  0.15107  0.09473  1.0000
  S   S158      1.0  0.92031  0.12941  0.13641  1.0000
  S   S159      1.0  0.96361  0.19231  0.02015  1.0000
  S   S160      1.0  0.95878  0.14517  0.03300  1.0000
  H   H980      1.0  0.87894  0.12396  0.28543  1.0000
  Fe  Fe80      1.0  0.92091  0.13965  0.34453  1.0000
  Fe  Fe81      1.0  0.91330  0.18435  0.34601  1.0000
  S   S161      1.0  0.91132  0.18029  0.41694  1.0000
  S   S162      1.0  0.90951  0.21570  0.30952  1.0000
  Fe  Fe82      1.0  0.93795  0.15476  0.40673  1.0000
  H   H981      1.0  0.84887  0.04863  0.06729  1.0000
  Fe  Fe83      1.0  0.89257  0.15772  0.41838  1.0000
  S   S163      1.0  0.86454  0.15518  0.46774  1.0000
  S   S164      1.0  0.94182  0.16108  0.33573  1.0000
  S   S165      1.0  0.89256  0.16352  0.34805  1.0000
  Fe  Fe84      1.0  0.82348  0.16871  0.96182  1.0000
  S   S166      1.0  0.79795  0.15680  0.95060  1.0000
  S   S167      1.0  0.84928  0.14762  0.98898  1.0000
  Fe  Fe85      1.0  0.80238  0.21230  0.94047  1.0000
  S   S168      1.0  0.77506  0.20428  0.92682  1.0000
  C   C1232     1.0  0.82717  0.17394  0.32865  1.0000
  Fe  Fe86      1.0  0.77761  0.18114  0.98513  1.0000
  S   S169      1.0  0.75217  0.17324  0.03687  1.0000
  Fe  Fe87      1.0  0.79775  0.18066  0.89330  1.0000
  S   S170      1.0  0.79318  0.17227  0.83337  1.0000
  S   S171      1.0  0.80319  0.19103  0.00164  1.0000
  S   S172      1.0  0.82512  0.19072  0.90158  1.0000
  H   H982      1.0  0.92205  0.01556  0.37113  1.0000
  S   S173      1.0  0.78408  0.21671  0.59845  1.0000
  H   H983      1.0  0.67829  0.21744  0.78779  1.0000
  C   C1233     1.0  0.92087  0.07986  0.48200  1.0000
  C   C1234     1.0  0.78167  0.13150  0.75258  1.0000
  H   H984      1.0  0.91776  0.05895  0.18663  1.0000
  P   P43       1.0  0.86867  0.18068  0.59903  1.0000
  H   H985      1.0  0.98137  0.03449  0.32756  1.0000
  H   H986      1.0  0.75199  0.21626  0.73659  1.0000
  Fe  Fe88      1.0  0.75257  0.23319  0.62210  1.0000
  C   C1235     1.0  0.98654  0.22420  0.07204  1.0000
  C   C1236     1.0  0.71124  0.22824  0.69609  1.0000
  C   C1237     1.0  0.80034  0.18891  0.78771  1.0000
  C   C1238     1.0  0.79355  0.18884  0.75025  1.0000
  C   C1239     1.0  0.79860  0.20240  0.71378  1.0000
  C   C1240     1.0  0.81140  0.21529  0.71395  1.0000
  C   C1241     1.0  0.81839  0.21528  0.75122  1.0000
  C   C1242     1.0  0.81273  0.20217  0.78822  1.0000
  H   H987      1.0  0.78417  0.17850  0.74952  1.0000
  H   H988      1.0  0.79285  0.20264  0.68532  1.0000
  H   H989      1.0  0.89052  0.22440  0.03532  1.0000
  H   H990      1.0  0.81822  0.20211  0.81681  1.0000
  C   C1243     1.0  0.84641  0.17779  0.47001  1.0000
  C   C1244     1.0  0.82788  0.17787  0.49798  1.0000
  C   C1245     1.0  0.81319  0.19571  0.50043  1.0000
  C   C1246     1.0  0.81679  0.21350  0.47415  1.0000
  C   C1247     1.0  0.83527  0.21342  0.44592  1.0000
  C   C1248     1.0  0.85013  0.19562  0.44401  1.0000
  H   H991      1.0  0.82474  0.16408  0.51748  1.0000
  H   H992      1.0  0.79888  0.19556  0.52185  1.0000
  C   C1249     1.0  0.98791  0.12489  0.38288  1.0000
  H   H993      1.0  0.86438  0.19571  0.42231  1.0000
  H   H994      1.0  0.82806  0.22547  0.75149  1.0000
  C   C1250     1.0  0.92461  0.06937  0.16190  1.0000
  H   H995      1.0  0.73219  0.21856  0.04606  1.0000
  C   C1251     1.0  0.87930  0.22194  0.01924  1.0000
  H   H996      1.0  0.90929  0.12786  0.23156  1.0000
  C   C1252     1.0  0.86901  0.02026  0.08011  1.0000
  C   C1253     1.0  0.90824  0.17072  0.95637  1.0000
  C   C1254     1.0  0.89458  0.17651  0.92795  1.0000
  C   C1255     1.0  0.87664  0.16904  0.93706  1.0000
  C   C1256     1.0  0.87244  0.15567  0.97445  1.0000
  C   C1257     1.0  0.88637  0.14954  0.00223  1.0000
  C   C1258     1.0  0.90421  0.15704  0.99326  1.0000
  H   H997      1.0  0.89767  0.18708  0.89938  1.0000
  H   H998      1.0  0.86604  0.17374  0.91535  1.0000
  H   H999      1.0  0.88330  0.13914  0.03104  1.0000
  H   H1000     1.0  0.91483  0.15217  0.01498  1.0000
  C   C1259     1.0  0.92774  0.22100  0.16493  1.0000
  C   C1260     1.0  0.92358  0.20283  0.18864  1.0000
  C   C1261     1.0  0.91844  0.20083  0.23335  1.0000
  C   C1262     1.0  0.91705  0.21721  0.25410  1.0000
  H   H1001     1.0  0.66576  0.11347  0.81629  1.0000
  Fe  Fe89      1.0  0.65977  0.20111  0.93526  1.0000
  H   H1002     1.0  0.92460  0.19031  0.17240  1.0000
  H   H1003     1.0  0.91539  0.18674  0.25175  1.0000
  C   C1263     1.0  0.98485  0.10062  0.95312  1.0000
  C   C1264     1.0  0.78167  0.19535  0.24584  1.0000
  H   H1004     1.0  0.74858  0.18099  0.74614  1.0000
  Fe  Fe90      1.0  0.95540  0.99669  0.27040  1.0000
  C   C1265     1.0  0.92931  0.09320  0.49654  1.0000
  H   H1005     1.0  0.67288  0.16884  0.73121  1.0000
  C   C1266     1.0  0.97304  0.08200  0.35149  1.0000
  C   C1267     1.0  0.92803  0.10366  0.13205  1.0000
  C   C1268     1.0  0.94204  0.09654  0.09750  1.0000
  H   H1006     1.0  0.90421  0.08960  0.08621  1.0000
  H   H1007     1.0  0.94890  0.10692  0.07269  1.0000
  H   H1008     1.0  0.78098  0.19726  0.37754  1.0000
  C   C1269     1.0  0.87941  0.13843  0.26591  1.0000
  C   C1270     1.0  0.89688  0.14062  0.23602  1.0000
  C   C1271     1.0  0.66507  0.16111  0.83946  1.0000
  H   H1009     1.0  0.84292  0.11665  0.05751  1.0000
  C   C1272     1.0  0.91736  0.14910  0.52644  1.0000
  C   C1273     1.0  0.86950  0.09572  0.22432  1.0000
  P   P44       1.0  0.82315  0.21869  0.15164  1.0000
  C   C1274     1.0  0.74097  0.18995  0.77100  1.0000
  H   H1010     1.0  0.98488  0.04220  0.08801  1.0000
  C   C1275     1.0  0.91938  0.09000  0.16397  1.0000
  C   C1276     1.0  0.94332  0.99370  0.40451  1.0000
  H   H1011     1.0  0.79702  0.16746  0.34228  1.0000
  C   C1277     1.0  0.85878  0.19982  0.00958  1.0000
  H   H1012     1.0  0.96133  0.06704  0.21358  1.0000
  H   H1013     1.0  0.83848  0.21429  0.35772  1.0000
  H   H1014     1.0  0.91616  0.11147  0.95244  1.0000
  C   C1278     1.0  0.86249  0.17979  0.72749  1.0000
  C   C1279     1.0  0.95995  0.99062  0.42465  1.0000
  C   C1280     1.0  0.77688  0.11963  0.72744  1.0000
  H   H1015     1.0  0.79836  0.17154  0.65225  1.0000
  C   C1281     1.0  0.69639  0.16201  0.76895  1.0000
  C   C1282     1.0  0.73060  0.17340  0.01633  1.0000
  C   C1283     1.0  0.75671  0.11835  0.73021  1.0000
  C   C1284     1.0  0.82754  0.14841  0.22955  1.0000
  C   C1285     1.0  0.96381  0.09765  0.18846  1.0000
  H   H1016     1.0  0.84336  0.23301  0.27868  1.0000
  H   H1017     1.0  0.95311  0.10394  0.21442  1.0000
  H   H1018     1.0  0.68799  0.15628  0.87741  1.0000
  C   C1286     1.0  0.82799  0.17028  0.09205  1.0000
  C   C1287     1.0  0.84720  0.15895  0.09661  1.0000
  C   C1288     1.0  0.85936  0.16570  0.11773  1.0000
  C   C1289     1.0  0.85236  0.18397  0.13385  1.0000
  C   C1290     1.0  0.83316  0.19564  0.12886  1.0000
  C   C1291     1.0  0.82096  0.18854  0.10809  1.0000
  C   C1292     1.0  0.83204  0.10743  0.07334  1.0000
  H   H1019     1.0  0.81872  0.16492  0.07547  1.0000
  H   H1020     1.0  0.85273  0.14514  0.08297  1.0000
  H   H1021     1.0  0.87441  0.15695  0.12087  1.0000
  H   H1022     1.0  0.86211  0.18886  0.14972  1.0000
  Fe  Fe91      1.0  0.93770  0.01969  0.19320  1.0000
  C   C1293     1.0  0.79858  0.13476  0.22740  1.0000
  C   C1294     1.0  0.79431  0.13147  0.27189  1.0000
  C   C1295     1.0  0.80666  0.13660  0.29528  1.0000
  C   C1296     1.0  0.82334  0.14520  0.27433  1.0000
  P   P45       1.0  0.83943  0.15145  0.30493  1.0000
  C   C1297     1.0  0.84477  0.13060  0.34656  1.0000
  C   C1298     1.0  0.84868  0.13389  0.38502  1.0000
  C   C1299     1.0  0.85325  0.11762  0.41674  1.0000
  C   C1300     1.0  0.85410  0.09802  0.41025  1.0000
  C   C1301     1.0  0.85039  0.09461  0.37193  1.0000
  C   C1302     1.0  0.84575  0.11081  0.34020  1.0000
  C   C1303     1.0  0.86299  0.15475  0.27007  1.0000
  C   C1304     1.0  0.88260  0.17572  0.21652  1.0000
  C   C1305     1.0  0.86464  0.17339  0.24470  1.0000
  H   H1023     1.0  0.78915  0.13060  0.20922  1.0000
  H   H1024     1.0  0.78157  0.12469  0.28827  1.0000
  H   H1025     1.0  0.80341  0.13349  0.32976  1.0000
  H   H1026     1.0  0.84846  0.14891  0.39058  1.0000
  H   H1027     1.0  0.85644  0.12023  0.44620  1.0000
  H   H1028     1.0  0.85801  0.08544  0.43457  1.0000
  H   H1029     1.0  0.85167  0.07932  0.36641  1.0000
  H   H1030     1.0  0.84327  0.10780  0.31052  1.0000
  H   H1031     1.0  0.88422  0.19019  0.19805  1.0000
  H   H1032     1.0  0.85214  0.18611  0.24681  1.0000
  H   H1033     1.0  0.70524  0.19696  0.93580  1.0000
  H   H1034     1.0  0.79727  0.13247  0.75091  1.0000
  C   C1306     1.0  0.90756  0.08983  0.35140  1.0000
  C   C1307     1.0  0.68726  0.22611  0.76310  1.0000
  C   C1308     1.0  0.88668  0.01021  0.09558  1.0000
  H   H1035     1.0  0.69830  0.20230  0.72437  1.0000
  H   H1036     1.0  0.87514  0.22567  0.69487  1.0000
  P   P46       1.0  0.97036  0.04771  0.41154  1.0000
  C   C1309     1.0  0.93325  0.06569  0.45704  1.0000
  C   C1310     1.0  0.72244  0.12873  0.89239  1.0000
  C   C1311     1.0  0.96860  0.07692  0.18801  1.0000
  C   C1312     1.0  0.95015  0.09244  0.48606  1.0000
  H   H1037     1.0  0.81405  0.19057  0.22863  1.0000
  C   C1313     1.0  0.84701  0.21448  0.55387  1.0000
  C   C1314     1.0  0.98380  0.12880  0.42502  1.0000
  C   C1315     1.0  0.66066  0.16471  0.79838  1.0000
  C   C1316     1.0  0.72907  0.18189  0.80807  1.0000
  C   C1317     1.0  0.90002  0.06271  0.32330  1.0000
  H   H1038     1.0  0.90162  0.15749  0.64462  1.0000
  S   S174      1.0  0.90625  0.01496  0.22222  1.0000
  H   H1039     1.0  0.78881  0.11132  0.70609  1.0000
  C   C1318     1.0  0.84789  0.16809  0.60442  1.0000
  H   H1040     1.0  0.85921  0.16038  0.68639  1.0000
  C   C1319     1.0  0.74599  0.14157  0.78206  1.0000
  C   C1320     1.0  0.98604  0.06070  0.28238  1.0000
  H   H1041     1.0  0.82673  0.18896  0.64267  1.0000
  C   C1321     1.0  0.74286  0.21003  0.76531  1.0000
  C   C1322     1.0  0.74129  0.12917  0.75767  1.0000
  H   H1042     1.0  0.89180  0.06692  0.38929  1.0000
  H   H1043     1.0  0.92651  0.10371  0.02302  1.0000
  H   H1044     1.0  0.99112  0.05245  0.25559  1.0000
  H   H1045     1.0  0.70812  0.18866  0.86573  1.0000
  C   C1323     1.0  0.96796  0.00698  0.42778  1.0000
  H   H1046     1.0  0.70825  0.16351  0.74132  1.0000
  C   C1324     1.0  0.98925  0.17470  0.21953  1.0000
  H   H1047     1.0  0.87879  0.19237  0.05484  1.0000
  C   C1325     1.0  0.97283  0.11041  0.15535  1.0000
  H   H1048     1.0  0.90983  0.06266  0.25628  1.0000
  C   C1326     1.0  0.94707  0.07579  0.09499  1.0000
  H   H1049     1.0  0.85358  0.18579  0.01848  1.0000
  H   H1050     1.0  0.95771  0.07030  0.06819  1.0000
  Fe  Fe92      1.0  0.91269  0.02174  0.28223  1.0000
  S   S175      1.0  0.72737  0.21662  0.65396  1.0000
  C   C1327     1.0  0.82901  0.17546  0.62844  1.0000
  H   H1051     1.0  0.83819  0.22720  0.42588  1.0000
  C   C1328     1.0  0.66739  0.22395  0.06002  1.0000
  C   C1329     1.0  0.95977  0.22328  0.30537  1.0000
  H   H1052     1.0  0.91170  0.01330  0.12207  1.0000
  C   C1330     1.0  0.72571  0.12047  0.93370  1.0000
  C   C1331     1.0  0.68510  0.15789  0.84537  1.0000
  S   S176      1.0  0.67081  0.22941  0.93230  1.0000
  C   C1332     1.0  0.73770  0.12842  0.95306  1.0000
  H   H1053     1.0  0.86063  0.01198  0.06765  1.0000
  C   C1333     1.0  0.97298  0.13988  0.23806  1.0000
  C   C1334     1.0  0.96139  0.15824  0.22315  1.0000
  C   C1335     1.0  0.96960  0.17554  0.21348  1.0000
  C   C1336     1.0  0.96938  0.21007  0.27612  1.0000
  C   C1337     1.0  0.98440  0.22839  0.14531  1.0000
  C   C1338     1.0  0.89888  0.07270  0.35777  1.0000
  C   C1339     1.0  0.85043  0.15064  0.58605  1.0000
  H   H1054     1.0  0.75035  0.16528  0.87336  1.0000
  C   C1340     1.0  0.73062  0.14542  0.87072  1.0000
  C   C1341     1.0  0.98268  0.06894  0.15455  1.0000
  C   C1342     1.0  0.67632  0.16527  0.76311  1.0000
  H   H1055     1.0  0.69283  0.14729  0.03213  1.0000
  H   H1056     1.0  0.80303  0.14078  0.61955  1.0000
  C   C1343     1.0  0.90573  0.15522  0.61161  1.0000
  S   S177      1.0  0.67627  0.17056  0.96031  1.0000
  S   S178      1.0  0.89108  0.04042  0.32961  1.0000
  C   C1344     1.0  0.70099  0.15781  0.81016  1.0000
  C   C1345     1.0  0.68303  0.22321  0.12024  1.0000
  H   H1057     1.0  0.96657  0.12653  0.24502  1.0000
  H   H1058     1.0  0.94607  0.15897  0.21905  1.0000
  H   H1059     1.0  0.96074  0.18971  0.20136  1.0000
  H   H1060     1.0  0.96367  0.19656  0.27828  1.0000
  C   C1346     1.0  0.98501  0.08033  0.96900  1.0000
  C   C1347     1.0  0.88172  0.22685  0.50469  1.0000
  H   H1061     1.0  0.72224  0.14875  0.06303  1.0000
  H   H1062     1.0  0.76621  0.20565  0.06272  1.0000
  C   C1348     1.0  0.93860  0.06218  0.12773  1.0000
  C   C1349     1.0  0.89778  0.02094  0.11076  1.0000
  H   H1063     1.0  0.74909  0.20332  0.25522  1.0000
  H   H1064     1.0  0.86132  0.09025  0.00709  1.0000
  H   H1065     1.0  0.87140  0.09945  0.25380  1.0000
  H   H1066     1.0  0.90464  0.08084  0.48914  1.0000
  C   C1350     1.0  0.89103  0.04161  0.11125  1.0000
  H   H1067     1.0  0.96899  0.12640  0.15607  1.0000
  C   C1351     1.0  0.86717  0.19807  0.73002  1.0000
  H   H1068     1.0  0.85492  0.18444  0.32392  1.0000
  C   C1352     1.0  0.81521  0.14317  0.20629  1.0000
  C   C1353     1.0  0.84031  0.22399  0.18080  1.0000
  H   H1069     1.0  0.80600  0.19711  0.10423  1.0000
  S   S179      1.0  0.94561  0.03616  0.12691  1.0000
  C   C1354     1.0  0.87271  0.20372  0.03058  1.0000
  C   C1355     1.0  0.86301  0.17455  0.68775  1.0000
  H   H1070     1.0  0.92628  0.05589  0.44532  1.0000
  C   C1356     1.0  0.74319  0.15288  0.88989  1.0000
  C   C1357     1.0  0.71849  0.15933  0.03537  1.0000
  H   H1071     1.0  0.73997  0.12232  0.98532  1.0000
  C   C1358     1.0  0.95947  0.02656  0.41026  1.0000
  H   H1072     1.0  0.89516  0.23150  0.48526  1.0000
  H   H1073     1.0  0.71327  0.12234  0.87763  1.0000
  H   H1074     1.0  0.91086  0.22346  0.94885  1.0000
  H   H1075     1.0  0.71049  0.22405  0.85427  1.0000
  C   C1359     1.0  0.83868  0.18726  0.33394  1.0000
  C   C1360     1.0  0.76631  0.14223  0.78010  1.0000
  S   S180      1.0  0.94293  0.02928  0.25138  1.0000
  C   C1361     1.0  0.94292  0.02948  0.38961  1.0000
  C   C1362     1.0  0.76282  0.22169  0.20057  1.0000
  H   H1076     1.0  0.77026  0.15125  0.79967  1.0000
  H   H1077     1.0  0.91235  0.16074  0.18913  1.0000
  C   C1363     1.0  0.80624  0.17773  0.34436  1.0000
  C   C1364     1.0  0.89858  0.15925  0.21175  1.0000
  C   C1365     1.0  0.71969  0.21451  0.83172  1.0000
  H   H1078     1.0  0.87617  0.21661  0.62468  1.0000
  C   C1366     1.0  0.98599  0.21443  0.24502  1.0000
  H   H1079     1.0  0.84042  0.15470  0.21231  1.0000
  H   H1080     1.0  0.83636  0.12752  0.57684  1.0000
  H   H1081     1.0  0.94533  0.13175  0.54397  1.0000
  C   C1367     1.0  0.66929  0.21688  0.10246  1.0000
  C   C1368     1.0  0.78095  0.22578  0.17534  1.0000
  C   C1369     1.0  0.79702  0.19464  0.36445  1.0000
  C   C1370     1.0  0.92092  0.23545  0.23021  1.0000
  H   H1082     1.0  0.87198  0.12496  0.18846  1.0000
  S   S181      1.0  0.91902  0.13164  0.41480  1.0000
  S   S182      1.0  0.92995  0.11689  0.30017  1.0000
  C   C1371     1.0  0.84529  0.23176  0.52337  1.0000
  H   H1083     1.0  0.97845  0.13354  0.36056  1.0000
  C   C1372     1.0  0.72568  0.18706  0.98055  1.0000
  H   H1084     1.0  0.75302  0.10897  0.71106  1.0000
  S   S183      1.0  0.96358  0.14776  0.44302  1.0000
  H   H1085     1.0  0.97876  0.07148  0.95303  1.0000
  C   C1373     1.0  0.74659  0.14446  0.93097  1.0000
  C   C1374     1.0  0.69862  0.21752  0.72719  1.0000
  C   C1375     1.0  0.82939  0.20427  0.35340  1.0000
  C   C1376     1.0  0.80860  0.20790  0.36902  1.0000
  H   H1086     1.0  0.97864  0.07829  0.45243  1.0000
  S   S184      1.0  0.81891  0.23107  0.66732  1.0000
  H   H1087     1.0  0.75586  0.15066  0.94594  1.0000
  C   C1377     1.0  0.87264  0.20605  0.65301  1.0000
  H   H1088     1.0  0.91962  0.10454  0.51482  1.0000
  H   H1089     1.0  0.86463  0.14479  0.56663  1.0000
  H   H1090     1.0  0.79200  0.07602  0.13298  1.0000
  H   H1091     1.0  0.86820  0.06494  0.25100  1.0000
  H   H1092     1.0  0.73481  0.19808  0.96592  1.0000
  H   H1093     1.0  0.98154  0.03515  0.49570  1.0000
  C   C1378     1.0  0.95423  0.06473  0.44660  1.0000
  H   H1094     1.0  0.95664  0.10329  0.49583  1.0000
  C   C1379     1.0  0.70877  0.18653  0.96368  1.0000
  C   C1380     1.0  0.86754  0.08494  0.14664  1.0000
  C   C1381     1.0  0.86227  0.04100  0.08040  1.0000
  C   C1382     1.0  0.87298  0.05170  0.09702  1.0000
  H   H1095     1.0  0.80160  0.22068  0.38579  1.0000
  C   C1383     1.0  0.71811  0.19440  0.83790  1.0000
  C   C1384     1.0  0.98649  0.10261  0.12128  1.0000
  H   H1096     1.0  0.90890  0.09540  0.19089  1.0000
  H   H1097     1.0  0.97723  0.10809  0.30641  1.0000
  P   P47       1.0  0.72660  0.15604  0.81728  1.0000
  H   H1098     1.0  0.81868  0.14540  0.17182  1.0000
  H   H1099     1.0  0.87006  0.11560  0.12019  1.0000
  C   C1385     1.0  0.86985  0.11003  0.18750  1.0000
  H   H1100     1.0  0.93657  0.04434  0.37449  1.0000
  C   C1386     1.0  0.89949  0.09298  0.05558  1.0000
  C   C1387     1.0  0.88354  0.20972  0.53558  1.0000
  H   H1101     1.0  0.66288  0.00863  0.79566  1.0000
  C   C1388     1.0  0.98047  0.05058  0.32323  1.0000
  H   H1102     1.0  0.92616  0.09151  0.24566  1.0000
  H   H1103     1.0  0.72584  0.12775  0.75990  1.0000
  C   C1389     1.0  0.90654  0.10489  0.97984  1.0000
  C   C1390     1.0  0.81154  0.11514  0.07205  1.0000
  C   C1391     1.0  0.86795  0.07613  0.22258  1.0000
  H   H1104     1.0  0.78123  0.10976  0.09202  1.0000
  H   H1105     1.0  0.82826  0.06237  0.13563  1.0000
  C   C1392     1.0  0.86617  0.20316  0.55992  1.0000
  C   C1393     1.0  0.97445  0.06113  0.35825  1.0000
  H   H1106     1.0  0.89853  0.20156  0.54009  1.0000
  C   C1394     1.0  0.96259  0.07822  0.46140  1.0000
  C   C1395     1.0  0.79960  0.21483  0.18562  1.0000
  C   C1396     1.0  0.91771  0.09648  0.31078  1.0000
  C   C1397     1.0  0.86903  0.10461  0.14871  1.0000
  C   C1398     1.0  0.79982  0.19944  0.22075  1.0000
  C   C1399     1.0  0.69698  0.17208  0.98203  1.0000
  C   C1400     1.0  0.70191  0.15846  0.01784  1.0000
  C   C1401     1.0  0.73235  0.22228  0.79579  1.0000
  H   H1107     1.0  0.88858  0.16772  0.51722  1.0000
  C   C1402     1.0  0.88075  0.08968  0.05173  1.0000
  C   C1403     1.0  0.87215  0.21123  0.69283  1.0000
  C   C1404     1.0  0.91228  0.10068  0.01978  1.0000
  C   C1405     1.0  0.86667  0.07081  0.18403  1.0000
  H   H1108     1.0  0.92197  0.14694  0.49336  1.0000
  H   H1109     1.0  0.71881  0.10805  0.95092  1.0000
  C   C1406     1.0  0.81559  0.14822  0.61574  1.0000
  C   C1407     1.0  0.76317  0.20652  0.23585  1.0000
  C   C1408     1.0  0.89848  0.16090  0.54009  1.0000
  C   C1409     1.0  0.97844  0.09203  0.31069  1.0000
  H   H1110     1.0  0.78194  0.18342  0.27283  1.0000
  C   C1410     1.0  0.76122  0.22170  0.05373  1.0000
  H   H1111     1.0  0.94691  0.21984  0.32913  1.0000
  H   H1112     1.0  0.94234  0.21885  0.89676  1.0000
  C   C1411     1.0  0.85189  0.21382  0.97628  1.0000
  H   H1113     1.0  0.68446  0.21777  0.15317  1.0000
  C   C1412     1.0  0.93474  0.01315  0.38731  1.0000
  H   H1114     1.0  0.82915  0.22483  0.05739  1.0000
  C   C1413     1.0  0.83435  0.14072  0.59189  1.0000
  H   H1115     1.0  0.97843  0.10758  0.92492  1.0000
  C   C1414     1.0  0.89261  0.16429  0.58266  1.0000
  H   H1116     1.0  0.90694  0.09749  0.37786  1.0000
  H   H1117     1.0  0.89999  0.04971  0.12268  1.0000
  H   H1118     1.0  0.85797  0.16992  0.75641  1.0000
  H   H1119     1.0  0.86628  0.20230  0.76089  1.0000
  C   C1415     1.0  0.80322  0.08473  0.11610  1.0000
  H   H1120     1.0  0.86521  0.05560  0.18355  1.0000
  C   C1416     1.0  0.82377  0.07696  0.11719  1.0000
  C   C1417     1.0  0.81293  0.16558  0.63405  1.0000
  C   C1418     1.0  0.88813  0.10115  0.97555  1.0000
  C   C1419     1.0  0.83440  0.22650  0.22397  1.0000
  H   H1121     1.0  0.80689  0.12993  0.05436  1.0000
  H   H1122     1.0  0.88348  0.10477  0.94475  1.0000
  C   C1420     1.0  0.98535  0.08138  0.27620  1.0000
  C   C1421     1.0  0.87542  0.09325  0.01120  1.0000
  P   P48       1.0  0.86486  0.07846  0.09726  1.0000
  C   C1422     1.0  0.83839  0.08805  0.09480  1.0000
  C   C1423     1.0  0.79712  0.10375  0.09324  1.0000
  H   H1123     1.0  0.93485  0.13669  0.62002  1.0000
  H   H1124     1.0  0.84154  0.21044  0.95927  1.0000
  C   C1424     1.0  0.86807  0.18765  0.65018  1.0000
  C   C1425     1.0  0.90943  0.06995  0.28297  1.0000
  C   C1426     1.0  0.91851  0.08648  0.27691  1.0000
  H   H1125     1.0  0.89193  0.99415  0.09551  1.0000
  C   C1427     1.0  0.93051  0.14047  0.55512  1.0000
  C   C1428     1.0  0.92463  0.14338  0.59778  1.0000
  H   H1126     1.0  0.98110  0.00416  0.44270  1.0000
  H   H1127     1.0  0.83333  0.21002  0.57228  1.0000
  C   C1429     1.0  0.86698  0.23399  0.22363  1.0000
  C   C1430     1.0  0.85843  0.23206  0.96466  1.0000
  H   H1128     1.0  0.78976  0.22882  0.05431  1.0000
  H   H1129     1.0  0.86410  0.22607  0.12537  1.0000
  S   S185      1.0  0.95311  0.98751  0.20927  1.0000
  C   C1431     1.0  0.85941  0.22731  0.15899  1.0000
  C   C1432     1.0  0.87268  0.23220  0.18040  1.0000
  C   C1433     1.0  0.99157  0.08178  0.12041  1.0000
  S   S186      1.0  0.92567  0.98964  0.30534  1.0000
  H   H1130     1.0  0.88746  0.23451  0.16343  1.0000
  H   H1131     1.0  0.81949  0.22496  0.24137  1.0000
  C   C1434     1.0  0.84781  0.23127  0.24531  1.0000
  C   C1435     1.0  0.74177  0.22915  0.04464  1.0000
  H   H1132     1.0  0.80452  0.23241  0.85248  1.0000
  H   H1133     1.0  0.74847  0.23016  0.19247  1.0000
  H   H1134     1.0  0.98624  0.05284  0.15578  1.0000
  H   H1135     1.0  0.98297  0.23011  0.04061  1.0000
  H   H1136     1.0  0.66005  0.20657  0.12147  1.0000
  S   S187      1.0  0.98215  0.98871  0.30368  1.0000
  C   C1436     1.0  0.77438  0.23477  0.04945  1.0000
  H   H1137     1.0  0.99178  0.00532  0.10375  1.0000
  H   H1138     1.0  0.98880  0.00651  0.21588  1.0000
  H   H1139     1.0  0.99019  0.08911  0.24474  1.0000
  H   H1140     1.0  0.73942  0.23564  0.95737  1.0000
  C   C1437     1.0  0.93346  0.23393  0.89921  1.0000
  H   H1141     1.0  0.83974  0.23267  0.85717  1.0000
  Fe  Fe93      1.0  0.79430  0.23822  0.62861  1.0000
  H   H1142     1.0  0.82935  0.26879  0.70589  1.0000
  H   H1143     1.0  0.85612  0.26511  0.05526  1.0000
  Fe  Fe94      1.0  0.78571  0.45151  0.84669  1.0000
  C   C1438     1.0  0.96657  0.24094  0.30383  1.0000
  S   S188      1.0  0.78268  0.41930  0.85452  1.0000
  H   H1144     1.0  0.78568  0.25915  0.80656  1.0000
  C   C1439     1.0  0.87196  0.23644  0.98653  1.0000
  C   C1440     1.0  0.68305  0.29058  0.05687  1.0000
  S   S189      1.0  0.67622  0.25657  0.81337  1.0000
  S   S190      1.0  0.78822  0.47139  0.78355  1.0000
  S   S191      1.0  0.81381  0.45674  0.86260  1.0000
  Fe  Fe95      1.0  0.69793  0.37627  0.83662  1.0000
  S   S192      1.0  0.67040  0.36479  0.83500  1.0000
  S   S193      1.0  0.70126  0.40821  0.81279  1.0000
  Fe  Fe96      1.0  0.71957  0.33611  0.87746  1.0000
  S   S194      1.0  0.69421  0.32083  0.87873  1.0000
  S   S195      1.0  0.74776  0.32595  0.90660  1.0000
  Fe  Fe97      1.0  0.69298  0.33806  0.81258  1.0000
  S   S196      1.0  0.68598  0.32527  0.75981  1.0000
  Fe  Fe98      1.0  0.67370  0.34853  0.90062  1.0000
  H   H1145     1.0  0.75606  0.40843  0.75408  1.0000
  S   S197      1.0  0.72034  0.35077  0.80939  1.0000
  S   S198      1.0  0.69901  0.36281  0.90440  1.0000
  C   C1441     1.0  0.75102  0.46496  0.71878  1.0000
  C   C1442     1.0  0.76310  0.30197  0.91669  1.0000
  C   C1443     1.0  0.78077  0.30111  0.93191  1.0000
  H   H1146     1.0  0.78417  0.31476  0.93765  1.0000
  C   C1444     1.0  0.71319  0.45827  0.71434  1.0000
  C   C1445     1.0  0.70614  0.46890  0.86562  1.0000
  C   C1446     1.0  0.74340  0.28161  0.74243  1.0000
  C   C1447     1.0  0.68304  0.32586  0.03062  1.0000
  C   C1448     1.0  0.90374  0.25601  0.93236  1.0000
  H   H1147     1.0  0.74836  0.45990  0.61638  1.0000
  H   H1148     1.0  0.72962  0.43239  0.68535  1.0000
  C   C1449     1.0  0.76849  0.40700  0.68760  1.0000
  C   C1450     1.0  0.70004  0.25658  0.73526  1.0000
  P   P49       1.0  0.88095  0.25976  0.97183  1.0000
  C   C1451     1.0  0.80099  0.25984  0.80814  1.0000
  C   C1452     1.0  0.92858  0.26994  0.87677  1.0000
  C   C1453     1.0  0.81931  0.29335  0.60971  1.0000
  H   H1149     1.0  0.79165  0.30755  0.83734  1.0000
  H   H1150     1.0  0.80856  0.42320  0.61200  1.0000
  C   C1454     1.0  0.85147  0.29562  0.97033  1.0000
  H   H1151     1.0  0.74887  0.33512  0.66072  1.0000
  H   H1152     1.0  0.66937  0.40331  0.93500  1.0000
  H   H1153     1.0  0.71456  0.25800  0.84335  1.0000
  C   C1455     1.0  0.80302  0.30843  0.62299  1.0000
  H   H1154     1.0  0.81618  0.43460  0.53456  1.0000
  C   C1456     1.0  0.80140  0.44007  0.55260  1.0000
  C   C1457     1.0  0.76006  0.41651  0.84267  1.0000
  C   C1458     1.0  0.74729  0.43287  0.82317  1.0000
  C   C1459     1.0  0.72926  0.43022  0.81381  1.0000
  C   C1460     1.0  0.72387  0.41137  0.82435  1.0000
  C   C1461     1.0  0.73672  0.39503  0.84366  1.0000
  C   C1462     1.0  0.75485  0.39757  0.85254  1.0000
  H   H1155     1.0  0.75133  0.44751  0.81530  1.0000
  H   H1156     1.0  0.71937  0.44281  0.79887  1.0000
  H   H1157     1.0  0.73283  0.38036  0.85169  1.0000
  H   H1158     1.0  0.76469  0.38488  0.86766  1.0000
  H   H1159     1.0  0.98846  0.25902  0.27212  1.0000
  H   H1160     1.0  0.68387  0.27994  0.95928  1.0000
  H   H1161     1.0  0.72732  0.29866  0.83729  1.0000
  C   C1463     1.0  0.84075  0.26034  0.81349  1.0000
  C   C1464     1.0  0.85923  0.27939  0.90731  1.0000
  H   H1162     1.0  0.81015  0.28876  0.02804  1.0000
  C   C1465     1.0  0.87538  0.27026  0.09397  1.0000
  C   C1466     1.0  0.77293  0.39491  0.65519  1.0000
  C   C1467     1.0  0.79015  0.26507  0.93197  1.0000
  H   H1163     1.0  0.85615  0.26044  0.81555  1.0000
  H   H1164     1.0  0.66082  0.31509  0.08166  1.0000
  H   H1165     1.0  0.92939  0.25144  0.16751  1.0000
  C   C1468     1.0  0.69504  0.23640  0.09535  1.0000
  S   S199      1.0  0.76312  0.25226  0.65776  1.0000
  C   C1469     1.0  0.94002  0.25056  0.87312  1.0000
  C   C1470     1.0  0.80581  0.44865  0.67995  1.0000
  S   S200      1.0  0.75086  0.25627  0.56317  1.0000
  C   C1471     1.0  0.76329  0.28462  0.73406  1.0000
  C   C1472     1.0  0.76323  0.45423  0.59914  1.0000
  C   C1473     1.0  0.70339  0.30838  0.68791  1.0000
  C   C1474     1.0  0.76884  0.37546  0.66425  1.0000
  H   H1166     1.0  0.83240  0.47855  0.00690  1.0000
  H   H1167     1.0  0.80298  0.29166  0.10509  1.0000
  C   C1475     1.0  0.72770  0.24540  0.94151  1.0000
  C   C1476     1.0  0.91055  0.27269  0.90644  1.0000
  H   H1168     1.0  0.91827  0.26513  0.99522  1.0000
  C   C1477     1.0  0.67538  0.45852  0.86293  1.0000
  Fe  Fe99      1.0  0.66029  0.23837  0.86952  1.0000
  C   C1478     1.0  0.90352  0.45952  0.83070  1.0000
  C   C1479     1.0  0.88928  0.44889  0.82693  1.0000
  C   C1480     1.0  0.86867  0.45711  0.83678  1.0000
  C   C1481     1.0  0.72895  0.24555  0.89794  1.0000
  C   C1482     1.0  0.91025  0.26997  0.06032  1.0000
  C   C1483     1.0  0.79422  0.28283  0.93928  1.0000
  C   C1484     1.0  0.71388  0.25799  0.87685  1.0000
  H   H1169     1.0  0.73797  0.27535  0.72012  1.0000
  C   C1485     1.0  0.74994  0.44855  0.70040  1.0000
  C   C1486     1.0  0.77007  0.29350  0.76232  1.0000
  H   H1170     1.0  0.71475  0.28511  0.78532  1.0000
  C   C1487     1.0  0.92631  0.23733  0.18576  1.0000
  H   H1171     1.0  0.86773  0.26742  0.88948  1.0000
  H   H1172     1.0  0.72073  0.46564  0.87558  1.0000
  H   H1173     1.0  0.70573  0.24109  0.10937  1.0000
  C   C1488     1.0  0.86219  0.47603  0.85013  1.0000
  C   C1489     1.0  0.80621  0.29584  0.69691  1.0000
  H   H1174     1.0  0.80864  0.26119  0.15852  1.0000
  C   C1490     1.0  0.79389  0.43431  0.69956  1.0000
  C   C1491     1.0  0.73504  0.24990  0.03259  1.0000
  H   H1175     1.0  0.91952  0.45313  0.82301  1.0000
  H   H1176     1.0  0.89416  0.43436  0.81603  1.0000
  H   H1177     1.0  0.85764  0.44906  0.83293  1.0000
  H   H1178     1.0  0.73337  0.23798  0.79042  1.0000
  C   C1492     1.0  0.80877  0.27702  0.09483  1.0000
  C   C1493     1.0  0.67871  0.29883  0.58928  1.0000
  H   H1179     1.0  0.79488  0.31861  0.59975  1.0000
  C   C1494     1.0  0.87116  0.26690  0.05606  1.0000
  C   C1495     1.0  0.66882  0.47690  0.83794  1.0000
  H   H1180     1.0  0.68553  0.27918  0.88284  1.0000
  H   H1181     1.0  0.90196  0.28781  0.90928  1.0000
  C   C1496     1.0  0.70866  0.30023  0.99768  1.0000
  C   C1497     1.0  0.76791  0.25538  0.03708  1.0000
  H   H1182     1.0  0.85267  0.24257  0.93887  1.0000
  H   H1183     1.0  0.79014  0.45851  0.49799  1.0000
  P   P50       1.0  0.79607  0.29638  0.75292  1.0000
  C   C1498     1.0  0.73631  0.32749  0.66867  1.0000
  H   H1184     1.0  0.89847  0.27352  0.12595  1.0000
  H   H1185     1.0  0.85389  0.29665  0.00148  1.0000
  C   C1499     1.0  0.79760  0.31936  0.77012  1.0000
  C   C1500     1.0  0.82893  0.27938  0.63983  1.0000
  C   C1501     1.0  0.78673  0.45355  0.53200  1.0000
  H   H1186     1.0  0.68275  0.31272  0.57165  1.0000
  C   C1502     1.0  0.79856  0.42173  0.73702  1.0000
  C   C1503     1.0  0.73086  0.44515  0.69876  1.0000
  P   P51       1.0  0.71006  0.25902  0.01950  1.0000
  C   C1504     1.0  0.69305  0.28084  0.58819  1.0000
  C   C1505     1.0  0.79430  0.32052  0.81387  1.0000
  S   S201      1.0  0.75507  0.30757  0.60094  1.0000
  C   C1506     1.0  0.79642  0.30961  0.66638  1.0000
  Fe  Fe100     1.0  0.76366  0.27428  0.59755  1.0000
  H   H1187     1.0  0.76141  0.30522  0.82245  1.0000
  H   H1188     1.0  0.74498  0.28466  0.89832  1.0000
  C   C1507     1.0  0.75987  0.39933  0.72881  1.0000
  C   C1508     1.0  0.70031  0.28508  0.02630  1.0000
  C   C1509     1.0  0.82992  0.27600  0.78802  1.0000
  H   H1189     1.0  0.69906  0.44019  0.89539  1.0000
  H   H1190     1.0  0.66736  0.41858  0.75843  1.0000
  H   H1191     1.0  0.72213  0.34193  0.72404  1.0000
  H   H1192     1.0  0.80789  0.28245  0.95071  1.0000
  P   P52       1.0  0.77271  0.43250  0.67691  1.0000
  H   H1193     1.0  0.76548  0.46780  0.72087  1.0000
  C   C1510     1.0  0.86239  0.27959  0.94852  1.0000
  C   C1511     1.0  0.72117  0.33138  0.70439  1.0000
  C   C1512     1.0  0.80163  0.35423  0.75481  1.0000
  C   C1513     1.0  0.79721  0.35551  0.79834  1.0000
  C   C1514     1.0  0.79365  0.33861  0.82784  1.0000
  C   C1515     1.0  0.81289  0.27543  0.05148  1.0000
  C   C1516     1.0  0.80997  0.27584  0.78515  1.0000
  C   C1517     1.0  0.81507  0.42316  0.75391  1.0000
  C   C1518     1.0  0.71900  0.30374  0.65358  1.0000
  H   H1194     1.0  0.80441  0.36735  0.73195  1.0000
  H   H1195     1.0  0.79639  0.36963  0.80925  1.0000
  H   H1196     1.0  0.78984  0.33964  0.86162  1.0000
  C   C1519     1.0  0.83728  0.31083  0.95169  1.0000
  H   H1197     1.0  0.71824  0.29288  0.63442  1.0000
  H   H1198     1.0  0.72137  0.29645  0.97247  1.0000
  H   H1199     1.0  0.83154  0.46097  0.68169  1.0000
  C   C1520     1.0  0.82705  0.43715  0.73370  1.0000
  H   H1200     1.0  0.72050  0.25667  0.67520  1.0000
  H   H1201     1.0  0.75716  0.35294  0.71285  1.0000
  C   C1521     1.0  0.75678  0.29870  0.79951  1.0000
  H   H1202     1.0  0.69943  0.24911  0.61148  1.0000
  C   C1522     1.0  0.71146  0.24799  0.69970  1.0000
  S   S202      1.0  0.84435  0.47995  0.75611  1.0000
  H   H1203     1.0  0.74966  0.37415  0.77000  1.0000
  C   C1523     1.0  0.82243  0.44986  0.69672  1.0000
  H   H1204     1.0  0.75625  0.47096  0.53919  1.0000
  C   C1524     1.0  0.74830  0.26297  0.02881  1.0000
  H   H1205     1.0  0.69854  0.45540  0.71344  1.0000
  C   C1525     1.0  0.90601  0.26696  0.02212  1.0000
  H   H1206     1.0  0.82392  0.29198  0.57618  1.0000
  C   C1526     1.0  0.69644  0.27025  0.94243  1.0000
  H   H1207     1.0  0.69053  0.30118  0.69478  1.0000
  C   C1527     1.0  0.88635  0.26553  0.01962  1.0000
  C   C1528     1.0  0.70023  0.32049  0.00027  1.0000
  H   H1208     1.0  0.70075  0.27159  0.73856  1.0000
  H   H1209     1.0  0.67574  0.27929  0.07811  1.0000
  C   C1529     1.0  0.84491  0.29453  0.88895  1.0000
  C   C1530     1.0  0.83395  0.31024  0.91111  1.0000
  C   C1531     1.0  0.82237  0.28051  0.68329  1.0000
  H   H1210     1.0  0.80491  0.33585  0.70684  1.0000
  C   C1532     1.0  0.80175  0.33628  0.74067  1.0000
  H   H1211     1.0  0.77323  0.27997  0.70554  1.0000
  H   H1212     1.0  0.78939  0.41105  0.75404  1.0000
  H   H1213     1.0  0.84714  0.48105  0.93113  1.0000
  H   H1214     1.0  0.80224  0.45907  0.65194  1.0000
  H   H1215     1.0  0.81822  0.41380  0.78349  1.0000
  H   H1216     1.0  0.92560  0.27025  0.06261  1.0000
  H   H1217     1.0  0.91979  0.24815  0.24620  1.0000
  H   H1218     1.0  0.77925  0.40043  0.62288  1.0000
  C   C1533     1.0  0.79703  0.43366  0.59645  1.0000
  C   C1534     1.0  0.73549  0.31327  0.64394  1.0000
  H   H1219     1.0  0.78313  0.32074  0.67622  1.0000
  C   C1535     1.0  0.67448  0.31091  0.05896  1.0000
  C   C1536     1.0  0.73030  0.28702  0.77929  1.0000
  H   H1220     1.0  0.84216  0.29404  0.85764  1.0000
  H   H1221     1.0  0.82277  0.32189  0.89693  1.0000
  H   H1222     1.0  0.82883  0.32313  0.96867  1.0000
  H   H1223     1.0  0.86359  0.27133  0.12194  1.0000
  H   H1224     1.0  0.74391  0.27891  0.01838  1.0000
  C   C1537     1.0  0.77796  0.44081  0.62014  1.0000
  H   H1225     1.0  0.83955  0.43859  0.74738  1.0000
  C   C1538     1.0  0.70477  0.32165  0.71430  1.0000
  C   C1539     1.0  0.76037  0.36797  0.70560  1.0000
  C   C1540     1.0  0.81193  0.25973  0.12498  1.0000
  S   S203      1.0  0.79587  0.26164  0.57107  1.0000
  C   C1541     1.0  0.73716  0.29517  0.80810  1.0000
  H   H1226     1.0  0.77203  0.36623  0.63917  1.0000
  C   C1542     1.0  0.75873  0.28417  0.90960  1.0000
  C   C1543     1.0  0.75602  0.37990  0.73783  1.0000
  C   C1544     1.0  0.69747  0.27004  0.89918  1.0000
  C   C1545     1.0  0.77235  0.26565  0.91720  1.0000
  C   C1546     1.0  0.81174  0.24443  0.83403  1.0000
  H   H1227     1.0  0.83706  0.28822  0.77043  1.0000
  C   C1547     1.0  0.71161  0.25808  0.96383  1.0000
  C   C1548     1.0  0.66890  0.26306  0.63675  1.0000
  C   C1549     1.0  0.65937  0.29894  0.61373  1.0000
  H   H1228     1.0  0.70681  0.33200  0.97794  1.0000
  H   H1229     1.0  0.84081  0.26700  0.62967  1.0000
  C   C1550     1.0  0.69387  0.45461  0.87697  1.0000
  C   C1551     1.0  0.68832  0.24558  0.76750  1.0000
  H   H1230     1.0  0.76924  0.25192  0.91130  1.0000
  C   C1552     1.0  0.89497  0.27165  0.09619  1.0000
  H   H1231     1.0  0.93375  0.28284  0.85674  1.0000
  C   C1553     1.0  0.67931  0.23720  0.03521  1.0000
  C   C1554     1.0  0.82034  0.25657  0.03833  1.0000
  H   H1232     1.0  0.66626  0.44713  0.87141  1.0000
  S   S204      1.0  0.80802  0.24281  0.94215  1.0000
  H   H1233     1.0  0.86108  0.25094  0.47418  1.0000
  H   H1234     1.0  0.82336  0.25536  0.00474  1.0000
  C   C1555     1.0  0.89712  0.47839  0.84426  1.0000
  H   H1235     1.0  0.97882  0.23784  0.16995  1.0000
  C   C1556     1.0  0.91545  0.23662  0.92883  1.0000
  H   H1236     1.0  0.95403  0.24838  0.85029  1.0000
  C   C1557     1.0  0.68813  0.26299  0.61181  1.0000
  H   H1237     1.0  0.77826  0.26548  0.03233  1.0000
  H   H1238     1.0  0.67245  0.44558  0.79157  1.0000
  H   H1239     1.0  0.84610  0.48235  0.85674  1.0000
  H   H1240     1.0  0.67605  0.34159  0.03133  1.0000
  C   C1558     1.0  0.76765  0.46059  0.55525  1.0000
  C   C1559     1.0  0.83161  0.24462  0.83666  1.0000
  H   H1241     1.0  0.97191  0.25146  0.09794  1.0000
  H   H1242     1.0  0.70811  0.28081  0.56966  1.0000
  C   C1560     1.0  0.82354  0.23925  0.06837  1.0000
  C   C1561     1.0  0.69351  0.24318  0.05236  1.0000
  C   C1562     1.0  0.81912  0.24069  0.11195  1.0000
  H   H1243     1.0  0.66571  0.24909  0.65564  1.0000
  H   H1244     1.0  0.67731  0.24283  0.00281  1.0000
  Fe  Fe101     1.0  0.81499  0.47840  0.80172  1.0000
  C   C1563     1.0  0.98042  0.23625  0.10433  1.0000
  C   C1564     1.0  0.73332  0.47800  0.73456  1.0000
  S   S205      1.0  0.76490  0.47540  0.88227  1.0000
  C   C1565     1.0  0.98317  0.24534  0.27324  1.0000
  H   H1245     1.0  0.83048  0.24016  0.51815  1.0000
  H   H1246     1.0  0.66201  0.41495  0.86205  1.0000
  Fe  Fe102     1.0  0.78332  0.24130  0.54233  1.0000
  H   H1247     1.0  0.95891  0.25119  0.32638  1.0000
  C   C1566     1.0  0.71443  0.47480  0.73189  1.0000
  H   H1248     1.0  0.87737  0.23758  0.24037  1.0000
  H   H1249     1.0  0.68665  0.48347  0.96296  1.0000
  Fe  Fe103     1.0  0.79339  0.48253  0.89301  1.0000
  H   H1250     1.0  0.70076  0.48489  0.74415  1.0000
  C   C1567     1.0  0.86258  0.23783  0.49849  1.0000
  S   S206      1.0  0.79815  0.23578  0.47540  1.0000
  H   H1251     1.0  0.74151  0.23593  0.88057  1.0000
  H   H1252     1.0  0.78027  0.23725  0.14758  1.0000
  C   C1568     1.0  0.70896  0.60825  0.11731  1.0000
  Fe  Fe104     1.0  0.73021  0.66213  0.71236  1.0000
  S   S207      1.0  0.70740  0.67985  0.75872  1.0000
  S   S208      1.0  0.73135  0.67491  0.64311  1.0000
  Fe  Fe105     1.0  0.74516  0.62965  0.78192  1.0000
  S   S209      1.0  0.72396  0.64489  0.83383  1.0000
  S   S210      1.0  0.76616  0.60139  0.80456  1.0000
  Fe  Fe106     1.0  0.70108  0.64989  0.79159  1.0000
  C   C1569     1.0  0.66781  0.63984  0.74055  1.0000
  Fe  Fe107     1.0  0.73237  0.67318  0.79632  1.0000
  S   S211      1.0  0.73777  0.69676  0.82857  1.0000
  S   S212      1.0  0.72167  0.63248  0.74178  1.0000
  S   S213      1.0  0.75585  0.65768  0.74762  1.0000
  Fe  Fe108     1.0  0.87601  0.59246  0.52250  1.0000
  S   S214      1.0  0.87623  0.57415  0.58757  1.0000
  S   S215      1.0  0.90185  0.59000  0.46720  1.0000
  Fe  Fe109     1.0  0.83339  0.61684  0.54717  1.0000
  S   S216      1.0  0.82985  0.60043  0.61401  1.0000
  S   S217      1.0  0.81118  0.64242  0.51830  1.0000
  Fe  Fe110     1.0  0.86170  0.60369  0.61162  1.0000
  S   S218      1.0  0.87153  0.61873  0.65739  1.0000
  Fe  Fe111     1.0  0.84454  0.57267  0.58355  1.0000
  H   H1253     1.0  0.73302  0.55887  0.74932  1.0000
  S   S219      1.0  0.86412  0.62190  0.54664  1.0000
  S   S220      1.0  0.84552  0.58897  0.51672  1.0000
  Fe  Fe112     1.0  0.84688  0.59413  0.90588  1.0000
  S   S221      1.0  0.85370  0.62096  0.92463  1.0000
  S   S222      1.0  0.86271  0.57837  0.84970  1.0000
  Fe  Fe113     1.0  0.81669  0.58667  0.98662  1.0000
  S   S223      1.0  0.82078  0.61294  0.01305  1.0000
  Fe  Fe114     1.0  0.82019  0.62928  0.94653  1.0000
  S   S224      1.0  0.80643  0.66233  0.93877  1.0000
  Fe  Fe115     1.0  0.85391  0.60280  0.98956  1.0000
  S   S225      1.0  0.87851  0.60104  0.02694  1.0000
  S   S226      1.0  0.81310  0.60388  0.92204  1.0000
  S   S227      1.0  0.84997  0.57505  0.96904  1.0000
  C   C1570     1.0  0.88158  0.62495  0.03213  1.0000
  C   C1571     1.0  0.89924  0.62712  0.04398  1.0000
  C   C1572     1.0  0.90202  0.64632  0.04676  1.0000
  C   C1573     1.0  0.88695  0.66332  0.03849  1.0000
  C   C1574     1.0  0.86909  0.66097  0.02799  1.0000
  C   C1575     1.0  0.86655  0.64191  0.02405  1.0000
  H   H1254     1.0  0.91091  0.61401  0.05031  1.0000
  H   H1255     1.0  0.91580  0.64799  0.05496  1.0000
  H   H1256     1.0  0.85286  0.64038  0.01502  1.0000
  C   C1576     1.0  0.94589  0.55597  0.59597  1.0000
  H   H1257     1.0  0.89931  0.62105  0.94298  1.0000
  C   C1577     1.0  0.92479  0.53913  0.84013  1.0000
  C   C1578     1.0  0.89309  0.53660  0.82328  1.0000
  C   C1579     1.0  0.91069  0.54447  0.81280  1.0000
  C   C1580     1.0  0.76248  0.53811  0.59378  1.0000
  C   C1581     1.0  0.95663  0.66812  0.92813  1.0000
  S   S228      1.0  0.88989  0.68776  0.04023  1.0000
  C   C1582     1.0  0.86712  0.60838  0.71137  1.0000
  C   C1583     1.0  0.87073  0.61827  0.74200  1.0000
  C   C1584     1.0  0.86859  0.60956  0.78503  1.0000
  C   C1585     1.0  0.86285  0.59092  0.79742  1.0000
  C   C1586     1.0  0.85917  0.58112  0.76677  1.0000
  C   C1587     1.0  0.86102  0.58996  0.72389  1.0000
  S   S229      1.0  0.79591  0.56644  0.02487  1.0000
  H   H1258     1.0  0.76485  0.50988  0.57227  1.0000
  H   H1259     1.0  0.85492  0.56663  0.77615  1.0000
  H   H1260     1.0  0.85808  0.58236  0.70041  1.0000
  C   C1588     1.0  0.68816  0.57425  0.91505  1.0000
  H   H1261     1.0  0.66070  0.63063  0.10512  1.0000
  H   H1262     1.0  0.81678  0.71412  0.66019  1.0000
  P   P53       1.0  0.66958  0.56044  0.86152  1.0000
  C   C1589     1.0  0.89934  0.65549  0.56450  1.0000
  C   C1590     1.0  0.85319  0.52334  0.65518  1.0000
  H   H1263     1.0  0.71271  0.53055  0.73785  1.0000
  H   H1264     1.0  0.95444  0.62739  0.09027  1.0000
  H   H1265     1.0  0.85722  0.67398  0.02237  1.0000
  C   C1591     1.0  0.75379  0.66592  0.60929  1.0000
  C   C1592     1.0  0.75579  0.67268  0.56548  1.0000
  C   C1593     1.0  0.77357  0.66552  0.53791  1.0000
  C   C1594     1.0  0.78933  0.65143  0.55395  1.0000
  C   C1595     1.0  0.78736  0.64480  0.59785  1.0000
  C   C1596     1.0  0.76964  0.65214  0.62549  1.0000
  H   H1266     1.0  0.74358  0.68343  0.55286  1.0000
  H   H1267     1.0  0.77503  0.67077  0.50404  1.0000
  H   H1268     1.0  0.79955  0.63431  0.61066  1.0000
  H   H1269     1.0  0.76824  0.64724  0.65931  1.0000
  C   C1597     1.0  0.75640  0.68649  0.86005  1.0000
  C   C1598     1.0  0.76060  0.69843  0.88584  1.0000
  C   C1599     1.0  0.77589  0.69073  0.91017  1.0000
  C   C1600     1.0  0.78683  0.67099  0.90929  1.0000
  C   C1601     1.0  0.78230  0.65883  0.88437  1.0000
  C   C1602     1.0  0.76723  0.66666  0.85929  1.0000
  H   H1270     1.0  0.75219  0.71372  0.88660  1.0000
  H   H1271     1.0  0.77931  0.70012  0.92961  1.0000
  H   H1272     1.0  0.79051  0.64350  0.88404  1.0000
  H   H1273     1.0  0.76406  0.65734  0.83940  1.0000
  H   H1274     1.0  0.91684  0.70312  0.28362  1.0000
  C   C1603     1.0  0.84994  0.52160  0.99575  1.0000
  C   C1604     1.0  0.85788  0.50847  0.92843  1.0000
  H   H1275     1.0  0.98920  0.68578  0.28400  1.0000
  C   C1605     1.0  0.67073  0.56767  0.73286  1.0000
  H   H1276     1.0  0.68651  0.68350  0.64544  1.0000
  H   H1277     1.0  0.67528  0.60450  0.64553  1.0000
  H   H1278     1.0  0.68041  0.64739  0.72953  1.0000
  H   H1279     1.0  0.76646  0.48970  0.64370  1.0000
  C   C1606     1.0  0.95153  0.66069  0.30513  1.0000
  C   C1607     1.0  0.69912  0.54121  0.74848  1.0000
  C   C1608     1.0  0.93206  0.68310  0.23868  1.0000
  H   H1280     1.0  0.97522  0.56393  0.30165  1.0000
  C   C1609     1.0  0.84864  0.49223  0.94866  1.0000
  C   C1610     1.0  0.95098  0.61299  0.46351  1.0000
  C   C1611     1.0  0.74633  0.57815  0.77510  1.0000
  C   C1612     1.0  0.75803  0.57917  0.80443  1.0000
  H   H1281     1.0  0.74183  0.59134  0.75305  1.0000
  C   C1613     1.0  0.69349  0.54330  0.79162  1.0000
  C   C1614     1.0  0.76405  0.51724  0.59932  1.0000
  S   S230      1.0  0.98868  0.68732  0.98108  1.0000
  C   C1615     1.0  0.84813  0.52701  0.84483  1.0000
  C   C1616     1.0  0.94785  0.55467  0.50918  1.0000
  Fe  Fe116     1.0  0.77020  0.49597  0.82053  1.0000
  H   H1282     1.0  0.91750  0.63319  0.60374  1.0000
  C   C1617     1.0  0.93473  0.60681  0.53715  1.0000
  C   C1618     1.0  0.93649  0.60516  0.45117  1.0000
  C   C1619     1.0  0.84080  0.50540  0.01552  1.0000
  H   H1283     1.0  0.78250  0.49903  0.04046  1.0000
  H   H1284     1.0  0.71415  0.50215  0.93059  1.0000
  C   C1620     1.0  0.94058  0.58205  0.66273  1.0000
  H   H1285     1.0  0.95759  0.64577  0.82355  1.0000
  H   H1286     1.0  0.96550  0.63975  0.26135  1.0000
  H   H1287     1.0  0.90106  0.50775  0.91786  1.0000
  H   H1288     1.0  0.95449  0.62415  0.99512  1.0000
  C   C1621     1.0  0.83514  0.52718  0.63945  1.0000
  H   H1289     1.0  0.80572  0.52380  0.91291  1.0000
  H   H1290     1.0  0.92463  0.69191  0.21312  1.0000
  C   C1622     1.0  0.76479  0.60629  0.91017  1.0000
  C   C1623     1.0  0.76587  0.58615  0.92829  1.0000
  C   C1624     1.0  0.75297  0.58101  0.96624  1.0000
  C   C1625     1.0  0.73921  0.59609  0.98662  1.0000
  C   C1626     1.0  0.73862  0.61643  0.96933  1.0000
  C   C1627     1.0  0.75121  0.62137  0.93058  1.0000
  P   P54       1.0  0.72201  0.63656  0.99522  1.0000
  C   C1628     1.0  0.73683  0.65233  0.00725  1.0000
  C   C1629     1.0  0.70558  0.64968  0.95803  1.0000
  C   C1630     1.0  0.69090  0.64040  0.95054  1.0000
  H   H1291     1.0  0.97514  0.56454  0.57490  1.0000
  C   C1631     1.0  0.68102  0.49143  0.82774  1.0000
  C   C1632     1.0  0.69603  0.67782  0.90382  1.0000
  C   C1633     1.0  0.70850  0.66818  0.93345  1.0000
  C   C1634     1.0  0.75733  0.64491  0.01005  1.0000
  C   C1635     1.0  0.76845  0.65690  0.02141  1.0000
  C   C1636     1.0  0.87643  0.70021  0.36039  1.0000
  C   C1637     1.0  0.85884  0.69772  0.34929  1.0000
  C   C1638     1.0  0.72756  0.67169  0.01696  1.0000
  C   C1639     1.0  0.70836  0.62736  0.04637  1.0000
  C   C1640     1.0  0.68722  0.63318  0.05698  1.0000
  H   H1292     1.0  0.73428  0.49050  0.74922  1.0000
  H   H1293     1.0  0.95925  0.65213  0.33052  1.0000
  H   H1294     1.0  0.70414  0.58332  0.95596  1.0000
  C   C1641     1.0  0.71919  0.61524  0.07720  1.0000
  H   H1295     1.0  0.77467  0.61025  0.88050  1.0000
  H   H1296     1.0  0.77683  0.57453  0.91313  1.0000
  H   H1297     1.0  0.75403  0.56532  0.98022  1.0000
  H   H1298     1.0  0.72936  0.59170  0.01582  1.0000
  H   H1299     1.0  0.75060  0.63693  0.91632  1.0000
  H   H1300     1.0  0.68921  0.62559  0.96723  1.0000
  H   H1301     1.0  0.76430  0.50674  0.70599  1.0000
  C   C1642     1.0  0.86769  0.72664  0.50219  1.0000
  H   H1302     1.0  0.87529  0.72160  0.66673  1.0000
  H   H1303     1.0  0.72076  0.67497  0.93582  1.0000
  H   H1304     1.0  0.76486  0.62989  0.00357  1.0000
  C   C1643     1.0  0.88501  0.71682  0.34077  1.0000
  H   H1305     1.0  0.71164  0.67748  0.01611  1.0000
  H   H1306     1.0  0.67855  0.64330  0.03468  1.0000
  H   H1307     1.0  0.87525  0.54553  0.70945  1.0000
  S   S231      1.0  0.96771  0.62382  0.52261  1.0000
  C   C1644     1.0  0.93249  0.52380  0.70828  1.0000
  H   H1308     1.0  0.73558  0.61110  0.07010  1.0000
  C   C1645     1.0  0.76230  0.70707  0.71146  1.0000
  C   C1646     1.0  0.82262  0.50217  0.69582  1.0000
  C   C1647     1.0  0.92114  0.52608  0.87821  1.0000
  C   C1648     1.0  0.80167  0.71216  0.67516  1.0000
  C   C1649     1.0  0.79788  0.70137  0.71634  1.0000
  C   C1650     1.0  0.77806  0.69898  0.73429  1.0000
  P   P55       1.0  0.81806  0.69051  0.74635  1.0000
  C   C1651     1.0  0.84232  0.69039  0.71173  1.0000
  C   C1652     1.0  0.81652  0.70475  0.78865  1.0000
  C   C1653     1.0  0.83409  0.70465  0.80401  1.0000
  C   C1654     1.0  0.68329  0.49807  0.94372  1.0000
  C   C1655     1.0  0.94100  0.67344  0.73488  1.0000
  H   H1309     1.0  0.96500  0.59033  0.61296  1.0000
  C   C1656     1.0  0.67702  0.62619  0.09718  1.0000
  C   C1657     1.0  0.85372  0.67271  0.69641  1.0000
  C   C1658     1.0  0.87292  0.67260  0.67140  1.0000
  C   C1659     1.0  0.88073  0.69017  0.66106  1.0000
  C   C1660     1.0  0.87636  0.48684  0.85413  1.0000
  C   C1661     1.0  0.85013  0.70807  0.70051  1.0000
  C   C1662     1.0  0.81656  0.66484  0.76903  1.0000
  C   C1663     1.0  0.82532  0.65561  0.80487  1.0000
  C   C1664     1.0  0.82486  0.63549  0.82137  1.0000
  C   C1665     1.0  0.81534  0.62452  0.80285  1.0000
  C   C1666     1.0  0.80663  0.63360  0.76716  1.0000
  C   C1667     1.0  0.80755  0.65355  0.74977  1.0000
  H   H1310     1.0  0.78433  0.65118  0.02301  1.0000
  H   H1311     1.0  0.90988  0.68698  0.73075  1.0000
  C   C1668     1.0  0.96066  0.65264  0.96157  1.0000
  S   S232      1.0  0.79493  0.48590  0.95976  1.0000
  H   H1312     1.0  0.77482  0.69066  0.76593  1.0000
  H   H1313     1.0  0.84856  0.69588  0.79121  1.0000
  C   C1669     1.0  0.74131  0.55982  0.77323  1.0000
  H   H1314     1.0  0.83349  0.50465  0.04864  1.0000
  C   C1670     1.0  0.84027  0.49066  0.99205  1.0000
  H   H1315     1.0  0.90849  0.48625  0.84680  1.0000
  H   H1316     1.0  0.84793  0.65894  0.70364  1.0000
  H   H1317     1.0  0.88166  0.65885  0.65984  1.0000
  C   C1671     1.0  0.83308  0.71566  0.83655  1.0000
  Fe  Fe117     1.0  0.91767  0.69208  0.06057  1.0000
  H   H1318     1.0  0.68027  0.56504  0.94095  1.0000
  H   H1319     1.0  0.83250  0.66381  0.82024  1.0000
  H   H1320     1.0  0.83186  0.62841  0.84866  1.0000
  H   H1321     1.0  0.81478  0.60896  0.81601  1.0000
  H   H1322     1.0  0.79907  0.62520  0.75310  1.0000
  H   H1323     1.0  0.80116  0.66008  0.72140  1.0000
  C   C1672     1.0  0.89246  0.66417  0.89385  1.0000
  Fe  Fe118     1.0  0.93380  0.72499  0.08530  1.0000
  C   C1673     1.0  0.93025  0.55044  0.58227  1.0000
  C   C1674     1.0  0.67470  0.53587  0.89340  1.0000
  H   H1324     1.0  0.76827  0.68581  0.03690  1.0000
  C   C1675     1.0  0.91291  0.67116  0.79370  1.0000
  P   P56       1.0  0.76025  0.57458  0.62167  1.0000
  C   C1676     1.0  0.73355  0.58517  0.62893  1.0000
  C   C1677     1.0  0.77361  0.58090  0.65755  1.0000
  C   C1678     1.0  0.76839  0.59989  0.67083  1.0000
  C   C1679     1.0  0.77958  0.60457  0.69740  1.0000
  C   C1680     1.0  0.79631  0.59061  0.70975  1.0000
  C   C1681     1.0  0.80198  0.57202  0.69533  1.0000
  C   C1682     1.0  0.79073  0.56727  0.66927  1.0000
  C   C1683     1.0  0.72286  0.59042  0.66831  1.0000
  C   C1684     1.0  0.70195  0.59760  0.67414  1.0000
  C   C1685     1.0  0.69152  0.59914  0.64091  1.0000
  C   C1686     1.0  0.73888  0.68381  0.02736  1.0000
  H   H1325     1.0  0.88365  0.68918  0.38385  1.0000
  C   C1687     1.0  0.77230  0.58468  0.56979  1.0000
  C   C1688     1.0  0.76608  0.60505  0.55362  1.0000
  C   C1689     1.0  0.77620  0.61336  0.51462  1.0000
  C   C1690     1.0  0.79275  0.60152  0.49188  1.0000
  C   C1691     1.0  0.79912  0.58128  0.50798  1.0000
  C   C1692     1.0  0.78908  0.57295  0.54702  1.0000
  H   H1326     1.0  0.73181  0.69893  0.03371  1.0000
  C   C1693     1.0  0.90533  0.58595  0.87885  1.0000
  H   H1327     1.0  0.91871  0.54645  0.52854  1.0000
  C   C1694     1.0  0.88934  0.52341  0.86121  1.0000
  H   H1328     1.0  0.75579  0.61109  0.66073  1.0000
  H   H1329     1.0  0.77518  0.61888  0.70903  1.0000
  H   H1330     1.0  0.80494  0.59415  0.73040  1.0000
  H   H1331     1.0  0.81529  0.56139  0.70363  1.0000
  H   H1332     1.0  0.79563  0.55306  0.65757  1.0000
  H   H1333     1.0  0.73057  0.58880  0.69461  1.0000
  H   H1334     1.0  0.69382  0.60169  0.70472  1.0000
  H   H1335     1.0  0.88362  0.63066  0.39607  1.0000
  C   C1695     1.0  0.76372  0.56212  0.83345  1.0000
  H   H1336     1.0  0.85668  0.59978  0.12320  1.0000
  H   H1337     1.0  0.75389  0.61471  0.57175  1.0000
  H   H1338     1.0  0.77181  0.62923  0.50292  1.0000
  H   H1339     1.0  0.80112  0.60825  0.46265  1.0000
  H   H1340     1.0  0.81239  0.57225  0.49119  1.0000
  H   H1341     1.0  0.79487  0.55755  0.55996  1.0000
  P   P57       1.0  0.87498  0.68449  0.51483  1.0000
  C   C1696     1.0  0.85022  0.68529  0.54838  1.0000
  C   C1697     1.0  0.87755  0.66737  0.47726  1.0000
  C   C1698     1.0  0.86042  0.66256  0.46793  1.0000
  C   C1699     1.0  0.86262  0.64932  0.43890  1.0000
  C   C1700     1.0  0.88187  0.64116  0.41807  1.0000
  C   C1701     1.0  0.89894  0.64605  0.42667  1.0000
  C   C1702     1.0  0.89683  0.65868  0.45683  1.0000
  C   C1703     1.0  0.84765  0.67225  0.58717  1.0000
  C   C1704     1.0  0.82829  0.67133  0.61055  1.0000
  C   C1705     1.0  0.81127  0.68336  0.59542  1.0000
  C   C1706     1.0  0.81360  0.69643  0.55702  1.0000
  C   C1707     1.0  0.83297  0.69742  0.53357  1.0000
  C   C1708     1.0  0.89505  0.67571  0.54581  1.0000
  S   S233      1.0  0.97646  0.70235  0.40318  1.0000
  H   H1342     1.0  0.85224  0.68481  0.36461  1.0000
  H   H1343     1.0  0.81067  0.49427  0.71158  1.0000
  C   C1709     1.0  0.93812  0.67887  0.31115  1.0000
  H   H1344     1.0  0.90324  0.69690  0.43836  1.0000
  H   H1345     1.0  0.84531  0.66835  0.48384  1.0000
  H   H1346     1.0  0.84936  0.64505  0.43344  1.0000
  H   H1347     1.0  0.96339  0.68123  0.92337  1.0000
  H   H1348     1.0  0.69388  0.59477  0.57611  1.0000
  H   H1349     1.0  0.89075  0.64493  0.56075  1.0000
  H   H1350     1.0  0.86038  0.66215  0.59900  1.0000
  H   H1351     1.0  0.82647  0.66072  0.63966  1.0000
  H   H1352     1.0  0.79624  0.68217  0.61296  1.0000
  H   H1353     1.0  0.90461  0.70442  0.53578  1.0000
  H   H1354     1.0  0.83444  0.70693  0.50291  1.0000
  C   C1710     1.0  0.79397  0.50935  0.97493  1.0000
  C   C1711     1.0  0.76366  0.51540  0.67458  1.0000
  H   H1355     1.0  0.82730  0.53188  0.75634  1.0000
  C   C1712     1.0  0.87820  0.70895  0.48562  1.0000
  H   H1356     1.0  0.86497  0.53611  0.93730  1.0000
  H   H1357     1.0  0.90319  0.68049  0.93248  1.0000
  H   H1358     1.0  0.97619  0.56425  0.49905  1.0000
  C   C1713     1.0  0.83819  0.60813  0.18215  1.0000
  C   C1714     1.0  0.76204  0.53623  0.66911  1.0000
  C   C1715     1.0  0.97785  0.57694  0.27834  1.0000
  C   C1716     1.0  0.96359  0.55994  0.52241  1.0000
  H   H1359     1.0  0.69857  0.69193  0.88443  1.0000
  C   C1717     1.0  0.68014  0.64891  0.59062  1.0000
  C   C1718     1.0  0.68995  0.65938  0.60967  1.0000
  C   C1719     1.0  0.84079  0.49799  0.71108  1.0000
  P   P58       1.0  0.91695  0.64944  0.87470  1.0000
  S   S234      1.0  0.96357  0.70458  0.09542  1.0000
  H   H1360     1.0  0.69222  0.55201  0.68555  1.0000
  H   H1361     1.0  0.82339  0.61860  0.24159  1.0000
  P   P59       1.0  0.94504  0.55643  0.65196  1.0000
  C   C1720     1.0  0.84518  0.52304  0.80609  1.0000
  H   H1362     1.0  0.71744  0.59870  0.14069  1.0000
  C   C1721     1.0  0.82982  0.53537  0.78559  1.0000
  C   C1722     1.0  0.89755  0.52068  0.73230  1.0000
  H   H1363     1.0  0.91712  0.54674  0.60437  1.0000
  H   H1364     1.0  0.68884  0.63650  0.57436  1.0000
  H   H1365     1.0  0.70619  0.65503  0.60848  1.0000
  H   H1366     1.0  0.92286  0.49823  0.75001  1.0000
  H   H1367     1.0  0.84979  0.53329  0.01382  1.0000
  H   H1368     1.0  0.77262  0.56275  0.85641  1.0000
  C   C1723     1.0  0.67882  0.67547  0.63053  1.0000
  H   H1369     1.0  0.78298  0.53035  0.06606  1.0000
  H   H1370     1.0  0.87048  0.50461  0.70122  1.0000
  S   S235      1.0  0.98361  0.65297  0.40688  1.0000
  C   C1724     1.0  0.89407  0.71024  0.45060  1.0000
  H   H1371     1.0  0.88793  0.73054  0.21374  1.0000
  S   S236      1.0  0.74508  0.51881  0.79440  1.0000
  H   H1372     1.0  0.88651  0.51214  0.75080  1.0000
  C   C1725     1.0  0.74791  0.54255  0.80107  1.0000
  H   H1373     1.0  0.74704  0.70505  0.72567  1.0000
  C   C1726     1.0  0.92057  0.59911  0.48177  1.0000
  C   C1727     1.0  0.89034  0.67832  0.92115  1.0000
  C   C1728     1.0  0.94599  0.66529  0.23207  1.0000
  S   S237      1.0  0.91493  0.70294  0.12273  1.0000
  C   C1729     1.0  0.69978  0.48724  0.84085  1.0000
  C   C1730     1.0  0.93653  0.62073  0.68324  1.0000
  C   C1731     1.0  0.78762  0.51133  0.01808  1.0000
  C   C1732     1.0  0.92383  0.60802  0.70704  1.0000
  H   H1374     1.0  0.70687  0.53515  0.88635  1.0000
  H   H1375     1.0  0.84667  0.71551  0.84822  1.0000
  H   H1376     1.0  0.86499  0.53152  0.63951  1.0000
  H   H1377     1.0  0.80730  0.55508  0.93946  1.0000
  C   C1733     1.0  0.70160  0.58461  0.92375  1.0000
  H   H1378     1.0  0.93425  0.60688  0.57040  1.0000
  H   H1379     1.0  0.95277  0.57756  0.24810  1.0000
  H   H1380     1.0  0.93731  0.60433  0.41797  1.0000
  H   H1381     1.0  0.94670  0.67890  0.70196  1.0000
  C   C1734     1.0  0.95166  0.63594  0.96862  1.0000
  C   C1735     1.0  0.90353  0.51815  0.88865  1.0000
  H   H1382     1.0  0.96883  0.56271  0.71152  1.0000
  H   H1383     1.0  0.96120  0.62391  0.63043  1.0000
  C   C1736     1.0  0.92708  0.66156  0.59142  1.0000
  C   C1737     1.0  0.75935  0.67643  0.02939  1.0000
  C   C1738     1.0  0.85624  0.50826  0.69019  1.0000
  H   H1384     1.0  0.67996  0.60824  0.15837  1.0000
  H   H1385     1.0  0.66752  0.64267  0.91425  1.0000
  C   C1739     1.0  0.83754  0.61574  0.21942  1.0000
  H   H1386     1.0  0.82461  0.60502  0.17542  1.0000
  H   H1387     1.0  0.70291  0.53427  0.81358  1.0000
  C   C1740     1.0  0.91811  0.51286  0.73199  1.0000
  C   C1741     1.0  0.80173  0.54289  0.96119  1.0000
  C   C1742     1.0  0.90705  0.68880  0.55032  1.0000
  C   C1743     1.0  0.79534  0.54473  0.00449  1.0000
  C   C1744     1.0  0.93123  0.54988  0.53909  1.0000
  H   H1388     1.0  0.89860  0.71849  0.34986  1.0000
  H   H1389     1.0  0.91032  0.66161  0.46407  1.0000
  C   C1745     1.0  0.68769  0.55335  0.71909  1.0000
  C   C1746     1.0  0.75819  0.54403  0.83251  1.0000
  C   C1747     1.0  0.91856  0.62023  0.26948  1.0000
  C   C1748     1.0  0.80072  0.52532  0.94622  1.0000
  H   H1390     1.0  0.83606  0.71005  0.31016  1.0000
  H   H1391     1.0  0.81095  0.56911  0.85499  1.0000
  C   C1749     1.0  0.93455  0.65010  0.90826  1.0000
  H   H1392     1.0  0.91699  0.58948  0.81160  1.0000
  H   H1393     1.0  0.80639  0.51874  0.64633  1.0000
  C   C1750     1.0  0.67624  0.55733  0.80589  1.0000
  H   H1394     1.0  0.84279  0.67026  0.88675  1.0000
  H   H1395     1.0  0.93832  0.54542  0.83222  1.0000
  C   C1751     1.0  0.89126  0.53955  0.70921  1.0000
  C   C1752     1.0  0.95012  0.61369  0.50664  1.0000
  H   H1396     1.0  0.83912  0.69441  0.93635  1.0000
  H   H1397     1.0  0.90140  0.57158  0.87983  1.0000
  H   H1398     1.0  0.86736  0.70916  0.18405  1.0000
  C   C1753     1.0  0.95338  0.59492  0.63929  1.0000
  C   C1754     1.0  0.92637  0.54281  0.68484  1.0000
  C   C1755     1.0  0.90075  0.59472  0.91586  1.0000
  H   H1399     1.0  0.86783  0.68938  0.12764  1.0000
  H   H1400     1.0  0.92744  0.62965  0.24605  1.0000
  H   H1401     1.0  0.97059  0.65373  0.98232  1.0000
  C   C1756     1.0  0.85846  0.52315  0.95241  1.0000
  H   H1402     1.0  0.93199  0.62152  0.94875  1.0000
  H   H1403     1.0  0.80517  0.56118  0.78811  1.0000
  C   C1757     1.0  0.92627  0.65957  0.82038  1.0000
  C   C1758     1.0  0.87321  0.69307  0.18834  1.0000
  C   C1759     1.0  0.87346  0.68193  0.15654  1.0000
  H   H1404     1.0  0.88744  0.58647  0.35453  1.0000
  H   H1405     1.0  0.92451  0.64259  0.13938  1.0000
  C   C1760     1.0  0.78799  0.52902  0.03264  1.0000
  C   C1761     1.0  0.82040  0.55614  0.84148  1.0000
  H   H1406     1.0  0.83812  0.54770  0.89091  1.0000
  P   P60       1.0  0.89533  0.62419  0.20728  1.0000
  H   H1407     1.0  0.87180  0.61701  0.80845  1.0000
  C   C1762     1.0  0.79790  0.71576  0.80704  1.0000
  C   C1763     1.0  0.91405  0.59611  0.84049  1.0000
  C   C1764     1.0  0.89607  0.59593  0.33063  1.0000
  C   C1765     1.0  0.94545  0.61785  0.11282  1.0000
  H   H1408     1.0  0.87849  0.59731  0.28298  1.0000
  H   H1409     1.0  0.89560  0.69006  0.64190  1.0000
  C   C1766     1.0  0.92320  0.68160  0.57238  1.0000
  C   C1767     1.0  0.88102  0.68353  0.22494  1.0000
  C   C1768     1.0  0.88132  0.66122  0.16145  1.0000
  C   C1769     1.0  0.89091  0.60233  0.29012  1.0000
  C   C1770     1.0  0.91232  0.60180  0.34064  1.0000
  C   C1771     1.0  0.92852  0.62639  0.14076  1.0000
  H   H1410     1.0  0.88132  0.69219  0.24921  1.0000
  H   H1411     1.0  0.88127  0.65286  0.13647  1.0000
  H   H1412     1.0  0.91608  0.59700  0.37225  1.0000
  C   C1772     1.0  0.98117  0.52785  0.64371  1.0000
  H   H1413     1.0  0.87557  0.63248  0.73237  1.0000
  H   H1414     1.0  0.96409  0.59052  0.09248  1.0000
  H   H1415     1.0  0.90044  0.56520  0.66761  1.0000
  H   H1416     1.0  0.76211  0.53116  0.85599  1.0000
  C   C1773     1.0  0.70898  0.59788  0.84903  1.0000
  C   C1774     1.0  0.88870  0.65138  0.19864  1.0000
  C   C1775     1.0  0.88855  0.66275  0.23033  1.0000
  C   C1776     1.0  0.95101  0.59699  0.11429  1.0000
  C   C1777     1.0  0.87122  0.68948  0.93571  1.0000
  C   C1778     1.0  0.93873  0.63459  0.94207  1.0000
  C   C1779     1.0  0.95509  0.65372  0.26585  1.0000
  C   C1780     1.0  0.90558  0.55063  0.68565  1.0000
  C   C1781     1.0  0.70203  0.59365  0.60172  1.0000
  C   C1782     1.0  0.72300  0.58671  0.59569  1.0000
  H   H1417     1.0  0.93479  0.63571  0.69081  1.0000
  C   C1783     1.0  0.85612  0.67269  0.89586  1.0000
  C   C1784     1.0  0.91963  0.60016  0.52465  1.0000
  C   C1785     1.0  0.85627  0.60503  0.15288  1.0000
  H   H1418     1.0  0.91581  0.57933  0.71627  1.0000
  H   H1419     1.0  0.87641  0.65075  0.86008  1.0000
  C   C1786     1.0  0.91829  0.61507  0.83924  1.0000
  C   C1787     1.0  0.91718  0.61395  0.17059  1.0000
  C   C1788     1.0  0.90183  0.61497  0.25955  1.0000
  C   C1789     1.0  0.92363  0.61386  0.30999  1.0000
  C   C1790     1.0  0.92774  0.68951  0.27857  1.0000
  H   H1420     1.0  0.89399  0.65581  0.25950  1.0000
  H   H1421     1.0  0.91388  0.63977  0.41054  1.0000
  H   H1422     1.0  0.93289  0.69157  0.57415  1.0000
  C   C1791     1.0  0.87520  0.66161  0.88097  1.0000
  H   H1423     1.0  0.92481  0.62272  0.80906  1.0000
  C   C1792     1.0  0.85407  0.68643  0.92364  1.0000
  C   C1793     1.0  0.93980  0.58453  0.14406  1.0000
  H   H1424     1.0  0.93625  0.61846  0.31763  1.0000
  C   C1794     1.0  0.92302  0.59296  0.17230  1.0000
  H   H1425     1.0  0.94407  0.56835  0.14518  1.0000
  S   S238      1.0  0.94456  0.67679  0.46800  1.0000
  S   S239      1.0  0.94608  0.66928  0.06718  1.0000
  H   H1426     1.0  0.90755  0.59538  0.54850  1.0000
  S   S240      1.0  0.94934  0.72193  0.51365  1.0000
  C   C1795     1.0  0.90425  0.61396  0.91445  1.0000
  C   C1796     1.0  0.81731  0.55181  0.80349  1.0000
  S   S241      1.0  0.83103  0.54508  0.59451  1.0000
  H   H1427     1.0  0.93191  0.52212  0.89974  1.0000
  S   S242      1.0  0.93440  0.71556  0.02261  1.0000
  Fe  Fe119     1.0  0.94468  0.68149  0.12709  1.0000
  S   S243      1.0  0.95195  0.65722  0.18207  1.0000
  C   C1797     1.0  0.68787  0.61365  0.12724  1.0000
  C   C1798     1.0  0.91344  0.62415  0.87639  1.0000
  H   H1428     1.0  0.91440  0.58316  0.19522  1.0000
  C   C1799     1.0  0.83578  0.54385  0.86194  1.0000
  H   H1429     1.0  0.91231  0.61313  0.73320  1.0000
  C   C1800     1.0  0.87339  0.61648  0.19896  1.0000
  H   H1430     1.0  0.85408  0.62683  0.25564  1.0000
  H   H1431     1.0  0.88731  0.60748  0.13692  1.0000
  C   C1801     1.0  0.76223  0.54765  0.62838  1.0000
  C   C1802     1.0  0.85500  0.62016  0.22753  1.0000
  H   H1432     1.0  0.97534  0.52251  0.62051  1.0000
  H   H1433     1.0  0.73097  0.58235  0.56527  1.0000
  H   H1434     1.0  0.85627  0.72600  0.53073  1.0000
  C   C1803     1.0  0.87377  0.60925  0.16108  1.0000
  H   H1435     1.0  0.76116  0.54329  0.69665  1.0000
  H   H1436     1.0  0.91312  0.55494  0.78375  1.0000
  H   H1437     1.0  0.78398  0.71580  0.79693  1.0000
  H   H1438     1.0  0.76174  0.54673  0.56244  1.0000
  C   C1804     1.0  0.92582  0.58877  0.69698  1.0000
  C   C1805     1.0  0.92027  0.67803  0.75113  1.0000
  C   C1806     1.0  0.91485  0.64864  0.58832  1.0000
  H   H1439     1.0  0.98692  0.62345  0.19443  1.0000
  H   H1440     1.0  0.97045  0.65835  0.74860  1.0000
  H   H1441     1.0  0.93977  0.65602  0.60787  1.0000
  S   S244      1.0  0.66992  0.64456  0.82085  1.0000
  H   H1442     1.0  0.86967  0.69986  0.95794  1.0000
  C   C1807     1.0  0.76486  0.50587  0.63962  1.0000
  C   C1808     1.0  0.86929  0.70794  0.67527  1.0000
  C   C1809     1.0  0.98469  0.61044  0.21803  1.0000
  H   H1443     1.0  0.88219  0.54114  0.80213  1.0000
  C   C1810     1.0  0.71214  0.59631  0.89062  1.0000
  H   H1444     1.0  0.89359  0.58700  0.94541  1.0000
  Fe  Fe120     1.0  0.96272  0.69377  0.03514  1.0000
  C   C1811     1.0  0.95134  0.61413  0.64942  1.0000
  H   H1445     1.0  0.89682  0.67489  0.80544  1.0000
  C   C1812     1.0  0.82014  0.51616  0.65910  1.0000
  C   C1813     1.0  0.96269  0.56049  0.56557  1.0000
  C   C1814     1.0  0.66355  0.50632  0.93672  1.0000
  C   C1815     1.0  0.68537  0.57540  0.87299  1.0000
  S   S245      1.0  0.79740  0.50476  0.83354  1.0000
  H   H1446     1.0  0.96291  0.61826  0.43980  1.0000
  H   H1447     1.0  0.94831  0.51723  0.70823  1.0000
  C   C1816     1.0  0.69562  0.58759  0.84009  1.0000
  H   H1448     1.0  0.95906  0.60729  0.19449  1.0000
  H   H1449     1.0  0.71722  0.60682  0.82345  1.0000
  C   C1817     1.0  0.69455  0.52735  0.90042  1.0000
  H   H1450     1.0  0.69359  0.58903  0.80746  1.0000
  H   H1451     1.0  0.70944  0.49820  0.83209  1.0000
  C   C1818     1.0  0.69877  0.50859  0.92556  1.0000
  C   C1819     1.0  0.96882  0.60116  0.21778  1.0000
  H   H1452     1.0  0.94812  0.55502  0.47559  1.0000
  C   C1820     1.0  0.97747  0.55040  0.69483  1.0000
  C   C1821     1.0  0.67857  0.65001  0.92067  1.0000
  H   H1453     1.0  0.67184  0.67592  0.87350  1.0000
  H   H1454     1.0  0.67626  0.50594  0.80936  1.0000
  H   H1455     1.0  0.94035  0.67929  0.87648  1.0000
  C   C1822     1.0  0.78585  0.72019  0.65230  1.0000
  C   C1823     1.0  0.96974  0.54415  0.66409  1.0000
  H   H1456     1.0  0.81364  0.73475  0.88044  1.0000
  H   H1457     1.0  0.72287  0.60407  0.89689  1.0000
  P   P61       1.0  0.86795  0.51123  0.87188  1.0000
  C   C1824     1.0  0.94363  0.66690  0.90160  1.0000
  H   H1458     1.0  0.84141  0.72194  0.71148  1.0000
  C   C1825     1.0  0.96529  0.58450  0.24805  1.0000
  H   H1459     1.0  0.85449  0.51032  0.79182  1.0000
  C   C1826     1.0  0.84979  0.71190  0.31855  1.0000
  S   S246      1.0  0.93396  0.68870  0.35884  1.0000
  Fe  Fe121     1.0  0.96390  0.69761  0.47295  1.0000
  Fe  Fe122     1.0  0.97120  0.65194  0.47674  1.0000
  C   C1827     1.0  0.95437  0.66188  0.76116  1.0000
  H   H1460     1.0  0.80031  0.70521  0.54473  1.0000
  Fe  Fe123     1.0  0.95831  0.67994  0.39897  1.0000
  C   C1828     1.0  0.85853  0.72842  0.29848  1.0000
  C   C1829     1.0  0.68102  0.66879  0.89756  1.0000
  C   C1830     1.0  0.94705  0.65490  0.80369  1.0000
  C   C1831     1.0  0.76620  0.71752  0.67033  1.0000
  C   C1832     1.0  0.65987  0.63291  0.71132  1.0000
  H   H1461     1.0  0.91218  0.72927  0.40684  1.0000
  C   C1833     1.0  0.89923  0.72875  0.43236  1.0000
  C   C1834     1.0  0.81449  0.72656  0.85461  1.0000
  H   H1462     1.0  0.66654  0.63499  0.67804  1.0000
  H   H1463     1.0  0.78887  0.72824  0.62034  1.0000
  C   C1835     1.0  0.87648  0.73076  0.30888  1.0000
  H   H1464     1.0  0.75397  0.72339  0.65246  1.0000
  C   C1836     1.0  0.79694  0.72664  0.83979  1.0000
  H   H1465     1.0  0.66199  0.57733  0.71008  1.0000
  H   H1466     1.0  0.97339  0.72525  0.27065  1.0000
  H   H1467     1.0  0.95716  0.72478  0.21012  1.0000
  H   H1468     1.0  0.98956  0.70105  0.20828  1.0000
  S   S247      1.0  0.98927  0.67233  0.48886  1.0000
  C   C1837     1.0  0.66513  0.56983  0.77596  1.0000
  C   C1838     1.0  0.94815  0.73059  0.23843  1.0000
  C   C1839     1.0  0.95728  0.73081  0.27262  1.0000
  H   H1469     1.0  0.99011  0.73264  0.32190  1.0000
  H   H1470     1.0  0.66037  0.48611  0.72896  1.0000
  C   C1840     1.0  0.65913  0.65428  0.59297  1.0000
  C   C1841     1.0  0.65929  0.63715  0.78377  1.0000
  C   C1842     1.0  0.65923  0.52514  0.91173  1.0000
  H   H1471     1.0  0.65947  0.51538  0.67185  1.0000
  H   H1472     1.0  0.78245  0.73479  0.85426  1.0000
  C   C1843     1.0  0.88112  0.76051  0.23098  1.0000
  H   H1473     1.0  0.96149  0.92584  0.44195  1.0000
  C   C1844     1.0  0.97551  0.93647  0.31878  1.0000
  S   S248      1.0  0.90859  0.95699  0.23941  1.0000
  H   H1474     1.0  0.85124  0.73933  0.27498  1.0000
  C   C1845     1.0  0.92573  0.89174  0.42393  1.0000
  Fe  Fe124     1.0  0.95489  0.84484  0.28802  1.0000
  H   H1475     1.0  0.90325  0.78728  0.49665  1.0000
  C   C1846     1.0  0.87629  0.95381  0.33925  1.0000
  C   C1847     1.0  0.91037  0.93721  0.47594  1.0000
  H   H1476     1.0  0.94436  0.94859  0.34093  1.0000
  H   H1477     1.0  0.96700  0.97548  0.43671  1.0000
  S   S249      1.0  0.92318  0.83971  0.30109  1.0000
  C   C1848     1.0  0.88110  0.93286  0.34221  1.0000
  H   H1478     1.0  0.90492  0.79950  0.07928  1.0000
  H   H1479     1.0  0.93741  0.98101  0.40122  1.0000
  S   S250      1.0  0.91439  0.82020  0.20641  1.0000
  C   C1849     1.0  0.92476  0.93357  0.25010  1.0000
  C   C1850     1.0  0.94540  0.93237  0.24810  1.0000
  C   C1851     1.0  0.95821  0.91363  0.25644  1.0000
  C   C1852     1.0  0.95041  0.89604  0.26783  1.0000
  C   C1853     1.0  0.92981  0.89713  0.26940  1.0000
  C   C1854     1.0  0.91703  0.91589  0.26021  1.0000
  H   H1480     1.0  0.95155  0.94586  0.24008  1.0000
  C   C1855     1.0  0.94905  0.75079  0.44221  1.0000
  H   H1481     1.0  0.92370  0.88359  0.27780  1.0000
  H   H1482     1.0  0.90110  0.91672  0.26134  1.0000
  C   C1856     1.0  0.94840  0.89400  0.13884  1.0000
  C   C1857     1.0  0.91955  0.80275  0.17064  1.0000
  H   H1483     1.0  0.97235  0.78628  0.01454  1.0000
  C   C1858     1.0  0.93322  0.76948  0.14959  1.0000
  C   C1859     1.0  0.90335  0.95259  0.37673  1.0000
  C   C1860     1.0  0.87015  0.78745  0.17579  1.0000
  C   C1861     1.0  0.93599  0.86295  0.15399  1.0000
  H   H1484     1.0  0.92072  0.73673  0.21423  1.0000
  C   C1862     1.0  0.92322  0.77520  0.11461  1.0000
  C   C1863     1.0  0.91044  0.80854  0.13460  1.0000
  C   C1864     1.0  0.92502  0.78276  0.43924  1.0000
  H   H1485     1.0  0.86461  0.75884  0.49620  1.0000
  Fe  Fe125     1.0  0.97315  0.80085  0.28723  1.0000
  C   C1865     1.0  0.93025  0.87813  0.39450  1.0000
  Fe  Fe126     1.0  0.93467  0.81832  0.25301  1.0000
  H   H1486     1.0  0.93806  0.84704  0.15327  1.0000
  P   P62       1.0  0.97562  0.86098  0.10795  1.0000
  C   C1866     1.0  0.95151  0.87350  0.13512  1.0000
  H   H1487     1.0  0.97751  0.87161  0.18989  1.0000
  H   H1488     1.0  0.94886  0.77395  0.38741  1.0000
  C   C1867     1.0  0.88270  0.74646  0.20372  1.0000
  P   P63       1.0  0.88803  0.75193  0.28302  1.0000
  H   H1489     1.0  0.90028  0.90082  0.19488  1.0000
  S   S251      1.0  0.96543  0.82611  0.23535  1.0000
  H   H1490     1.0  0.86587  0.80337  0.16449  1.0000
  C   C1868     1.0  0.96574  0.82519  0.10033  1.0000
  H   H1491     1.0  0.89265  0.76060  0.43427  1.0000
  H   H1492     1.0  0.96072  0.90702  0.97641  1.0000
  H   H1493     1.0  0.90172  0.78903  0.28014  1.0000
  H   H1494     1.0  0.95257  0.73824  0.33595  1.0000
  H   H1495     1.0  0.85694  0.75749  0.36070  1.0000
  H   H1496     1.0  0.89320  0.81406  0.32940  1.0000
  H   H1497     1.0  0.95349  0.83455  0.08527  1.0000
  H   H1498     1.0  0.89574  0.95325  0.52868  1.0000
  C   C1869     1.0  0.98824  0.90209  0.34811  1.0000
  C   C1870     1.0  0.87485  0.78109  0.21661  1.0000
  S   S252      1.0  0.91530  0.80628  0.41166  1.0000
  H   H1499     1.0  0.96721  0.88736  0.39439  1.0000
  H   H1500     1.0  0.87280  0.92528  0.32783  1.0000
  H   H1501     1.0  0.84872  0.78272  0.40926  1.0000
  C   C1871     1.0  0.86008  0.78418  0.38075  1.0000
  C   C1872     1.0  0.87987  0.77147  0.31645  1.0000
  H   H1502     1.0  0.91593  0.75051  0.34059  1.0000
  H   H1503     1.0  0.93868  0.77883  0.20543  1.0000
  S   S253      1.0  0.94337  0.79110  0.30011  1.0000
  Fe  Fe127     1.0  0.93420  0.81286  0.34720  1.0000
  C   C1873     1.0  0.91755  0.87282  0.17517  1.0000
  C   C1874     1.0  0.92993  0.90384  0.15997  1.0000
  S   S254      1.0  0.96678  0.87313  0.28118  1.0000
  C   C1875     1.0  0.92361  0.75845  0.50401  1.0000
  H   H1504     1.0  0.90576  0.86446  0.19004  1.0000
  H   H1505     1.0  0.90140  0.82353  0.12877  1.0000
  H   H1506     1.0  0.86719  0.81085  0.39427  1.0000
  C   C1876     1.0  0.91447  0.89327  0.17793  1.0000
  C   C1877     1.0  0.88837  0.74631  0.44823  1.0000
  C   C1878     1.0  0.93139  0.78332  0.17781  1.0000
  C   C1879     1.0  0.94557  0.73813  0.30925  1.0000
  C   C1880     1.0  0.91603  0.77713  0.48140  1.0000
  H   H1507     1.0  0.97419  0.91279  0.25449  1.0000
  H   H1508     1.0  0.98324  0.74717  0.18599  1.0000
  C   C1881     1.0  0.87037  0.80006  0.37229  1.0000
  H   H1509     1.0  0.92773  0.91956  0.16338  1.0000
  H   H1510     1.0  0.95694  0.89723  0.05391  1.0000
  C   C1882     1.0  0.88512  0.80186  0.33571  1.0000
  C   C1883     1.0  0.88989  0.78764  0.30791  1.0000
  C   C1884     1.0  0.94161  0.76960  0.41970  1.0000
  C   C1885     1.0  0.87206  0.77340  0.14871  1.0000
  C   C1886     1.0  0.96731  0.88720  0.03364  1.0000
  C   C1887     1.0  0.91243  0.79492  0.10658  1.0000
  H   H1511     1.0  0.96034  0.90236  0.12589  1.0000
  H   H1512     1.0  0.96071  0.94332  0.50169  1.0000
  C   C1888     1.0  0.97850  0.83391  0.11628  1.0000
  C   C1889     1.0  0.99182  0.87256  0.16871  1.0000
  H   H1513     1.0  0.95838  0.79766  0.09260  1.0000
  S   S255      1.0  0.96488  0.81999  0.33883  1.0000
  C   C1890     1.0  0.96938  0.89282  0.98947  1.0000
  H   H1514     1.0  0.94222  0.75447  0.15482  1.0000
  C   C1891     1.0  0.86479  0.76990  0.35298  1.0000
  C   C1892     1.0  0.94003  0.74516  0.48438  1.0000
  C   C1893     1.0  0.95300  0.91775  0.37049  1.0000
  H   H1515     1.0  0.97788  0.95010  0.29732  1.0000
  C   C1894     1.0  0.90846  0.93151  0.37952  1.0000
  H   H1516     1.0  0.87393  0.79236  0.23624  1.0000
  H   H1517     1.0  0.91191  0.96056  0.38946  1.0000
  P   P64       1.0  0.92904  0.91740  0.40619  1.0000
  H   H1518     1.0  0.90076  0.90561  0.36301  1.0000
  H   H1519     1.0  0.97698  0.77113  0.23746  1.0000
  H   H1520     1.0  0.86940  0.77840  0.11636  1.0000
  H   H1521     1.0  0.86438  0.96245  0.32235  1.0000
  C   C1895     1.0  0.92885  0.92950  0.45094  1.0000
  C   C1896     1.0  0.91006  0.94719  0.50974  1.0000
  H   H1522     1.0  0.91666  0.75421  0.53665  1.0000
  C   C1897     1.0  0.92819  0.94943  0.51896  1.0000
  Fe  Fe128     1.0  0.92203  0.98328  0.24270  1.0000
  C   C1898     1.0  0.89714  0.92173  0.36213  1.0000
  H   H1523     1.0  0.89619  0.93563  0.46909  1.0000
  H   H1524     1.0  0.91495  0.89522  0.49045  1.0000
  H   H1525     1.0  0.98388  0.88444  0.92799  1.0000
  C   C1899     1.0  0.94702  0.93168  0.46061  1.0000
  C   C1900     1.0  0.96860  0.80429  0.10394  1.0000
  C   C1901     1.0  0.88734  0.96366  0.35671  1.0000
  C   C1902     1.0  0.87256  0.74527  0.48308  1.0000
  C   C1903     1.0  0.92470  0.74501  0.31184  1.0000
  C   C1904     1.0  0.91855  0.88515  0.46699  1.0000
  H   H1526     1.0  0.93582  0.88282  0.36110  1.0000
  C   C1905     1.0  0.91530  0.74452  0.27789  1.0000
  C   C1906     1.0  0.92752  0.85834  0.40792  1.0000
  S   S256      1.0  0.92338  0.75876  0.07933  1.0000
  C   C1907     1.0  0.87837  0.75292  0.16265  1.0000
  C   C1908     1.0  0.91594  0.86529  0.48028  1.0000
  H   H1527     1.0  0.98661  0.77571  0.12528  1.0000
  H   H1528     1.0  0.98401  0.74203  0.50500  1.0000
  H   H1529     1.0  0.92793  0.95724  0.54506  1.0000
  C   C1909     1.0  0.94665  0.94162  0.49451  1.0000
  C   C1910     1.0  0.92041  0.85190  0.45075  1.0000
  H   H1530     1.0  0.91040  0.86023  0.51347  1.0000
  C   C1911     1.0  0.97994  0.75792  0.05410  1.0000
  H   H1531     1.0  0.93085  0.84793  0.38514  1.0000
  C   C1912     1.0  0.95640  0.93549  0.34339  1.0000
  H   H1532     1.0  0.91834  0.83651  0.46090  1.0000
  H   H1533     1.0  0.96445  0.75760  0.06925  1.0000
  H   H1534     1.0  0.88382  0.97995  0.35367  1.0000
  C   C1913     1.0  0.96918  0.90111  0.37310  1.0000
  C   C1914     1.0  0.98450  0.77412  0.02340  1.0000
  C   C1915     1.0  0.99143  0.91981  0.32113  1.0000
  H   H1535     1.0  0.96210  0.74092  0.42726  1.0000
  C   C1916     1.0  0.97835  0.86877  0.05093  1.0000
  C   C1917     1.0  0.98443  0.79191  0.12270  1.0000
  H   H1536     1.0  0.88059  0.74216  0.14094  1.0000
  C   C1918     1.0  0.92729  0.73747  0.24094  1.0000
  C   C1919     1.0  0.98243  0.88011  0.96219  1.0000
  C   C1920     1.0  0.99149  0.85610  0.02319  1.0000
