data_image0
_chemical_formula_structural       SCH6CHCHC4FeS2FeSHFeSFeS3FeS2FeSCFeHFeS3HC5HCHCSCHCSHCH2CH2CHCHC6H4C3HCHC7H2C2HCH2C5PCHCH7C3HCHC2HC6H4C4PC5H2C7HCH3CH3C2H3CH2CH3C3HC2SC2HCH5C2PHC7PC6H11C6H7CH2C2HCHCH3CSC4HC2H2C5H2C3H2CH4C2H2C4PC3HC3H8C5H5CHSHC2H2CH3CH2SHC2SHC3SCHCHCHC4HC8PHC3H3CHCHCFeCH4CFeC2HC3H2CHC4FeCSH4CHCHC3H2C5H2CHC3SHCHCH2CHCHSHSHC2FeS2FeS2FeSFeS3FeS2FeSFeSFeS3FeS2FeS2FeSFeS2FeS2HC3HC2S2H3CH3C2H2C6H4C2HC6H4C4H3C6H4C4HCH2CHC4HCHCHC6PC12FeCH12C3HCHCHCHC2HC2SFeC7PCPHC2HC2H5CHCH3C2HCHC2HC2H3C6H3CH2CH3C6PC4HC6HCH3SH3CH2C9H9C3HC8PHC2H3CHCH3C6H5CHC2HCSH2CH5CHCHC3H4C5PC14H13C6HC3H2CH2C3HC3H2CSHC4H4C3H7CHC2H3C2HCH6C2HC8HCH2C2H2CH2C2H3C3H3CHC4HPC6PC18HCH18C6PC3H3CH4C2PC3SH5C2H2CHPHC2SC3H4CH2CHC2HC5HCHCHC2HC2H2FeS2FeSHSCFeCSFeCSFeH3S2FeS2FeS2FeSFeS3FeS2FeS2FeSFeS3C7H4C4HCHCH2CH3C8H4C4H3C6H4C3H2C6H6C3HC2H2C3SC2HCH2CH2CH5CHC3HC2HCH3C2PHC2H2CHCHCHSC8HC2HCH2C7HCH4C3SH3CHC2HCHCHCFeHC3HC3SHC3HC2H6CHCHCH2CH4C2H2C2H2CH2CHCHPCPHCH3CHC3PC2HC2H5CFeC3HC2H2C4SH2CHC3HSHC6PC15HC2HCH16C3H2C2HC9HC2H3C2H4C6HCH3CHC2H2PC4SHC2HCSHCH3C3H6C6HC3FeS2FeS2FeSFeS3FeSFeS2FeSFeS3HC2H4C3HCHC6H4C6H5CHC3HSHCH2CHC6H10C6PC18H4CH11CH6CH3CHC3H3C3H2C4HC6HCHCH4C5HC6HCHCHC2H2CHC2HCH4CHCHCHCHCHPHC6PC18H12CH7C3SCHPCHCH2CHC8H3CHCHC2PH8C4HC6HC2H2C2H2C2HCHCSC3H2CHCH4CH2C4HC6H2CHPC8FeSHFeS2Fe2S3FeSCFeHSFeS2FeS2FeS2Fe2S3CHCHC4SHC2HFeCHC3SC6HCHC2H2SHCS2H4SH2C3H2SC6HFeH2C3H2CSCH2CHCH2C6H4CHC3HC3HCH2CHCHC4HFeHCHCHCHCHCHCH2C3H3CH7CH2FeH4C4PCSCHC2HC2SHCS2CHC3PC2H3CHC2H5C2H2CH3CSCSCHCH2C4H3C2HC4H5CPH2PC2HC3HCFeHCH4C2HSH5C2FeC2HC8PC18H20C2HCPHC2H2CSC2HC2HC6HC2HC2H2C5H2CH3C2H2PH2CHC3H3FeSHFeS2FeSFeS3CHC3SHCFeS3HFeS2FeS2FeSFeS3H7C3H4C5HCHC3HC3HCH2C4HCHC4H4C7H2C6H6CHC7H4C2HC2H3CHCH3CHCHCHC4PCHCH2C3H2C5HC2HC2H2C2HC3H2CH2C4H2CHCH3C2PSCHC3H3CHCH3CH2PHC2H3FeHC3H5CSC2HCH2C4HCHSH2CH3CH2C2HC3HFeCHC3HSC2H2CHSC2HC8HCH5C2H2CH2CH4CH2C8PC18H11CH8PC10H4CH5C3H2C7HCH2C3H2CH2C4PC8H2C5FeHSH8PCH3C7SCHC2HCHCHC4H6CFeC2SC3H2CSHC3HCHCSCHFeCH2CH2C3HCSCH2C3HPHCPCH3SH3CHCSC2HFeSCFeSH2S2FeS2FeS2FeSFeS3C7H4CH5CFeHCH2CHFeC6H6C7H4C2HCPC5H2C2HCHSHCHCH3FeHC8H2CHCH2CHC5H7C4HCHCHSC2HC4PC19HCH3CH4CSCH5C2HC3H2C3HC2FeHC5HCH2CHC2PSC3PC3HCHC6H2CFeH2CH6SCSH2CS2C2FeHCHC2SCH3C3SCHC6H2S2HCH5C2H2C4HSH2C4HC2H2SHFeC6PC18H7CH4SH7SC2HFeC2HFeCHC11HC2H3CSH5SCHPHCH2CH3SCFeHCHC3HCH3CH2C2H3C2HCHCHS2H4CSCH3FeSFeSFeCSFeS2HSFeS2FeS2FeSFeS3C3HC3H4C6H4C2H5C2HC3HC7H4FeC8H5SHFe2CHC3PC18H13C2H3PC5PHC7H2CHC9H5C2HCHCH6C4HFeC3HC2H2CSHC5H3C2H2C3HSCH3C3HCH2C2H3CH3C3H5SHC2H4C2HC3PC7HC6HC3H9CH2CH2C3HCHCH2CH2C4HC5H3C3H4CHPC2HCHCH2C2SHC2H2CFeHC5H3CPCH4C4H5CHC2HSCH2CSC3HSHC2HCHC4HC5H2C4H3SHCHC6SHCH3SHSH2CSH2C2HC3HPFeH2CFeHCFeH5C2H2CHCHCH2CHCH2C2PC3HCFeS2CSCFeSFeS3FeSFeS2FeS3CFeS2FeS2FeSFeS3FeSCHCFeSCS2CHCHC6HSH2CHCH2CH4C7H6C3PCH2C7H7CHC8H4C6H2CHC6H5C5HC2HC2HCH4CHC5HC3SHCH7CHC3H2CH2CH6C3HC2HC2HCH4FeCHCH2C2PC2HC2PC11H13CHCHC2H3C2HCH3CHCHCH3C7H2C6PC11H2CH7C2HCHCHCHC8FeCHFeHCH7S2CHFeC4HC2SHCH2CPH2CSCHC3H2CHC2H4C3H2CHCH2CH3FeH3PHCH4C2SH2C2FeSHSC2H2CHCH2SC2HC2H2C2HCHFeS2FeS2FeSFeS3CSHSFeSCHC3SC3HCFeC6H6C2H2CHC8H4CHSH2CFeC2HCHC2H2CHCHC2SCHCHC3H2C6FeC6H8FeC3HSH2C2H2PHSCH3C3HC2H4CHFeCHC3HC13H2CH6CHCHC5H3FeCH3CH4CHCH2C2PC2HCSHC2HC7H2C3H7C2SH2CHSH5C3PHCHCH2C3HC2HCH2C3PC15HCH2C2H5C2HFeHCH3C2SCHCH2SFeSFeCH3SHCHCFeS2HFeHFeS2FeSCFeSHFeSFeS3HCH2CH2CHPHSCH2CHC6H4CH2C2H2C2PC2SH2C3H4C7H4SHCHCHCSCH2PH3C3H2C6HCHSHCHCH4CHC4HPHC9H3CHCH2C4HC2HCH3CSHFeHC3PH2C7PC7HCH2C5HC2H9C2H5CHC3HC2H5CHC3HC2H2C3HC2H5C3SCHCFeH3C4HCH3C6H3CH2C2H5SH3C2SHCH2CHC4HCHC5HC7PC4SC9HC2HC2H2C4HC2H2C4H4CH2CH5C2HC5PH3FeS2FeS2FeSFeS3FeS2FeS2FeSFeHS2FeS2FeS2Fe2S3FeS2FeSCFeSFeS3CH3C2HC3HCH2CHCH3C3HC6H4C6H4C7H2C6H4C6H5C2H2SCHCHCH2CH2CHC3H4CHCH2CH2C4H2CH2C10H2CPC2SC2HCH2C3H3C2H2CHC3HC2H2C2HC7PC2HC4H3C7H6CH4C3H2CHCPH4CH3C3H3C3HCHCH2C2HC4HCHC4H4CH8CHPC20H2CH12C6PC18H20CHC2HC4HCSHCH4CHCH2C7SC2H6C4H2CHCPSH2CHC7PHC7H2C7HC2H8CH5C5HCH4CHCHC15H2C2H5SHC2H2C3H2C3H5CHC5HCH4C2S2HC2FeSHCPFeSFeCSH2CSFeS2FeS2FeSFeS3FeS2FeS2C4SCHCH2C7H6C3HC6H4C2FeC4HC3HC2HCH2CHCSC3H5C4H2C7H3CHC2H2CHCHCFeCH6CH2C3SCH3SC2HPC16H14SHPH2C6PC4HC7PC3H4C2H10CH3CFeC2PC2H2C4HCHC10HC3SC2H3C4HC3PC16H2CH14C6PC8HC9H12CH6C8HSH10SHCHCSHCSC3H3CH2CFeH3C5HC2H3CHCHC3SC2HCH3C2H2C2HC2SHC2HCHFeCSCPH2C3HCHCHCHC2HC3HC2H2C2HC2HCH3CHCSHCHFeHC2SHC2HFeSHCFeC2HC3HC2H3FeCHC2H3CHCHCHSHCH4FeS2FeSCFeSFeS3FeS2FeS2FeSFeS3H4C6H4C6H5CHC4HSH2C2HC2H4C6H3C2H5C6PC18H7CH12C8HPC2H4CH5C3H2CH2C2HC2HC4HCHC2H2C2H2C2H3C2H3SC5HC3HCHC4H3PHCHCHC2H2C7H2C2HC4HCHCH2C2HC3HC2H2CHC2H2CH2CH2C2HCH3CHPC2HC2HCHSHCH3CHCH2C2H2C2HC2FeS2FeS2H2C5FeS2H3CSFeS2FeS2FeSFeS3FeS2FeS2FeSHS2HCHCHCSHC6H4C6H4C6H6FeC7H4CHSH2CSHFeC2HC3H2C2HC2HC7H2C5PC2HC7HCH2CHC2H2SCFeH2CH2CHC2H2C6PC18H2CH10CH6C5H2C7H2C2H2C3HCHC3H3C4HCH2SH2C2H2C2HC5PC18H10CH8CHSC2PC12H2CH10C4HC2HC2HCH3CH2C6H3PC2H3CHC2S2C2SC6PC3HC3H2CHC3H3PH6CH5CFeH4SCHCH2FeH2C2H4CHSHC2HC3PC5HSC5HCFeH2CH5C2H6CHC10PC18H18CHC2H4CHC5HCSCSC5HSHCHPHCH2CHCHC2FeHCH3C2H2CSPHC6HCHC2H3C3H4C2HC5HCHCHCPH2CH2CHC4HCH2C2HFeC2H2CH2C2H3C2SH2FeHCHSC2HSC3HFeS2FeS2FeSFeS3FeS2FeS2FeSFeS3C2PFeS2FeSCFeHFeS3C6H2CHC6H6CHCHC2H5CHC6H4C6H4CHC2HSHC6H5C8HC3HC7PC9HC8PH10C2H7C3HCHSC4H3C2FeH2CH2CH4CH2C2HC6HCHFeC3HC3HCHCHC2HCH2PHC5HCFeCHCHC4H2C2H4C2HCPC3H4C6PC2H3C3SHCH6CH6CSFeC3H2C6PC10HC7H2CH11CH6C3HCH3CSC3HCHCHCHC2HCH2CH2CH5CH3CHC6H2C3HSC2HC9FeC2HC2H2CHC5H5C3HC4HCH3C2HPH2C4H2C2HC5H2C4PHC2HSH2CH3CH4CHCHC2H3CHCH4CH2PCHCHC3HSFeC5PHCSHCHC4HSHSFeC2H2SCHCHCHCHC3HCHC2HC3H2C2H2C5H4C2HC2HSH2FeS2FeSHFeSFeS2H3CFeSC2HCFeS2FeSCFeSFeS3FeHFeCHC3HC3HC6H4SC4SHCH2CHCH2SC7H4CHC2H3FeH3SC3H2CHCHCH2C2FeCHCPH2CHC2HCH4CPC2HC2HPC14HSHCHC2HSH3C2H5C2HCHC6H3C3HCHCHCHFeC3H2SC3H3C2H2CSHC3H3C2H3C3H2C10HCHC5H6CHC3HCHCH2SHFeH2CPCS2HC5HSFeH3CH2CHC2HCHC2HCHC5HC2HPC5H2C3HSHC2H3CHSC3HCH2SC2SCHSC5HC2HC2HCH4C2HC2HSH2CHCH2CHCH2C2H2FeSCHC2HC2FeSCFeS2FeSFeS3HSH2SCFeSFeS3FeHSFeSCS2FeS2FeS2FeHFeCS4FeSFeSCH2C5H2C6H4C6H4CHC2HC5H2C5H3CHC6H4CSCHC2SH3C2H2CH2FeC2PHC2HC3HC2H2C6HCHCHFeC2H4CH3CH4C2HCHC3HC9HFeCHCH2C2H4CHC2H2S2HC2H2SHCHCPC3H2FeC6HPH2CHSCH2C2H3C3HCHC3H3CHCH2CHCPCH3C3H4C6HC2H2C2SHCH4CH3CSCHCH2C2HCHC2SCH3C4H2C3HC6PC9HC8H12C2H6CHFeSC2HC4H3CH2CH5CH2C6PCHC3FeC2FeC7H7CH4CH2C3HCH2C3H3CHC3HC11H2C2HCFeH3CHCHC2HC5H3C3SHPC2HSHCHSC2SHCSHCHCH3PCHCHC2HCHCHCHC4H3CH2CHC3HFeCSH2C2H2FeCH2SH4C2HC5HCH3C2FeS2HC2HCFeSCS2CSCHCPH2CH3FeSCH2S3Fe2S2FeS2FeS2PFeS4H3FeS2FeHSFeSFeS2H2CH2CH2C2H2C6H5C5H3C4SH3C6H4C3HCH2CHC2H2CHC2H3C4H2C4H2C6H4C6H4CHC2HFeHC4HCH2C7P2CHC6H2C2H2SH6C2HCH4CHC3HCHCSCHC2HC2H3C2HCHFeH2C3H5C4H3C3HC4H2CHCH3CH2CHC4HC3PC8H3C3H3CHC2H7C3H4CHC6HC4H2CHCHCSH2CH4C3H4CH3C9H3C4H2C3H4CHPHC5SCH2PH2C3HCHSC2HCH2PHCSCH2SHC4SHFeHCH2CH3SHC4HCHC2HCH2CFeCHC3HCHC2H2CHC4HCFeC5HC2HC3HSCHCFeC5HCHC2HC4H3C3H2CH2CSH6Fe2C3FeH3C4SCH2CHCHC5HCH2C4PHFeS2FeS2FeSFeCS2HCFeSHFeSH2SCFeSFeSHSCH2SFeS2FeS2FeSFeS2CHCH2CHC4H4C8H4C3H2FeC6H5C2HC4H3C6H4CHC4H5PCHCHC3H4C4HCHC2HC3HSCHC6PHCH2C6H2CH3CH5S2HC2HSC2HC3SH3C3HC4H3FeCHC3H4C2HPHCH2CHCH2C2PC18SH4CH11C2HC2PC2H4C13HCHC3H12CFeCHC6PC18H7SH12C6PC2PHCSHC5HCH2CH4FeH2CH2CHSH3C12HC2H4C3HSHC2H8CHCHCH2CHCH3SCH2CHC4HCHC2FeH3C3HFeCH2C4HSCHC3SC2HC2HC2H2C2H3CHPHC2S2C4HC2H2CHCH2CHCH6SC4H5C2PC2H2C2HCFeC7HCH3C2SHCHC3H2FeC2H2CFeCHC2H2CSCHFeC2H2CFe2S2C2H3SFeS2FeS2FeSFeS3FeS2FeS2FeSFeS3FeS2FeSFeSHS2C3H2C4HC2HC8H5C6H4C6H3C2H4CHCH2C7H4C6H5C2H2CHC2H2C6SCSH9SCHCHCHFeHCHCH2CPSC5H3C2HCH4CHC2HC2HC6PCHCHFeCH3C4SH3C2HC2H2C2H4SH2CHCH3CHCPHPC7PC15SHCH11CH4CHCHC2HCH2C2HCH2C6HC6H4C3HC2H4SH4C4H2C8PC18H12CH7CHCH4C2HCFeCPC2HCHC3HCH3CH2CHCHCH2C4H2CHC4PC4H2C12H2CH3C3HCHC2H3C5HCPH3CH2CHCHC2H2CSPC2H2C2HC4HSHC2HC2H2CHCH2CFeH2CHCH4C4HC2Fe2S2FeS2FeSFeS3FeSHFeS2FeS2FeSFeS3FeS3FeCFeS3CHC2HSCH2CSC2SC8H2C3HC2HCHC6H5C4H4C6H4C6H4C6H4C6H4C2SHC2H3CH3PCHCHC2HC2HCHCH3CH2C2H2CH4C3HC2H2C2HCHC2HCHC3HC3HCHC3H2CSC2H2CH2CHCH3C4H4SCH2C2HC5HC7HC2HC4HCH2C6PC10H13C2H2C2HC3H2CH2C2FeC4HCHFeCHC2H2CHCSHCHCH3C2HC4PCHPCHFeC3H2CH6CH2C2H3CSH3CHPC2H2C6HCSC2FeH2CH3CH3C2HC6SHCHCHCH2CH2CHC4H3C2SC2H2C16HCHC3H4CH3CHC4HC7PC3HC12H18SCH2CHPCFeHCFeCH2CH3CH3C2H3CH8C2H2C2HCHC6HCPC2H2C4HC2HC2SC2HPCPHC2HC2HCPH2C6FeH3C7H2PH2C3HC4H3C2HC2H5C3PC12HFeH2FeCSFeHC2S3FeS2FeSCFeSFeS3FeS2FeSCFe2S3CHCHC9PC2H2C2FeH2C6H4C4H2C6H4C6H4CHC4H5CH2CHSHFeH5C6P2CHC7HC2HSHC2H10C2SPHCH3C3H2S2H2C2H2CHCHC2HC2HC2HCSH2C4HCHCHC3HC2HCHCSC4HC4HC3SCHC3H3CH2C2SC6PC15H17C4HC3HPH2C2HCH2C2HCHC2H2C2SC3HPC9HC2H5SCH5CH2CHCSH4CSCH3CH2CHSHFeHSFeC4H4CH2CH2CH2C2H4C2HCH5CHCHPC2HCFeS2H3C2HFeS2FeSCFeSFeS3FeS2FeS2FeSFeS3FeS2FeS2FeSFePS2C3SC2SC2HC3H3CPH2CH2C7H4C6H6CH3C6HCH2C2HC5H2C6H5CHSH3CH5CH2C2HC10H2CH6CHPCH3C2H3CPC2HC2HC3SHC5PC2HC2SC12HCH2CHCH17PC3HC4HCPC3H2CH5CSH7SC5HCH2C4H3C2H4C2HC3HC2H2CHC2H2C2HC4PC10H2C6H6CH4CH2FeH6CHC4H3CH2SC2HC17HC6H5C2H13C2H2C6PC16H11C4HSC2H3C7HCHC7HC2FeC2H2CH2CHCHC2H2CHCH3CHCHCS
_chemical_formula_sum              "S768 C5760 H4608 Fe384 P192"
_cell_length_a       69.6522
_cell_length_b       69.6439
_cell_length_c       75.5204
_cell_angle_alpha    73.9876
_cell_angle_beta     73.9792
_cell_angle_gamma    74.4232

_space_group_name_H-M_alt    "P 1"
_space_group_IT_number       1

loop_
  _space_group_symop_operation_xyz
  'x, y, z'

loop_
  _atom_site_type_symbol
  _atom_site_label
  _atom_site_symmetry_multiplicity
  _atom_site_fract_x
  _atom_site_fract_y
  _atom_site_fract_z
  _atom_site_occupancy
  S   S1        1.0  0.06790  0.99977  0.19407  1.0000
  C   C1        1.0  0.09077  0.23291  0.16902  1.0000
  H   H1        1.0  0.40350  0.16824  0.18768  1.0000
  H   H2        1.0  0.47358  0.13099  0.19402  1.0000
  H   H3        1.0  0.10486  0.27875  0.15048  1.0000
  H   H4        1.0  0.02543  0.12071  0.14631  1.0000
  H   H5        1.0  0.01591  0.26237  0.13789  1.0000
  H   H6        1.0  0.03166  0.31375  0.01750  1.0000
  C   C2        1.0  0.39950  0.02150  0.19144  1.0000
  H   H7        1.0  0.03689  0.14257  0.09574  1.0000
  C   C3        1.0  0.47825  0.00265  0.21945  1.0000
  H   H8        1.0  0.02485  0.03833  0.13439  1.0000
  C   C4        1.0  0.15556  0.24787  0.15314  1.0000
  C   C5        1.0  0.09998  0.24914  0.16699  1.0000
  C   C6        1.0  0.01711  0.05400  0.17503  1.0000
  C   C7        1.0  0.18093  0.17915  0.14512  1.0000
  Fe  Fe1       1.0  0.15977  0.26434  0.04666  1.0000
  S   S2        1.0  0.16622  0.24518  0.07456  1.0000
  S   S3        1.0  0.13658  0.29294  0.03915  1.0000
  Fe  Fe2       1.0  0.19187  0.23680  0.02360  1.0000
  S   S4        1.0  0.20173  0.21511  0.04920  1.0000
  H   H9        1.0  0.05530  0.22909  0.10045  1.0000
  Fe  Fe3       1.0  0.16817  0.21856  0.06227  1.0000
  S   S5        1.0  0.15424  0.19072  0.07540  1.0000
  Fe  Fe4       1.0  0.19929  0.24328  0.05969  1.0000
  S   S6        1.0  0.22239  0.24362  0.07571  1.0000
  S   S7        1.0  0.15873  0.23800  0.03582  1.0000
  S   S8        1.0  0.19264  0.26442  0.03293  1.0000
  Fe  Fe5       1.0  0.07858  0.15344  0.16555  1.0000
  S   S9        1.0  0.09253  0.12271  0.18127  1.0000
  S   S10       1.0  0.09392  0.18047  0.15563  1.0000
  Fe  Fe6       1.0  0.03830  0.14150  0.17053  1.0000
  S   S11       1.0  0.04857  0.10991  0.18644  1.0000
  C   C8        1.0  0.18684  0.18989  0.10583  1.0000
  Fe  Fe7       1.0  0.06217  0.12458  0.20172  1.0000
  H   H10       1.0  0.04864  0.19429  0.09949  1.0000
  Fe  Fe8       1.0  0.07798  0.11025  0.16489  1.0000
  S   S12       1.0  0.09460  0.08370  0.15096  1.0000
  S   S13       1.0  0.04935  0.15638  0.18748  1.0000
  S   S14       1.0  0.06651  0.14100  0.14732  1.0000
  H   H11       1.0  0.17157  0.10823  0.09850  1.0000
  C   C9        1.0  0.09454  0.04754  0.22480  1.0000
  C   C10       1.0  0.19204  0.29970  0.11580  1.0000
  C   C11       1.0  0.21633  0.30902  0.00614  1.0000
  C   C12       1.0  0.40732  0.08739  0.16299  1.0000
  C   C13       1.0  0.45810  0.16190  0.22590  1.0000
  H   H12       1.0  0.08424  0.28049  0.12821  1.0000
  C   C14       1.0  0.18700  0.19749  0.13512  1.0000
  H   H13       1.0  0.17812  0.16210  0.10784  1.0000
  C   C15       1.0  0.17785  0.16597  0.13549  1.0000
  S   S15       1.0  0.20286  0.23703  0.99252  1.0000
  C   C16       1.0  0.43540  0.16960  0.18010  1.0000
  H   H14       1.0  0.18897  0.19408  0.09060  1.0000
  C   C17       1.0  0.13907  0.16161  0.17216  1.0000
  S   S16       1.0  0.40090  0.12855  0.21122  1.0000
  H   H15       1.0  0.43294  0.18504  0.17177  1.0000
  C   C18       1.0  0.49252  0.08308  0.04370  1.0000
  H   H16       1.0  0.03386  0.06808  0.05320  1.0000
  H   H17       1.0  0.05984  0.27833  0.01029  1.0000
  C   C19       1.0  0.01760  0.32108  0.01279  1.0000
  H   H18       1.0  0.22464  0.31497  0.01273  1.0000
  H   H19       1.0  0.10901  0.24845  0.17683  1.0000
  C   C20       1.0  0.08393  0.26803  0.04616  1.0000
  H   H20       1.0  0.47887  0.06270  0.12810  1.0000
  C   C21       1.0  0.04527  0.06616  0.23044  1.0000
  H   H21       1.0  0.44595  0.04395  0.11084  1.0000
  C   C22       1.0  0.11001  0.18377  0.13302  1.0000
  C   C23       1.0  0.11179  0.17120  0.12085  1.0000
  C   C24       1.0  0.12548  0.17345  0.10323  1.0000
  C   C25       1.0  0.13718  0.18850  0.09756  1.0000
  C   C26       1.0  0.13519  0.20127  0.10964  1.0000
  C   C27       1.0  0.12155  0.19898  0.12731  1.0000
  H   H22       1.0  0.10287  0.15955  0.12511  1.0000
  H   H23       1.0  0.12707  0.16344  0.09397  1.0000
  H   H24       1.0  0.14433  0.21272  0.10537  1.0000
  H   H25       1.0  0.12013  0.20881  0.13666  1.0000
  C   C28       1.0  0.45524  0.15896  0.18152  1.0000
  C   C29       1.0  0.37791  0.07323  0.16612  1.0000
  C   C30       1.0  0.00670  0.30902  0.00901  1.0000
  H   H26       1.0  0.49425  0.03253  0.11450  1.0000
  C   C31       1.0  0.18073  0.17159  0.11575  1.0000
  H   H27       1.0  0.18133  0.20356  0.00849  1.0000
  C   C32       1.0  0.00886  0.02272  0.08861  1.0000
  C   C33       1.0  0.26300  0.28785  0.07163  1.0000
  C   C34       1.0  0.26906  0.26668  0.07747  1.0000
  C   C35       1.0  0.25652  0.25363  0.07821  1.0000
  C   C36       1.0  0.23797  0.26133  0.07242  1.0000
  C   C37       1.0  0.23202  0.28254  0.06587  1.0000
  C   C38       1.0  0.24431  0.29583  0.06589  1.0000
  H   H28       1.0  0.28338  0.26032  0.08193  1.0000
  H   H29       1.0  0.26125  0.23737  0.08341  1.0000
  C   C39       1.0  0.25644  0.25846  0.00801  1.0000
  C   C40       1.0  0.41218  0.02529  0.20103  1.0000
  H   H30       1.0  0.43408  0.32028  0.22254  1.0000
  C   C41       1.0  0.08592  0.26707  0.13952  1.0000
  H   H31       1.0  0.16662  0.27380  0.15343  1.0000
  H   H32       1.0  0.03825  0.18688  0.15097  1.0000
  C   C42       1.0  0.45559  0.09613  0.17249  1.0000
  C   C43       1.0  0.44988  0.08448  0.16305  1.0000
  C   C44       1.0  0.09761  0.26619  0.15219  1.0000
  C   C45       1.0  0.07631  0.25096  0.14160  1.0000
  C   C46       1.0  0.07240  0.27407  0.01731  1.0000
  P   P1        1.0  0.16528  0.30192  0.11701  1.0000
  C   C47       1.0  0.07895  0.23382  0.15644  1.0000
  H   H33       1.0  0.38018  0.07966  0.20844  1.0000
  C   C48       1.0  0.12077  0.29265  0.07674  1.0000
  H   H34       1.0  0.12439  0.26011  0.00978  1.0000
  H   H35       1.0  0.46222  0.00796  0.22506  1.0000
  H   H36       1.0  0.35986  0.06609  0.19437  1.0000
  H   H37       1.0  0.27186  0.31642  0.03439  1.0000
  H   H38       1.0  0.12962  0.27729  0.07952  1.0000
  H   H39       1.0  0.45726  0.01696  0.16866  1.0000
  H   H40       1.0  0.18722  0.12443  0.11462  1.0000
  C   C49       1.0  0.19549  0.10230  0.15580  1.0000
  C   C50       1.0  0.04197  0.23702  0.13599  1.0000
  C   C51       1.0  0.02112  0.24598  0.14070  1.0000
  H   H41       1.0  0.01058  0.09941  0.13440  1.0000
  C   C52       1.0  0.00002  0.20676  0.09254  1.0000
  H   H42       1.0  0.02477  0.99460  0.19221  1.0000
  C   C53       1.0  0.02057  0.20758  0.08971  1.0000
  C   C54       1.0  0.26701  0.29978  0.99763  1.0000
  H   H43       1.0  0.09802  0.11547  0.22706  1.0000
  C   C55       1.0  0.07489  0.02304  0.18126  1.0000
  C   C56       1.0  0.06896  0.03951  0.19020  1.0000
  C   C57       1.0  0.07512  0.05799  0.18099  1.0000
  C   C58       1.0  0.08699  0.06035  0.16262  1.0000
  C   C59       1.0  0.09280  0.04395  0.15352  1.0000
  C   C60       1.0  0.08676  0.02529  0.16284  1.0000
  H   H44       1.0  0.05980  0.03790  0.20442  1.0000
  H   H45       1.0  0.07116  0.07021  0.18834  1.0000
  H   H46       1.0  0.10206  0.04560  0.13931  1.0000
  H   H47       1.0  0.09156  0.01255  0.15593  1.0000
  C   C61       1.0  0.07779  0.24250  0.10500  1.0000
  C   C62       1.0  0.04124  0.07108  0.15027  1.0000
  C   C63       1.0  0.03907  0.06094  0.13745  1.0000
  C   C64       1.0  0.02649  0.04657  0.14391  1.0000
  P   P2        1.0  0.05150  0.06695  0.11277  1.0000
  C   C65       1.0  0.05779  0.09175  0.10773  1.0000
  C   C66       1.0  0.07431  0.04781  0.10733  1.0000
  C   C67       1.0  0.07661  0.02792  0.11859  1.0000
  C   C68       1.0  0.01294  0.07411  0.10496  1.0000
  C   C69       1.0  0.16253  0.11416  0.11076  1.0000
  H   H48       1.0  0.47805  0.08963  0.03952  1.0000
  H   H49       1.0  0.27583  0.26337  0.02388  1.0000
  C   C70       1.0  0.07626  0.09340  0.11067  1.0000
  C   C71       1.0  0.08056  0.11260  0.10809  1.0000
  C   C72       1.0  0.06646  0.13031  0.10258  1.0000
  C   C73       1.0  0.04800  0.12884  0.09966  1.0000
  C   C74       1.0  0.04365  0.10965  0.10222  1.0000
  C   C75       1.0  0.03411  0.06887  0.09813  1.0000
  C   C76       1.0  0.04156  0.06673  0.07934  1.0000
  H   H50       1.0  0.01235  0.29267  0.01089  1.0000
  C   C77       1.0  0.02800  0.06973  0.06768  1.0000
  H   H51       1.0  0.00176  0.20276  0.15975  1.0000
  H   H52       1.0  0.47810  0.32400  0.12764  1.0000
  H   H53       1.0  0.05115  0.08190  0.14595  1.0000
  C   C78       1.0  0.09414  0.01313  0.11397  1.0000
  H   H54       1.0  0.06508  0.02376  0.13103  1.0000
  H   H55       1.0  0.12402  0.19629  0.99356  1.0000
  H   H56       1.0  0.44408  0.11450  0.21059  1.0000
  C   C79       1.0  0.23393  0.29661  0.11215  1.0000
  C   C80       1.0  0.14848  0.31862  0.13202  1.0000
  H   H57       1.0  0.08704  0.07986  0.11565  1.0000
  H   H58       1.0  0.09461  0.11366  0.11097  1.0000
  H   H59       1.0  0.06973  0.14514  0.10093  1.0000
  C   C81       1.0  0.21468  0.28715  0.98688  1.0000
  H   H60       1.0  0.02907  0.10889  0.10033  1.0000
  H   H61       1.0  0.05779  0.06293  0.07359  1.0000
  C   C82       1.0  0.08869  0.31879  0.01881  1.0000
  H   H62       1.0  0.48297  0.03948  0.17457  1.0000
  H   H63       1.0  0.06385  0.20824  0.13568  1.0000
  H   H64       1.0  0.08848  0.06787  0.08261  1.0000
  C   C83       1.0  0.03009  0.06778  0.16890  1.0000
  C   C84       1.0  0.37271  0.07256  0.18549  1.0000
  C   C85       1.0  0.16220  0.31093  0.09296  1.0000
  H   H65       1.0  0.00848  0.05166  0.18944  1.0000
  C   C86       1.0  0.05611  0.28987  0.09901  1.0000
  C   C87       1.0  0.47547  0.05535  0.17396  1.0000
  S   S17       1.0  0.00602  0.15315  0.16673  1.0000
  C   C88       1.0  0.21349  0.08805  0.15841  1.0000
  C   C89       1.0  0.44112  0.01841  0.17491  1.0000
  H   H66       1.0  0.45508  0.05430  0.15787  1.0000
  C   C90       1.0  0.03345  0.20339  0.14797  1.0000
  H   H67       1.0  0.18195  0.09689  0.15674  1.0000
  H   H68       1.0  0.99642  0.07727  0.06567  1.0000
  H   H69       1.0  0.40994  0.09377  0.18851  1.0000
  H   H70       1.0  0.27643  0.23029  0.04602  1.0000
  H   H71       1.0  0.16549  0.18593  0.99355  1.0000
  C   C91       1.0  0.23113  0.09467  0.15725  1.0000
  C   C92       1.0  0.18999  0.20285  0.11546  1.0000
  P   P3        1.0  0.06123  0.25238  0.12499  1.0000
  H   H72       1.0  0.18253  0.29861  0.05003  1.0000
  C   C93       1.0  0.10514  0.03506  0.21188  1.0000
  C   C94       1.0  0.45810  0.09081  0.09459  1.0000
  C   C95       1.0  0.45661  0.07123  0.09448  1.0000
  C   C96       1.0  0.44666  0.05936  0.11071  1.0000
  C   C97       1.0  0.43828  0.06697  0.12711  1.0000
  C   C98       1.0  0.43946  0.08676  0.12737  1.0000
  C   C99       1.0  0.44958  0.09854  0.11094  1.0000
  P   P4        1.0  0.43050  0.09570  0.14923  1.0000
  C   C100      1.0  0.42580  0.12333  0.14487  1.0000
  C   C101      1.0  0.44224  0.13340  0.13890  1.0000
  C   C102      1.0  0.43877  0.15449  0.13710  1.0000
  C   C103      1.0  0.41884  0.16580  0.14098  1.0000
  C   C104      1.0  0.40236  0.15602  0.14661  1.0000
  C   C105      1.0  0.40579  0.13488  0.14855  1.0000
  H   H73       1.0  0.46636  0.09978  0.08218  1.0000
  H   H74       1.0  0.24041  0.21388  0.01679  1.0000
  H   H75       1.0  0.09269  0.21953  0.18037  1.0000
  H   H76       1.0  0.43141  0.05707  0.13971  1.0000
  H   H77       1.0  0.45153  0.11343  0.11082  1.0000
  H   H78       1.0  0.44779  0.11175  0.17259  1.0000
  H   H79       1.0  0.45781  0.12481  0.13637  1.0000
  H   H80       1.0  0.45159  0.16194  0.13331  1.0000
  H   H81       1.0  0.41621  0.18207  0.14004  1.0000
  H   H82       1.0  0.38693  0.16474  0.14997  1.0000
  H   H83       1.0  0.39281  0.12760  0.15338  1.0000
  C   C106      1.0  0.04792  0.21559  0.13945  1.0000
  C   C107      1.0  0.05050  0.27929  0.11777  1.0000
  C   C108      1.0  0.11877  0.04240  0.19550  1.0000
  C   C109      1.0  0.12240  0.06199  0.19213  1.0000
  C   C110      1.0  0.11253  0.07420  0.20523  1.0000
  C   C111      1.0  0.09838  0.06720  0.22129  1.0000
  H   H84       1.0  0.19481  0.21700  0.10764  1.0000
  H   H85       1.0  0.18960  0.20750  0.14255  1.0000
  H   H86       1.0  0.12613  0.03302  0.18521  1.0000
  H   H87       1.0  0.13262  0.06780  0.17923  1.0000
  H   H88       1.0  0.11561  0.08922  0.20287  1.0000
  H   H89       1.0  0.19990  0.26658  0.12052  1.0000
  H   H90       1.0  0.13737  0.17370  0.15977  1.0000
  C   C112      1.0  0.40133  0.08767  0.18222  1.0000
  H   H91       1.0  0.47595  0.09663  0.18922  1.0000
  H   H92       1.0  0.11083  0.29438  0.10603  1.0000
  C   C113      1.0  0.38423  0.08009  0.19346  1.0000
  C   C114      1.0  0.47156  0.08762  0.18200  1.0000
  H   H93       1.0  0.03364  0.16830  0.12562  1.0000
  C   C115      1.0  0.41877  0.16013  0.18911  1.0000
  H   H94       1.0  0.11643  0.25971  0.04365  1.0000
  C   C116      1.0  0.17483  0.30025  0.07925  1.0000
  H   H95       1.0  0.08071  0.26770  0.06107  1.0000
  H   H96       1.0  0.12018  0.29750  0.99037  1.0000
  H   H97       1.0  0.00674  0.07622  0.11921  1.0000
  C   C117      1.0  0.43306  0.02393  0.19264  1.0000
  S   S18       1.0  0.27963  0.30316  0.07190  1.0000
  C   C118      1.0  0.15814  0.32421  0.05533  1.0000
  C   C119      1.0  0.00396  0.17824  0.11901  1.0000
  C   C120      1.0  0.16069  0.26703  0.14530  1.0000
  C   C121      1.0  0.12728  0.32173  0.13413  1.0000
  H   H98       1.0  0.46356  0.06501  0.08202  1.0000
  C   C122      1.0  0.41830  0.32232  0.23024  1.0000
  C   C123      1.0  0.09274  0.26962  0.00726  1.0000
  H   H99       1.0  0.23645  0.26415  0.11772  1.0000
  H   H100      1.0  0.15753  0.23994  0.16724  1.0000
  C   C124      1.0  0.26844  0.23399  0.03468  1.0000
  C   C125      1.0  0.15841  0.27729  0.12695  1.0000
  C   C126      1.0  0.15052  0.26833  0.11674  1.0000
  C   C127      1.0  0.14524  0.24929  0.12466  1.0000
  C   C128      1.0  0.14789  0.23898  0.14279  1.0000
  H   H101      1.0  0.40705  0.31845  0.20783  1.0000
  H   H102      1.0  0.12107  0.31411  0.12694  1.0000
  C   C129      1.0  0.10945  0.01803  0.09817  1.0000
  C   C130      1.0  0.42186  0.14019  0.20001  1.0000
  C   C131      1.0  0.10993  0.30222  0.09171  1.0000
  H   H103      1.0  0.03157  0.07594  0.17861  1.0000
  H   H104      1.0  0.17900  0.17508  0.16032  1.0000
  C   C132      1.0  0.45835  0.13903  0.19243  1.0000
  H   H105      1.0  0.14844  0.27593  0.10266  1.0000
  H   H106      1.0  0.13906  0.24255  0.11672  1.0000
  H   H107      1.0  0.14386  0.22417  0.14881  1.0000
  H   H108      1.0  0.18606  0.28659  0.08313  1.0000
  C   C133      1.0  0.04127  0.01091  0.09823  1.0000
  C   C134      1.0  0.21278  0.12986  0.15093  1.0000
  H   H109      1.0  0.03939  0.99865  0.12798  1.0000
  H   H110      1.0  0.39856  0.08153  0.13984  1.0000
  C   C135      1.0  0.12609  0.14731  0.20507  1.0000
  C   C136      1.0  0.14172  0.12993  0.20409  1.0000
  C   C137      1.0  0.15600  0.12832  0.18712  1.0000
  C   C138      1.0  0.15485  0.14425  0.17103  1.0000
  P   P5        1.0  0.17163  0.14154  0.14844  1.0000
  C   C139      1.0  0.19498  0.12334  0.15203  1.0000
  C   C140      1.0  0.15964  0.13135  0.13568  1.0000
  C   C141      1.0  0.17130  0.12349  0.11985  1.0000
  H   H111      1.0  0.11223  0.17627  0.18965  1.0000
  C   C142      1.0  0.14217  0.11230  0.11758  1.0000
  C   C143      1.0  0.13050  0.12003  0.13332  1.0000
  C   C144      1.0  0.13911  0.12964  0.14227  1.0000
  H   H112      1.0  0.21784  0.28874  0.06124  1.0000
  H   H113      1.0  0.11477  0.14838  0.21811  1.0000
  H   H114      1.0  0.05783  0.00800  0.09474  1.0000
  H   H115      1.0  0.16763  0.11452  0.18662  1.0000
  H   H116      1.0  0.13541  0.10480  0.11076  1.0000
  H   H117      1.0  0.11471  0.11858  0.13859  1.0000
  H   H118      1.0  0.12964  0.13567  0.15431  1.0000
  H   H119      1.0  0.21296  0.14591  0.14795  1.0000
  C   C145      1.0  0.07082  0.23138  0.09596  1.0000
  C   C146      1.0  0.08404  0.22270  0.08124  1.0000
  C   C147      1.0  0.10406  0.22564  0.07503  1.0000
  C   C148      1.0  0.11071  0.23766  0.08321  1.0000
  C   C149      1.0  0.09775  0.24592  0.09827  1.0000
  H   H120      1.0  0.07891  0.21352  0.07472  1.0000
  H   H121      1.0  0.11453  0.21860  0.06387  1.0000
  H   H122      1.0  0.12617  0.24000  0.07819  1.0000
  H   H123      1.0  0.10342  0.25475  0.10469  1.0000
  H   H124      1.0  0.00552  0.03237  0.16738  1.0000
  C   C150      1.0  0.00905  0.12211  0.14941  1.0000
  H   H125      1.0  0.25869  0.20535  0.04285  1.0000
  S   S19       1.0  0.48404  0.99938  0.10001  1.0000
  H   H126      1.0  0.11768  0.23019  0.00062  1.0000
  C   C151      1.0  0.26352  0.30263  0.01606  1.0000
  C   C152      1.0  0.03095  0.00573  0.11698  1.0000
  H   H127      1.0  0.00201  0.00441  0.13618  1.0000
  H   H128      1.0  0.06567  0.28190  0.08824  1.0000
  C   C153      1.0  0.38270  0.32430  0.23171  1.0000
  H   H129      1.0  0.36896  0.06745  0.15990  1.0000
  H   H130      1.0  0.46518  0.17172  0.21333  1.0000
  H   H131      1.0  0.10273  0.01986  0.21397  1.0000
  C   C154      1.0  0.44163  0.12978  0.20193  1.0000
  H   H132      1.0  0.07191  0.22111  0.15855  1.0000
  H   H133      1.0  0.05670  0.07450  0.22134  1.0000
  S   S20       1.0  0.47593  0.17097  0.17016  1.0000
  H   H134      1.0  0.48418  0.03276  0.21238  1.0000
  C   C155      1.0  0.03326  0.31173  0.12663  1.0000
  C   C156      1.0  0.17284  0.30694  0.06050  1.0000
  S   S21       1.0  0.43260  0.07191  0.21584  1.0000
  H   H135      1.0  0.48435  0.26255  0.04976  1.0000
  C   C157      1.0  0.25848  0.21993  0.03288  1.0000
  C   C158      1.0  0.24809  0.22477  0.01833  1.0000
  C   C159      1.0  0.24707  0.24391  0.00600  1.0000
  S   S22       1.0  0.40128  0.03002  0.22402  1.0000
  C   C160      1.0  0.20534  0.28046  0.11802  1.0000
  H   H136      1.0  0.38345  0.02234  0.19781  1.0000
  C   C161      1.0  0.18030  0.20935  0.99386  1.0000
  H   H137      1.0  0.25241  0.29561  0.02730  1.0000
  C   C162      1.0  0.39498  0.08092  0.15482  1.0000
  H   H138      1.0  0.21377  0.07186  0.16127  1.0000
  C   C163      1.0  0.45952  0.06383  0.16445  1.0000
  C   C164      1.0  0.43713  0.16272  0.22967  1.0000
  C   C165      1.0  0.48172  0.06737  0.18247  1.0000
  C   C166      1.0  0.12477  0.16312  0.18911  1.0000
  H   H139      1.0  0.25014  0.29548  0.11051  1.0000
  C   C167      1.0  0.06804  0.27318  0.03670  1.0000
  C   C168      1.0  0.99945  0.07717  0.09330  1.0000
  C   C169      1.0  0.10413  0.26343  0.03633  1.0000
  C   C170      1.0  0.18366  0.30788  0.00140  1.0000
  C   C171      1.0  0.02441  0.17904  0.11623  1.0000
  C   C172      1.0  0.03907  0.29043  0.13156  1.0000
  C   C173      1.0  0.00966  0.00911  0.12161  1.0000
  C   C174      1.0  0.01544  0.04322  0.16260  1.0000
  P   P6        1.0  0.25346  0.28369  0.99262  1.0000
  H   H140      1.0  0.39717  0.01443  0.16621  1.0000
  C   C175      1.0  0.22616  0.27896  0.11637  1.0000
  C   C176      1.0  0.26769  0.25306  0.02217  1.0000
  C   C177      1.0  0.19514  0.31591  0.00898  1.0000
  H   H141      1.0  0.02621  0.01558  0.21318  1.0000
  H   H142      1.0  0.16715  0.31224  0.00466  1.0000
  H   H143      1.0  0.44303  0.02674  0.19993  1.0000
  C   C178      1.0  0.10932  0.32328  0.05452  1.0000
  H   H144      1.0  0.11931  0.04159  0.07474  1.0000
  C   C179      1.0  0.12094  0.30341  0.05813  1.0000
  H   H145      1.0  0.03825  0.02293  0.06945  1.0000
  C   C180      1.0  0.10856  0.26393  0.01704  1.0000
  Fe  Fe9       1.0  0.41082  0.09726  0.22836  1.0000
  C   C181      1.0  0.40732  0.01691  0.17354  1.0000
  H   H146      1.0  0.24510  0.08361  0.15919  1.0000
  H   H147      1.0  0.14249  0.11754  0.21643  1.0000
  H   H148      1.0  0.02704  0.21896  0.07833  1.0000
  H   H149      1.0  0.48568  0.12978  0.09844  1.0000
  C   C182      1.0  0.10734  0.03780  0.08694  1.0000
  Fe  Fe10      1.0  0.46869  0.99287  0.13097  1.0000
  C   C183      1.0  0.01159  0.01320  0.21275  1.0000
  C   C184      1.0  0.03276  0.19371  0.10157  1.0000
  H   H150      1.0  0.02078  0.08774  0.21894  1.0000
  C   C185      1.0  0.99841  0.01785  0.10751  1.0000
  C   C186      1.0  0.08985  0.05264  0.09148  1.0000
  C   C187      1.0  0.19349  0.29373  0.99010  1.0000
  H   H151      1.0  0.03538  0.28273  0.14626  1.0000
  H   H152      1.0  0.05237  0.27681  0.04433  1.0000
  C   C188      1.0  0.99619  0.13619  0.15988  1.0000
  H   H153      1.0  0.24449  0.12068  0.15253  1.0000
  C   C189      1.0  0.23077  0.11555  0.15352  1.0000
  C   C190      1.0  0.27458  0.31427  0.02018  1.0000
  C   C191      1.0  0.42815  0.01507  0.16523  1.0000
  C   C192      1.0  0.03022  0.01932  0.08403  1.0000
  Fe  Fe11      1.0  0.41126  0.05226  0.23473  1.0000
  C   C193      1.0  0.00694  0.07493  0.07467  1.0000
  S   S23       1.0  0.43668  0.00936  0.14247  1.0000
  H   H154      1.0  0.12297  0.00644  0.09474  1.0000
  H   H155      1.0  0.10367  0.30955  0.02005  1.0000
  H   H156      1.0  0.23941  0.31214  0.06144  1.0000
  H   H157      1.0  0.07605  0.31152  0.04859  1.0000
  C   C194      1.0  0.22630  0.29431  0.99528  1.0000
  H   H158      1.0  0.07157  0.00866  0.22826  1.0000
  C   C195      1.0  0.07308  0.31997  0.03492  1.0000
  H   H159      1.0  0.00061  0.02885  0.07739  1.0000
  C   C196      1.0  0.20016  0.31737  0.11067  1.0000
  C   C197      1.0  0.02487  0.07373  0.22902  1.0000
  C   C198      1.0  0.01080  0.00126  0.20098  1.0000
  H   H160      1.0  0.09042  0.07719  0.23098  1.0000
  H   H161      1.0  0.42801  0.17317  0.22008  1.0000
  C   C199      1.0  0.49464  0.06051  0.12085  1.0000
  C   C200      1.0  0.40308  0.32132  0.22194  1.0000
  C   C201      1.0  0.22098  0.31577  0.10908  1.0000
  C   C202      1.0  0.03905  0.32210  0.10798  1.0000
  C   C203      1.0  0.49074  0.01690  0.21205  1.0000
  H   H162      1.0  0.02494  0.32030  0.13740  1.0000
  H   H163      1.0  0.09606  0.99778  0.12267  1.0000
  C   C204      1.0  0.05039  0.31118  0.09417  1.0000
  H   H164      1.0  0.23885  0.24727  0.99495  1.0000
  C   C205      1.0  0.11176  0.22873  0.98935  1.0000
  C   C206      1.0  0.00665  0.23368  0.14918  1.0000
  C   C207      1.0  0.09913  0.32246  0.08802  1.0000
  S   S24       1.0  0.49422  0.09519  0.13042  1.0000
  H   H165      1.0  0.49057  0.16554  0.08704  1.0000
  C   C208      1.0  0.01283  0.21240  0.15291  1.0000
  H   H166      1.0  0.37089  0.32377  0.22516  1.0000
  C   C209      1.0  0.29257  0.32080  0.98755  1.0000
  H   H167      1.0  0.48635  0.14710  0.23442  1.0000
  H   H168      1.0  0.48804  0.05211  0.05110  1.0000
  C   C210      1.0  0.00064  0.11011  0.14257  1.0000
  H   H169      1.0  0.48599  0.10498  0.23233  1.0000
  C   C211      1.0  0.28912  0.32332  0.00596  1.0000
  H   H170      1.0  0.05552  0.31939  0.07990  1.0000
  S   S25       1.0  0.05490  0.11466  0.23345  1.0000
  H   H171      1.0  0.49420  0.06106  0.18971  1.0000
  S   S26       1.0  0.48003  0.06244  0.23562  1.0000
  H   H172      1.0  0.99765  0.16689  0.13040  1.0000
  C   C212      1.0  0.06972  0.11731  0.24781  1.0000
  C   C213      1.0  0.46147  0.25192  0.42788  1.0000
  Fe  Fe12      1.0  0.39438  0.15007  0.38610  1.0000
  S   S27       1.0  0.40274  0.17037  0.35756  1.0000
  S   S28       1.0  0.41881  0.12955  0.40097  1.0000
  Fe  Fe13      1.0  0.34922  0.16328  0.38704  1.0000
  S   S29       1.0  0.35358  0.18524  0.35911  1.0000
  S   S30       1.0  0.31859  0.15869  0.40525  1.0000
  Fe  Fe14      1.0  0.37894  0.15991  0.34980  1.0000
  S   S31       1.0  0.38286  0.15593  0.32015  1.0000
  Fe  Fe15      1.0  0.37682  0.19373  0.36922  1.0000
  S   S32       1.0  0.37987  0.22627  0.36435  1.0000
  S   S33       1.0  0.37303  0.13724  0.37724  1.0000
  S   S34       1.0  0.37011  0.17412  0.39830  1.0000
  Fe  Fe16      1.0  0.16819  0.19557  0.39320  1.0000
  S   S35       1.0  0.19292  0.17040  0.40397  1.0000
  S   S36       1.0  0.14538  0.19487  0.37678  1.0000
  Fe  Fe17      1.0  0.18567  0.22886  0.39996  1.0000
  S   S37       1.0  0.21186  0.20648  0.41070  1.0000
  Fe  Fe18      1.0  0.21419  0.19131  0.38728  1.0000
  S   S38       1.0  0.24328  0.18158  0.36685  1.0000
  Fe  Fe19      1.0  0.18832  0.18763  0.42665  1.0000
  S   S39       1.0  0.18869  0.17119  0.45690  1.0000
  S   S40       1.0  0.19003  0.21538  0.37506  1.0000
  S   S41       1.0  0.16164  0.21108  0.41743  1.0000
  Fe  Fe20      1.0  0.09125  0.11513  0.35854  1.0000
  S   S42       1.0  0.07574  0.13551  0.33539  1.0000
  S   S43       1.0  0.10595  0.12105  0.37959  1.0000
  Fe  Fe21      1.0  0.08194  0.07632  0.35361  1.0000
  S   S44       1.0  0.06601  0.09311  0.33003  1.0000
  S   S45       1.0  0.08394  0.04281  0.36773  1.0000
  Fe  Fe22      1.0  0.09137  0.11045  0.31949  1.0000
  S   S46       1.0  0.10783  0.11661  0.28880  1.0000
  Fe  Fe23      1.0  0.05128  0.11691  0.34722  1.0000
  S   S47       1.0  0.10880  0.09144  0.34166  1.0000
  S   S48       1.0  0.06525  0.09878  0.37176  1.0000
  Fe  Fe24      1.0  0.40535  0.07173  0.26827  1.0000
  S   S49       1.0  0.42653  0.09276  0.25174  1.0000
  S   S50       1.0  0.39018  0.07180  0.29894  1.0000
  H   H173      1.0  0.16134  0.30959  0.35913  1.0000
  C   C214      1.0  0.37515  0.27975  0.32851  1.0000
  C   C215      1.0  0.32223  0.31014  0.31911  1.0000
  C   C216      1.0  0.19118  0.31603  0.39626  1.0000
  H   H174      1.0  0.01521  0.00366  0.34516  1.0000
  C   C217      1.0  0.07107  0.09258  0.46141  1.0000
  C   C218      1.0  0.00708  0.01191  0.37922  1.0000
  S   S51       1.0  0.42652  0.04376  0.25930  1.0000
  S   S52       1.0  0.38796  0.07823  0.24556  1.0000
  H   H175      1.0  0.23260  0.30949  0.47353  1.0000
  H   H176      1.0  0.22120  0.23944  0.47190  1.0000
  H   H177      1.0  0.31232  0.30277  0.46012  1.0000
  C   C219      1.0  0.49457  0.00230  0.25895  1.0000
  H   H178      1.0  0.22762  0.28655  0.35056  1.0000
  H   H179      1.0  0.04224  0.14203  0.37560  1.0000
  H   H180      1.0  0.00612  0.02630  0.36900  1.0000
  C   C220      1.0  0.48309  0.15903  0.29365  1.0000
  C   C221      1.0  0.00631  0.03354  0.43676  1.0000
  H   H181      1.0  0.00720  0.00811  0.46070  1.0000
  H   H182      1.0  0.06441  0.12041  0.29326  1.0000
  C   C222      1.0  0.13556  0.17372  0.37711  1.0000
  C   C223      1.0  0.12440  0.17546  0.36358  1.0000
  C   C224      1.0  0.11574  0.15928  0.36372  1.0000
  C   C225      1.0  0.11796  0.14126  0.37758  1.0000
  C   C226      1.0  0.12937  0.13942  0.39093  1.0000
  C   C227      1.0  0.13818  0.15551  0.39069  1.0000
  H   H183      1.0  0.12230  0.18948  0.35301  1.0000
  H   H184      1.0  0.10702  0.16089  0.35336  1.0000
  H   H185      1.0  0.13131  0.12550  0.40163  1.0000
  H   H186      1.0  0.14672  0.15395  0.40118  1.0000
  C   C228      1.0  0.06932  0.16982  0.42089  1.0000
  C   C229      1.0  0.19128  0.18653  0.47087  1.0000
  H   H187      1.0  0.32698  0.29676  0.36463  1.0000
  C   C230      1.0  0.38446  0.13231  0.31494  1.0000
  C   C231      1.0  0.38065  0.11505  0.32904  1.0000
  C   C232      1.0  0.38173  0.09665  0.32407  1.0000
  C   C233      1.0  0.38696  0.09538  0.30501  1.0000
  C   C234      1.0  0.39030  0.11280  0.29101  1.0000
  C   C235      1.0  0.38919  0.13111  0.29595  1.0000
  H   H188      1.0  0.37700  0.11583  0.34373  1.0000
  H   H189      1.0  0.37904  0.08325  0.33498  1.0000
  H   H190      1.0  0.39370  0.11221  0.27632  1.0000
  H   H191      1.0  0.39209  0.14439  0.28497  1.0000
  C   C236      1.0  0.35981  0.23907  0.37953  1.0000
  C   C237      1.0  0.34399  0.22945  0.39075  1.0000
  C   C238      1.0  0.32781  0.23973  0.40269  1.0000
  C   C239      1.0  0.35947  0.25902  0.38034  1.0000
  H   H192      1.0  0.34411  0.21411  0.39014  1.0000
  H   H193      1.0  0.31557  0.23226  0.41139  1.0000
  H   H194      1.0  0.37188  0.26635  0.37205  1.0000
  C   C240      1.0  0.29786  0.16588  0.39420  1.0000
  C   C241      1.0  0.30049  0.17249  0.37458  1.0000
  C   C242      1.0  0.28369  0.17734  0.36615  1.0000
  C   C243      1.0  0.26420  0.17594  0.37737  1.0000
  C   C244      1.0  0.26149  0.16980  0.39698  1.0000
  C   C245      1.0  0.27833  0.16462  0.40536  1.0000
  H   H195      1.0  0.31551  0.17336  0.36587  1.0000
  H   H196      1.0  0.28585  0.18207  0.35097  1.0000
  H   H197      1.0  0.24648  0.16860  0.40571  1.0000
  H   H198      1.0  0.27621  0.15957  0.42054  1.0000
  C   C246      1.0  0.42329  0.13515  0.42072  1.0000
  C   C247      1.0  0.40971  0.14962  0.43057  1.0000
  C   C248      1.0  0.41483  0.15412  0.44563  1.0000
  C   C249      1.0  0.43350  0.14413  0.45076  1.0000
  H   H199      1.0  0.37763  0.14443  0.46895  1.0000
  C   C250      1.0  0.44163  0.12500  0.42625  1.0000
  H   H200      1.0  0.39546  0.15750  0.42647  1.0000
  H   H201      1.0  0.40460  0.16553  0.45298  1.0000
  C   C251      1.0  0.32359  0.20038  0.45203  1.0000
  H   H202      1.0  0.49429  0.11689  0.32777  1.0000
  C   C252      1.0  0.08097  0.02190  0.32378  1.0000
  C   C253      1.0  0.08378  0.03401  0.33454  1.0000
  C   C254      1.0  0.08048  0.02761  0.35414  1.0000
  C   C255      1.0  0.07433  0.00899  0.36296  1.0000
  H   H203      1.0  0.07082  0.21177  0.38461  1.0000
  C   C256      1.0  0.19810  0.31800  0.27729  1.0000
  H   H204      1.0  0.08878  0.04817  0.32769  1.0000
  C   C257      1.0  0.08128  0.01096  0.25233  1.0000
  H   H205      1.0  0.04414  0.11916  0.27152  1.0000
  C   C258      1.0  0.33929  0.20267  0.31808  1.0000
  C   C259      1.0  0.35726  0.20862  0.30695  1.0000
  C   C260      1.0  0.35908  0.22888  0.30346  1.0000
  C   C261      1.0  0.34303  0.24319  0.31132  1.0000
  C   C262      1.0  0.32512  0.23722  0.32289  1.0000
  C   C263      1.0  0.32320  0.21691  0.32594  1.0000
  P   P7        1.0  0.30435  0.25547  0.33331  1.0000
  C   C264      1.0  0.29354  0.24244  0.35674  1.0000
  C   C265      1.0  0.31375  0.27686  0.33433  1.0000
  C   C266      1.0  0.31805  0.27817  0.35101  1.0000
  C   C267      1.0  0.27231  0.24501  0.36359  1.0000
  C   C268      1.0  0.26434  0.23319  0.38100  1.0000
  C   C269      1.0  0.27743  0.21876  0.39159  1.0000
  C   C270      1.0  0.29853  0.21665  0.38518  1.0000
  C   C271      1.0  0.30658  0.22845  0.36786  1.0000
  C   C272      1.0  0.28575  0.26566  0.31869  1.0000
  C   C273      1.0  0.28703  0.25723  0.30341  1.0000
  C   C274      1.0  0.27415  0.26681  0.29079  1.0000
  C   C275      1.0  0.14813  0.06571  0.36815  1.0000
  Fe  Fe25      1.0  0.44627  0.06559  0.24086  1.0000
  C   C276      1.0  0.32825  0.29524  0.45902  1.0000
  H   H206      1.0  0.33814  0.18681  0.32102  1.0000
  H   H207      1.0  0.34477  0.25875  0.30856  1.0000
  H   H208      1.0  0.30950  0.21192  0.33476  1.0000
  H   H209      1.0  0.31644  0.26612  0.36360  1.0000
  H   H210      1.0  0.26187  0.25573  0.35546  1.0000
  H   H211      1.0  0.24800  0.23484  0.38621  1.0000
  H   H212      1.0  0.27122  0.20907  0.40472  1.0000
  H   H213      1.0  0.30868  0.20543  0.39343  1.0000
  H   H214      1.0  0.32301  0.22631  0.36296  1.0000
  H   H215      1.0  0.29823  0.24355  0.30094  1.0000
  H   H216      1.0  0.27540  0.26042  0.27887  1.0000
  H   H217      1.0  0.45442  0.20746  0.41652  1.0000
  C   C277      1.0  0.44291  0.17561  0.39604  1.0000
  C   C278      1.0  0.06495  0.06021  0.27514  1.0000
  C   C279      1.0  0.40530  0.29828  0.45801  1.0000
  H   H218      1.0  0.04930  0.18662  0.40177  1.0000
  C   C280      1.0  0.09070  0.11676  0.24143  1.0000
  H   H219      1.0  0.17969  0.31894  0.25821  1.0000
  C   C281      1.0  0.32587  0.19162  0.47058  1.0000
  H   H220      1.0  0.47538  0.25727  0.42037  1.0000
  C   C282      1.0  0.39025  0.31461  0.46361  1.0000
  H   H221      1.0  0.03691  0.99721  0.25863  1.0000
  C   C283      1.0  0.42356  0.18644  0.39335  1.0000
  C   C284      1.0  0.99860  0.04293  0.42038  1.0000
  H   H222      1.0  0.11860  0.11590  0.24924  1.0000
  C   C285      1.0  0.10230  0.11697  0.25397  1.0000
  C   C286      1.0  0.33427  0.27864  0.47326  1.0000
  S   S53       1.0  0.26507  0.31735  0.42636  1.0000
  Fe  Fe26      1.0  0.29474  0.30494  0.40835  1.0000
  C   C287      1.0  0.33333  0.16679  0.44504  1.0000
  C   C288      1.0  0.38027  0.29603  0.29528  1.0000
  C   C289      1.0  0.37784  0.27875  0.30976  1.0000
  C   C290      1.0  0.25826  0.29306  0.30875  1.0000
  C   C291      1.0  0.02284  0.00562  0.38899  1.0000
  C   C292      1.0  0.46813  0.01225  0.32463  1.0000
  C   C293      1.0  0.07109  0.99702  0.35217  1.0000
  P   P8        1.0  0.07680  0.03858  0.24621  1.0000
  C   C294      1.0  0.28167  0.23102  0.47659  1.0000
  P   P9        1.0  0.34090  0.13045  0.47179  1.0000
  H   H223      1.0  0.07207  0.00383  0.37812  1.0000
  C   C295      1.0  0.18714  0.20779  0.46501  1.0000
  C   C296      1.0  0.03258  0.16529  0.48639  1.0000
  H   H224      1.0  0.40748  0.00475  0.26177  1.0000
  C   C297      1.0  0.00671  0.14186  0.41684  1.0000
  C   C298      1.0  0.33525  0.15785  0.46370  1.0000
  H   H225      1.0  0.13500  0.26590  0.46444  1.0000
  H   H226      1.0  0.33033  0.09066  0.47969  1.0000
  H   H227      1.0  0.38247  0.29479  0.28087  1.0000
  H   H228      1.0  0.37829  0.26442  0.30651  1.0000
  H   H229      1.0  0.46122  0.12188  0.44487  1.0000
  C   C299      1.0  0.47759  0.00325  0.30915  1.0000
  H   H230      1.0  0.37300  0.26635  0.33965  1.0000
  C   C300      1.0  0.27112  0.28353  0.32137  1.0000
  H   H231      1.0  0.14299  0.17949  0.47942  1.0000
  H   H232      1.0  0.20967  0.25698  0.36311  1.0000
  H   H233      1.0  0.19295  0.28163  0.43643  1.0000
  C   C301      1.0  0.02055  0.17786  0.45186  1.0000
  C   C302      1.0  0.34284  0.30219  0.44323  1.0000
  H   H234      1.0  0.33819  0.31465  0.43203  1.0000
  C   C303      1.0  0.19167  0.28074  0.39719  1.0000
  H   H235      1.0  0.46855  0.17444  0.40722  1.0000
  C   C304      1.0  0.34973  0.10858  0.42447  1.0000
  C   C305      1.0  0.36956  0.27663  0.45601  1.0000
  H   H236      1.0  0.10261  0.21015  0.39417  1.0000
  C   C306      1.0  0.18511  0.27897  0.46671  1.0000
  C   C307      1.0  0.41531  0.32006  0.42735  1.0000
  H   H237      1.0  0.07784  0.04269  0.41076  1.0000
  H   H238      1.0  0.43461  0.23745  0.47261  1.0000
  H   H239      1.0  0.31322  0.29214  0.30519  1.0000
  C   C308      1.0  0.48738  0.11663  0.30173  1.0000
  C   C309      1.0  0.01485  0.04602  0.25452  1.0000
  C   C310      1.0  0.25631  0.26291  0.42610  1.0000
  C   C311      1.0  0.01419  0.11722  0.32240  1.0000
  C   C312      1.0  0.42577  0.23767  0.44735  1.0000
  C   C313      1.0  0.13557  0.27104  0.37417  1.0000
  H   H240      1.0  0.03033  0.11680  0.31727  1.0000
  H   H241      1.0  0.12066  0.05426  0.27932  1.0000
  H   H242      1.0  0.40862  0.30561  0.35229  1.0000
  C   C314      1.0  0.18154  0.27874  0.44934  1.0000
  H   H243      1.0  0.23901  0.28730  0.39597  1.0000
  H   H244      1.0  0.24191  0.25674  0.48623  1.0000
  C   C315      1.0  0.03521  0.03863  0.25617  1.0000
  H   H245      1.0  0.45266  0.32302  0.29672  1.0000
  H   H246      1.0  0.34039  0.10830  0.41525  1.0000
  H   H247      1.0  0.48894  0.10019  0.30513  1.0000
  C   C316      1.0  0.36846  0.21590  0.45473  1.0000
  C   C317      1.0  0.35176  0.23201  0.45239  1.0000
  C   C318      1.0  0.35392  0.24895  0.43758  1.0000
  C   C319      1.0  0.37297  0.25031  0.42556  1.0000
  C   C320      1.0  0.39009  0.23469  0.42842  1.0000
  C   C321      1.0  0.38761  0.21720  0.44281  1.0000
  P   P10       1.0  0.41519  0.23704  0.41423  1.0000
  C   C322      1.0  0.41317  0.25854  0.39435  1.0000
  C   C323      1.0  0.43085  0.24163  0.42753  1.0000
  C   C324      1.0  0.32749  0.18794  0.43925  1.0000
  C   C325      1.0  0.01486  0.18020  0.48440  1.0000
  H   H248      1.0  0.24747  0.21689  0.45317  1.0000
  C   C326      1.0  0.44880  0.24881  0.41788  1.0000
  C   C327      1.0  0.40988  0.27843  0.39712  1.0000
  C   C328      1.0  0.40822  0.29531  0.38201  1.0000
  C   C329      1.0  0.40992  0.29249  0.36399  1.0000
  C   C330      1.0  0.41315  0.27277  0.36110  1.0000
  C   C331      1.0  0.41471  0.25585  0.37621  1.0000
  H   H249      1.0  0.18535  0.23629  0.47174  1.0000
  C   C332      1.0  0.25885  0.24173  0.43223  1.0000
  H   H250      1.0  0.34091  0.26136  0.43578  1.0000
  H   H251      1.0  0.37417  0.26374  0.41435  1.0000
  H   H252      1.0  0.40055  0.20475  0.44504  1.0000
  S   S54       1.0  0.28357  0.31559  0.38142  1.0000
  H   H253      1.0  0.39997  0.21300  0.39705  1.0000
  H   H254      1.0  0.45314  0.25171  0.40261  1.0000
  H   H255      1.0  0.02947  0.02086  0.31321  1.0000
  C   C333      1.0  0.34074  0.11715  0.44028  1.0000
  H   H256      1.0  0.41421  0.27052  0.34720  1.0000
  H   H257      1.0  0.41691  0.24081  0.37360  1.0000
  C   C334      1.0  0.17111  0.28152  0.34891  1.0000
  C   C335      1.0  0.21352  0.26467  0.33270  1.0000
  C   C336      1.0  0.22381  0.25810  0.31590  1.0000
  C   C337      1.0  0.23855  0.23989  0.31633  1.0000
  C   C338      1.0  0.24313  0.22819  0.33348  1.0000
  C   C339      1.0  0.23272  0.23448  0.35023  1.0000
  C   C340      1.0  0.21790  0.25256  0.34990  1.0000
  C   C341      1.0  0.16627  0.26262  0.35074  1.0000
  C   C342      1.0  0.14860  0.25740  0.36334  1.0000
  H   H258      1.0  0.34198  0.20823  0.26944  1.0000
  H   H259      1.0  0.11379  0.03729  0.25762  1.0000
  H   H260      1.0  0.03389  0.01506  0.38612  1.0000
  H   H261      1.0  0.22044  0.26684  0.30247  1.0000
  H   H262      1.0  0.24635  0.23476  0.30340  1.0000
  H   H263      1.0  0.25441  0.21398  0.33394  1.0000
  H   H264      1.0  0.23578  0.22501  0.36358  1.0000
  H   H265      1.0  0.17629  0.25172  0.34266  1.0000
  H   H266      1.0  0.14531  0.24252  0.36511  1.0000
  C   C343      1.0  0.08719  0.12001  0.42963  1.0000
  C   C344      1.0  0.45633  0.24787  0.44760  1.0000
  C   C345      1.0  0.37500  0.13353  0.48225  1.0000
  H   H267      1.0  0.04451  0.05640  0.34161  1.0000
  C   C346      1.0  0.45392  0.18330  0.40442  1.0000
  C   C347      1.0  0.20149  0.31050  0.29560  1.0000
  C   C348      1.0  0.45814  0.06168  0.28894  1.0000
  C   C349      1.0  0.44165  0.06577  0.30382  1.0000
  C   C350      1.0  0.43667  0.08468  0.30878  1.0000
  C   C351      1.0  0.44759  0.09983  0.29840  1.0000
  C   C352      1.0  0.46388  0.09600  0.28313  1.0000
  C   C353      1.0  0.46937  0.07665  0.27879  1.0000
  P   P11       1.0  0.47685  0.11618  0.26885  1.0000
  H   H268      1.0  0.49041  0.15451  0.32064  1.0000
  C   C354      1.0  0.46109  0.13447  0.25370  1.0000
  C   C355      1.0  0.21044  0.31023  0.45784  1.0000
  H   H269      1.0  0.37477  0.29877  0.42984  1.0000
  H   H270      1.0  0.01378  0.06585  0.32817  1.0000
  H   H271      1.0  0.33711  0.23151  0.46204  1.0000
  C   C356      1.0  0.43998  0.13546  0.25740  1.0000
  H   H272      1.0  0.31895  0.21678  0.44743  1.0000
  C   C357      1.0  0.22280  0.29098  0.39662  1.0000
  H   H273      1.0  0.46891  0.00350  0.29914  1.0000
  H   H274      1.0  0.46618  0.25009  0.45542  1.0000
  H   H275      1.0  0.35995  0.25618  0.48187  1.0000
  C   C358      1.0  0.48200  0.12840  0.28477  1.0000
  C   C359      1.0  0.15234  0.26963  0.48245  1.0000
  C   C360      1.0  0.29653  0.26068  0.46954  1.0000
  C   C361      1.0  0.49340  0.03820  0.24455  1.0000
  C   C362      1.0  0.37819  0.31516  0.31839  1.0000
  C   C363      1.0  0.47995  0.14969  0.28079  1.0000
  H   H276      1.0  0.46197  0.04713  0.28488  1.0000
  H   H277      1.0  0.43239  0.05451  0.31124  1.0000
  H   H278      1.0  0.42389  0.08788  0.32030  1.0000
  H   H279      1.0  0.44296  0.11469  0.30198  1.0000
  H   H280      1.0  0.36660  0.20248  0.46587  1.0000
  C   C364      1.0  0.01228  0.06568  0.34289  1.0000
  H   H281      1.0  0.37309  0.29878  0.34742  1.0000
  C   C365      1.0  0.14012  0.28995  0.37231  1.0000
  C   C366      1.0  0.19936  0.32251  0.44430  1.0000
  H   H282      1.0  0.43258  0.12526  0.26930  1.0000
  C   C367      1.0  0.06817  0.12651  0.44101  1.0000
  S   S55       1.0  0.01723  0.13030  0.35260  1.0000
  H   H283      1.0  0.26637  0.26944  0.41342  1.0000
  H   H284      1.0  0.27005  0.29041  0.33296  1.0000
  C   C368      1.0  0.35282  0.11857  0.45183  1.0000
  H   H285      1.0  0.41199  0.14954  0.24783  1.0000
  H   H286      1.0  0.41479  0.18008  0.38750  1.0000
  H   H287      1.0  0.21381  0.31438  0.29914  1.0000
  H   H288      1.0  0.01645  0.04014  0.44076  1.0000
  H   H289      1.0  0.47566  0.15917  0.26793  1.0000
  C   C369      1.0  0.09293  0.11792  0.27282  1.0000
  H   H290      1.0  0.36988  0.19742  0.30122  1.0000
  C   C370      1.0  0.24096  0.27572  0.43644  1.0000
  H   H291      1.0  0.30007  0.27443  0.45967  1.0000
  C   C371      1.0  0.01305  0.02391  0.31859  1.0000
  C   C372      1.0  0.12822  0.14835  0.31154  1.0000
  C   C373      1.0  0.28619  0.24909  0.46446  1.0000
  H   H292      1.0  0.42913  0.28820  0.43545  1.0000
  H   H293      1.0  0.27416  0.22174  0.47245  1.0000
  H   H294      1.0  0.37312  0.23334  0.29492  1.0000
  H   H295      1.0  0.39933  0.09696  0.42809  1.0000
  C   C374      1.0  0.12927  0.16882  0.30822  1.0000
  C   C375      1.0  0.14587  0.17387  0.31156  1.0000
  C   C376      1.0  0.16138  0.15846  0.31829  1.0000
  C   C377      1.0  0.16004  0.13784  0.32235  1.0000
  C   C378      1.0  0.14349  0.13292  0.31859  1.0000
  P   P12       1.0  0.18016  0.11774  0.33077  1.0000
  C   C379      1.0  0.16858  0.09678  0.34561  1.0000
  C   C380      1.0  0.19900  0.10976  0.31088  1.0000
  C   C381      1.0  0.21224  0.09051  0.31334  1.0000
  C   C382      1.0  0.22705  0.08443  0.29804  1.0000
  C   C383      1.0  0.22876  0.09749  0.28019  1.0000
  C   C384      1.0  0.21567  0.11667  0.27763  1.0000
  C   C385      1.0  0.20086  0.12283  0.29291  1.0000
  C   C386      1.0  0.16694  0.08127  0.33785  1.0000
  C   C387      1.0  0.19234  0.12642  0.34456  1.0000
  C   C388      1.0  0.18100  0.14086  0.35535  1.0000
  C   C389      1.0  0.19052  0.14847  0.36521  1.0000
  C   C390      1.0  0.21134  0.14133  0.36484  1.0000
  C   C391      1.0  0.22264  0.12645  0.35467  1.0000
  C   C392      1.0  0.21324  0.11905  0.34451  1.0000
  H   H296      1.0  0.14669  0.18975  0.30897  1.0000
  H   H297      1.0  0.17427  0.16271  0.32045  1.0000
  H   H298      1.0  0.21111  0.08022  0.32711  1.0000
  H   H299      1.0  0.23715  0.06952  0.30002  1.0000
  H   H300      1.0  0.24015  0.09269  0.26831  1.0000
  H   H301      1.0  0.21689  0.12673  0.26374  1.0000
  H   H302      1.0  0.19083  0.13771  0.29059  1.0000
  H   H303      1.0  0.17276  0.08150  0.32296  1.0000
  H   H304      1.0  0.16480  0.14640  0.35602  1.0000
  H   H305      1.0  0.18168  0.15998  0.37311  1.0000
  H   H306      1.0  0.21873  0.14736  0.37241  1.0000
  H   H307      1.0  0.23878  0.12091  0.35446  1.0000
  H   H308      1.0  0.22241  0.10774  0.33660  1.0000
  C   C393      1.0  0.34312  0.26943  0.39214  1.0000
  C   C394      1.0  0.00362  0.11119  0.31220  1.0000
  C   C395      1.0  0.00096  0.01541  0.44824  1.0000
  C   C396      1.0  0.32595  0.31152  0.33590  1.0000
  C   C397      1.0  0.16343  0.27429  0.44853  1.0000
  C   C398      1.0  0.38290  0.10227  0.43169  1.0000
  H   H309      1.0  0.32375  0.32261  0.30686  1.0000
  C   C399      1.0  0.09026  0.08636  0.45021  1.0000
  C   C400      1.0  0.17045  0.27408  0.48331  1.0000
  C   C401      1.0  0.02958  0.06044  0.35046  1.0000
  H   H310      1.0  0.16100  0.27387  0.43508  1.0000
  H   H311      1.0  0.01130  0.14565  0.44248  1.0000
  C   C402      1.0  0.36351  0.29316  0.44190  1.0000
  H   H312      1.0  0.11283  0.09519  0.42517  1.0000
  H   H313      1.0  0.33630  0.15757  0.43485  1.0000
  C   C403      1.0  0.32725  0.25978  0.40321  1.0000
  C   C404      1.0  0.05063  0.04837  0.24385  1.0000
  C   C405      1.0  0.43851  0.24078  0.45729  1.0000
  H   H314      1.0  0.05823  0.14542  0.47283  1.0000
  C   C406      1.0  0.23086  0.24611  0.45909  1.0000
  C   C407      1.0  0.03546  0.14324  0.39012  1.0000
  C   C408      1.0  0.06036  0.11872  0.26652  1.0000
  H   H315      1.0  0.45217  0.11382  0.41877  1.0000
  H   H316      1.0  0.40730  0.28354  0.46778  1.0000
  C   C409      1.0  0.44576  0.20207  0.40971  1.0000
  S   S56       1.0  0.17748  0.26305  0.39747  1.0000
  H   H317      1.0  0.23900  0.31343  0.35773  1.0000
  C   C410      1.0  0.01543  0.14072  0.39805  1.0000
  C   C411      1.0  0.04687  0.14689  0.40098  1.0000
  C   C412      1.0  0.03804  0.14862  0.41974  1.0000
  C   C413      1.0  0.01806  0.14551  0.42777  1.0000
  H   H318      1.0  0.15525  0.05404  0.34301  1.0000
  H   H319      1.0  0.04145  0.05731  0.37446  1.0000
  H   H320      1.0  0.22076  0.26003  0.39782  1.0000
  H   H321      1.0  0.15781  0.29677  0.28201  1.0000
  C   C414      1.0  0.09910  0.18377  0.41678  1.0000
  C   C415      1.0  0.08721  0.16920  0.42638  1.0000
  C   C416      1.0  0.05995  0.11254  0.45674  1.0000
  H   H322      1.0  0.32597  0.19459  0.42481  1.0000
  H   H323      1.0  0.36300  0.17338  0.27702  1.0000
  H   H324      1.0  0.33024  0.32502  0.33675  1.0000
  H   H325      1.0  0.00286  0.17094  0.36419  1.0000
  H   H326      1.0  0.09082  0.00739  0.27831  1.0000
  H   H327      1.0  0.11317  0.18304  0.42071  1.0000
  H   H328      1.0  0.09202  0.15747  0.43802  1.0000
  C   C417      1.0  0.09316  0.19910  0.40177  1.0000
  H   H329      1.0  0.45203  0.01937  0.32673  1.0000
  C   C418      1.0  0.06327  0.18548  0.40598  1.0000
  C   C419      1.0  0.38038  0.31443  0.29950  1.0000
  H   H330      1.0  0.16505  0.30506  0.39659  1.0000
  H   H331      1.0  0.16366  0.28339  0.31424  1.0000
  H   H332      1.0  0.04489  0.11697  0.46526  1.0000
  C   C420      1.0  0.24584  0.23332  0.44852  1.0000
  C   C421      1.0  0.41523  0.20506  0.39885  1.0000
  H   H333      1.0  0.25004  0.29229  0.28350  1.0000
  C   C422      1.0  0.08829  0.99978  0.26870  1.0000
  H   H334      1.0  0.15992  0.10885  0.37092  1.0000
  H   H335      1.0  0.14226  0.11720  0.32100  1.0000
  H   H336      1.0  0.48208  0.07317  0.26737  1.0000
  H   H337      1.0  0.46692  0.02490  0.25720  1.0000
  H   H338      1.0  0.01186  0.10573  0.29951  1.0000
  H   H339      1.0  0.09331  0.13026  0.41694  1.0000
  C   C423      1.0  0.37401  0.11102  0.44740  1.0000
  C   C424      1.0  0.08107  0.04851  0.26420  1.0000
  H   H340      1.0  0.38546  0.26902  0.45488  1.0000
  C   C425      1.0  0.20224  0.30709  0.33911  1.0000
  C   C426      1.0  0.21199  0.31121  0.39629  1.0000
  C   C427      1.0  0.06898  0.06954  0.28754  1.0000
  C   C428      1.0  0.08908  0.06758  0.28882  1.0000
  C   C429      1.0  0.10513  0.05574  0.27823  1.0000
  C   C430      1.0  0.10116  0.04613  0.26603  1.0000
  C   C431      1.0  0.21935  0.30210  0.34718  1.0000
  C   C432      1.0  0.07460  0.00343  0.33250  1.0000
  H   H341      1.0  0.48122  0.17548  0.29061  1.0000
  C   C433      1.0  0.18234  0.31309  0.27240  1.0000
  H   H342      1.0  0.01599  0.18330  0.43843  1.0000
  H   H343      1.0  0.23864  0.29204  0.43113  1.0000
  C   C434      1.0  0.41760  0.30093  0.43979  1.0000
  C   C435      1.0  0.03803  0.16242  0.45393  1.0000
  H   H344      1.0  0.44904  0.16090  0.39220  1.0000
  H   H345      1.0  0.00302  0.03840  0.26402  1.0000
  C   C436      1.0  0.25985  0.28477  0.29340  1.0000
  H   H346      1.0  0.05657  0.07889  0.29567  1.0000
  H   H347      1.0  0.09227  0.07541  0.29790  1.0000
  C   C437      1.0  0.00891  0.18657  0.46711  1.0000
  C   C438      1.0  0.18898  0.29818  0.30924  1.0000
  H   H348      1.0  0.03892  0.02559  0.26733  1.0000
  H   H349      1.0  0.28189  0.25407  0.45098  1.0000
  H   H350      1.0  0.35235  0.07548  0.28064  1.0000
  C   C439      1.0  0.22857  0.26740  0.45333  1.0000
  C   C440      1.0  0.14951  0.08119  0.37592  1.0000
  C   C441      1.0  0.21258  0.27565  0.39727  1.0000
  H   H351      1.0  0.40845  0.28085  0.41103  1.0000
  H   H352      1.0  0.47209  0.01916  0.34931  1.0000
  H   H353      1.0  0.41216  0.23203  0.45529  1.0000
  C   C442      1.0  0.00017  0.03771  0.30743  1.0000
  H   H354      1.0  0.18985  0.31640  0.43907  1.0000
  C   C443      1.0  0.32414  0.29547  0.35169  1.0000
  C   C444      1.0  0.35499  0.26932  0.47145  1.0000
  C   C445      1.0  0.09823  0.10005  0.43423  1.0000
  C   C446      1.0  0.49047  0.12602  0.31457  1.0000
  H   H355      1.0  0.08383  0.02675  0.30858  1.0000
  P   P13       1.0  0.20923  0.28361  0.46732  1.0000
  C   C447      1.0  0.33583  0.10675  0.27553  1.0000
  C   C448      1.0  0.34238  0.08787  0.28695  1.0000
  C   C449      1.0  0.33674  0.08512  0.30657  1.0000
  C   C450      1.0  0.32469  0.10127  0.31486  1.0000
  C   C451      1.0  0.31831  0.12042  0.30349  1.0000
  C   C452      1.0  0.32373  0.12296  0.28375  1.0000
  P   P14       1.0  0.30430  0.14200  0.31391  1.0000
  C   C453      1.0  0.27753  0.14779  0.31324  1.0000
  C   C454      1.0  0.30714  0.13601  0.33804  1.0000
  C   C455      1.0  0.29143  0.12968  0.35310  1.0000
  C   C456      1.0  0.29413  0.12412  0.37166  1.0000
  C   C457      1.0  0.31268  0.12428  0.37529  1.0000
  C   C458      1.0  0.32845  0.13016  0.36037  1.0000
  C   C459      1.0  0.32572  0.13610  0.34185  1.0000
  C   C460      1.0  0.26349  0.16137  0.32379  1.0000
  C   C461      1.0  0.24276  0.16592  0.32349  1.0000
  C   C462      1.0  0.23583  0.15692  0.31271  1.0000
  C   C463      1.0  0.24964  0.14325  0.30228  1.0000
  C   C464      1.0  0.27044  0.13870  0.30251  1.0000
  C   C465      1.0  0.31612  0.16339  0.30064  1.0000
  C   C466      1.0  0.33736  0.16005  0.29351  1.0000
  C   C467      1.0  0.34659  0.17616  0.28233  1.0000
  C   C468      1.0  0.33474  0.19578  0.27811  1.0000
  C   C469      1.0  0.31365  0.19935  0.28531  1.0000
  C   C470      1.0  0.30435  0.18325  0.29656  1.0000
  H   H356      1.0  0.00654  0.04594  0.29357  1.0000
  C   C471      1.0  0.00387  0.12382  0.33905  1.0000
  H   H357      1.0  0.34247  0.07063  0.31532  1.0000
  H   H358      1.0  0.32098  0.09884  0.33009  1.0000
  H   H359      1.0  0.31917  0.13764  0.27470  1.0000
  H   H360      1.0  0.27708  0.12899  0.35068  1.0000
  H   H361      1.0  0.28175  0.11998  0.38329  1.0000
  H   H362      1.0  0.31465  0.12042  0.38969  1.0000
  H   H363      1.0  0.34273  0.13045  0.36318  1.0000
  H   H364      1.0  0.33827  0.14052  0.33062  1.0000
  H   H365      1.0  0.26855  0.16828  0.33244  1.0000
  H   H366      1.0  0.23204  0.17617  0.33198  1.0000
  H   H367      1.0  0.21970  0.16026  0.31274  1.0000
  H   H368      1.0  0.24422  0.13608  0.29409  1.0000
  H   H369      1.0  0.28084  0.12801  0.29440  1.0000
  H   H370      1.0  0.34685  0.14492  0.29646  1.0000
  H   H371      1.0  0.32321  0.20115  0.48051  1.0000
  H   H372      1.0  0.32443  0.12334  0.44310  1.0000
  H   H373      1.0  0.30450  0.21459  0.28210  1.0000
  H   H374      1.0  0.28802  0.18640  0.30180  1.0000
  C   C472      1.0  0.04768  0.08786  0.41947  1.0000
  C   C473      1.0  0.06500  0.07217  0.41778  1.0000
  C   C474      1.0  0.06425  0.05464  0.41263  1.0000
  C   C475      1.0  0.04625  0.05285  0.40901  1.0000
  C   C476      1.0  0.02889  0.06877  0.41017  1.0000
  C   C477      1.0  0.02970  0.08621  0.41565  1.0000
  P   P15       1.0  0.00562  0.06630  0.40546  1.0000
  C   C478      1.0  0.00841  0.06618  0.38086  1.0000
  C   C479      1.0  0.37532  0.29796  0.33284  1.0000
  C   C480      1.0  0.22329  0.31871  0.46361  1.0000
  H   H375      1.0  0.12223  0.26671  0.38434  1.0000
  H   H376      1.0  0.13033  0.30023  0.38113  1.0000
  H   H377      1.0  0.13969  0.05408  0.37669  1.0000
  C   C481      1.0  0.18115  0.30097  0.39665  1.0000
  H   H378      1.0  0.38390  0.11205  0.45574  1.0000
  H   H379      1.0  0.42342  0.31291  0.29187  1.0000
  H   H380      1.0  0.37788  0.09487  0.40772  1.0000
  H   H381      1.0  0.11556  0.14438  0.30860  1.0000
  C   C482      1.0  0.02772  0.06089  0.36927  1.0000
  C   C483      1.0  0.14881  0.26978  0.46507  1.0000
  P   P16       1.0  0.05338  0.15175  0.43403  1.0000
  C   C484      1.0  0.07186  0.11926  0.27891  1.0000
  C   C485      1.0  0.15968  0.09667  0.36473  1.0000
  C   C486      1.0  0.42643  0.21324  0.40672  1.0000
  S   S57       1.0  0.44172  0.14960  0.46858  1.0000
  H   H382      1.0  0.04842  0.10160  0.42310  1.0000
  H   H383      1.0  0.07917  0.07383  0.41991  1.0000
  H   H384      1.0  0.40557  0.31062  0.38424  1.0000
  H   H385      1.0  0.04609  0.03918  0.40488  1.0000
  H   H386      1.0  0.01663  0.09867  0.41677  1.0000
  C   C487      1.0  0.31621  0.29287  0.31829  1.0000
  C   C488      1.0  0.07528  0.19994  0.39634  1.0000
  H   H387      1.0  0.09883  0.07086  0.45374  1.0000
  H   H388      1.0  0.00681  0.13759  0.38964  1.0000
  C   C489      1.0  0.15783  0.29520  0.35976  1.0000
  H   H389      1.0  0.06266  0.14807  0.39477  1.0000
  P   P17       1.0  0.19411  0.28786  0.33259  1.0000
  H   H390      1.0  0.14200  0.08168  0.39045  1.0000
  C   C490      1.0  0.04426  0.15654  0.47117  1.0000
  C   C491      1.0  0.15692  0.06570  0.34914  1.0000
  S   S58       1.0  0.30724  0.27185  0.41879  1.0000
  C   C492      1.0  0.37081  0.10110  0.42020  1.0000
  C   C493      1.0  0.44678  0.12961  0.44101  1.0000
  C   C494      1.0  0.48330  0.02221  0.25426  1.0000
  H   H391      1.0  0.34298  0.28474  0.39297  1.0000
  H   H392      1.0  0.11724  0.18071  0.30298  1.0000
  H   H393      1.0  0.18256  0.21494  0.45173  1.0000
  H   H394      1.0  0.27105  0.23190  0.42448  1.0000
  C   C495      1.0  0.47946  0.01212  0.33734  1.0000
  H   H395      1.0  0.34065  0.10894  0.26030  1.0000
  H   H396      1.0  0.04936  0.06277  0.27378  1.0000
  C   C496      1.0  0.07744  0.00039  0.24072  1.0000
  H   H397      1.0  0.38051  0.31264  0.47767  1.0000
  C   C497      1.0  0.00482  0.01422  0.33690  1.0000
  C   C498      1.0  0.17334  0.29310  0.30414  1.0000
  H   H398      1.0  0.24734  0.30709  0.31071  1.0000
  C   C499      1.0  0.42811  0.14942  0.24533  1.0000
  C   C500      1.0  0.18864  0.21992  0.47643  1.0000
  C   C501      1.0  0.00968  0.06362  0.24097  1.0000
  C   C502      1.0  0.48827  0.14722  0.31056  1.0000
  C   C503      1.0  0.17000  0.30063  0.28581  1.0000
  H   H399      1.0  0.06475  0.08186  0.47363  1.0000
  C   C504      1.0  0.33162  0.17045  0.47643  1.0000
  H   H400      1.0  0.99735  0.19059  0.38870  1.0000
  C   C505      1.0  0.22603  0.31735  0.35116  1.0000
  H   H401      1.0  0.42536  0.32188  0.41351  1.0000
  C   C506      1.0  0.47006  0.14779  0.23779  1.0000
  C   C507      1.0  0.31759  0.12151  0.48375  1.0000
  H   H402      1.0  0.41528  0.99311  0.29364  1.0000
  C   C508      1.0  0.42123  0.99347  0.26406  1.0000
  C   C509      1.0  0.31691  0.10110  0.48538  1.0000
  H   H403      1.0  0.99535  0.19840  0.46549  1.0000
  H   H404      1.0  0.29028  0.20261  0.66330  1.0000
  Fe  Fe27      1.0  0.46266  0.17692  0.63387  1.0000
  S   S59       1.0  0.46435  0.14427  0.64945  1.0000
  S   S60       1.0  0.43751  0.19473  0.61869  1.0000
  Fe  Fe28      1.0  0.47534  0.15305  0.67082  1.0000
  S   S61       1.0  0.46296  0.14359  0.70214  1.0000
  H   H405      1.0  0.29859  0.25458  0.55021  1.0000
  S   S62       1.0  0.47045  0.18646  0.65665  1.0000
  C   C510      1.0  0.28677  0.22496  0.49417  1.0000
  Fe  Fe29      1.0  0.38417  0.16503  0.52526  1.0000
  C   C511      1.0  0.01076  0.03637  0.61840  1.0000
  S   S63       1.0  0.36036  0.14682  0.54267  1.0000
  Fe  Fe30      1.0  0.42496  0.16862  0.53022  1.0000
  C   C512      1.0  0.01734  0.99943  0.62680  1.0000
  S   S64       1.0  0.44673  0.15585  0.54963  1.0000
  Fe  Fe31      1.0  0.40085  0.20311  0.50609  1.0000
  H   H406      1.0  0.39596  0.11109  0.52057  1.0000
  H   H407      1.0  0.40202  0.13544  0.48967  1.0000
  H   H408      1.0  0.27338  0.20860  0.60685  1.0000
  S   S65       1.0  0.39327  0.18714  0.53659  1.0000
  S   S66       1.0  0.41559  0.14522  0.52121  1.0000
  Fe  Fe32      1.0  0.21238  0.21367  0.53174  1.0000
  S   S67       1.0  0.20631  0.22873  0.55621  1.0000
  S   S68       1.0  0.19622  0.22706  0.50751  1.0000
  Fe  Fe33      1.0  0.24627  0.18003  0.54567  1.0000
  S   S69       1.0  0.24242  0.19157  0.57157  1.0000
  S   S70       1.0  0.26958  0.15230  0.53839  1.0000
  Fe  Fe34      1.0  0.20875  0.19647  0.57355  1.0000
  S   S71       1.0  0.18565  0.18976  0.60097  1.0000
  Fe  Fe35      1.0  0.24049  0.22264  0.55232  1.0000
  S   S72       1.0  0.26428  0.23969  0.55200  1.0000
  S   S73       1.0  0.21273  0.18202  0.54935  1.0000
  S   S74       1.0  0.24614  0.21047  0.52625  1.0000
  Fe  Fe36      1.0  0.11149  0.08858  0.68866  1.0000
  S   S75       1.0  0.13736  0.06924  0.67193  1.0000
  S   S76       1.0  0.11513  0.08322  0.71862  1.0000
  Fe  Fe37      1.0  0.08810  0.10119  0.65741  1.0000
  S   S77       1.0  0.11194  0.08225  0.63872  1.0000
  S   S78       1.0  0.05875  0.11929  0.64902  1.0000
  Fe  Fe38      1.0  0.11327  0.05817  0.66541  1.0000
  S   S79       1.0  0.11831  0.02376  0.67026  1.0000
  Fe  Fe39      1.0  0.13381  0.09514  0.64694  1.0000
  S   S80       1.0  0.16187  0.10281  0.62489  1.0000
  S   S81       1.0  0.08753  0.07611  0.68344  1.0000
  S   S82       1.0  0.10985  0.11569  0.66409  1.0000
  C   C513      1.0  0.27729  0.28833  0.51077  1.0000
  C   C514      1.0  0.04331  0.10299  0.64910  1.0000
  C   C515      1.0  0.05163  0.08232  0.64937  1.0000
  C   C516      1.0  0.03900  0.06911  0.65065  1.0000
  C   C517      1.0  0.01795  0.07633  0.65226  1.0000
  C   C518      1.0  0.00966  0.09712  0.65148  1.0000
  C   C519      1.0  0.02245  0.11050  0.64947  1.0000
  H   H409      1.0  0.06775  0.07645  0.64879  1.0000
  H   H410      1.0  0.04544  0.05310  0.65101  1.0000
  H   H411      1.0  0.36920  0.25085  0.58434  1.0000
  H   H412      1.0  0.01609  0.12660  0.64863  1.0000
  C   C520      1.0  0.11711  0.03696  0.60564  1.0000
  C   C521      1.0  0.35807  0.12429  0.48751  1.0000
  C   C522      1.0  0.49191  0.04032  0.62856  1.0000
  C   C523      1.0  0.48820  0.13984  0.50389  1.0000
  H   H413      1.0  0.14234  0.00311  0.63761  1.0000
  C   C524      1.0  0.33709  0.31636  0.64213  1.0000
  H   H414      1.0  0.32105  0.15418  0.60946  1.0000
  C   C525      1.0  0.11393  0.02348  0.59656  1.0000
  H   H415      1.0  0.09130  0.12545  0.71497  1.0000
  H   H416      1.0  0.11883  0.99230  0.59472  1.0000
  C   C526      1.0  0.36850  0.10563  0.51677  1.0000
  H   H417      1.0  0.33631  0.22559  0.50189  1.0000
  H   H418      1.0  0.36951  0.21425  0.59152  1.0000
  H   H419      1.0  0.33242  0.14470  0.66556  1.0000
  C   C527      1.0  0.34952  0.22964  0.54050  1.0000
  C   C528      1.0  0.35498  0.24578  0.58741  1.0000
  C   C529      1.0  0.17878  0.16573  0.60747  1.0000
  C   C530      1.0  0.19012  0.15008  0.59826  1.0000
  C   C531      1.0  0.18495  0.13082  0.60407  1.0000
  C   C532      1.0  0.16791  0.12722  0.61860  1.0000
  C   C533      1.0  0.15627  0.14298  0.62765  1.0000
  C   C534      1.0  0.16190  0.16210  0.62227  1.0000
  H   H420      1.0  0.20301  0.15273  0.58677  1.0000
  H   H421      1.0  0.19422  0.11864  0.59727  1.0000
  H   H422      1.0  0.14314  0.14036  0.63892  1.0000
  H   H423      1.0  0.15306  0.17414  0.62949  1.0000
  C   C535      1.0  0.39045  0.25147  0.51176  1.0000
  C   C536      1.0  0.38079  0.27209  0.50803  1.0000
  C   C537      1.0  0.39285  0.25451  0.54232  1.0000
  C   C538      1.0  0.39675  0.24273  0.52882  1.0000
  H   H424      1.0  0.28438  0.16868  0.56864  1.0000
  H   H425      1.0  0.39754  0.24765  0.55557  1.0000
  H   H426      1.0  0.40456  0.22691  0.53166  1.0000
  C   C539      1.0  0.33600  0.14914  0.53869  1.0000
  C   C540      1.0  0.32428  0.16782  0.53105  1.0000
  C   C541      1.0  0.30380  0.16906  0.53068  1.0000
  C   C542      1.0  0.29537  0.15153  0.53734  1.0000
  C   C543      1.0  0.30749  0.13281  0.54404  1.0000
  C   C544      1.0  0.32748  0.13174  0.54515  1.0000
  H   H427      1.0  0.33059  0.18141  0.52638  1.0000
  H   H428      1.0  0.29439  0.18358  0.52580  1.0000
  H   H429      1.0  0.30115  0.11922  0.54913  1.0000
  H   H430      1.0  0.33635  0.11734  0.55127  1.0000
  C   C545      1.0  0.12128  0.00245  0.60208  1.0000
  C   C546      1.0  0.08713  0.02269  0.65473  1.0000
  C   C547      1.0  0.10056  0.01214  0.66662  1.0000
  H   H431      1.0  0.08722  0.03849  0.64777  1.0000
  H   H432      1.0  0.09313  0.04306  0.71317  1.0000
  C   C548      1.0  0.43992  0.18447  0.59919  1.0000
  C   C549      1.0  0.42837  0.19466  0.58549  1.0000
  C   C550      1.0  0.43033  0.18617  0.57002  1.0000
  C   C551      1.0  0.44379  0.16745  0.56838  1.0000
  C   C552      1.0  0.45520  0.15735  0.58211  1.0000
  C   C553      1.0  0.45334  0.16583  0.59742  1.0000
  H   H433      1.0  0.41794  0.20909  0.58682  1.0000
  H   H434      1.0  0.42143  0.19402  0.55946  1.0000
  H   H435      1.0  0.46552  0.14287  0.58092  1.0000
  H   H436      1.0  0.46221  0.15778  0.60794  1.0000
  H   H437      1.0  0.31944  0.30944  0.49589  1.0000
  H   H438      1.0  0.02580  0.00994  0.67707  1.0000
  C   C554      1.0  0.36179  0.17587  0.59667  1.0000
  C   C555      1.0  0.28138  0.10733  0.50174  1.0000
  C   C556      1.0  0.24106  0.21568  0.60835  1.0000
  H   H439      1.0  0.03997  0.00564  0.72846  1.0000
  C   C557      1.0  0.26342  0.30402  0.51862  1.0000
  C   C558      1.0  0.31833  0.23290  0.59482  1.0000
  H   H440      1.0  0.47224  0.04606  0.65475  1.0000
  H   H441      1.0  0.00586  0.18702  0.49619  1.0000
  C   C559      1.0  0.02591  0.03742  0.72728  1.0000
  C   C560      1.0  0.35502  0.22492  0.59154  1.0000
  C   C561      1.0  0.99911  0.99962  0.62211  1.0000
  S   S83       1.0  0.43342  0.18640  0.50066  1.0000
  C   C562      1.0  0.19133  0.12344  0.65530  1.0000
  C   C563      1.0  0.28815  0.28364  0.55833  1.0000
  H   H442      1.0  0.39030  0.14394  0.56755  1.0000
  C   C564      1.0  0.32916  0.25359  0.51190  1.0000
  H   H443      1.0  0.28286  0.09397  0.60074  1.0000
  H   H444      1.0  0.41553  0.14064  0.58636  1.0000
  C   C565      1.0  0.12772  0.02941  0.62016  1.0000
  H   H445      1.0  0.30399  0.21254  0.62932  1.0000
  H   H446      1.0  0.16737  0.22291  0.54180  1.0000
  C   C566      1.0  0.31482  0.16507  0.59810  1.0000
  H   H447      1.0  0.06374  0.02078  0.64202  1.0000
  H   H448      1.0  0.29942  0.11690  0.68510  1.0000
  H   H449      1.0  0.37266  0.18243  0.61822  1.0000
  H   H450      1.0  0.17554  0.16107  0.67993  1.0000
  H   H451      1.0  0.18632  0.30064  0.50013  1.0000
  C   C567      1.0  0.49453  0.13543  0.52086  1.0000
  H   H452      1.0  0.28365  0.21077  0.50338  1.0000
  C   C568      1.0  0.31046  0.19771  0.63689  1.0000
  C   C569      1.0  0.26278  0.11742  0.58516  1.0000
  C   C570      1.0  0.13481  0.00839  0.62592  1.0000
  H   H453      1.0  0.22019  0.11725  0.63636  1.0000
  C   C571      1.0  0.99805  0.99316  0.72945  1.0000
  C   C572      1.0  0.33238  0.26254  0.52505  1.0000
  H   H454      1.0  0.26747  0.11082  0.57282  1.0000
  C   C573      1.0  0.09787  0.02923  0.72306  1.0000
  H   H455      1.0  0.01503  0.05055  0.61746  1.0000
  H   H456      1.0  0.24084  0.23134  0.60054  1.0000
  H   H457      1.0  0.18580  0.11155  0.65265  1.0000
  C   C574      1.0  0.41703  0.29109  0.60707  1.0000
  C   C575      1.0  0.21793  0.14258  0.64894  1.0000
  P   P18       1.0  0.24301  0.14740  0.63651  1.0000
  H   H458      1.0  0.41521  0.24139  0.62894  1.0000
  C   C576      1.0  0.24773  0.13526  0.58545  1.0000
  C   C577      1.0  0.43851  0.25104  0.60522  1.0000
  H   H459      1.0  0.30393  0.22835  0.59745  1.0000
  H   H460      1.0  0.48785  0.16568  0.53961  1.0000
  C   C578      1.0  0.31262  0.19773  0.57580  1.0000
  H   H461      1.0  0.23380  0.27284  0.56825  1.0000
  C   C579      1.0  0.46861  0.11777  0.71377  1.0000
  H   H462      1.0  0.40353  0.30460  0.57331  1.0000
  C   C580      1.0  0.29968  0.19211  0.56778  1.0000
  H   H463      1.0  0.24796  0.30230  0.52554  1.0000
  S   S84       1.0  0.38895  0.18259  0.49510  1.0000
  C   C581      1.0  0.47440  0.06392  0.68356  1.0000
  C   C582      1.0  0.45656  0.05595  0.68996  1.0000
  C   C583      1.0  0.43745  0.06877  0.69426  1.0000
  C   C584      1.0  0.43599  0.08966  0.69205  1.0000
  C   C585      1.0  0.45360  0.09773  0.68543  1.0000
  C   C586      1.0  0.47274  0.08498  0.68120  1.0000
  C   C587      1.0  0.19468  0.21101  0.49364  1.0000
  C   C588      1.0  0.36704  0.16498  0.58231  1.0000
  H   H464      1.0  0.36928  0.29971  0.51851  1.0000
  C   C589      1.0  0.35478  0.11043  0.50495  1.0000
  C   C590      1.0  0.07383  0.01263  0.65149  1.0000
  H   H465      1.0  0.47665  0.19609  0.55318  1.0000
  C   C591      1.0  0.42070  0.25439  0.61907  1.0000
  H   H466      1.0  0.42380  0.06249  0.69948  1.0000
  H   H467      1.0  0.47907  0.03667  0.71834  1.0000
  C   C592      1.0  0.21305  0.27828  0.49108  1.0000
  C   C593      1.0  0.10387  0.99244  0.73292  1.0000
  C   C594      1.0  0.20513  0.15476  0.66142  1.0000
  C   C595      1.0  0.17862  0.13577  0.66751  1.0000
  C   C596      1.0  0.23479  0.26298  0.51368  1.0000
  C   C597      1.0  0.32620  0.15946  0.65754  1.0000
  C   C598      1.0  0.00334  0.10109  0.70927  1.0000
  H   H468      1.0  0.09375  0.00958  0.70753  1.0000
  C   C599      1.0  0.48843  0.10566  0.71103  1.0000
  H   H469      1.0  0.42128  0.09964  0.69558  1.0000
  H   H470      1.0  0.45246  0.11390  0.68396  1.0000
  H   H471      1.0  0.33001  0.31722  0.61586  1.0000
  H   H472      1.0  0.33297  0.16387  0.49094  1.0000
  C   C600      1.0  0.13156  0.99467  0.61701  1.0000
  C   C601      1.0  0.28203  0.13460  0.64443  1.0000
  C   C602      1.0  0.28547  0.26565  0.55519  1.0000
  S   S85       1.0  0.39417  0.23699  0.49495  1.0000
  H   H473      1.0  0.39615  0.27653  0.63082  1.0000
  H   H474      1.0  0.45745  0.03978  0.69183  1.0000
  H   H475      1.0  0.22423  0.27197  0.54032  1.0000
  C   C603      1.0  0.37723  0.31660  0.62124  1.0000
  H   H476      1.0  0.47976  0.07077  0.59479  1.0000
  C   C604      1.0  0.44568  0.26761  0.59232  1.0000
  C   C605      1.0  0.34240  0.25059  0.53934  1.0000
  H   H477      1.0  0.45943  0.26493  0.58153  1.0000
  C   C606      1.0  0.32644  0.18428  0.62763  1.0000
  H   H478      1.0  0.21017  0.16708  0.66379  1.0000
  C   C607      1.0  0.02311  0.01773  0.62494  1.0000
  H   H479      1.0  0.35282  0.20450  0.52775  1.0000
  C   C608      1.0  0.37683  0.28383  0.52151  1.0000
  Fe  Fe40      1.0  0.42118  0.16454  0.49201  1.0000
  H   H480      1.0  0.34501  0.25773  0.54925  1.0000
  C   C609      1.0  0.05199  0.04465  0.69193  1.0000
  C   C610      1.0  0.05228  0.02469  0.70238  1.0000
  C   C611      1.0  0.01808  0.00520  0.69166  1.0000
  H   H481      1.0  0.44068  0.30024  0.58302  1.0000
  C   C612      1.0  0.02523  0.05753  0.71670  1.0000
  C   C613      1.0  0.03851  0.06106  0.69898  1.0000
  C   C614      1.0  0.09812  0.01032  0.71995  1.0000
  S   S86       1.0  0.32771  0.31589  0.53501  1.0000
  H   H482      1.0  0.16375  0.14620  0.49182  1.0000
  C   C615      1.0  0.29885  0.09406  0.49433  1.0000
  C   C616      1.0  0.38250  0.27497  0.53882  1.0000
  C   C617      1.0  0.22314  0.20811  0.61431  1.0000
  H   H483      1.0  0.29864  0.23257  0.51402  1.0000
  C   C618      1.0  0.01313  0.13125  0.68687  1.0000
  C   C619      1.0  0.01794  0.11317  0.70005  1.0000
  H   H484      1.0  0.06234  0.04744  0.67835  1.0000
  H   H485      1.0  0.06246  0.01204  0.69666  1.0000
  H   H486      1.0  0.49463  0.13482  0.73162  1.0000
  H   H487      1.0  0.34869  0.31546  0.66606  1.0000
  H   H488      1.0  0.16109  0.06185  0.73357  1.0000
  H   H489      1.0  0.35645  0.16636  0.57367  1.0000
  C   C620      1.0  0.49063  0.18533  0.55566  1.0000
  H   H490      1.0  0.32153  0.31655  0.65011  1.0000
  C   C621      1.0  0.22362  0.18764  0.62350  1.0000
  H   H491      1.0  0.40675  0.16015  0.61147  1.0000
  C   C622      1.0  0.31837  0.25374  0.59072  1.0000
  H   H492      1.0  0.02471  0.14014  0.67941  1.0000
  H   H493      1.0  0.03315  0.10855  0.70288  1.0000
  C   C623      1.0  0.38553  0.11459  0.51126  1.0000
  H   H494      1.0  0.29408  0.20239  0.55578  1.0000
  H   H495      1.0  0.20894  0.21786  0.61114  1.0000
  H   H496      1.0  0.26214  0.12242  0.69873  1.0000
  H   H497      1.0  0.22992  0.15783  0.60120  1.0000
  C   C624      1.0  0.30376  0.30786  0.50191  1.0000
  C   C625      1.0  0.22109  0.27388  0.52660  1.0000
  H   H498      1.0  0.20970  0.18198  0.62722  1.0000
  H   H499      1.0  0.27439  0.17278  0.62334  1.0000
  C   C626      1.0  0.15180  0.21549  0.57083  1.0000
  C   C627      1.0  0.25163  0.29374  0.56887  1.0000
  H   H500      1.0  0.24060  0.14224  0.57350  1.0000
  H   H501      1.0  0.20398  0.18263  0.51254  1.0000
  C   C628      1.0  0.34185  0.31676  0.62283  1.0000
  H   H502      1.0  0.27234  0.27452  0.51197  1.0000
  H   H503      1.0  0.16331  0.13333  0.67435  1.0000
  C   C629      1.0  0.33669  0.26018  0.58706  1.0000
  H   H504      1.0  0.48540  0.09873  0.60595  1.0000
  C   C630      1.0  0.20350  0.28726  0.52176  1.0000
  H   H505      1.0  0.11117  0.05323  0.60162  1.0000
  P   P19       1.0  0.33637  0.19115  0.60239  1.0000
  C   C631      1.0  0.27125  0.29792  0.56503  1.0000
  P   P20       1.0  0.31579  0.26912  0.49365  1.0000
  H   H506      1.0  0.30439  0.16876  0.68168  1.0000
  C   C632      1.0  0.24894  0.27578  0.56541  1.0000
  H   H507      1.0  0.24861  0.25293  0.51733  1.0000
  H   H508      1.0  0.33680  0.27635  0.58361  1.0000
  H   H509      1.0  0.03864  0.07638  0.69058  1.0000
  C   C633      1.0  0.24202  0.17450  0.62697  1.0000
  H   H510      1.0  0.10561  0.02933  0.58535  1.0000
  C   C634      1.0  0.19722  0.17749  0.48815  1.0000
  C   C635      1.0  0.25384  0.13331  0.67168  1.0000
  C   C636      1.0  0.48844  0.02277  0.71427  1.0000
  P   P21       1.0  0.40300  0.31695  0.60775  1.0000
  C   C637      1.0  0.14269  0.17469  0.49442  1.0000
  C   C638      1.0  0.00031  0.01778  0.69940  1.0000
  H   H511      1.0  0.19300  0.29590  0.53172  1.0000
  C   C639      1.0  0.29429  0.17308  0.57493  1.0000
  C   C640      1.0  0.29586  0.12710  0.65632  1.0000
  H   H512      1.0  0.30333  0.28630  0.55576  1.0000
  H   H513      1.0  0.28788  0.13770  0.62933  1.0000
  H   H514      1.0  0.34156  0.10351  0.50961  1.0000
  H   H515      1.0  0.31702  0.21230  0.56959  1.0000
  H   H516      1.0  0.23846  0.30458  0.57429  1.0000
  C   C641      1.0  0.43501  0.28756  0.59322  1.0000
  Fe  Fe41      1.0  0.35060  0.31637  0.55053  1.0000
  C   C642      1.0  0.40047  0.15025  0.58943  1.0000
  C   C643      1.0  0.09249  0.11919  0.72952  1.0000
  C   C644      1.0  0.28995  0.32330  0.51019  1.0000
  H   H517      1.0  0.48351  0.13243  0.53403  1.0000
  C   C645      1.0  0.15445  0.15587  0.50144  1.0000
  C   C646      1.0  0.40214  0.32101  0.57012  1.0000
  H   H518      1.0  0.03684  0.01748  0.62916  1.0000
  H   H519      1.0  0.36575  0.09527  0.53039  1.0000
  C   C647      1.0  0.21087  0.12682  0.64601  1.0000
  C   C648      1.0  0.34696  0.22068  0.52711  1.0000
  C   C649      1.0  0.26595  0.26185  0.55819  1.0000
  C   C650      1.0  0.26771  0.12588  0.68355  1.0000
  S   S87       1.0  0.00265  0.05883  0.65513  1.0000
  H   H520      1.0  0.30420  0.26497  0.59034  1.0000
  H   H521      1.0  0.20050  0.16104  0.49275  1.0000
  C   C651      1.0  0.31973  0.18449  0.59148  1.0000
  H   H522      1.0  0.29872  0.14431  0.59454  1.0000
  C   C652      1.0  0.40997  0.27433  0.62004  1.0000
  C   C653      1.0  0.19962  0.28967  0.50397  1.0000
  C   C654      1.0  0.30252  0.19207  0.65628  1.0000
  H   H523      1.0  0.32712  0.27871  0.52442  1.0000
  S   S88       1.0  0.37583  0.28915  0.55639  1.0000
  H   H524      1.0  0.23768  0.13543  0.67799  1.0000
  C   C655      1.0  0.13109  0.18750  0.50662  1.0000
  C   C656      1.0  0.29752  0.29020  0.50219  1.0000
  C   C657      1.0  0.18553  0.15139  0.67061  1.0000
  C   C658      1.0  0.15504  0.14999  0.52058  1.0000
  C   C659      1.0  0.14396  0.16308  0.53282  1.0000
  C   C660      1.0  0.13158  0.18166  0.52578  1.0000
  P   P22       1.0  0.14621  0.15668  0.55716  1.0000
  C   C661      1.0  0.12421  0.14738  0.57292  1.0000
  C   C662      1.0  0.16969  0.13796  0.55903  1.0000
  C   C663      1.0  0.16956  0.11755  0.56850  1.0000
  C   C664      1.0  0.18795  0.10327  0.56930  1.0000
  C   C665      1.0  0.20658  0.10918  0.56048  1.0000
  C   C666      1.0  0.20682  0.12932  0.55065  1.0000
  C   C667      1.0  0.18845  0.14358  0.54979  1.0000
  C   C668      1.0  0.12438  0.13858  0.59202  1.0000
  C   C669      1.0  0.10710  0.13235  0.60448  1.0000
  C   C670      1.0  0.08960  0.13443  0.59794  1.0000
  C   C671      1.0  0.08935  0.14286  0.57890  1.0000
  C   C672      1.0  0.10655  0.14938  0.56643  1.0000
  C   C673      1.0  0.14854  0.17960  0.56268  1.0000
  C   C674      1.0  0.15828  0.19404  0.54859  1.0000
  C   C675      1.0  0.15976  0.21192  0.55267  1.0000
  H   H525      1.0  0.34600  0.15404  0.63136  1.0000
  C   C676      1.0  0.14213  0.20129  0.58491  1.0000
  C   C677      1.0  0.14053  0.18342  0.58091  1.0000
  H   H526      1.0  0.43749  0.11883  0.72915  1.0000
  C   C678      1.0  0.25991  0.18238  0.62122  1.0000
  H   H527      1.0  0.12993  0.03978  0.62747  1.0000
  H   H528      1.0  0.16462  0.13553  0.52559  1.0000
  H   H529      1.0  0.12284  0.19193  0.53501  1.0000
  H   H530      1.0  0.15541  0.11249  0.57537  1.0000
  H   H531      1.0  0.18769  0.08773  0.57717  1.0000
  H   H532      1.0  0.22080  0.09819  0.56137  1.0000
  H   H533      1.0  0.22123  0.13398  0.54373  1.0000
  H   H534      1.0  0.18886  0.15895  0.54173  1.0000
  H   H535      1.0  0.13782  0.13672  0.59739  1.0000
  H   H536      1.0  0.10722  0.12603  0.61927  1.0000
  H   H537      1.0  0.07623  0.12956  0.60770  1.0000
  H   H538      1.0  0.07573  0.14448  0.57390  1.0000
  H   H539      1.0  0.10592  0.15603  0.55181  1.0000
  H   H540      1.0  0.16487  0.19158  0.53442  1.0000
  H   H541      1.0  0.13655  0.20375  0.59915  1.0000
  H   H542      1.0  0.13334  0.17264  0.59228  1.0000
  C   C679      1.0  0.26088  0.13775  0.65198  1.0000
  C   C680      1.0  0.33402  0.16495  0.63812  1.0000
  C   C681      1.0  0.24192  0.14421  0.60107  1.0000
  H   H543      1.0  0.15359  0.22901  0.57413  1.0000
  H   H544      1.0  0.17324  0.27269  0.49703  1.0000
  C   C682      1.0  0.45277  0.10954  0.72692  1.0000
  C   C683      1.0  0.25125  0.13550  0.61649  1.0000
  H   H545      1.0  0.47937  0.04111  0.62234  1.0000
  C   C684      1.0  0.30200  0.25448  0.48713  1.0000
  C   C685      1.0  0.30221  0.15939  0.58978  1.0000
  C   C686      1.0  0.25942  0.20283  0.61189  1.0000
  C   C687      1.0  0.38627  0.15215  0.57880  1.0000
  C   C688      1.0  0.29607  0.23702  0.49980  1.0000
  C   C689      1.0  0.19915  0.18970  0.49940  1.0000
  C   C690      1.0  0.48791  0.04302  0.64702  1.0000
  C   C691      1.0  0.26553  0.11688  0.61661  1.0000
  C   C692      1.0  0.31043  0.17300  0.66662  1.0000
  H   H546      1.0  0.35753  0.22050  0.55144  1.0000
  C   C693      1.0  0.37623  0.17400  0.60722  1.0000
  C   C694      1.0  0.33729  0.23267  0.51259  1.0000
  H   H547      1.0  0.31213  0.12456  0.65032  1.0000
  H   H548      1.0  0.44669  0.23555  0.60447  1.0000
  H   H549      1.0  0.30008  0.15036  0.49076  1.0000
  C   C695      1.0  0.27153  0.10809  0.60082  1.0000
  C   C696      1.0  0.39548  0.16123  0.60358  1.0000
  H   H550      1.0  0.27193  0.10900  0.62883  1.0000
  H   H551      1.0  0.03738  0.16064  0.49970  1.0000
  H   H552      1.0  0.26736  0.10196  0.50864  1.0000
  H   H553      1.0  0.48610  0.09170  0.67634  1.0000
  C   C697      1.0  0.37242  0.31572  0.64074  1.0000
  C   C698      1.0  0.47619  0.07728  0.73470  1.0000
  C   C699      1.0  0.48963  0.00454  0.72793  1.0000
  C   C700      1.0  0.26980  0.32144  0.51847  1.0000
  C   C701      1.0  0.28871  0.12277  0.67588  1.0000
  C   C702      1.0  0.33663  0.21822  0.59554  1.0000
  H   H554      1.0  0.44522  0.30869  0.61342  1.0000
  C   C703      1.0  0.03944  0.02109  0.72019  1.0000
  H   H555      1.0  0.14138  0.26537  0.49537  1.0000
  H   H556      1.0  0.38409  0.31513  0.64794  1.0000
  H   H557      1.0  0.49384  0.06790  0.56139  1.0000
  C   C704      1.0  0.36185  0.31684  0.61240  1.0000
  H   H558      1.0  0.13416  0.23083  0.73548  1.0000
  C   C705      1.0  0.35238  0.31576  0.65110  1.0000
  C   C706      1.0  0.43644  0.32211  0.61865  1.0000
  H   H559      1.0  0.29838  0.07835  0.49545  1.0000
  H   H560      1.0  0.47242  0.14036  0.50409  1.0000
  P   P23       1.0  0.00942  0.07846  0.72719  1.0000
  C   C707      1.0  0.30004  0.13466  0.49146  1.0000
  C   C708      1.0  0.38881  0.12849  0.49397  1.0000
  C   C709      1.0  0.49231  0.08549  0.72183  1.0000
  C   C710      1.0  0.23082  0.26510  0.49603  1.0000
  S   S89       1.0  0.27427  0.32084  0.56899  1.0000
  H   H561      1.0  0.26850  0.13788  0.50615  1.0000
  C   C711      1.0  0.28200  0.12759  0.50030  1.0000
  C   C712      1.0  0.48831  0.08171  0.58507  1.0000
  H   H562      1.0  0.37577  0.27884  0.49496  1.0000
  C   C713      1.0  0.49131  0.09755  0.59132  1.0000
  S   S90       1.0  0.49482  0.17189  0.61696  1.0000
  H   H563      1.0  0.40022  0.32404  0.54151  1.0000
  C   C714      1.0  0.10275  0.09899  0.73487  1.0000
  H   H564      1.0  0.36516  0.31723  0.59743  1.0000
  H   H565      1.0  0.12216  0.20218  0.50110  1.0000
  H   H566      1.0  0.41815  0.02915  0.86690  1.0000
  C   C715      1.0  0.13395  0.00366  0.89056  1.0000
  C   C716      1.0  0.46318  0.01003  0.81641  1.0000
  C   C717      1.0  0.42281  0.01320  0.81484  1.0000
  H   H567      1.0  0.03131  0.17665  0.85465  1.0000
  H   H568      1.0  0.16699  0.02899  0.80710  1.0000
  H   H569      1.0  0.48117  0.00455  0.74234  1.0000
  H   H570      1.0  0.48361  0.18858  0.77285  1.0000
  H   H571      1.0  0.16552  0.32128  0.87973  1.0000
  H   H572      1.0  0.08863  0.25668  0.95328  1.0000
  C   C718      1.0  0.02329  0.08438  0.74136  1.0000
  C   C719      1.0  0.01740  0.10348  0.74632  1.0000
  C   C720      1.0  0.25526  0.29637  0.95400  1.0000
  C   C721      1.0  0.08362  0.03920  0.79120  1.0000
  C   C722      1.0  0.47560  0.13749  0.81383  1.0000
  C   C723      1.0  0.08068  0.00411  0.79631  1.0000
  H   H573      1.0  0.19735  0.16048  0.94247  1.0000
  C   C724      1.0  0.00569  0.08535  0.84600  1.0000
  C   C725      1.0  0.43691  0.01967  0.79845  1.0000
  C   C726      1.0  0.03076  0.99756  0.77399  1.0000
  Fe  Fe42      1.0  0.14848  0.20317  0.88942  1.0000
  S   S91       1.0  0.12755  0.20490  0.91780  1.0000
  S   S92       1.0  0.15151  0.18320  0.86898  1.0000
  Fe  Fe43      1.0  0.17188  0.23851  0.88858  1.0000
  S   S93       1.0  0.15006  0.24132  0.91782  1.0000
  S   S94       1.0  0.20789  0.26809  0.86247  1.0000
  Fe  Fe44      1.0  0.15513  0.20748  0.92630  1.0000
  S   S95       1.0  0.16110  0.19228  0.95545  1.0000
  Fe  Fe45      1.0  0.12422  0.23881  0.90725  1.0000
  S   S96       1.0  0.09528  0.26200  0.91364  1.0000
  S   S97       1.0  0.17640  0.20309  0.89874  1.0000
  S   S98       1.0  0.14314  0.23696  0.87845  1.0000
  Fe  Fe46      1.0  0.09362  0.08157  0.83352  1.0000
  S   S99       1.0  0.07343  0.09007  0.86012  1.0000
  Fe  Fe47      1.0  0.07709  0.12104  0.80856  1.0000
  S   S100      1.0  0.05533  0.13282  0.83315  1.0000
  S   S101      1.0  0.07587  0.13868  0.77875  1.0000
  Fe  Fe48      1.0  0.08161  0.12092  0.84779  1.0000
  S   S102      1.0  0.08298  0.13831  0.86876  1.0000
  Fe  Fe49      1.0  0.04895  0.10132  0.84357  1.0000
  S   S103      1.0  0.01701  0.09645  0.85774  1.0000
  S   S104      1.0  0.10415  0.11142  0.82226  1.0000
  S   S105      1.0  0.06855  0.09057  0.81779  1.0000
  H   H574      1.0  0.19133  0.00941  0.92662  1.0000
  C   C727      1.0  0.01696  0.07775  0.83010  1.0000
  C   C728      1.0  0.00114  0.02459  0.77930  1.0000
  H   H575      1.0  0.01727  0.19875  0.78786  1.0000
  H   H576      1.0  0.02949  0.23127  0.77857  1.0000
  H   H577      1.0  0.46658  0.12622  0.81607  1.0000
  H   H578      1.0  0.03295  0.07779  0.82543  1.0000
  C   C729      1.0  0.47048  0.07484  0.79537  1.0000
  C   C730      1.0  0.18219  0.32117  0.84019  1.0000
  C   C731      1.0  0.39461  0.02147  0.85812  1.0000
  H   H579      1.0  0.14235  0.03489  0.73850  1.0000
  C   C732      1.0  0.17843  0.22352  0.95575  1.0000
  H   H580      1.0  0.17833  0.22880  0.94095  1.0000
  C   C733      1.0  0.13287  0.16978  0.86968  1.0000
  C   C734      1.0  0.11550  0.16899  0.88433  1.0000
  C   C735      1.0  0.10059  0.15894  0.88397  1.0000
  C   C736      1.0  0.10288  0.14956  0.86903  1.0000
  C   C737      1.0  0.12051  0.14984  0.85464  1.0000
  C   C738      1.0  0.13543  0.15992  0.85497  1.0000
  H   H581      1.0  0.11341  0.17637  0.89579  1.0000
  H   H582      1.0  0.08704  0.15869  0.89522  1.0000
  H   H583      1.0  0.12248  0.14248  0.84321  1.0000
  H   H584      1.0  0.14891  0.16033  0.84368  1.0000
  C   C739      1.0  0.24273  0.30610  0.87794  1.0000
  C   C740      1.0  0.25112  0.29601  0.86305  1.0000
  C   C741      1.0  0.23973  0.28533  0.85817  1.0000
  C   C742      1.0  0.22001  0.28385  0.86856  1.0000
  C   C743      1.0  0.21125  0.29428  0.88334  1.0000
  C   C744      1.0  0.22257  0.30561  0.88793  1.0000
  H   H585      1.0  0.26667  0.29621  0.85533  1.0000
  H   H586      1.0  0.24659  0.27743  0.84673  1.0000
  H   H587      1.0  0.19610  0.29314  0.89154  1.0000
  H   H588      1.0  0.21603  0.31321  0.89959  1.0000
  H   H589      1.0  0.40718  0.01471  0.81403  1.0000
  C   C745      1.0  0.06421  0.02391  0.85144  1.0000
  H   H590      1.0  0.15329  0.14107  0.80959  1.0000
  C   C746      1.0  0.09542  0.24356  0.96282  1.0000
  C   C747      1.0  0.10883  0.20716  0.97036  1.0000
  C   C748      1.0  0.16196  0.00767  0.85413  1.0000
  H   H591      1.0  0.02961  0.29078  0.96791  1.0000
  S   S106      1.0  0.25925  0.31672  0.88459  1.0000
  H   H592      1.0  0.23762  0.21411  0.96114  1.0000
  C   C749      1.0  0.08603  0.12341  0.76187  1.0000
  H   H593      1.0  0.11173  0.07540  0.75801  1.0000
  H   H594      1.0  0.47448  0.22220  0.75206  1.0000
  C   C750      1.0  0.14253  0.04031  0.75056  1.0000
  H   H595      1.0  0.16302  0.02281  0.90980  1.0000
  C   C751      1.0  0.01832  0.17332  0.85168  1.0000
  C   C752      1.0  0.06154  0.32320  0.95912  1.0000
  C   C753      1.0  0.12381  0.30858  0.88596  1.0000
  C   C754      1.0  0.11855  0.28942  0.89197  1.0000
  C   C755      1.0  0.10145  0.28622  0.90639  1.0000
  C   C756      1.0  0.08960  0.30229  0.91498  1.0000
  H   H596      1.0  0.13689  0.31096  0.87456  1.0000
  H   H597      1.0  0.10328  0.04518  0.74119  1.0000
  H   H598      1.0  0.12744  0.27719  0.88517  1.0000
  H   H599      1.0  0.07632  0.29986  0.92613  1.0000
  H   H600      1.0  0.01215  0.20182  0.83183  1.0000
  H   H601      1.0  0.09775  0.09686  0.78154  1.0000
  H   H602      1.0  0.05506  0.09915  0.76877  1.0000
  H   H603      1.0  0.39730  0.06241  0.87313  1.0000
  H   H604      1.0  0.00555  0.13674  0.82173  1.0000
  H   H605      1.0  0.06995  0.05370  0.84777  1.0000
  C   C757      1.0  0.14313  0.05537  0.78111  1.0000
  C   C758      1.0  0.10692  0.25583  0.77038  1.0000
  C   C759      1.0  0.03562  0.01438  0.89732  1.0000
  C   C760      1.0  0.11765  0.21688  0.76252  1.0000
  C   C761      1.0  0.10542  0.21983  0.78015  1.0000
  C   C762      1.0  0.09987  0.23952  0.78388  1.0000
  P   P24       1.0  0.09563  0.19896  0.79735  1.0000
  C   C763      1.0  0.09379  0.20186  0.82086  1.0000
  C   C764      1.0  0.07060  0.19912  0.79459  1.0000
  C   C765      1.0  0.05814  0.21733  0.78698  1.0000
  C   C766      1.0  0.03891  0.21722  0.78467  1.0000
  C   C767      1.0  0.03199  0.19896  0.78993  1.0000
  C   C768      1.0  0.04416  0.18086  0.79775  1.0000
  C   C769      1.0  0.06331  0.18095  0.80021  1.0000
  C   C770      1.0  0.10838  0.21004  0.82443  1.0000
  C   C771      1.0  0.10675  0.21264  0.84254  1.0000
  C   C772      1.0  0.09061  0.20707  0.85718  1.0000
  C   C773      1.0  0.07637  0.19841  0.85388  1.0000
  C   C774      1.0  0.07798  0.19570  0.83581  1.0000
  C   C775      1.0  0.11301  0.17515  0.79380  1.0000
  C   C776      1.0  0.12845  0.16642  0.80403  1.0000
  C   C777      1.0  0.13972  0.13803  0.78835  1.0000
  C   C778      1.0  0.12457  0.14674  0.77793  1.0000
  C   C779      1.0  0.11135  0.16528  0.78055  1.0000
  C   C780      1.0  0.11727  0.00665  0.88244  1.0000
  H   H606      1.0  0.12179  0.20200  0.75908  1.0000
  H   H607      1.0  0.09000  0.24229  0.79719  1.0000
  H   H608      1.0  0.06324  0.23161  0.78268  1.0000
  H   H609      1.0  0.00540  0.06054  0.88385  1.0000
  C   C781      1.0  0.99939  0.99725  0.76590  1.0000
  H   H610      1.0  0.03899  0.16659  0.80160  1.0000
  H   H611      1.0  0.07260  0.16672  0.80617  1.0000
  H   H612      1.0  0.12120  0.21412  0.81334  1.0000
  H   H613      1.0  0.11832  0.21841  0.84542  1.0000
  H   H614      1.0  0.08964  0.20871  0.87129  1.0000
  H   H615      1.0  0.06450  0.19311  0.86549  1.0000
  H   H616      1.0  0.06710  0.18846  0.83372  1.0000
  H   H617      1.0  0.13019  0.17367  0.81428  1.0000
  H   H618      1.0  0.12268  0.13892  0.76813  1.0000
  H   H619      1.0  0.09963  0.17166  0.77239  1.0000
  H   H620      1.0  0.49302  0.15544  0.75400  1.0000
  C   C782      1.0  0.07670  0.03819  0.84631  1.0000
  H   H621      1.0  0.24437  0.31002  0.95719  1.0000
  H   H622      1.0  0.47892  0.00841  0.81696  1.0000
  H   H623      1.0  0.18472  0.28695  0.98459  1.0000
  H   H624      1.0  0.45769  0.07005  0.79355  1.0000
  H   H625      1.0  0.29487  0.24833  0.94149  1.0000
  H   H626      1.0  0.21408  0.13651  0.92107  1.0000
  C   C783      1.0  0.11044  0.01239  0.75155  1.0000
  H   H627      1.0  0.31634  0.32442  0.93273  1.0000
  H   H628      1.0  0.12907  0.26336  0.94800  1.0000
  H   H629      1.0  0.29645  0.31126  0.85159  1.0000
  C   C784      1.0  0.28151  0.30919  0.98333  1.0000
  H   H630      1.0  0.03004  0.02304  0.78529  1.0000
  C   C785      1.0  0.40273  0.03400  0.86459  1.0000
  C   C786      1.0  0.26284  0.28110  0.96841  1.0000
  C   C787      1.0  0.18739  0.23346  0.96419  1.0000
  H   H631      1.0  0.02451  0.12366  0.75962  1.0000
  H   H632      1.0  0.43229  0.02587  0.78508  1.0000
  H   H633      1.0  0.34789  0.05240  0.85539  1.0000
  C   C788      1.0  0.14784  0.29786  0.96923  1.0000
  C   C789      1.0  0.17319  0.30956  0.83367  1.0000
  C   C790      1.0  0.13241  0.04005  0.78400  1.0000
  H   H634      1.0  0.01603  0.06561  0.80708  1.0000
  H   H635      1.0  0.47984  0.08778  0.76575  1.0000
  C   C791      1.0  0.99918  0.03151  0.88490  1.0000
  C   C792      1.0  0.49187  0.07619  0.81545  1.0000
  C   C793      1.0  0.00736  0.07066  0.81986  1.0000
  C   C794      1.0  0.42892  0.00470  0.83210  1.0000
  H   H636      1.0  0.06577  0.06550  0.75999  1.0000
  C   C795      1.0  0.16251  0.02275  0.83733  1.0000
  C   C796      1.0  0.17609  0.01168  0.90460  1.0000
  C   C797      1.0  0.48304  0.08470  0.77962  1.0000
  C   C798      1.0  0.28378  0.26171  0.94502  1.0000
  C   C799      1.0  0.12466  0.23324  0.74904  1.0000
  C   C800      1.0  0.49140  0.13970  0.79780  1.0000
  H   H637      1.0  0.00076  0.02297  0.85101  1.0000
  C   C801      1.0  0.08415  0.13140  0.74304  1.0000
  H   H638      1.0  0.48787  0.04520  0.87680  1.0000
  C   C802      1.0  0.14170  0.14791  0.80134  1.0000
  H   H639      1.0  0.17387  0.99256  0.80567  1.0000
  H   H640      1.0  0.18158  0.29460  0.83132  1.0000
  H   H641      1.0  0.14612  0.30767  0.82625  1.0000
  H   H642      1.0  0.28063  0.27519  0.91625  1.0000
  C   C803      1.0  0.07831  0.30937  0.96525  1.0000
  C   C804      1.0  0.09881  0.22424  0.95910  1.0000
  C   C805      1.0  0.02149  0.01575  0.78004  1.0000
  C   C806      1.0  0.47137  0.14992  0.82673  1.0000
  C   C807      1.0  0.02883  0.10875  0.75617  1.0000
  H   H643      1.0  0.25527  0.30569  0.92438  1.0000
  C   C808      1.0  0.45647  0.05714  0.88816  1.0000
  C   C809      1.0  0.43886  0.07177  0.88506  1.0000
  C   C810      1.0  0.43916  0.08592  0.86782  1.0000
  C   C811      1.0  0.45704  0.08541  0.85367  1.0000
  C   C812      1.0  0.47473  0.07059  0.85660  1.0000
  C   C813      1.0  0.47438  0.05660  0.87404  1.0000
  H   H644      1.0  0.08731  0.00123  0.88614  1.0000
  C   C814      1.0  0.01057  0.04410  0.88712  1.0000
  H   H645      1.0  0.15305  0.30748  0.97518  1.0000
  C   C815      1.0  0.47491  0.07047  0.81323  1.0000
  H   H646      1.0  0.31301  0.31375  0.81759  1.0000
  C   C816      1.0  0.07748  0.28873  0.97276  1.0000
  C   C817      1.0  0.16680  0.01727  0.81995  1.0000
  H   H647      1.0  0.07636  0.14706  0.73889  1.0000
  H   H648      1.0  0.04998  0.00779  0.90164  1.0000
  C   C818      1.0  0.49023  0.21398  0.75027  1.0000
  H   H649      1.0  0.28360  0.25200  0.97464  1.0000
  C   C819      1.0  0.09366  0.99767  0.84326  1.0000
  C   C820      1.0  0.04308  0.29602  0.96742  1.0000
  H   H650      1.0  0.36851  0.01931  0.84896  1.0000
  C   C821      1.0  0.04070  0.07059  0.74660  1.0000
  H   H651      1.0  0.45629  0.04622  0.90156  1.0000
  H   H652      1.0  0.42504  0.07219  0.89606  1.0000
  H   H653      1.0  0.42554  0.09734  0.86545  1.0000
  H   H654      1.0  0.45707  0.09653  0.84044  1.0000
  C   C822      1.0  0.18879  0.22615  0.98314  1.0000
  H   H655      1.0  0.46540  0.06221  0.82516  1.0000
  C   C823      1.0  0.09226  0.01930  0.78837  1.0000
  H   H656      1.0  0.15913  0.03879  0.83755  1.0000
  C   C824      1.0  0.10384  0.03033  0.73888  1.0000
  H   H657      1.0  0.04592  0.05590  0.74277  1.0000
  C   C825      1.0  0.11936  0.25269  0.75298  1.0000
  H   H658      1.0  0.12479  0.26535  0.74251  1.0000
  C   C826      1.0  0.07261  0.00369  0.84979  1.0000
  H   H659      1.0  0.39947  0.99824  0.89369  1.0000
  P   P25       1.0  0.41022  0.99748  0.85328  1.0000
  H   H660      1.0  0.01747  0.11504  0.79856  1.0000
  C   C827      1.0  0.26956  0.22758  0.84956  1.0000
  C   C828      1.0  0.28737  0.21833  0.85628  1.0000
  C   C829      1.0  0.28607  0.20916  0.87540  1.0000
  C   C830      1.0  0.26697  0.20939  0.88779  1.0000
  C   C831      1.0  0.24893  0.21889  0.88123  1.0000
  C   C832      1.0  0.25045  0.22776  0.86192  1.0000
  P   P26       1.0  0.22464  0.21887  0.89810  1.0000
  C   C833      1.0  0.22187  0.19255  0.90566  1.0000
  C   C834      1.0  0.22857  0.22853  0.91659  1.0000
  C   C835      1.0  0.23189  0.21583  0.93401  1.0000
  C   C836      1.0  0.23599  0.22373  0.94742  1.0000
  C   C837      1.0  0.23732  0.24421  0.94345  1.0000
  C   C838      1.0  0.23513  0.25664  0.92584  1.0000
  C   C839      1.0  0.23116  0.24869  0.91244  1.0000
  C   C840      1.0  0.20972  0.18564  0.92332  1.0000
  C   C841      1.0  0.20714  0.16546  0.92893  1.0000
  C   C842      1.0  0.21647  0.15202  0.91684  1.0000
  C   C843      1.0  0.22840  0.15879  0.89911  1.0000
  C   C844      1.0  0.23106  0.17898  0.89350  1.0000
  C   C845      1.0  0.20255  0.23466  0.88841  1.0000
  C   C846      1.0  0.19918  0.23175  0.87032  1.0000
  C   C847      1.0  0.18318  0.24680  0.86043  1.0000
  C   C848      1.0  0.17010  0.26498  0.86871  1.0000
  C   C849      1.0  0.17303  0.26776  0.88692  1.0000
  C   C850      1.0  0.18919  0.25255  0.89674  1.0000
  H   H661      1.0  0.27049  0.23476  0.83475  1.0000
  H   H662      1.0  0.30216  0.21830  0.84668  1.0000
  H   H663      1.0  0.29985  0.20197  0.88066  1.0000
  H   H664      1.0  0.26625  0.20222  0.90258  1.0000
  H   H665      1.0  0.23713  0.23498  0.85619  1.0000
  H   H666      1.0  0.23163  0.19981  0.93742  1.0000
  H   H667      1.0  0.46808  0.02271  0.78643  1.0000
  H   H668      1.0  0.24000  0.25037  0.95405  1.0000
  H   H669      1.0  0.23663  0.27242  0.92244  1.0000
  H   H670      1.0  0.23052  0.25807  0.89861  1.0000
  H   H671      1.0  0.20159  0.19603  0.93251  1.0000
  H   H672      1.0  0.09185  0.31486  0.96406  1.0000
  C   C851      1.0  0.27581  0.27679  0.93081  1.0000
  H   H673      1.0  0.23527  0.14848  0.88958  1.0000
  H   H674      1.0  0.23995  0.18402  0.87953  1.0000
  H   H675      1.0  0.20862  0.21916  0.86410  1.0000
  H   H676      1.0  0.18138  0.24488  0.84728  1.0000
  H   H677      1.0  0.15902  0.27603  0.86147  1.0000
  H   H678      1.0  0.16400  0.28081  0.89267  1.0000
  H   H679      1.0  0.19146  0.25508  0.90942  1.0000
  C   C852      1.0  0.05205  0.07593  0.75648  1.0000
  C   C853      1.0  0.15361  0.06314  0.76296  1.0000
  C   C854      1.0  0.39100  0.05286  0.86805  1.0000
  S   S107      1.0  0.47962  0.05226  0.74861  1.0000
  C   C855      1.0  0.19209  0.00419  0.91415  1.0000
  H   H680      1.0  0.09173  0.05150  0.78459  1.0000
  P   P27       1.0  0.15570  0.01456  0.87677  1.0000
  C   C856      1.0  0.14969  0.04209  0.87385  1.0000
  H   H681      1.0  0.11757  0.01543  0.86819  1.0000
  C   C857      1.0  0.48309  0.16445  0.82366  1.0000
  H   H682      1.0  0.10268  0.27094  0.77339  1.0000
  H   H683      1.0  0.22180  0.27595  0.97829  1.0000
  C   C858      1.0  0.10006  0.99874  0.89271  1.0000
  H   H684      1.0  0.05241  0.99680  0.81417  1.0000
  C   C859      1.0  0.16565  0.05274  0.86828  1.0000
  C   C860      1.0  0.16138  0.07400  0.86598  1.0000
  C   C861      1.0  0.14115  0.08481  0.86916  1.0000
  C   C862      1.0  0.12520  0.07437  0.87461  1.0000
  C   C863      1.0  0.12938  0.05313  0.87688  1.0000
  C   C864      1.0  0.02881  0.03558  0.89325  1.0000
  C   C865      1.0  0.45710  0.01799  0.79922  1.0000
  C   C866      1.0  0.00756  0.18741  0.83878  1.0000
  H   H685      1.0  0.15449  0.31383  0.91412  1.0000
  H   H686      1.0  0.36209  0.07405  0.86753  1.0000
  H   H687      1.0  0.01619  0.03442  0.74111  1.0000
  C   C867      1.0  0.06406  0.04358  0.80244  1.0000
  H   H688      1.0  0.04790  0.02870  0.85627  1.0000
  C   C868      1.0  0.02420  0.00171  0.89526  1.0000
  H   H689      1.0  0.47987  0.17409  0.83364  1.0000
  C   C869      1.0  0.09604  0.10317  0.76716  1.0000
  C   C870      1.0  0.26153  0.29405  0.93535  1.0000
  P   P28       1.0  0.11675  0.01382  0.77261  1.0000
  H   H690      1.0  0.18141  0.04460  0.86566  1.0000
  H   H691      1.0  0.13776  0.10129  0.86740  1.0000
  H   H692      1.0  0.10954  0.08285  0.87700  1.0000
  H   H693      1.0  0.11667  0.04559  0.88086  1.0000
  H   H694      1.0  0.19735  0.31485  0.84297  1.0000
  H   H695      1.0  0.03786  0.04548  0.89439  1.0000
  H   H696      1.0  0.05856  0.26638  0.97983  1.0000
  H   H697      1.0  0.12252  0.00734  0.83309  1.0000
  C   C871      1.0  0.12218  0.27947  0.97049  1.0000
  C   C872      1.0  0.17066  0.20622  0.96620  1.0000
  C   C873      1.0  0.15327  0.31691  0.83086  1.0000
  C   C874      1.0  0.09508  0.32148  0.90918  1.0000
  H   H698      1.0  0.00417  0.11442  0.74225  1.0000
  C   C875      1.0  0.04610  0.09496  0.76131  1.0000
  C   C876      1.0  0.27734  0.26384  0.96379  1.0000
  C   C877      1.0  0.16000  0.29069  0.95331  1.0000
  C   C878      1.0  0.37486  0.02834  0.85458  1.0000
  C   C879      1.0  0.06115  0.00858  0.80763  1.0000
  C   C880      1.0  0.11219  0.32461  0.89462  1.0000
  H   H699      1.0  0.17481  0.29459  0.94691  1.0000
  C   C881      1.0  0.00586  0.01018  0.88906  1.0000
  C   C882      1.0  0.13148  0.03289  0.76867  1.0000
  H   H700      1.0  0.14289  0.06146  0.79295  1.0000
  H   H701      1.0  0.28433  0.30766  0.96892  1.0000
  C   C883      1.0  0.05291  0.02824  0.81083  1.0000
  C   C884      1.0  0.10621  0.01202  0.83802  1.0000
  H   H702      1.0  0.09426  0.22268  0.94703  1.0000
  H   H703      1.0  0.45429  0.99763  0.84592  1.0000
  C   C885      1.0  0.44916  0.00353  0.83282  1.0000
  C   C886      1.0  0.09771  0.03236  0.83944  1.0000
  H   H704      1.0  0.16153  0.07534  0.76063  1.0000
  C   C887      1.0  0.45644  0.08929  0.73698  1.0000
  H   H705      1.0  0.19371  0.24656  0.95587  1.0000
  C   C888      1.0  0.04401  0.31655  0.96006  1.0000
  S   S108      1.0  0.11343  0.05023  0.83341  1.0000
  C   C889      1.0  0.17058  0.99676  0.81916  1.0000
  C   C890      1.0  0.05965  0.28219  0.97392  1.0000
  C   C891      1.0  0.10417  0.09103  0.75375  1.0000
  H   H706      1.0  0.16242  0.27282  0.93332  1.0000
  H   H707      1.0  0.17373  0.08213  0.86172  1.0000
  C   C892      1.0  0.15306  0.27838  0.94567  1.0000
  H   H708      1.0  0.14967  0.12347  0.78656  1.0000
  C   C893      1.0  0.15344  0.05549  0.74773  1.0000
  H   H709      1.0  0.05762  0.05887  0.80475  1.0000
  H   H710      1.0  0.45904  0.14828  0.83909  1.0000
  H   H711      1.0  0.02107  0.14356  0.87038  1.0000
  H   H712      1.0  0.44395  0.08306  0.74689  1.0000
  C   C894      1.0  0.13417  0.27292  0.95412  1.0000
  H   H713      1.0  0.03800  0.03146  0.82004  1.0000
  H   H714      1.0  0.12435  0.03420  0.79816  1.0000
  C   C895      1.0  0.36316  0.04721  0.85807  1.0000
  C   C896      1.0  0.17683  0.00471  0.88860  1.0000
  C   C897      1.0  0.37118  0.05943  0.86487  1.0000
  C   C898      1.0  0.01252  0.15469  0.86061  1.0000
  H   H715      1.0  0.49436  0.12995  0.78803  1.0000
  C   C899      1.0  0.10140  0.24593  0.97825  1.0000
  C   C900      1.0  0.30383  0.32388  0.84373  1.0000
  C   C901      1.0  0.10959  0.99349  0.74890  1.0000
  C   C902      1.0  0.31315  0.32533  0.82461  1.0000
  C   C903      1.0  0.12906  0.29223  0.97781  1.0000
  C   C904      1.0  0.00128  0.12124  0.80274  1.0000
  H   H716      1.0  0.11234  0.19230  0.96693  1.0000
  H   H717      1.0  0.00184  0.02244  0.81848  1.0000
  C   C905      1.0  0.99833  0.00951  0.82969  1.0000
  H   H718      1.0  0.48536  0.10715  0.85443  1.0000
  P   P29       1.0  0.09847  0.27111  0.98211  1.0000
  C   C906      1.0  0.99758  0.00981  0.84830  1.0000
  C   C907      1.0  0.99611  0.15005  0.85655  1.0000
  C   C908      1.0  0.13330  0.99230  0.90917  1.0000
  C   C909      1.0  0.17140  0.19933  0.98536  1.0000
  C   C910      1.0  0.11536  0.20942  0.98544  1.0000
  C   C911      1.0  0.01554  0.63200  0.22650  1.0000
  C   C912      1.0  0.41110  0.41538  0.04256  1.0000
  C   C913      1.0  0.06512  0.41048  0.00111  1.0000
  Fe  Fe50      1.0  0.40486  0.59473  0.19270  1.0000
  S   S109      1.0  0.41254  0.62008  0.16769  1.0000
  H   H719      1.0  0.43873  0.42999  0.98991  1.0000
  Fe  Fe51      1.0  0.41492  0.56290  0.16890  1.0000
  S   S110      1.0  0.42354  0.58527  0.14197  1.0000
  S   S111      1.0  0.42141  0.52877  0.17177  1.0000
  Fe  Fe52      1.0  0.43937  0.59626  0.15817  1.0000
  Fe  Fe53      1.0  0.39596  0.60732  0.15346  1.0000
  S   S112      1.0  0.37492  0.62597  0.13403  1.0000
  S   S113      1.0  0.43326  0.57201  0.18425  1.0000
  S   S114      1.0  0.38577  0.58387  0.17933  1.0000
  Fe  Fe54      1.0  0.06946  0.40463  0.06410  1.0000
  S   S115      1.0  0.05268  0.38733  0.09095  1.0000
  C   C914      1.0  0.49163  0.40286  0.14199  1.0000
  Fe  Fe55      1.0  0.10192  0.40713  0.08267  1.0000
  H   H720      1.0  0.44149  0.42600  0.21955  1.0000
  S   S116      1.0  0.13000  0.42041  0.07501  1.0000
  Fe  Fe56      1.0  0.05821  0.40917  0.10515  1.0000
  S   S117      1.0  0.03217  0.41980  0.12817  1.0000
  S   S118      1.0  0.07222  0.42824  0.07789  1.0000
  Fe  Fe57      1.0  0.37805  0.40726  0.14687  1.0000
  S   S119      1.0  0.39867  0.39008  0.16718  1.0000
  S   S120      1.0  0.36167  0.38638  0.13970  1.0000
  Fe  Fe58      1.0  0.38939  0.44766  0.14517  1.0000
  S   S121      1.0  0.41071  0.43331  0.16488  1.0000
  S   S122      1.0  0.38339  0.48186  0.13314  1.0000
  Fe  Fe59      1.0  0.42159  0.40857  0.14869  1.0000
  Fe  Fe60      1.0  0.38645  0.41614  0.18198  1.0000
  S   S123      1.0  0.37785  0.41179  0.21390  1.0000
  S   S124      1.0  0.40221  0.42411  0.12731  1.0000
  S   S125      1.0  0.36389  0.43206  0.16343  1.0000
  C   C915      1.0  0.44616  0.37672  0.10363  1.0000
  H   H721      1.0  0.37220  0.65419  0.17359  1.0000
  C   C916      1.0  0.11132  0.42241  0.00469  1.0000
  H   H722      1.0  0.03535  0.33867  0.10433  1.0000
  C   C917      1.0  0.33702  0.37125  0.12592  1.0000
  C   C918      1.0  0.35345  0.45605  0.08287  1.0000
  C   C919      1.0  0.47222  0.44490  0.17622  1.0000
  C   C920      1.0  0.36973  0.47548  0.18735  1.0000
  S   S126      1.0  0.03505  0.48921  0.16656  1.0000
  H   H723      1.0  0.44365  0.39513  0.05759  1.0000
  C   C921      1.0  0.49415  0.34698  0.12635  1.0000
  C   C922      1.0  0.08966  0.38278  0.98858  1.0000
  H   H724      1.0  0.20580  0.35906  0.01155  1.0000
  Fe  Fe61      1.0  0.23792  0.36956  0.08670  1.0000
  C   C923      1.0  0.09423  0.37428  0.00646  1.0000
  H   H725      1.0  0.41108  0.43583  0.08260  1.0000
  C   C924      1.0  0.42717  0.57975  0.23534  1.0000
  C   C925      1.0  0.11394  0.33537  0.14483  1.0000
  C   C926      1.0  0.18620  0.38355  0.09794  1.0000
  S   S127      1.0  0.25403  0.39497  0.06989  1.0000
  C   C927      1.0  0.05383  0.33214  0.03340  1.0000
  C   C928      1.0  0.36395  0.43873  0.07561  1.0000
  C   C929      1.0  0.31853  0.38990  0.10098  1.0000
  C   C930      1.0  0.48506  0.53600  0.11311  1.0000
  C   C931      1.0  0.19744  0.35985  0.02579  1.0000
  C   C932      1.0  0.25054  0.36530  0.00714  1.0000
  H   H726      1.0  0.33855  0.52251  0.18460  1.0000
  C   C933      1.0  0.14558  0.33493  0.06887  1.0000
  H   H727      1.0  0.13418  0.34830  0.06484  1.0000
  C   C934      1.0  0.48503  0.64043  0.16607  1.0000
  C   C935      1.0  0.45262  0.38191  0.08400  1.0000
  H   H728      1.0  0.46759  0.52522  0.07968  1.0000
  H   H729      1.0  0.44820  0.48342  0.19019  1.0000
  S   S128      1.0  0.20757  0.37062  0.10763  1.0000
  H   H730      1.0  0.15614  0.32909  0.04093  1.0000
  C   C936      1.0  0.18629  0.40657  0.99642  1.0000
  S   S129      1.0  0.08843  0.33546  0.10639  1.0000
  S   S130      1.0  0.05730  0.41486  0.03740  1.0000
  H   H731      1.0  0.16871  0.36285  0.07698  1.0000
  H   H732      1.0  0.04188  0.33271  0.04605  1.0000
  H   H733      1.0  0.15290  0.38357  0.05071  1.0000
  H   H734      1.0  0.46694  0.46610  0.21569  1.0000
  S   S131      1.0  0.45523  0.39369  0.14298  1.0000
  H   H735      1.0  0.32183  0.42114  0.09011  1.0000
  H   H736      1.0  0.32435  0.40356  0.01066  1.0000
  C   C937      1.0  0.14419  0.40646  0.01300  1.0000
  C   C938      1.0  0.25561  0.38447  0.00041  1.0000
  C   C939      1.0  0.33877  0.40650  0.11207  1.0000
  H   H737      1.0  0.46006  0.45366  0.16907  1.0000
  H   H738      1.0  0.34412  0.41992  0.11138  1.0000
  S   S132      1.0  0.08819  0.38984  0.11105  1.0000
  C   C940      1.0  0.03264  0.44002  0.13782  1.0000
  C   C941      1.0  0.01686  0.44527  0.15293  1.0000
  C   C942      1.0  0.01717  0.46072  0.16147  1.0000
  C   C943      1.0  0.03332  0.47102  0.15499  1.0000
  C   C944      1.0  0.04888  0.46610  0.13954  1.0000
  C   C945      1.0  0.04853  0.45065  0.13098  1.0000
  H   H739      1.0  0.45760  0.63573  0.16109  1.0000
  Fe  Fe62      1.0  0.27124  0.33720  0.07107  1.0000
  H   H740      1.0  0.06128  0.47416  0.13425  1.0000
  H   H741      1.0  0.06053  0.44685  0.11916  1.0000
  C   C946      1.0  0.15141  0.40566  0.08386  1.0000
  C   C947      1.0  0.18823  0.39797  0.08088  1.0000
  C   C948      1.0  0.17081  0.40920  0.07399  1.0000
  H   H742      1.0  0.20317  0.40080  0.07322  1.0000
  H   H743      1.0  0.17241  0.42064  0.06096  1.0000
  C   C949      1.0  0.16679  0.37997  0.10782  1.0000
  S   S133      1.0  0.47113  0.60040  0.14371  1.0000
  C   C950      1.0  0.48369  0.61253  0.15320  1.0000
  H   H744      1.0  0.08798  0.37725  0.03530  1.0000
  H   H745      1.0  0.09325  0.49466  0.00162  1.0000
  C   C951      1.0  0.41728  0.39488  0.08103  1.0000
  H   H746      1.0  0.34506  0.39132  0.04580  1.0000
  C   C952      1.0  0.41341  0.42094  0.21648  1.0000
  H   H747      1.0  0.40974  0.44672  0.04305  1.0000
  H   H748      1.0  0.41828  0.42269  0.20139  1.0000
  C   C953      1.0  0.41128  0.51695  0.15951  1.0000
  C   C954      1.0  0.39409  0.52680  0.15186  1.0000
  C   C955      1.0  0.38594  0.51621  0.14319  1.0000
  C   C956      1.0  0.39485  0.49574  0.14229  1.0000
  C   C957      1.0  0.41259  0.48639  0.14911  1.0000
  C   C958      1.0  0.42071  0.49690  0.15771  1.0000
  H   H749      1.0  0.38680  0.54234  0.15305  1.0000
  H   H750      1.0  0.37232  0.52366  0.13776  1.0000
  H   H751      1.0  0.42027  0.47111  0.14757  1.0000
  H   H752      1.0  0.43439  0.48940  0.16297  1.0000
  C   C959      1.0  0.42770  0.40610  0.01236  1.0000
  H   H753      1.0  0.05375  0.42444  0.99912  1.0000
  C   C960      1.0  0.48529  0.53125  0.09611  1.0000
  C   C961      1.0  0.24596  0.35595  0.99501  1.0000
  C   C962      1.0  0.20595  0.34756  0.04090  1.0000
  H   H754      1.0  0.38947  0.36884  0.09204  1.0000
  C   C963      1.0  0.46476  0.43169  0.13385  1.0000
  C   C964      1.0  0.34462  0.38847  0.12492  1.0000
  C   C965      1.0  0.32396  0.37198  0.11419  1.0000
  H   H755      1.0  0.43344  0.57585  0.22173  1.0000
  C   C966      1.0  0.44559  0.63113  0.22111  1.0000
  H   H756      1.0  0.48860  0.51896  0.22653  1.0000
  H   H757      1.0  0.43316  0.64183  0.22768  1.0000
  C   C967      1.0  0.41779  0.40083  0.03129  1.0000
  H   H758      1.0  0.34347  0.35918  0.06984  1.0000
  C   C968      1.0  0.01341  0.36778  0.03514  1.0000
  H   H759      1.0  0.13947  0.36641  0.00875  1.0000
  C   C969      1.0  0.45734  0.60664  0.20111  1.0000
  C   C970      1.0  0.43285  0.37205  0.23105  1.0000
  C   C971      1.0  0.10621  0.48488  0.99446  1.0000
  C   C972      1.0  0.46542  0.62780  0.22398  1.0000
  H   H760      1.0  0.48831  0.46946  0.16817  1.0000
  Fe  Fe63      1.0  0.08365  0.36946  0.09482  1.0000
  H   H761      1.0  0.42843  0.53217  0.21624  1.0000
  C   C973      1.0  0.44836  0.53860  0.12210  1.0000
  H   H762      1.0  0.22721  0.32941  0.10517  1.0000
  C   C974      1.0  0.38448  0.45869  0.08966  1.0000
  H   H763      1.0  0.31845  0.35855  0.11510  1.0000
  C   C975      1.0  0.02675  0.59834  0.21905  1.0000
  H   H764      1.0  0.46460  0.53458  0.20510  1.0000
  C   C976      1.0  0.01612  0.38407  0.05873  1.0000
  H   H765      1.0  0.33723  0.46147  0.08342  1.0000
  C   C977      1.0  0.39502  0.44137  0.08244  1.0000
  H   H766      1.0  0.47699  0.40985  0.23465  1.0000
  C   C978      1.0  0.35675  0.65602  0.17209  1.0000
  H   H767      1.0  0.45723  0.37032  0.11247  1.0000
  H   H768      1.0  0.22280  0.42635  0.00325  1.0000
  C   C979      1.0  0.41099  0.38954  0.10074  1.0000
  C   C980      1.0  0.36368  0.46593  0.09003  1.0000
  C   C981      1.0  0.16921  0.37295  0.99396  1.0000
  H   H769      1.0  0.25018  0.35764  0.02170  1.0000
  H   H770      1.0  0.42033  0.37653  0.12720  1.0000
  H   H771      1.0  0.35108  0.52078  0.21260  1.0000
  C   C982      1.0  0.38328  0.54805  0.22813  1.0000
  H   H772      1.0  0.46564  0.54423  0.13894  1.0000
  H   H773      1.0  0.19916  0.40350  0.02046  1.0000
  H   H774      1.0  0.08945  0.34813  0.06658  1.0000
  H   H775      1.0  0.30581  0.38068  0.00535  1.0000
  H   H776      1.0  0.37496  0.46299  0.18012  1.0000
  H   H777      1.0  0.24210  0.34115  0.00034  1.0000
  H   H778      1.0  0.09764  0.33827  0.14566  1.0000
  C   C983      1.0  0.21250  0.42379  0.99607  1.0000
  H   H779      1.0  0.42718  0.45580  0.00973  1.0000
  H   H780      1.0  0.41058  0.36866  0.21776  1.0000
  Fe  Fe64      1.0  0.28257  0.37416  0.07856  1.0000
  H   H781      1.0  0.02776  0.58833  0.20993  1.0000
  H   H782      1.0  0.38821  0.46105  0.20779  1.0000
  H   H783      1.0  0.48843  0.65663  0.12816  1.0000
  H   H784      1.0  0.44464  0.61649  0.11281  1.0000
  C   C984      1.0  0.36883  0.39824  0.05478  1.0000
  C   C985      1.0  0.43107  0.42591  0.00458  1.0000
  C   C986      1.0  0.06986  0.40213  0.01891  1.0000
  C   C987      1.0  0.37727  0.47451  0.20297  1.0000
  P   P30       1.0  0.16898  0.38962  0.00867  1.0000
  C   C988      1.0  0.31419  0.39013  0.99337  1.0000
  S   S134      1.0  0.39214  0.60053  0.22215  1.0000
  C   C989      1.0  0.48132  0.61446  0.21456  1.0000
  H   H785      1.0  0.46679  0.38092  0.18055  1.0000
  C   C990      1.0  0.10546  0.43217  0.01976  1.0000
  C   C991      1.0  0.19916  0.41061  0.00576  1.0000
  H   H786      1.0  0.12381  0.47934  0.01548  1.0000
  C   C992      1.0  0.15249  0.36382  0.99724  1.0000
  C   C993      1.0  0.11935  0.43012  0.03073  1.0000
  S   S135      1.0  0.24271  0.35566  0.06196  1.0000
  H   H787      1.0  0.22073  0.33740  0.03829  1.0000
  C   C994      1.0  0.08440  0.38395  0.02158  1.0000
  S   S136      1.0  0.26562  0.34966  0.09705  1.0000
  S   S137      1.0  0.00805  0.51007  0.21329  1.0000
  C   C995      1.0  0.38035  0.37390  0.08152  1.0000
  H   H788      1.0  0.18755  0.32710  0.01748  1.0000
  C   C996      1.0  0.03329  0.59028  0.23600  1.0000
  C   C997      1.0  0.34914  0.50901  0.18992  1.0000
  C   C998      1.0  0.19566  0.34879  0.05935  1.0000
  P   P31       1.0  0.00382  0.65880  0.22021  1.0000
  C   C999      1.0  0.45923  0.52681  0.21948  1.0000
  C   C1000     1.0  0.45900  0.63506  0.98860  1.0000
  H   H789      1.0  0.14955  0.41676  0.03548  1.0000
  H   H790      1.0  0.42047  0.62918  0.09131  1.0000
  H   H791      1.0  0.13446  0.38816  0.10844  1.0000
  C   C1001     1.0  0.41860  0.48477  0.20891  1.0000
  H   H792      1.0  0.35945  0.65254  0.10267  1.0000
  C   C1002     1.0  0.44880  0.53300  0.10560  1.0000
  C   C1003     1.0  0.17673  0.36208  0.06265  1.0000
  H   H793      1.0  0.39538  0.65457  0.13969  1.0000
  H   H794      1.0  0.04044  0.37748  0.03528  1.0000
  H   H795      1.0  0.43397  0.54192  0.13193  1.0000
  H   H796      1.0  0.43477  0.53151  0.10299  1.0000
  H   H797      1.0  0.48945  0.59352  0.19601  1.0000
  C   C1004     1.0  0.47152  0.41059  0.13949  1.0000
  C   C1005     1.0  0.36704  0.36184  0.08191  1.0000
  H   H798      1.0  0.02496  0.39113  0.06394  1.0000
  H   H799      1.0  0.16521  0.36894  0.12109  1.0000
  C   C1006     1.0  0.14940  0.39086  0.10071  1.0000
  H   H800      1.0  0.00976  0.53971  0.23544  1.0000
  H   H801      1.0  0.09022  0.44142  0.02284  1.0000
  H   H802      1.0  0.29747  0.33251  0.00921  1.0000
  C   C1007     1.0  0.99600  0.38301  0.06809  1.0000
  S   S138      1.0  0.30350  0.39145  0.08453  1.0000
  C   C1008     1.0  0.42455  0.44045  0.01574  1.0000
  S   S139      1.0  0.26091  0.39664  0.01564  1.0000
  C   C1009     1.0  0.35644  0.50801  0.20573  1.0000
  H   H803      1.0  0.13792  0.33741  0.09759  1.0000
  C   C1010     1.0  0.37059  0.49072  0.21236  1.0000
  H   H804      1.0  0.01246  0.62489  0.20132  1.0000
  H   H805      1.0  0.39494  0.39291  0.10749  1.0000
  C   C1011     1.0  0.38477  0.43105  0.07561  1.0000
  C   C1012     1.0  0.02388  0.39945  0.99534  1.0000
  C   C1013     1.0  0.41462  0.43523  0.03468  1.0000
  C   C1014     1.0  0.32602  0.40713  0.10010  1.0000
  H   H806      1.0  0.42626  0.62305  0.20762  1.0000
  H   H807      1.0  0.04167  0.64600  0.19284  1.0000
  H   H808      1.0  0.45430  0.59862  0.19211  1.0000
  C   C1015     1.0  0.42536  0.38031  0.11196  1.0000
  C   C1016     1.0  0.06592  0.34215  0.99957  1.0000
  H   H809      1.0  0.15345  0.45687  0.99921  1.0000
  C   C1017     1.0  0.12345  0.47635  0.00224  1.0000
  C   C1018     1.0  0.46639  0.53993  0.12598  1.0000
  C   C1019     1.0  0.42590  0.37099  0.21573  1.0000
  C   C1020     1.0  0.43826  0.39092  0.07270  1.0000
  H   H810      1.0  0.20237  0.33950  0.07109  1.0000
  H   H811      1.0  0.11497  0.43820  0.04206  1.0000
  H   H812      1.0  0.36584  0.34806  0.09280  1.0000
  H   H813      1.0  0.41535  0.38538  0.03716  1.0000
  H   H814      1.0  0.35033  0.49353  0.16839  1.0000
  C   C1021     1.0  0.05016  0.34347  0.01569  1.0000
  P   P32       1.0  0.02498  0.35838  0.01376  1.0000
  H   H815      1.0  0.35511  0.62484  0.18592  1.0000
  H   H816      1.0  0.02168  0.40280  0.00900  1.0000
  P   P33       1.0  0.48904  0.38620  0.20568  1.0000
  C   C1022     1.0  0.15608  0.32847  0.14173  1.0000
  C   C1023     1.0  0.35572  0.49271  0.18080  1.0000
  H   H817      1.0  0.10079  0.42427  0.99592  1.0000
  C   C1024     1.0  0.09818  0.33270  0.06947  1.0000
  C   C1025     1.0  0.08508  0.32983  0.00118  1.0000
  C   C1026     1.0  0.43991  0.47976  0.20467  1.0000
  H   H818      1.0  0.47276  0.46122  0.12600  1.0000
  C   C1027     1.0  0.16788  0.37403  0.04756  1.0000
  Fe  Fe65      1.0  0.00673  0.50231  0.18657  1.0000
  H   H819      1.0  0.39225  0.55883  0.21868  1.0000
  C   C1028     1.0  0.13881  0.41764  0.02715  1.0000
  H   H820      1.0  0.46879  0.37927  0.07761  1.0000
  H   H821      1.0  0.39723  0.52477  0.21226  1.0000
  H   H822      1.0  0.36916  0.41239  0.04428  1.0000
  H   H823      1.0  0.44932  0.43783  0.13185  1.0000
  C   C1029     1.0  0.44205  0.63237  0.10541  1.0000
  C   C1030     1.0  0.47237  0.42443  0.18519  1.0000
  H   H824      1.0  0.34131  0.35720  0.13582  1.0000
  S   S140      1.0  0.10030  0.38502  0.06674  1.0000
  H   H825      1.0  0.46005  0.41790  0.18494  1.0000
  H   H826      1.0  0.10957  0.33177  0.04014  1.0000
  H   H827      1.0  0.35595  0.45842  0.23633  1.0000
  H   H828      1.0  0.19048  0.33242  0.10782  1.0000
  H   H829      1.0  0.35546  0.47899  0.09617  1.0000
  C   C1031     1.0  0.02484  0.37640  0.04240  1.0000
  C   C1032     1.0  0.45179  0.64583  0.10857  1.0000
  Fe  Fe66      1.0  0.26158  0.37905  0.04584  1.0000
  C   C1033     1.0  0.46443  0.37988  0.20999  1.0000
  C   C1034     1.0  0.46726  0.52941  0.09255  1.0000
  H   H830      1.0  0.39228  0.46620  0.09555  1.0000
  C   C1035     1.0  0.34712  0.63942  0.17902  1.0000
  C   C1036     1.0  0.43837  0.37384  0.19764  1.0000
  C   C1037     1.0  0.16900  0.41448  0.12984  1.0000
  C   C1038     1.0  0.17274  0.39708  0.14401  1.0000
  C   C1039     1.0  0.15720  0.39264  0.15979  1.0000
  C   C1040     1.0  0.13787  0.40558  0.16139  1.0000
  C   C1041     1.0  0.13397  0.42304  0.14713  1.0000
  C   C1042     1.0  0.14970  0.42745  0.13135  1.0000
  P   P34       1.0  0.10913  0.43994  0.14959  1.0000
  C   C1043     1.0  0.10649  0.45586  0.12665  1.0000
  C   C1044     1.0  0.08980  0.42460  0.15803  1.0000
  C   C1045     1.0  0.09281  0.40663  0.15166  1.0000
  C   C1046     1.0  0.07758  0.39517  0.15755  1.0000
  C   C1047     1.0  0.05926  0.40152  0.16977  1.0000
  C   C1048     1.0  0.05632  0.41907  0.17651  1.0000
  C   C1049     1.0  0.07149  0.43054  0.17074  1.0000
  C   C1050     1.0  0.11007  0.47582  0.12152  1.0000
  C   C1051     1.0  0.10801  0.48812  0.10379  1.0000
  C   C1052     1.0  0.10274  0.48051  0.09090  1.0000
  C   C1053     1.0  0.09971  0.46054  0.09569  1.0000
  C   C1054     1.0  0.10174  0.44818  0.11340  1.0000
  C   C1055     1.0  0.10621  0.45600  0.16575  1.0000
  C   C1056     1.0  0.12016  0.45199  0.17732  1.0000
  C   C1057     1.0  0.11748  0.46450  0.18986  1.0000
  C   C1058     1.0  0.10086  0.48104  0.19096  1.0000
  C   C1059     1.0  0.08701  0.48518  0.17941  1.0000
  C   C1060     1.0  0.08978  0.47285  0.16676  1.0000
  H   H831      1.0  0.18101  0.41764  0.11744  1.0000
  H   H832      1.0  0.18767  0.38694  0.14254  1.0000
  H   H833      1.0  0.16018  0.37913  0.17073  1.0000
  H   H834      1.0  0.12596  0.40203  0.17372  1.0000
  H   H835      1.0  0.14716  0.44070  0.12006  1.0000
  H   H836      1.0  0.10668  0.40177  0.14174  1.0000
  H   H837      1.0  0.07959  0.38172  0.15217  1.0000
  H   H838      1.0  0.04708  0.39320  0.17358  1.0000
  H   H839      1.0  0.04189  0.42433  0.18559  1.0000
  H   H840      1.0  0.06834  0.44436  0.17580  1.0000
  H   H841      1.0  0.11451  0.48194  0.13113  1.0000
  H   H842      1.0  0.11054  0.50355  0.10003  1.0000
  H   H843      1.0  0.10115  0.48998  0.07715  1.0000
  H   H844      1.0  0.09598  0.45450  0.08558  1.0000
  H   H845      1.0  0.09957  0.43269  0.11660  1.0000
  H   H846      1.0  0.13312  0.43931  0.17670  1.0000
  H   H847      1.0  0.12827  0.46136  0.19875  1.0000
  H   H848      1.0  0.09867  0.49065  0.20075  1.0000
  H   H849      1.0  0.07395  0.49786  0.18027  1.0000
  H   H850      1.0  0.07890  0.47634  0.15789  1.0000
  C   C1061     1.0  0.17841  0.37326  0.02894  1.0000
  C   C1062     1.0  0.38129  0.39230  0.06799  1.0000
  H   H851      1.0  0.10527  0.36009  0.00868  1.0000
  C   C1063     1.0  0.47378  0.63008  0.16030  1.0000
  P   P35       1.0  0.39847  0.40821  0.06700  1.0000
  H   H852      1.0  0.35553  0.43111  0.07063  1.0000
  C   C1064     1.0  0.35538  0.38624  0.05538  1.0000
  C   C1065     1.0  0.45046  0.47036  0.21908  1.0000
  H   H853      1.0  0.32016  0.62846  0.18175  1.0000
  H   H854      1.0  0.13470  0.40273  0.98924  1.0000
  C   C1066     1.0  0.13061  0.40980  0.00119  1.0000
  S   S141      1.0  0.29094  0.35967  0.05325  1.0000
  C   C1067     1.0  0.39441  0.41604  0.22585  1.0000
  C   C1068     1.0  0.38618  0.52866  0.22466  1.0000
  H   H855      1.0  0.43301  0.37327  0.18567  1.0000
  C   C1069     1.0  0.01784  0.61907  0.21434  1.0000
  C   C1070     1.0  0.45754  0.37824  0.19477  1.0000
  H   H856      1.0  0.41077  0.49232  0.19754  1.0000
  C   C1071     1.0  0.02646  0.37937  0.99338  1.0000
  C   C1072     1.0  0.12164  0.34559  0.15398  1.0000
  C   C1073     1.0  0.35450  0.36804  0.06892  1.0000
  C   C1074     1.0  0.14768  0.32850  0.08759  1.0000
  C   C1075     1.0  0.32741  0.64150  0.17668  1.0000
  C   C1076     1.0  0.42664  0.42271  0.22682  1.0000
  H   H857      1.0  0.11133  0.35629  0.16213  1.0000
  C   C1077     1.0  0.47718  0.60360  0.20350  1.0000
  C   C1078     1.0  0.45207  0.37645  0.22825  1.0000
  H   H858      1.0  0.46176  0.64010  0.11847  1.0000
  C   C1079     1.0  0.01053  0.34236  0.01009  1.0000
  C   C1080     1.0  0.49107  0.33103  0.12028  1.0000
  H   H859      1.0  0.00513  0.46430  0.17332  1.0000
  H   H860      1.0  0.48702  0.61042  0.08433  1.0000
  C   C1081     1.0  0.14268  0.34200  0.15255  1.0000
  C   C1082     1.0  0.47810  0.44493  0.13045  1.0000
  C   C1083     1.0  0.37736  0.65112  0.12226  1.0000
  C   C1084     1.0  0.44162  0.62062  0.20966  1.0000
  C   C1085     1.0  0.40754  0.48053  0.22763  1.0000
  H   H861      1.0  0.17226  0.32597  0.14095  1.0000
  H   H862      1.0  0.48360  0.35237  0.13840  1.0000
  C   C1086     1.0  0.32458  0.40313  0.99636  1.0000
  H   H863      1.0  0.48873  0.63788  0.98953  1.0000
  H   H864      1.0  0.14868  0.34995  0.15959  1.0000
  H   H865      1.0  0.45572  0.62678  0.00316  1.0000
  C   C1087     1.0  0.14015  0.46368  0.99308  1.0000
  C   C1088     1.0  0.48834  0.41278  0.19409  1.0000
  H   H866      1.0  0.49287  0.34384  0.20372  1.0000
  H   H867      1.0  0.43276  0.39481  0.00373  1.0000
  P   P36       1.0  0.38004  0.48902  0.23289  1.0000
  H   H868      1.0  0.00445  0.43718  0.15823  1.0000
  H   H869      1.0  0.48313  0.47601  0.23545  1.0000
  C   C1089     1.0  0.42864  0.63947  0.09316  1.0000
  H   H870      1.0  0.47753  0.65399  0.17150  1.0000
  C   C1090     1.0  0.48808  0.45385  0.17584  1.0000
  C   C1091     1.0  0.47269  0.51802  0.23165  1.0000
  C   C1092     1.0  0.43872  0.52548  0.22579  1.0000
  H   H871      1.0  0.48525  0.57417  0.09446  1.0000
  H   H872      1.0  0.13879  0.34563  0.98732  1.0000
  H   H873      1.0  0.09733  0.32947  0.98874  1.0000
  Fe  Fe67      1.0  0.43592  0.58356  0.34923  1.0000
  S   S142      1.0  0.40375  0.58042  0.36388  1.0000
  H   H874      1.0  0.37384  0.41032  0.25286  1.0000
  Fe  Fe68      1.0  0.43098  0.57664  0.31251  1.0000
  S   S143      1.0  0.39841  0.57334  0.32430  1.0000
  S   S144      1.0  0.44743  0.57307  0.28276  1.0000
  Fe  Fe69      1.0  0.39535  0.59992  0.33705  1.0000
  S   S145      1.0  0.36999  0.62794  0.33706  1.0000
  Fe  Fe70      1.0  0.40981  0.55414  0.35001  1.0000
  S   S146      1.0  0.40201  0.52387  0.36670  1.0000
  S   S147      1.0  0.42708  0.60488  0.32322  1.0000
  S   S148      1.0  0.44276  0.55551  0.33756  1.0000
  C   C1093     1.0  0.43947  0.35517  0.29089  1.0000
  H   H875      1.0  0.28977  0.56664  0.47506  1.0000
  C   C1094     1.0  0.43698  0.63219  0.26592  1.0000
  C   C1095     1.0  0.12309  0.65438  0.44997  1.0000
  C   C1096     1.0  0.38784  0.33368  0.45123  1.0000
  S   S149      1.0  0.30931  0.36160  0.35095  1.0000
  H   H876      1.0  0.42450  0.52945  0.39571  1.0000
  C   C1097     1.0  0.99584  0.49978  0.29063  1.0000
  Fe  Fe71      1.0  0.27764  0.34545  0.42024  1.0000
  S   S150      1.0  0.27062  0.36413  0.44242  1.0000
  S   S151      1.0  0.07182  0.64146  0.45499  1.0000
  S   S152      1.0  0.26478  0.35938  0.39429  1.0000
  H   H877      1.0  0.46560  0.37451  0.35572  1.0000
  Fe  Fe72      1.0  0.40923  0.39624  0.32852  1.0000
  S   S153      1.0  0.39593  0.41980  0.30564  1.0000
  S   S154      1.0  0.40036  0.36618  0.34430  1.0000
  Fe  Fe73      1.0  0.44154  0.41932  0.32590  1.0000
  S   S155      1.0  0.43213  0.44416  0.30192  1.0000
  S   S156      1.0  0.46397  0.42119  0.34145  1.0000
  Fe  Fe74      1.0  0.40045  0.44304  0.31884  1.0000
  S   S157      1.0  0.37907  0.47342  0.32032  1.0000
  Fe  Fe75      1.0  0.42853  0.41910  0.29045  1.0000
  S   S158      1.0  0.43903  0.41885  0.25941  1.0000
  S   S159      1.0  0.40990  0.41956  0.34355  1.0000
  S   S160      1.0  0.44181  0.39417  0.31265  1.0000
  H   H878      1.0  0.11720  0.63987  0.39949  1.0000
  H   H879      1.0  0.47968  0.46210  0.30066  1.0000
  H   H880      1.0  0.02911  0.55622  0.39131  1.0000
  H   H881      1.0  0.17810  0.62204  0.44829  1.0000
  H   H882      1.0  0.44782  0.45920  0.24904  1.0000
  H   H883      1.0  0.99564  0.55001  0.33533  1.0000
  H   H884      1.0  0.48837  0.59933  0.25270  1.0000
  C   C1098     1.0  0.36308  0.35697  0.28068  1.0000
  C   C1099     1.0  0.04523  0.52623  0.29787  1.0000
  C   C1100     1.0  0.02477  0.58259  0.45087  1.0000
  H   H885      1.0  0.34105  0.43512  0.29595  1.0000
  H   H886      1.0  0.36159  0.33093  0.25705  1.0000
  H   H887      1.0  0.00052  0.52214  0.37772  1.0000
  H   H888      1.0  0.21594  0.53465  0.44522  1.0000
  C   C1101     1.0  0.35922  0.45810  0.28673  1.0000
  C   C1102     1.0  0.43162  0.51537  0.24428  1.0000
  C   C1103     1.0  0.21790  0.53398  0.47342  1.0000
  C   C1104     1.0  0.41828  0.47135  0.24209  1.0000
  C   C1105     1.0  0.49157  0.59172  0.34778  1.0000
  H   H889      1.0  0.22018  0.34916  0.35158  1.0000
  C   C1106     1.0  0.30822  0.61533  0.37294  1.0000
  H   H890      1.0  0.99959  0.55881  0.41933  1.0000
  C   C1107     1.0  0.40586  0.36452  0.28376  1.0000
  C   C1108     1.0  0.38856  0.41371  0.24548  1.0000
  C   C1109     1.0  0.42254  0.37006  0.28642  1.0000
  H   H891      1.0  0.41037  0.46786  0.25668  1.0000
  C   C1110     1.0  0.35703  0.45870  0.25025  1.0000
  C   C1111     1.0  0.44866  0.50942  0.38067  1.0000
  C   C1112     1.0  0.48212  0.51834  0.37101  1.0000
  H   H892      1.0  0.04948  0.44343  0.37075  1.0000
  C   C1113     1.0  0.16804  0.63535  0.39577  1.0000
  H   H893      1.0  0.34281  0.39888  0.25030  1.0000
  H   H894      1.0  0.01403  0.43832  0.38455  1.0000
  C   C1114     1.0  0.41117  0.58947  0.27083  1.0000
  C   C1115     1.0  0.42103  0.41950  0.24656  1.0000
  C   C1116     1.0  0.40168  0.41560  0.25576  1.0000
  C   C1117     1.0  0.02486  0.58963  0.46652  1.0000
  H   H895      1.0  0.39689  0.41350  0.27084  1.0000
  C   C1118     1.0  0.40615  0.34392  0.28539  1.0000
  H   H896      1.0  0.02758  0.54541  0.31688  1.0000
  C   C1119     1.0  0.22462  0.33917  0.45632  1.0000
  C   C1120     1.0  0.03359  0.62084  0.44583  1.0000
  C   C1121     1.0  0.12690  0.63338  0.45098  1.0000
  C   C1122     1.0  0.20091  0.34293  0.43690  1.0000
  H   H897      1.0  0.02122  0.58042  0.48063  1.0000
  H   H898      1.0  0.05764  0.46604  0.33910  1.0000
  H   H899      1.0  0.26952  0.38151  0.47329  1.0000
  H   H900      1.0  0.45239  0.35963  0.29281  1.0000
  C   C1123     1.0  0.01759  0.44831  0.37081  1.0000
  C   C1124     1.0  0.33476  0.36244  0.34894  1.0000
  C   C1125     1.0  0.34275  0.37881  0.33643  1.0000
  C   C1126     1.0  0.36299  0.37993  0.33472  1.0000
  C   C1127     1.0  0.37536  0.36455  0.34540  1.0000
  C   C1128     1.0  0.36753  0.34789  0.35761  1.0000
  C   C1129     1.0  0.05533  0.54902  0.42539  1.0000
  H   H901      1.0  0.33318  0.39083  0.32824  1.0000
  H   H902      1.0  0.36892  0.39275  0.32526  1.0000
  C   C1130     1.0  0.34720  0.34688  0.35945  1.0000
  C   C1131     1.0  0.19262  0.57285  0.46876  1.0000
  C   C1132     1.0  0.02496  0.53619  0.35892  1.0000
  C   C1133     1.0  0.32252  0.34586  0.46246  1.0000
  C   C1134     1.0  0.30772  0.34763  0.45235  1.0000
  C   C1135     1.0  0.28870  0.36063  0.45602  1.0000
  H   H903      1.0  0.40464  0.65486  0.30071  1.0000
  H   H904      1.0  0.26203  0.57536  0.41881  1.0000
  H   H905      1.0  0.00765  0.51351  0.33398  1.0000
  H   H906      1.0  0.31793  0.37515  0.30877  1.0000
  H   H907      1.0  0.20767  0.32766  0.26688  1.0000
  H   H908      1.0  0.35691  0.59035  0.35756  1.0000
  C   C1136     1.0  0.35995  0.52037  0.25250  1.0000
  H   H909      1.0  0.48181  0.51650  0.33191  1.0000
  C   C1137     1.0  0.45356  0.37121  0.36806  1.0000
  C   C1138     1.0  0.39600  0.51013  0.35333  1.0000
  C   C1139     1.0  0.38457  0.52010  0.33958  1.0000
  C   C1140     1.0  0.37931  0.50873  0.32956  1.0000
  C   C1141     1.0  0.38604  0.48747  0.33279  1.0000
  C   C1142     1.0  0.39777  0.47756  0.34631  1.0000
  C   C1143     1.0  0.40236  0.48884  0.35683  1.0000
  H   H910      1.0  0.37939  0.53650  0.33694  1.0000
  H   H911      1.0  0.37020  0.51646  0.31913  1.0000
  H   H912      1.0  0.40312  0.46120  0.34886  1.0000
  H   H913      1.0  0.41137  0.48111  0.36729  1.0000
  C   C1144     1.0  0.47728  0.64578  0.29974  1.0000
  C   C1145     1.0  0.34615  0.62294  0.35053  1.0000
  H   H914      1.0  0.45509  0.56639  0.24509  1.0000
  C   C1146     1.0  0.37750  0.32840  0.24976  1.0000
  C   C1147     1.0  0.48032  0.60490  0.37622  1.0000
  H   H915      1.0  0.01268  0.45039  0.31204  1.0000
  H   H916      1.0  0.48700  0.40467  0.26476  1.0000
  H   H917      1.0  0.41570  0.51430  0.24915  1.0000
  C   C1148     1.0  0.43967  0.46644  0.23780  1.0000
  H   H918      1.0  0.30146  0.60280  0.46660  1.0000
  C   C1149     1.0  0.43963  0.33457  0.29301  1.0000
  H   H919      1.0  0.24144  0.62082  0.46493  1.0000
  H   H920      1.0  0.14969  0.60552  0.45082  1.0000
  H   H921      1.0  0.47479  0.49316  0.36421  1.0000
  C   C1150     1.0  0.34845  0.44532  0.28397  1.0000
  H   H922      1.0  0.03454  0.52182  0.35609  1.0000
  C   C1151     1.0  0.16259  0.63080  0.44951  1.0000
  H   H923      1.0  0.06962  0.50238  0.41407  1.0000
  C   C1152     1.0  0.07409  0.60874  0.30763  1.0000
  H   H924      1.0  0.03152  0.61761  0.29041  1.0000
  C   C1153     1.0  0.04343  0.60950  0.29809  1.0000
  C   C1154     1.0  0.04298  0.58975  0.30890  1.0000
  C   C1155     1.0  0.05773  0.57953  0.31965  1.0000
  C   C1156     1.0  0.07378  0.58887  0.31836  1.0000
  P   P37       1.0  0.05615  0.55430  0.33402  1.0000
  C   C1157     1.0  0.07392  0.54507  0.34949  1.0000
  H   H925      1.0  0.32849  0.36118  0.41584  1.0000
  C   C1158     1.0  0.17184  0.65064  0.37955  1.0000
  H   H926      1.0  0.33154  0.65063  0.38763  1.0000
  H   H927      1.0  0.23479  0.34550  0.46065  1.0000
  C   C1159     1.0  0.21540  0.33759  0.34767  1.0000
  C   C1160     1.0  0.32920  0.63913  0.35266  1.0000
  C   C1161     1.0  0.08474  0.52471  0.35235  1.0000
  H   H928      1.0  0.48850  0.58476  0.33798  1.0000
  H   H929      1.0  0.00198  0.51145  0.26059  1.0000
  C   C1162     1.0  0.35711  0.53981  0.25593  1.0000
  C   C1163     1.0  0.07568  0.55793  0.36013  1.0000
  C   C1164     1.0  0.05965  0.53869  0.31737  1.0000
  C   C1165     1.0  0.07931  0.52980  0.30854  1.0000
  C   C1166     1.0  0.08183  0.51866  0.29490  1.0000
  H   H930      1.0  0.05858  0.63476  0.28985  1.0000
  C   C1167     1.0  0.39209  0.40539  0.45705  1.0000
  C   C1168     1.0  0.26397  0.65325  0.45750  1.0000
  H   H931      1.0  0.08611  0.61619  0.30710  1.0000
  C   C1169     1.0  0.00663  0.47100  0.34293  1.0000
  C   C1170     1.0  0.49369  0.62998  0.24653  1.0000
  H   H932      1.0  0.03089  0.58260  0.30904  1.0000
  H   H933      1.0  0.08604  0.58105  0.32559  1.0000
  C   C1171     1.0  0.01946  0.46266  0.28218  1.0000
  C   C1172     1.0  0.99863  0.48250  0.30530  1.0000
  H   H934      1.0  0.21061  0.60706  0.47206  1.0000
  C   C1173     1.0  0.49412  0.39364  0.25590  1.0000
  C   C1174     1.0  0.44892  0.49542  0.32712  1.0000
  C   C1175     1.0  0.03755  0.45119  0.36303  1.0000
  H   H935      1.0  0.37703  0.33603  0.36596  1.0000
  H   H936      1.0  0.44699  0.55193  0.39530  1.0000
  C   C1176     1.0  0.34518  0.63181  0.48634  1.0000
  H   H937      1.0  0.06670  0.57335  0.35891  1.0000
  H   H938      1.0  0.09270  0.53187  0.31185  1.0000
  C   C1177     1.0  0.31819  0.35672  0.47666  1.0000
  C   C1178     1.0  0.04214  0.46392  0.34522  1.0000
  C   C1179     1.0  0.34738  0.35845  0.29688  1.0000
  C   C1180     1.0  0.47603  0.59662  0.36322  1.0000
  H   H939      1.0  0.19286  0.35210  0.42599  1.0000
  H   H940      1.0  0.46128  0.62387  0.29837  1.0000
  C   C1181     1.0  0.42051  0.63564  0.28102  1.0000
  H   H941      1.0  0.07576  0.52105  0.43494  1.0000
  C   C1182     1.0  0.40489  0.38607  0.45968  1.0000
  H   H942      1.0  0.02263  0.47879  0.25304  1.0000
  H   H943      1.0  0.36711  0.60495  0.46137  1.0000
  H   H944      1.0  0.33913  0.43565  0.26347  1.0000
  C   C1183     1.0  0.47100  0.47659  0.30379  1.0000
  C   C1184     1.0  0.02967  0.59443  0.43254  1.0000
  P   P38       1.0  0.48352  0.49525  0.26549  1.0000
  S   S161      1.0  0.45127  0.59173  0.36809  1.0000
  C   C1185     1.0  0.44020  0.35941  0.36809  1.0000
  H   H945      1.0  0.37750  0.48069  0.27389  1.0000
  C   C1186     1.0  0.46096  0.47717  0.32251  1.0000
  C   C1187     1.0  0.48946  0.41671  0.32909  1.0000
  C   C1188     1.0  0.28427  0.37145  0.47033  1.0000
  H   H946      1.0  0.43872  0.49993  0.38046  1.0000
  H   H947      1.0  0.11464  0.62641  0.45126  1.0000
  H   H948      1.0  0.34581  0.54421  0.26801  1.0000
  C   C1189     1.0  0.00254  0.59046  0.41197  1.0000
  H   H949      1.0  0.03527  0.59647  0.26174  1.0000
  C   C1190     1.0  0.45109  0.37926  0.38374  1.0000
  H   H950      1.0  0.36689  0.56859  0.24655  1.0000
  H   H951      1.0  0.06870  0.59755  0.40253  1.0000
  H   H952      1.0  0.47759  0.53822  0.30085  1.0000
  C   C1191     1.0  0.40712  0.37304  0.44776  1.0000
  H   H953      1.0  0.02039  0.63307  0.25337  1.0000
  H   H954      1.0  0.03198  0.52565  0.29325  1.0000
  P   P39       1.0  0.38541  0.33640  0.28094  1.0000
  H   H955      1.0  0.40542  0.62084  0.39488  1.0000
  C   C1192     1.0  0.21357  0.35124  0.44285  1.0000
  C   C1193     1.0  0.49167  0.52726  0.32485  1.0000
  H   H956      1.0  0.44177  0.35363  0.35571  1.0000
  H   H957      1.0  0.46852  0.60855  0.38827  1.0000
  H   H958      1.0  0.34836  0.34764  0.31010  1.0000
  Fe  Fe76      1.0  0.21191  0.63894  0.40309  1.0000
  H   H959      1.0  0.48032  0.53958  0.25396  1.0000
  C   C1194     1.0  0.00581  0.53628  0.37127  1.0000
  C   C1195     1.0  0.10040  0.53099  0.37461  1.0000
  C   C1196     1.0  0.34733  0.44565  0.26572  1.0000
  H   H960      1.0  0.09703  0.51190  0.28806  1.0000
  H   H961      1.0  0.04642  0.52017  0.39211  1.0000
  H   H962      1.0  0.29733  0.64647  0.40728  1.0000
  H   H963      1.0  0.32108  0.44149  0.46768  1.0000
  H   H964      1.0  0.32331  0.58364  0.37694  1.0000
  C   C1197     1.0  0.04271  0.53727  0.31153  1.0000
  S   S162      1.0  0.18764  0.62125  0.40756  1.0000
  C   C1198     1.0  0.43148  0.57907  0.26652  1.0000
  C   C1199     1.0  0.21981  0.60280  0.48256  1.0000
  H   H965      1.0  0.41059  0.64316  0.44062  1.0000
  C   C1200     1.0  0.39916  0.59559  0.25725  1.0000
  H   H966      1.0  0.23982  0.56961  0.45093  1.0000
  H   H967      1.0  0.10671  0.50216  0.36662  1.0000
  C   C1201     1.0  0.08904  0.55101  0.37245  1.0000
  C   C1202     1.0  0.41733  0.65252  0.28881  1.0000
  C   C1203     1.0  0.05876  0.61914  0.29771  1.0000
  C   C1204     1.0  0.36796  0.47163  0.25288  1.0000
  H   H968      1.0  0.41292  0.38106  0.47111  1.0000
  C   C1205     1.0  0.06752  0.65405  0.47341  1.0000
  H   H969      1.0  0.48297  0.54539  0.37956  1.0000
  S   S163      1.0  0.23504  0.62504  0.42099  1.0000
  H   H970      1.0  0.43943  0.61870  0.26044  1.0000
  H   H971      1.0  0.35789  0.35182  0.43101  1.0000
  C   C1206     1.0  0.36917  0.47099  0.27131  1.0000
  H   H972      1.0  0.46234  0.46339  0.33346  1.0000
  H   H973      1.0  0.37631  0.34622  0.45609  1.0000
  H   H974      1.0  0.39020  0.41537  0.46643  1.0000
  C   C1207     1.0  0.47560  0.62638  0.29936  1.0000
  H   H975      1.0  0.17175  0.65868  0.44633  1.0000
  H   H976      1.0  0.02810  0.44821  0.27880  1.0000
  C   C1208     1.0  0.00189  0.55287  0.24142  1.0000
  C   C1209     1.0  0.34445  0.56535  0.46889  1.0000
  H   H977      1.0  0.42291  0.37056  0.24493  1.0000
  C   C1210     1.0  0.14840  0.63120  0.40264  1.0000
  C   C1211     1.0  0.34399  0.60292  0.35935  1.0000
  C   C1212     1.0  0.44064  0.52605  0.38931  1.0000
  H   H978      1.0  0.37170  0.42669  0.44038  1.0000
  Fe  Fe77      1.0  0.25782  0.63470  0.39451  1.0000
  C   C1213     1.0  0.06477  0.51679  0.28964  1.0000
  H   H979      1.0  0.31947  0.40526  0.47202  1.0000
  C   C1214     1.0  0.00217  0.45814  0.36082  1.0000
  C   C1215     1.0  0.03145  0.55461  0.34994  1.0000
  C   C1216     1.0  0.01330  0.65562  0.33127  1.0000
  H   H980      1.0  0.18998  0.35841  0.33721  1.0000
  S   S164      1.0  0.30858  0.33187  0.40450  1.0000
  C   C1217     1.0  0.34787  0.56692  0.48581  1.0000
  C   C1218     1.0  0.45004  0.64606  0.25807  1.0000
  H   H981      1.0  0.37350  0.37159  0.25139  1.0000
  H   H982      1.0  0.49093  0.59515  0.30009  1.0000
  C   C1219     1.0  0.06528  0.52865  0.42566  1.0000
  H   H983      1.0  0.34119  0.33406  0.36894  1.0000
  S   S165      1.0  0.07183  0.64759  0.40239  1.0000
  C   C1220     1.0  0.44508  0.50636  0.25643  1.0000
  C   C1221     1.0  0.46567  0.50794  0.25030  1.0000
  H   H984      1.0  0.03062  0.48346  0.32134  1.0000
  C   C1222     1.0  0.46948  0.49455  0.28961  1.0000
  C   C1223     1.0  0.23727  0.61081  0.47850  1.0000
  C   C1224     1.0  0.00489  0.49840  0.27192  1.0000
  C   C1225     1.0  0.44655  0.51308  0.31298  1.0000
  C   C1226     1.0  0.45690  0.51271  0.29435  1.0000
  C   C1227     1.0  0.29895  0.36943  0.48070  1.0000
  C   C1228     1.0  0.15891  0.65176  0.44830  1.0000
  C   C1229     1.0  0.42301  0.32894  0.29032  1.0000
  H   H985      1.0  0.43936  0.49811  0.27054  1.0000
  C   C1230     1.0  0.38160  0.41173  0.44243  1.0000
  H   H986      1.0  0.03678  0.63578  0.44387  1.0000
  H   H987      1.0  0.43668  0.52711  0.31643  1.0000
  H   H988      1.0  0.45503  0.52671  0.28365  1.0000
  H   H989      1.0  0.11081  0.52567  0.38413  1.0000
  H   H990      1.0  0.41348  0.34741  0.38310  1.0000
  C   C1231     1.0  0.32827  0.38869  0.27944  1.0000
  C   C1232     1.0  0.14662  0.62159  0.45080  1.0000
  H   H991      1.0  0.05862  0.55706  0.43424  1.0000
  H   H992      1.0  0.08281  0.51408  0.34522  1.0000
  C   C1233     1.0  0.00395  0.55361  0.25921  1.0000
  H   H993      1.0  0.42239  0.38596  0.28497  1.0000
  H   H994      1.0  0.41030  0.62504  0.28688  1.0000
  C   C1234     1.0  0.04159  0.55892  0.41352  1.0000
  H   H995      1.0  0.31483  0.40089  0.27895  1.0000
  H   H996      1.0  0.41710  0.35811  0.45002  1.0000
  H   H997      1.0  0.36175  0.62283  0.39185  1.0000
  H   H998      1.0  0.38365  0.60413  0.26056  1.0000
  C   C1235     1.0  0.31057  0.63446  0.40941  1.0000
  H   H999      1.0  0.33310  0.63252  0.47956  1.0000
  H   H1000     1.0  0.01323  0.54087  0.26700  1.0000
  C   C1236     1.0  0.02678  0.47374  0.33519  1.0000
  C   C1237     1.0  0.01061  0.46396  0.30095  1.0000
  C   C1238     1.0  0.40625  0.42987  0.38745  1.0000
  C   C1239     1.0  0.41330  0.44179  0.39541  1.0000
  C   C1240     1.0  0.39947  0.45692  0.40407  1.0000
  C   C1241     1.0  0.37862  0.46026  0.40458  1.0000
  C   C1242     1.0  0.37146  0.44867  0.39619  1.0000
  C   C1243     1.0  0.38540  0.43321  0.38792  1.0000
  P   P40       1.0  0.34432  0.45229  0.39813  1.0000
  C   C1244     1.0  0.33484  0.43800  0.42143  1.0000
  C   C1245     1.0  0.33344  0.47933  0.39470  1.0000
  C   C1246     1.0  0.31367  0.48666  0.40447  1.0000
  C   C1247     1.0  0.30559  0.50771  0.40181  1.0000
  C   C1248     1.0  0.31706  0.52151  0.38918  1.0000
  C   C1249     1.0  0.33651  0.51427  0.37901  1.0000
  C   C1250     1.0  0.34460  0.49327  0.38164  1.0000
  C   C1251     1.0  0.33026  0.44661  0.43727  1.0000
  C   C1252     1.0  0.31023  0.63535  0.36390  1.0000
  C   C1253     1.0  0.03356  0.61384  0.43019  1.0000
  C   C1254     1.0  0.32827  0.40580  0.44228  1.0000
  C   C1255     1.0  0.33400  0.41743  0.42413  1.0000
  C   C1256     1.0  0.33835  0.44386  0.38004  1.0000
  C   C1257     1.0  0.32048  0.43635  0.38371  1.0000
  C   C1258     1.0  0.31615  0.42938  0.36984  1.0000
  C   C1259     1.0  0.32934  0.43029  0.35208  1.0000
  C   C1260     1.0  0.34667  0.43851  0.34809  1.0000
  C   C1261     1.0  0.35103  0.44550  0.36192  1.0000
  H   H1001     1.0  0.41705  0.41821  0.38068  1.0000
  H   H1002     1.0  0.42951  0.43941  0.39466  1.0000
  H   H1003     1.0  0.40497  0.46628  0.41009  1.0000
  H   H1004     1.0  0.36810  0.47198  0.41140  1.0000
  H   H1005     1.0  0.38022  0.42372  0.38185  1.0000
  H   H1006     1.0  0.30444  0.47617  0.41400  1.0000
  H   H1007     1.0  0.29033  0.51337  0.40935  1.0000
  H   H1008     1.0  0.31077  0.53782  0.38701  1.0000
  H   H1009     1.0  0.34529  0.52489  0.36891  1.0000
  H   H1010     1.0  0.35954  0.48797  0.37334  1.0000
  H   H1011     1.0  0.33147  0.46220  0.43563  1.0000
  C   C1262     1.0  0.02945  0.60870  0.46396  1.0000
  H   H1012     1.0  0.31093  0.33920  0.44152  1.0000
  H   H1013     1.0  0.32768  0.38991  0.44429  1.0000
  H   H1014     1.0  0.33827  0.41012  0.41230  1.0000
  H   H1015     1.0  0.30990  0.43578  0.39728  1.0000
  H   H1016     1.0  0.30256  0.42322  0.37286  1.0000
  H   H1017     1.0  0.32606  0.42477  0.34137  1.0000
  H   H1018     1.0  0.35676  0.43955  0.33424  1.0000
  H   H1019     1.0  0.36431  0.45220  0.35842  1.0000
  P   P41       1.0  0.39878  0.36210  0.41821  1.0000
  C   C1263     1.0  0.42134  0.36420  0.39943  1.0000
  C   C1264     1.0  0.43509  0.37577  0.39941  1.0000
  C   C1265     1.0  0.42419  0.35586  0.38371  1.0000
  C   C1266     1.0  0.38366  0.39865  0.43060  1.0000
  C   C1267     1.0  0.37681  0.36902  0.40760  1.0000
  C   C1268     1.0  0.35896  0.36166  0.41711  1.0000
  C   C1269     1.0  0.34221  0.36694  0.40860  1.0000
  C   C1270     1.0  0.34312  0.37961  0.39063  1.0000
  C   C1271     1.0  0.36063  0.38734  0.38126  1.0000
  C   C1272     1.0  0.37739  0.38209  0.38966  1.0000
  H   H1020     1.0  0.43325  0.38264  0.41114  1.0000
  H   H1021     1.0  0.17859  0.33181  0.32913  1.0000
  H   H1022     1.0  0.37533  0.40365  0.41949  1.0000
  H   H1023     1.0  0.19393  0.56943  0.44092  1.0000
  C   C1273     1.0  0.41315  0.32655  0.24824  1.0000
  H   H1024     1.0  0.33032  0.38325  0.38387  1.0000
  H   H1025     1.0  0.36151  0.39693  0.36720  1.0000
  H   H1026     1.0  0.39091  0.38799  0.38185  1.0000
  H   H1027     1.0  0.39296  0.37636  0.28025  1.0000
  H   H1028     1.0  0.09046  0.56119  0.38038  1.0000
  C   C1274     1.0  0.32987  0.63685  0.39840  1.0000
  C   C1275     1.0  0.19865  0.56226  0.45421  1.0000
  C   C1276     1.0  0.04874  0.52812  0.40156  1.0000
  H   H1029     1.0  0.14546  0.61915  0.41491  1.0000
  H   H1030     1.0  0.06670  0.50856  0.27878  1.0000
  C   C1277     1.0  0.34396  0.38755  0.26334  1.0000
  C   C1278     1.0  0.37669  0.62903  0.43792  1.0000
  C   C1279     1.0  0.38731  0.63333  0.41898  1.0000
  C   C1280     1.0  0.39699  0.61753  0.40942  1.0000
  C   C1281     1.0  0.39602  0.59735  0.41859  1.0000
  C   C1282     1.0  0.38514  0.59295  0.43728  1.0000
  C   C1283     1.0  0.37540  0.60872  0.44691  1.0000
  H   H1031     1.0  0.03940  0.57406  0.23999  1.0000
  C   C1284     1.0  0.33001  0.37417  0.29620  1.0000
  H   H1032     1.0  0.03636  0.62378  0.41636  1.0000
  H   H1033     1.0  0.21525  0.36688  0.43671  1.0000
  C   C1285     1.0  0.40061  0.33669  0.43310  1.0000
  C   C1286     1.0  0.25571  0.56984  0.44922  1.0000
  C   C1287     1.0  0.47392  0.53489  0.37996  1.0000
  H   H1034     1.0  0.40366  0.58517  0.41109  1.0000
  H   H1035     1.0  0.38434  0.57729  0.44431  1.0000
  C   C1288     1.0  0.31437  0.59255  0.47193  1.0000
  H   H1036     1.0  0.22795  0.51903  0.47509  1.0000
  H   H1037     1.0  0.45675  0.37798  0.24023  1.0000
  C   C1289     1.0  0.34689  0.62115  0.40077  1.0000
  C   C1290     1.0  0.34458  0.60294  0.41398  1.0000
  C   C1291     1.0  0.32508  0.59996  0.42430  1.0000
  C   C1292     1.0  0.30813  0.61610  0.42235  1.0000
  P   P42       1.0  0.32213  0.57593  0.44058  1.0000
  C   C1293     1.0  0.29636  0.57262  0.44444  1.0000
  C   C1294     1.0  0.33797  0.55469  0.43038  1.0000
  C   C1295     1.0  0.34525  0.55732  0.41073  1.0000
  C   C1296     1.0  0.35708  0.54088  0.40279  1.0000
  C   C1297     1.0  0.36136  0.52150  0.41428  1.0000
  C   C1298     1.0  0.35348  0.51848  0.43378  1.0000
  C   C1299     1.0  0.34163  0.53497  0.44179  1.0000
  C   C1300     1.0  0.21116  0.54276  0.45659  1.0000
  H   H1038     1.0  0.44122  0.49586  0.34160  1.0000
  H   H1039     1.0  0.40480  0.59327  0.28448  1.0000
  C   C1301     1.0  0.26818  0.57306  0.43115  1.0000
  C   C1302     1.0  0.28852  0.57406  0.42882  1.0000
  C   C1303     1.0  0.32735  0.57780  0.46210  1.0000
  C   C1304     1.0  0.39266  0.32971  0.25812  1.0000
  C   C1305     1.0  0.32455  0.43490  0.45545  1.0000
  Fe  Fe78      1.0  0.23079  0.65650  0.42529  1.0000
  H   H1040     1.0  0.02082  0.56797  0.45306  1.0000
  S   S166      1.0  0.28528  0.60980  0.38811  1.0000
  H   H1041     1.0  0.18276  0.33161  0.39576  1.0000
  H   H1042     1.0  0.35789  0.59083  0.41546  1.0000
  H   H1043     1.0  0.29292  0.61439  0.43023  1.0000
  H   H1044     1.0  0.34172  0.57199  0.40137  1.0000
  H   H1045     1.0  0.36289  0.54319  0.38762  1.0000
  H   H1046     1.0  0.37068  0.50890  0.40792  1.0000
  H   H1047     1.0  0.35647  0.50334  0.44264  1.0000
  H   H1048     1.0  0.33521  0.53233  0.45683  1.0000
  P   P43       1.0  0.02925  0.58542  0.41243  1.0000
  C   C1306     1.0  0.09811  0.51778  0.36471  1.0000
  H   H1049     1.0  0.29807  0.57649  0.41474  1.0000
  H   H1050     1.0  0.99941  0.62317  0.40620  1.0000
  H   H1051     1.0  0.35524  0.55454  0.46115  1.0000
  C   C1307     1.0  0.01654  0.47989  0.26766  1.0000
  C   C1308     1.0  0.07361  0.61197  0.37309  1.0000
  C   C1309     1.0  0.06583  0.61809  0.35675  1.0000
  C   C1310     1.0  0.04698  0.61424  0.35728  1.0000
  C   C1311     1.0  0.03556  0.60491  0.37426  1.0000
  C   C1312     1.0  0.04311  0.59900  0.39081  1.0000
  C   C1313     1.0  0.06246  0.60214  0.38999  1.0000
  S   S167      1.0  0.23489  0.64648  0.37624  1.0000
  C   C1314     1.0  0.03096  0.60295  0.24825  1.0000
  H   H1052     1.0  0.35039  0.51015  0.26187  1.0000
  C   C1315     1.0  0.45329  0.53869  0.38905  1.0000
  C   C1316     1.0  0.01887  0.57300  0.35404  1.0000
  H   H1053     1.0  0.02355  0.58742  0.34751  1.0000
  C   C1317     1.0  0.46922  0.50563  0.37149  1.0000
  H   H1054     1.0  0.29488  0.64490  0.46163  1.0000
  C   C1318     1.0  0.28399  0.56858  0.46265  1.0000
  H   H1055     1.0  0.46133  0.38872  0.38343  1.0000
  C   C1319     1.0  0.39629  0.37918  0.43325  1.0000
  C   C1320     1.0  0.03884  0.54850  0.40123  1.0000
  C   C1321     1.0  0.32360  0.41449  0.45794  1.0000
  C   C1322     1.0  0.32502  0.59915  0.37038  1.0000
  H   H1056     1.0  0.29724  0.64787  0.36568  1.0000
  H   H1057     1.0  0.08805  0.61534  0.37275  1.0000
  H   H1058     1.0  0.07415  0.62627  0.34380  1.0000
  H   H1059     1.0  0.04085  0.61922  0.34464  1.0000
  H   H1060     1.0  0.02067  0.60279  0.37448  1.0000
  H   H1061     1.0  0.35995  0.45801  0.30086  1.0000
  C   C1323     1.0  0.36138  0.37191  0.26400  1.0000
  Fe  Fe79      1.0  0.29473  0.34383  0.37892  1.0000
  C   C1324     1.0  0.26373  0.56716  0.46499  1.0000
  C   C1325     1.0  0.06186  0.51815  0.41386  1.0000
  S   S168      1.0  0.01217  0.65332  0.30895  1.0000
  C   C1326     1.0  0.40718  0.59100  0.23936  1.0000
  C   C1327     1.0  0.19831  0.34272  0.33972  1.0000
  C   C1328     1.0  0.36891  0.55357  0.24385  1.0000
  H   H1062     1.0  0.33732  0.33595  0.45944  1.0000
  H   H1063     1.0  0.25408  0.56447  0.47901  1.0000
  C   C1329     1.0  0.99970  0.57305  0.36631  1.0000
  S   S169      1.0  0.22350  0.33164  0.39448  1.0000
  H   H1064     1.0  0.42518  0.32774  0.25409  1.0000
  C   C1330     1.0  0.43941  0.57422  0.24871  1.0000
  C   C1331     1.0  0.49242  0.61017  0.30020  1.0000
  C   C1332     1.0  0.13241  0.64283  0.39382  1.0000
  H   H1065     1.0  0.37872  0.32905  0.32197  1.0000
  C   C1333     1.0  0.37847  0.63733  0.48502  1.0000
  H   H1066     1.0  0.33078  0.65461  0.34571  1.0000
  C   C1334     1.0  0.19889  0.56396  0.48590  1.0000
  S   S170      1.0  0.01785  0.65692  0.39027  1.0000
  C   C1335     1.0  0.02224  0.62374  0.24350  1.0000
  H   H1067     1.0  0.38836  0.64887  0.41164  1.0000
  Fe  Fe80      1.0  0.25475  0.32991  0.39906  1.0000
  C   C1336     1.0  0.48836  0.39650  0.23888  1.0000
  H   H1068     1.0  0.39248  0.64232  0.47731  1.0000
  H   H1069     1.0  0.26826  0.65059  0.44334  1.0000
  C   C1337     1.0  0.19184  0.32758  0.33532  1.0000
  H   H1070     1.0  0.18346  0.58816  0.46637  1.0000
  H   H1071     1.0  0.09225  0.63350  0.48521  1.0000
  C   C1338     1.0  0.49351  0.46573  0.24385  1.0000
  C   C1339     1.0  0.27897  0.65012  0.46782  1.0000
  C   C1340     1.0  0.99894  0.64898  0.34728  1.0000
  H   H1072     1.0  0.02964  0.61428  0.47596  1.0000
  C   C1341     1.0  0.48931  0.53938  0.30715  1.0000
  S   S171      1.0  0.99893  0.57218  0.28824  1.0000
  C   C1342     1.0  0.00020  0.65024  0.36510  1.0000
  H   H1073     1.0  0.48439  0.40037  0.31095  1.0000
  H   H1074     1.0  0.18701  0.65382  0.37407  1.0000
  C   C1343     1.0  0.27330  0.65360  0.48618  1.0000
  C   C1344     1.0  0.36303  0.63868  0.47578  1.0000
  C   C1345     1.0  0.01609  0.65764  0.36723  1.0000
  H   H1075     1.0  0.46415  0.65819  0.29886  1.0000
  P   P44       1.0  0.36588  0.64937  0.45067  1.0000
  H   H1076     1.0  0.34796  0.65654  0.41771  1.0000
  C   C1346     1.0  0.13624  0.65795  0.37747  1.0000
  P   P45       1.0  0.47065  0.64231  0.23791  1.0000
  C   C1347     1.0  0.37498  0.51442  0.23713  1.0000
  H   H1077     1.0  0.13682  0.65127  0.60962  1.0000
  H   H1078     1.0  0.48861  0.42782  0.62866  1.0000
  H   H1079     1.0  0.10112  0.64842  0.62423  1.0000
  S   S172      1.0  0.41810  0.64529  0.73473  1.0000
  H   H1080     1.0  0.49207  0.64499  0.61578  1.0000
  H   H1081     1.0  0.48279  0.48998  0.56724  1.0000
  H   H1082     1.0  0.12060  0.64016  0.49894  1.0000
  C   C1348     1.0  0.34252  0.62442  0.50588  1.0000
  H   H1083     1.0  0.46881  0.62191  0.68473  1.0000
  C   C1349     1.0  0.40150  0.41714  0.72197  1.0000
  S   S173      1.0  0.42035  0.55160  0.64507  1.0000
  C   C1350     1.0  0.42072  0.54577  0.58968  1.0000
  C   C1351     1.0  0.28702  0.61924  0.61570  1.0000
  H   H1084     1.0  0.43659  0.50083  0.57917  1.0000
  Fe  Fe81      1.0  0.33163  0.34751  0.51960  1.0000
  S   S174      1.0  0.30721  0.36304  0.54056  1.0000
  C   C1352     1.0  0.42971  0.58472  0.57835  1.0000
  Fe  Fe82      1.0  0.33226  0.35983  0.55571  1.0000
  S   S175      1.0  0.33922  0.38690  0.56290  1.0000
  H   H1085     1.0  0.15338  0.57901  0.49613  1.0000
  H   H1086     1.0  0.03946  0.63745  0.52081  1.0000
  S   S176      1.0  0.35674  0.34661  0.53323  1.0000
  S   S177      1.0  0.31707  0.58773  0.57790  1.0000
  Fe  Fe83      1.0  0.38409  0.45790  0.64277  1.0000
  S   S178      1.0  0.40104  0.43403  0.62581  1.0000
  S   S179      1.0  0.37489  0.49170  0.63000  1.0000
  Fe  Fe84      1.0  0.38000  0.42692  0.68013  1.0000
  S   S180      1.0  0.39686  0.40040  0.66656  1.0000
  S   S181      1.0  0.36482  0.42643  0.71089  1.0000
  Fe  Fe85      1.0  0.41817  0.42115  0.64925  1.0000
  S   S182      1.0  0.45247  0.41129  0.64124  1.0000
  Fe  Fe86      1.0  0.37839  0.41498  0.64410  1.0000
  S   S183      1.0  0.36409  0.39310  0.63638  1.0000
  S   S184      1.0  0.40293  0.44639  0.66476  1.0000
  S   S185      1.0  0.35984  0.44004  0.65915  1.0000
  C   C1353     1.0  0.13413  0.62823  0.50012  1.0000
  C   C1354     1.0  0.46537  0.42045  0.65320  1.0000
  C   C1355     1.0  0.48309  0.42785  0.64340  1.0000
  C   C1356     1.0  0.46779  0.53912  0.54423  1.0000
  C   C1357     1.0  0.48598  0.43587  0.67172  1.0000
  C   C1358     1.0  0.46880  0.42761  0.68169  1.0000
  C   C1359     1.0  0.45818  0.42042  0.67239  1.0000
  H   H1087     1.0  0.45553  0.59153  0.67775  1.0000
  H   H1088     1.0  0.22345  0.57357  0.52644  1.0000
  H   H1089     1.0  0.46363  0.42677  0.69668  1.0000
  H   H1090     1.0  0.44469  0.41444  0.68017  1.0000
  C   C1360     1.0  0.38031  0.42377  0.72676  1.0000
  H   H1091     1.0  0.36721  0.59012  0.72200  1.0000
  H   H1092     1.0  0.18333  0.60501  0.63185  1.0000
  H   H1093     1.0  0.14952  0.54059  0.50890  1.0000
  H   H1094     1.0  0.40873  0.41373  0.70823  1.0000
  H   H1095     1.0  0.13168  0.51595  0.50540  1.0000
  C   C1361     1.0  0.48282  0.52941  0.59123  1.0000
  Fe  Fe87      1.0  0.38506  0.62417  0.62070  1.0000
  H   H1096     1.0  0.47676  0.53579  0.71550  1.0000
  C   C1362     1.0  0.33257  0.65083  0.64906  1.0000
  H   H1097     1.0  0.00472  0.46962  0.72033  1.0000
  H   H1098     1.0  0.42600  0.46896  0.59875  1.0000
  C   C1363     1.0  0.33628  0.61958  0.57057  1.0000
  H   H1099     1.0  0.45865  0.46809  0.63953  1.0000
  Fe  Fe88      1.0  0.25744  0.64594  0.56930  1.0000
  C   C1364     1.0  0.34745  0.38752  0.58305  1.0000
  C   C1365     1.0  0.34492  0.37267  0.59981  1.0000
  C   C1366     1.0  0.35032  0.37455  0.61585  1.0000
  C   C1367     1.0  0.35867  0.39107  0.61531  1.0000
  C   C1368     1.0  0.36193  0.40553  0.59835  1.0000
  C   C1369     1.0  0.35606  0.40391  0.58242  1.0000
  H   H1100     1.0  0.33824  0.36006  0.60055  1.0000
  H   H1101     1.0  0.34776  0.36321  0.62886  1.0000
  H   H1102     1.0  0.36839  0.41828  0.59765  1.0000
  H   H1103     1.0  0.35807  0.41551  0.56955  1.0000
  H   H1104     1.0  0.38892  0.35274  0.62488  1.0000
  H   H1105     1.0  0.41674  0.53092  0.59445  1.0000
  C   C1370     1.0  0.13509  0.60899  0.49727  1.0000
  C   C1371     1.0  0.40672  0.53554  0.64137  1.0000
  C   C1372     1.0  0.38897  0.54321  0.63421  1.0000
  C   C1373     1.0  0.37929  0.52973  0.63062  1.0000
  C   C1374     1.0  0.38691  0.50852  0.63479  1.0000
  C   C1375     1.0  0.40425  0.50100  0.64244  1.0000
  C   C1376     1.0  0.41426  0.51441  0.64545  1.0000
  H   H1106     1.0  0.38304  0.55951  0.63098  1.0000
  H   H1107     1.0  0.36590  0.53571  0.62463  1.0000
  H   H1108     1.0  0.41031  0.48483  0.64564  1.0000
  H   H1109     1.0  0.42804  0.50831  0.65076  1.0000
  C   C1377     1.0  0.18380  0.61601  0.56290  1.0000
  C   C1378     1.0  0.99880  0.44174  0.69754  1.0000
  H   H1110     1.0  0.18096  0.60520  0.57620  1.0000
  C   C1379     1.0  0.38942  0.53225  0.73125  1.0000
  P   P46       1.0  0.46194  0.52570  0.58355  1.0000
  C   C1380     1.0  0.02236  0.60055  0.61458  1.0000
  C   C1381     1.0  0.02791  0.61567  0.59875  1.0000
  C   C1382     1.0  0.06104  0.61021  0.60591  1.0000
  C   C1383     1.0  0.05570  0.59475  0.62159  1.0000
  C   C1384     1.0  0.03625  0.59005  0.62608  1.0000
  H   H1111     1.0  0.06654  0.58651  0.63034  1.0000
  H   H1112     1.0  0.03207  0.57825  0.63825  1.0000
  C   C1385     1.0  0.00017  0.50238  0.71437  1.0000
  C   C1386     1.0  0.15072  0.63217  0.50445  1.0000
  H   H1113     1.0  0.39633  0.36100  0.59030  1.0000
  C   C1387     1.0  0.29553  0.63643  0.61157  1.0000
  H   H1114     1.0  0.25933  0.33321  0.52530  1.0000
  S   S186      1.0  0.00418  0.50521  0.68981  1.0000
  H   H1115     1.0  0.46335  0.54168  0.61516  1.0000
  C   C1388     1.0  0.44205  0.46643  0.62008  1.0000
  H   H1116     1.0  0.31320  0.64032  0.63791  1.0000
  C   C1389     1.0  0.38074  0.64358  0.72970  1.0000
  H   H1117     1.0  0.49403  0.46417  0.59314  1.0000
  H   H1118     1.0  0.31130  0.63569  0.60408  1.0000
  H   H1119     1.0  0.49272  0.39232  0.62130  1.0000
  Fe  Fe89      1.0  0.40776  0.58555  0.64232  1.0000
  H   H1120     1.0  0.15256  0.63325  0.56618  1.0000
  C   C1390     1.0  0.17923  0.56037  0.56157  1.0000
  C   C1391     1.0  0.17420  0.54142  0.56472  1.0000
  C   C1392     1.0  0.17490  0.53346  0.54941  1.0000
  C   C1393     1.0  0.18090  0.54434  0.53094  1.0000
  C   C1394     1.0  0.18640  0.56320  0.52768  1.0000
  C   C1395     1.0  0.18481  0.57143  0.54315  1.0000
  C   C1396     1.0  0.44611  0.33211  0.62631  1.0000
  C   C1397     1.0  0.40630  0.55864  0.70981  1.0000
  H   H1121     1.0  0.44262  0.35718  0.63935  1.0000
  H   H1122     1.0  0.46773  0.63200  0.71370  1.0000
  C   C1398     1.0  0.21199  0.54464  0.48795  1.0000
  H   H1123     1.0  0.47121  0.37139  0.58347  1.0000
  C   C1399     1.0  0.35386  0.60388  0.60215  1.0000
  H   H1124     1.0  0.39826  0.59990  0.72353  1.0000
  H   H1125     1.0  0.35040  0.64504  0.56561  1.0000
  C   C1400     1.0  0.31878  0.65342  0.63777  1.0000
  H   H1126     1.0  0.25878  0.56063  0.58706  1.0000
  C   C1401     1.0  0.43520  0.34944  0.63335  1.0000
  C   C1402     1.0  0.48462  0.51709  0.52215  1.0000
  C   C1403     1.0  0.19247  0.65242  0.59162  1.0000
  C   C1404     1.0  0.47812  0.48020  0.72679  1.0000
  C   C1405     1.0  0.28375  0.65448  0.61706  1.0000
  H   H1127     1.0  0.25292  0.58932  0.51974  1.0000
  H   H1128     1.0  0.17858  0.56668  0.57339  1.0000
  H   H1129     1.0  0.16960  0.53300  0.57903  1.0000
  H   H1130     1.0  0.17074  0.51888  0.55188  1.0000
  H   H1131     1.0  0.18101  0.53807  0.51932  1.0000
  H   H1132     1.0  0.18791  0.58645  0.54098  1.0000
  H   H1133     1.0  0.21610  0.63140  0.57744  1.0000
  C   C1406     1.0  0.48000  0.38200  0.60369  1.0000
  C   C1407     1.0  0.33441  0.58108  0.49590  1.0000
  C   C1408     1.0  0.40491  0.34678  0.62515  1.0000
  C   C1409     1.0  0.24394  0.59274  0.50918  1.0000
  H   H1134     1.0  0.32983  0.62565  0.55824  1.0000
  C   C1410     1.0  0.48563  0.57118  0.65299  1.0000
  H   H1135     1.0  0.40395  0.63750  0.67803  1.0000
  C   C1411     1.0  0.47043  0.52241  0.55947  1.0000
  H   H1136     1.0  0.03142  0.43813  0.69251  1.0000
  S   S187      1.0  0.36346  0.62944  0.68857  1.0000
  C   C1412     1.0  0.20439  0.63312  0.59000  1.0000
  C   C1413     1.0  0.25476  0.63792  0.63059  1.0000
  H   H1137     1.0  0.19448  0.65559  0.51597  1.0000
  C   C1414     1.0  0.07168  0.52427  0.60113  1.0000
  C   C1415     1.0  0.08367  0.53483  0.58532  1.0000
  C   C1416     1.0  0.07582  0.55501  0.57673  1.0000
  C   C1417     1.0  0.05587  0.56452  0.58435  1.0000
  P   P47       1.0  0.09171  0.56858  0.55657  1.0000
  C   C1418     1.0  0.10477  0.55166  0.54061  1.0000
  C   C1419     1.0  0.07577  0.59051  0.54461  1.0000
  C   C1420     1.0  0.06987  0.60875  0.55106  1.0000
  C   C1421     1.0  0.05666  0.62552  0.54262  1.0000
  C   C1422     1.0  0.04938  0.62428  0.52758  1.0000
  C   C1423     1.0  0.05556  0.60637  0.52076  1.0000
  C   C1424     1.0  0.06859  0.58946  0.52931  1.0000
  C   C1425     1.0  0.12468  0.55252  0.52996  1.0000
  C   C1426     1.0  0.48744  0.50171  0.65794  1.0000
  C   C1427     1.0  0.48611  0.60191  0.72100  1.0000
  C   C1428     1.0  0.39802  0.35260  0.57969  1.0000
  C   C1429     1.0  0.09476  0.53769  0.53845  1.0000
  C   C1430     1.0  0.10969  0.57738  0.56411  1.0000
  C   C1431     1.0  0.12031  0.59205  0.55154  1.0000
  C   C1432     1.0  0.13378  0.59943  0.55740  1.0000
  C   C1433     1.0  0.13640  0.59255  0.57595  1.0000
  C   C1434     1.0  0.12596  0.57794  0.58853  1.0000
  C   C1435     1.0  0.11261  0.57039  0.58268  1.0000
  C   C1436     1.0  0.01778  0.43435  0.70255  1.0000
  H   H1138     1.0  0.43721  0.45262  0.62865  1.0000
  C   C1437     1.0  0.17394  0.63758  0.62240  1.0000
  H   H1139     1.0  0.09914  0.52734  0.57991  1.0000
  H   H1140     1.0  0.04947  0.58021  0.57843  1.0000
  H   H1141     1.0  0.07537  0.60995  0.56272  1.0000
  C   C1438     1.0  0.12422  0.52585  0.51524  1.0000
  H   H1142     1.0  0.23873  0.63878  0.63719  1.0000
  H   H1143     1.0  0.42488  0.64436  0.69623  1.0000
  H   H1144     1.0  0.07295  0.57572  0.52391  1.0000
  H   H1145     1.0  0.32836  0.61987  0.51404  1.0000
  C   C1439     1.0  0.39577  0.36360  0.56160  1.0000
  S   S188      1.0  0.24573  0.64505  0.54486  1.0000
  C   C1440     1.0  0.40161  0.33116  0.58402  1.0000
  H   H1146     1.0  0.07932  0.53689  0.54637  1.0000
  H   H1147     1.0  0.11778  0.59817  0.53736  1.0000
  H   H1148     1.0  0.14612  0.59885  0.58078  1.0000
  H   H1149     1.0  0.12743  0.57321  0.60309  1.0000
  H   H1150     1.0  0.10407  0.55978  0.59295  1.0000
  C   C1441     1.0  0.39736  0.63925  0.69237  1.0000
  C   C1442     1.0  0.19136  0.64460  0.52907  1.0000
  H   H1151     1.0  0.39718  0.59607  0.58277  1.0000
  C   C1443     1.0  0.04386  0.55381  0.60001  1.0000
  C   C1444     1.0  0.35634  0.62305  0.59080  1.0000
  C   C1445     1.0  0.20740  0.62913  0.53484  1.0000
  H   H1152     1.0  0.05230  0.63964  0.54755  1.0000
  H   H1153     1.0  0.26637  0.56273  0.55275  1.0000
  C   C1446     1.0  0.05176  0.53376  0.60845  1.0000
  C   C1447     1.0  0.10447  0.52482  0.52586  1.0000
  C   C1448     1.0  0.40124  0.64435  0.72163  1.0000
  H   H1154     1.0  0.34024  0.57808  0.60676  1.0000
  C   C1449     1.0  0.00137  0.48290  0.72628  1.0000
  C   C1450     1.0  0.48033  0.50304  0.55578  1.0000
  Fe  Fe90      1.0  0.38365  0.62012  0.66195  1.0000
  H   H1155     1.0  0.47288  0.54940  0.51397  1.0000
  C   C1451     1.0  0.43566  0.45453  0.72183  1.0000
  C   C1452     1.0  0.18589  0.61825  0.62066  1.0000
  C   C1453     1.0  0.48673  0.59596  0.61658  1.0000
  C   C1454     1.0  0.35789  0.62323  0.51496  1.0000
  C   C1455     1.0  0.33310  0.60080  0.58225  1.0000
  H   H1156     1.0  0.35580  0.61746  0.53010  1.0000
  C   C1456     1.0  0.21441  0.58940  0.49990  1.0000
  H   H1157     1.0  0.46045  0.55426  0.54655  1.0000
  H   H1158     1.0  0.14164  0.61102  0.54773  1.0000
  C   C1457     1.0  0.34798  0.63058  0.57475  1.0000
  H   H1159     1.0  0.33695  0.58216  0.50909  1.0000
  C   C1458     1.0  0.47485  0.53643  0.52567  1.0000
  C   C1459     1.0  0.42841  0.46199  0.70518  1.0000
  P   P48       1.0  0.19246  0.57834  0.50406  1.0000
  S   S189      1.0  0.33779  0.35582  0.48762  1.0000
  C   C1460     1.0  0.20108  0.61602  0.60440  1.0000
  C   C1461     1.0  0.39901  0.48352  0.72112  1.0000
  C   C1462     1.0  0.41026  0.47656  0.70475  1.0000
  P   P49       1.0  0.37681  0.50382  0.72008  1.0000
  C   C1463     1.0  0.41572  0.32940  0.61795  1.0000
  C   C1464     1.0  0.37589  0.62960  0.50452  1.0000
  C   C1465     1.0  0.39492  0.53609  0.69746  1.0000
  H   H1160     1.0  0.18124  0.62067  0.50870  1.0000
  C   C1466     1.0  0.39903  0.54842  0.72817  1.0000
  H   H1161     1.0  0.43446  0.50799  0.71297  1.0000
  C   C1467     1.0  0.36472  0.50303  0.70211  1.0000
  C   C1468     1.0  0.36253  0.48414  0.70054  1.0000
  C   C1469     1.0  0.35372  0.48312  0.68640  1.0000
  C   C1470     1.0  0.34695  0.50092  0.67378  1.0000
  C   C1471     1.0  0.34855  0.51984  0.67559  1.0000
  C   C1472     1.0  0.35708  0.52096  0.68991  1.0000
  H   H1162     1.0  0.43678  0.45658  0.69254  1.0000
  H   H1163     1.0  0.29552  0.37799  0.49156  1.0000
  C   C1473     1.0  0.40493  0.56315  0.58879  1.0000
  Fe  Fe91      1.0  0.08875  0.64462  0.57772  1.0000
  H   H1164     1.0  0.40515  0.48239  0.69159  1.0000
  H   H1165     1.0  0.39453  0.53088  0.68532  1.0000
  C   C1474     1.0  0.40415  0.55253  0.69451  1.0000
  H   H1166     1.0  0.21030  0.60110  0.60280  1.0000
  H   H1167     1.0  0.36793  0.47010  0.71004  1.0000
  H   H1168     1.0  0.35250  0.46842  0.68508  1.0000
  H   H1169     1.0  0.34084  0.49996  0.66239  1.0000
  H   H1170     1.0  0.34362  0.53358  0.66561  1.0000
  H   H1171     1.0  0.35792  0.53578  0.69120  1.0000
  S   S190      1.0  0.99808  0.59509  0.61913  1.0000
  C   C1475     1.0  0.46065  0.62982  0.65777  1.0000
  S   S191      1.0  0.29173  0.64938  0.49941  1.0000
  H   H1172     1.0  0.02845  0.56117  0.60579  1.0000
  H   H1173     1.0  0.39237  0.38014  0.55852  1.0000
  C   C1476     1.0  0.00134  0.41860  0.73385  1.0000
  S   S192      1.0  0.28231  0.60400  0.54014  1.0000
  S   S193      1.0  0.41750  0.60723  0.61519  1.0000
  C   C1477     1.0  0.47409  0.62655  0.66968  1.0000
  C   C1478     1.0  0.38733  0.59547  0.73641  1.0000
  Fe  Fe92      1.0  0.27869  0.63798  0.53023  1.0000
  H   H1174     1.0  0.07783  0.50878  0.60782  1.0000
  C   C1479     1.0  0.47889  0.53739  0.60735  1.0000
  H   H1175     1.0  0.25992  0.60686  0.62782  1.0000
  C   C1480     1.0  0.22684  0.58412  0.51308  1.0000
  C   C1481     1.0  0.46714  0.63618  0.63829  1.0000
  S   S194      1.0  0.37468  0.60131  0.64681  1.0000
  C   C1482     1.0  0.41461  0.35674  0.63276  1.0000
  H   H1176     1.0  0.01126  0.65369  0.61677  1.0000
  H   H1177     1.0  0.46913  0.49995  0.62065  1.0000
  H   H1178     1.0  0.01734  0.62363  0.58972  1.0000
  C   C1483     1.0  0.44418  0.57929  0.72569  1.0000
  C   C1484     1.0  0.43569  0.47573  0.60319  1.0000
  C   C1485     1.0  0.26664  0.62000  0.62516  1.0000
  S   S195      1.0  0.39134  0.64430  0.63615  1.0000
  C   C1486     1.0  0.44553  0.56741  0.57929  1.0000
  H   H1179     1.0  0.29613  0.60543  0.61125  1.0000
  C   C1487     1.0  0.45373  0.50283  0.59832  1.0000
  C   C1488     1.0  0.16775  0.63183  0.55726  1.0000
  C   C1489     1.0  0.37731  0.63703  0.70074  1.0000
  C   C1490     1.0  0.48345  0.37554  0.58692  1.0000
  C   C1491     1.0  0.36869  0.64007  0.71916  1.0000
  C   C1492     1.0  0.34240  0.59269  0.59777  1.0000
  H   H1180     1.0  0.16224  0.63914  0.63509  1.0000
  H   H1181     1.0  0.44519  0.62762  0.66368  1.0000
  S   S196      1.0  0.08532  0.61607  0.60034  1.0000
  S   S197      1.0  0.10104  0.64604  0.54662  1.0000
  H   H1182     1.0  0.40607  0.37015  0.63825  1.0000
  C   C1493     1.0  0.39696  0.35333  0.54773  1.0000
  H   H1183     1.0  0.22265  0.62833  0.52607  1.0000
  H   H1184     1.0  0.43313  0.59984  0.57420  1.0000
  H   H1185     1.0  0.46508  0.38306  0.61320  1.0000
  H   H1186     1.0  0.33741  0.63597  0.65775  1.0000
  H   H1187     1.0  0.04245  0.52570  0.62079  1.0000
  C   C1494     1.0  0.04701  0.62076  0.59464  1.0000
  C   C1495     1.0  0.16858  0.61722  0.50531  1.0000
  H   H1188     1.0  0.38915  0.56153  0.59282  1.0000
  H   H1189     1.0  0.03018  0.63167  0.64058  1.0000
  C   C1496     1.0  0.38689  0.52625  0.71590  1.0000
  C   C1497     1.0  0.17154  0.64621  0.54033  1.0000
  C   C1498     1.0  0.46985  0.58721  0.62612  1.0000
  C   C1499     1.0  0.00302  0.64530  0.62958  1.0000
  H   H1190     1.0  0.35310  0.63855  0.72563  1.0000
  S   S198      1.0  0.41595  0.60217  0.66006  1.0000
  H   H1191     1.0  0.46500  0.48125  0.70389  1.0000
  H   H1192     1.0  0.46117  0.56938  0.57552  1.0000
  C   C1500     1.0  0.40942  0.58260  0.58314  1.0000
  C   C1501     1.0  0.44119  0.54777  0.58482  1.0000
  C   C1502     1.0  0.40916  0.64323  0.70269  1.0000
  C   C1503     1.0  0.49324  0.51778  0.66150  1.0000
  H   H1193     1.0  0.09662  0.51411  0.52426  1.0000
  C   C1504     1.0  0.46340  0.48768  0.71588  1.0000
  C   C1505     1.0  0.48701  0.63982  0.63085  1.0000
  H   H1194     1.0  0.45734  0.58987  0.61936  1.0000
  H   H1195     1.0  0.36055  0.59779  0.61439  1.0000
  S   S199      1.0  0.36934  0.63824  0.59639  1.0000
  H   H1196     1.0  0.48581  0.59757  0.70842  1.0000
  Fe  Fe93      1.0  0.42311  0.62521  0.63312  1.0000
  C   C1506     1.0  0.29973  0.51655  0.65146  1.0000
  C   C1507     1.0  0.30568  0.53363  0.65282  1.0000
  C   C1508     1.0  0.31761  0.54430  0.63710  1.0000
  C   C1509     1.0  0.32370  0.53783  0.62006  1.0000
  C   C1510     1.0  0.31806  0.52052  0.61862  1.0000
  C   C1511     1.0  0.30570  0.51013  0.63438  1.0000
  P   P50       1.0  0.32449  0.51336  0.59611  1.0000
  C   C1512     1.0  0.30598  0.52903  0.58242  1.0000
  C   C1513     1.0  0.34961  0.51824  0.58389  1.0000
  C   C1514     1.0  0.36730  0.50308  0.58588  1.0000
  C   C1515     1.0  0.38663  0.50764  0.57773  1.0000
  C   C1516     1.0  0.38850  0.52732  0.56744  1.0000
  C   C1517     1.0  0.37100  0.54241  0.56510  1.0000
  C   C1518     1.0  0.35167  0.53785  0.57317  1.0000
  C   C1519     1.0  0.31031  0.53055  0.56284  1.0000
  C   C1520     1.0  0.29607  0.54262  0.55216  1.0000
  C   C1521     1.0  0.27744  0.55329  0.56095  1.0000
  C   C1522     1.0  0.27311  0.55204  0.58037  1.0000
  C   C1523     1.0  0.28727  0.53993  0.59110  1.0000
  C   C1524     1.0  0.32445  0.48651  0.59991  1.0000
  C   C1525     1.0  0.31484  0.47982  0.58929  1.0000
  C   C1526     1.0  0.31433  0.45914  0.59272  1.0000
  C   C1527     1.0  0.32330  0.44500  0.60680  1.0000
  C   C1528     1.0  0.33304  0.45144  0.61731  1.0000
  C   C1529     1.0  0.33358  0.47210  0.61396  1.0000
  H   H1197     1.0  0.29046  0.50827  0.66363  1.0000
  H   H1198     1.0  0.30108  0.53857  0.66605  1.0000
  H   H1199     1.0  0.32216  0.55763  0.63805  1.0000
  H   H1200     1.0  0.33264  0.54648  0.60798  1.0000
  H   H1201     1.0  0.30053  0.49715  0.63351  1.0000
  H   H1202     1.0  0.36637  0.48790  0.59423  1.0000
  H   H1203     1.0  0.40009  0.49594  0.57993  1.0000
  C   C1530     1.0  0.45992  0.49341  0.61544  1.0000
  H   H1204     1.0  0.37230  0.55780  0.55740  1.0000
  H   H1205     1.0  0.33830  0.54980  0.57150  1.0000
  H   H1206     1.0  0.32469  0.52236  0.55587  1.0000
  H   H1207     1.0  0.29949  0.54379  0.53707  1.0000
  S   S200      1.0  0.29014  0.64231  0.55360  1.0000
  H   H1208     1.0  0.05094  0.63266  0.58255  1.0000
  H   H1209     1.0  0.28358  0.53930  0.60611  1.0000
  H   H1210     1.0  0.30758  0.49044  0.57845  1.0000
  H   H1211     1.0  0.30697  0.45398  0.58449  1.0000
  H   H1212     1.0  0.32280  0.42899  0.60951  1.0000
  H   H1213     1.0  0.34020  0.44029  0.62805  1.0000
  H   H1214     1.0  0.34108  0.47682  0.62238  1.0000
  S   S201      1.0  0.25953  0.61255  0.58212  1.0000
  C   C1531     1.0  0.41337  0.41452  0.73515  1.0000
  C   C1532     1.0  0.44641  0.50281  0.72084  1.0000
  H   H1215     1.0  0.41008  0.56027  0.68032  1.0000
  Fe  Fe94      1.0  0.25003  0.61138  0.55651  1.0000
  C   C1533     1.0  0.47591  0.62135  0.72395  1.0000
  C   C1534     1.0  0.44158  0.49381  0.59227  1.0000
  H   H1216     1.0  0.44971  0.44315  0.72226  1.0000
  Fe  Fe95      1.0  0.29147  0.60874  0.56468  1.0000
  C   C1535     1.0  0.01905  0.42283  0.72072  1.0000
  H   H1217     1.0  0.01228  0.61140  0.66997  1.0000
  C   C1536     1.0  0.45552  0.55929  0.72857  1.0000
  C   C1537     1.0  0.47904  0.53113  0.67215  1.0000
  C   C1538     1.0  0.45410  0.47525  0.62622  1.0000
  C   C1539     1.0  0.00377  0.62146  0.65970  1.0000
  C   C1540     1.0  0.46723  0.49936  0.66427  1.0000
  C   C1541     1.0  0.45273  0.51329  0.67389  1.0000
  C   C1542     1.0  0.45862  0.52902  0.67792  1.0000
  C   C1543     1.0  0.46915  0.57504  0.64431  1.0000
  C   C1544     1.0  0.46751  0.56262  0.69467  1.0000
  C   C1545     1.0  0.46729  0.55101  0.71312  1.0000
  C   C1546     1.0  0.16988  0.59804  0.50197  1.0000
  H   H1218     1.0  0.41379  0.57116  0.70735  1.0000
  C   C1547     1.0  0.44403  0.59075  0.70733  1.0000
  C   C1548     1.0  0.45548  0.58237  0.69185  1.0000
  H   H1219     1.0  0.13282  0.56305  0.53132  1.0000
  H   H1220     1.0  0.40348  0.53092  0.56148  1.0000
  H   H1221     1.0  0.14973  0.64687  0.50719  1.0000
  C   C1549     1.0  0.20373  0.61483  0.55181  1.0000
  S   S202      1.0  0.45057  0.64014  0.62302  1.0000
  H   H1222     1.0  0.46283  0.48678  0.66166  1.0000
  H   H1223     1.0  0.43691  0.51188  0.67830  1.0000
  H   H1224     1.0  0.44711  0.53977  0.68520  1.0000
  H   H1225     1.0  0.45601  0.56820  0.65133  1.0000
  H   H1226     1.0  0.36011  0.38338  0.73155  1.0000
  S   S203      1.0  0.22421  0.59609  0.55949  1.0000
  C   C1550     1.0  0.01383  0.63290  0.64318  1.0000
  H   H1227     1.0  0.43545  0.60632  0.70509  1.0000
  P   P51       1.0  0.48574  0.55311  0.67534  1.0000
  H   H1228     1.0  0.49102  0.46823  0.72287  1.0000
  C   C1551     1.0  0.13429  0.53972  0.51727  1.0000
  H   H1229     1.0  0.03367  0.41751  0.72474  1.0000
  H   H1230     1.0  0.39465  0.36192  0.53388  1.0000
  C   C1552     1.0  0.40011  0.33204  0.55201  1.0000
  H   H1231     1.0  0.42973  0.40914  0.73144  1.0000
  H   H1232     1.0  0.05035  0.60574  0.50871  1.0000
  H   H1233     1.0  0.12213  0.60596  0.49401  1.0000
  S   S204      1.0  0.32755  0.32911  0.57402  1.0000
  C   C1553     1.0  0.49417  0.62952  0.66226  1.0000
  Fe  Fe96      1.0  0.30477  0.33091  0.55699  1.0000
  H   H1234     1.0  0.29500  0.33649  0.51070  1.0000
  C   C1554     1.0  0.15286  0.59385  0.49834  1.0000
  H   H1235     1.0  0.99816  0.45127  0.68364  1.0000
  C   C1555     1.0  0.49317  0.43596  0.65250  1.0000
  C   C1556     1.0  0.07637  0.65606  0.50179  1.0000
  C   C1557     1.0  0.44476  0.51118  0.73611  1.0000
  H   H1236     1.0  0.48693  0.60589  0.60271  1.0000
  C   C1558     1.0  0.48735  0.50040  0.53721  1.0000
  H   H1237     1.0  0.38777  0.62873  0.51161  1.0000
  H   H1238     1.0  0.21784  0.53793  0.50068  1.0000
  H   H1239     1.0  0.46206  0.32635  0.62689  1.0000
  C   C1559     1.0  0.17700  0.65476  0.60776  1.0000
  H   H1240     1.0  0.49214  0.54527  0.62631  1.0000
  H   H1241     1.0  0.49018  0.51506  0.50775  1.0000
  C   C1560     1.0  0.31776  0.59401  0.48886  1.0000
  C   C1561     1.0  0.99578  0.51952  0.72216  1.0000
  H   H1242     1.0  0.26223  0.61297  0.48896  1.0000
  H   H1243     1.0  0.30747  0.60527  0.49648  1.0000
  H   H1244     1.0  0.08582  0.65021  0.51205  1.0000
  C   C1562     1.0  0.26325  0.65513  0.62656  1.0000
  C   C1563     1.0  0.24914  0.60610  0.49191  1.0000
  H   H1245     1.0  0.36096  0.55714  0.49114  1.0000
  C   C1564     1.0  0.36974  0.59004  0.73558  1.0000
  H   H1246     1.0  0.49503  0.48541  0.53449  1.0000
  C   C1565     1.0  0.07991  0.64660  0.48666  1.0000
  H   H1247     1.0  0.31207  0.63752  0.90965  1.0000
  S   S205      1.0  0.99816  0.43437  0.79164  1.0000
  S   S206      1.0  0.07716  0.37175  0.92819  1.0000
  H   H1248     1.0  0.08590  0.33384  0.91577  1.0000
  H   H1249     1.0  0.37817  0.63620  0.86097  1.0000
  H   H1250     1.0  0.37870  0.59161  0.78352  1.0000
  H   H1251     1.0  0.46864  0.64225  0.74230  1.0000
  C   C1566     1.0  0.33758  0.39522  0.75405  1.0000
  S   S207      1.0  0.01765  0.40490  0.83762  1.0000
  C   C1567     1.0  0.37600  0.59103  0.77027  1.0000
  H   H1252     1.0  0.40350  0.60132  0.75424  1.0000
  H   H1253     1.0  0.47140  0.44650  0.75896  1.0000
  H   H1254     1.0  0.46370  0.48442  0.83405  1.0000
  Fe  Fe97      1.0  0.41408  0.60744  0.80337  1.0000
  S   S208      1.0  0.41287  0.57533  0.82027  1.0000
  Fe  Fe98      1.0  0.10919  0.41366  0.90459  1.0000
  S   S209      1.0  0.12550  0.43951  0.88972  1.0000
  Fe  Fe99      1.0  0.06687  0.40450  0.91415  1.0000
  C   C1568     1.0  0.32276  0.34161  0.81459  1.0000
  S   S210      1.0  0.03483  0.41984  0.91053  1.0000
  Fe  Fe100     1.0  0.09549  0.38413  0.94108  1.0000
  S   S211      1.0  0.10227  0.37018  0.97000  1.0000
  S   S212      1.0  0.08283  0.41693  0.92930  1.0000
  H   H1255     1.0  0.43998  0.48339  0.81532  1.0000
  S   S213      1.0  0.31521  0.37195  0.88658  1.0000
  Fe  Fe101     1.0  0.40395  0.47826  0.79583  1.0000
  S   S214      1.0  0.43035  0.45155  0.79412  1.0000
  S   S215      1.0  0.40822  0.50972  0.77844  1.0000
  Fe  Fe102     1.0  0.37498  0.45120  0.82206  1.0000
  S   S216      1.0  0.39940  0.42253  0.82263  1.0000
  S   S217      1.0  0.34173  0.45382  0.83692  1.0000
  Fe  Fe103     1.0  0.41912  0.44192  0.82535  1.0000
  S   S218      1.0  0.43907  0.43351  0.84656  1.0000
  Fe  Fe104     1.0  0.40837  0.43482  0.79132  1.0000
  S   S219      1.0  0.41958  0.41584  0.76911  1.0000
  S   S220      1.0  0.39388  0.46970  0.82729  1.0000
  S   S221      1.0  0.38271  0.46225  0.79053  1.0000
  C   C1569     1.0  0.02426  0.41561  0.97948  1.0000
  C   C1570     1.0  0.46515  0.43247  0.83603  1.0000
  C   C1571     1.0  0.47327  0.42715  0.81854  1.0000
  H   H1256     1.0  0.47944  0.59133  0.79898  1.0000
  C   C1572     1.0  0.02924  0.37581  0.97531  1.0000
  C   C1573     1.0  0.31768  0.33933  0.93340  1.0000
  C   C1574     1.0  0.47791  0.43721  0.84503  1.0000
  H   H1257     1.0  0.46374  0.42294  0.81172  1.0000
  H   H1258     1.0  0.29694  0.33749  0.86770  1.0000
  H   H1259     1.0  0.16893  0.33837  0.96151  1.0000
  H   H1260     1.0  0.47172  0.44116  0.85867  1.0000
  C   C1575     1.0  0.32215  0.39487  0.87292  1.0000
  C   C1576     1.0  0.34287  0.39556  0.86684  1.0000
  C   C1577     1.0  0.34899  0.41347  0.85556  1.0000
  C   C1578     1.0  0.33438  0.43107  0.85091  1.0000
  C   C1579     1.0  0.31357  0.43060  0.85760  1.0000
  C   C1580     1.0  0.30744  0.41240  0.86823  1.0000
  H   H1261     1.0  0.35424  0.38218  0.87086  1.0000
  H   H1262     1.0  0.36502  0.41374  0.85091  1.0000
  H   H1263     1.0  0.30218  0.44423  0.85421  1.0000
  H   H1264     1.0  0.29139  0.41196  0.87292  1.0000
  C   C1581     1.0  0.15232  0.43310  0.88571  1.0000
  C   C1582     1.0  0.16342  0.44788  0.87456  1.0000
  H   H1265     1.0  0.26727  0.57799  0.79652  1.0000
  H   H1266     1.0  0.15553  0.46253  0.86783  1.0000
  H   H1267     1.0  0.19309  0.45560  0.86416  1.0000
  H   H1268     1.0  0.06005  0.36273  0.82084  1.0000
  H   H1269     1.0  0.38139  0.35259  0.85615  1.0000
  C   C1583     1.0  0.48024  0.53563  0.81077  1.0000
  C   C1584     1.0  0.47756  0.64142  0.98094  1.0000
  H   H1270     1.0  0.07132  0.40744  0.97225  1.0000
  C   C1585     1.0  0.38305  0.42603  0.75764  1.0000
  C   C1586     1.0  0.16269  0.41402  0.89405  1.0000
  C   C1587     1.0  0.35544  0.58471  0.75215  1.0000
  H   H1271     1.0  0.37586  0.42947  0.77137  1.0000
  C   C1588     1.0  0.18642  0.36817  0.97977  1.0000
  C   C1589     1.0  0.41165  0.55728  0.80845  1.0000
  C   C1590     1.0  0.41489  0.56149  0.78879  1.0000
  C   C1591     1.0  0.41368  0.54685  0.77972  1.0000
  C   C1592     1.0  0.40942  0.52785  0.79025  1.0000
  C   C1593     1.0  0.40632  0.52365  0.80991  1.0000
  C   C1594     1.0  0.40744  0.53830  0.81897  1.0000
  H   H1272     1.0  0.41860  0.57593  0.78060  1.0000
  H   H1273     1.0  0.41643  0.55015  0.76453  1.0000
  H   H1274     1.0  0.40304  0.50913  0.81818  1.0000
  H   H1275     1.0  0.40503  0.53490  0.83419  1.0000
  Fe  Fe105     1.0  0.24746  0.36275  0.92993  1.0000
  C   C1595     1.0  0.35842  0.58534  0.76962  1.0000
  C   C1596     1.0  0.27030  0.44829  0.93875  1.0000
  C   C1597     1.0  0.02895  0.41505  0.89107  1.0000
  C   C1598     1.0  0.01356  0.42876  0.88249  1.0000
  C   C1599     1.0  0.00965  0.42574  0.86622  1.0000
  C   C1600     1.0  0.02086  0.40876  0.85870  1.0000
  C   C1601     1.0  0.03562  0.39472  0.86778  1.0000
  C   C1602     1.0  0.03994  0.39798  0.88369  1.0000
  H   H1276     1.0  0.00496  0.44197  0.88816  1.0000
  H   H1277     1.0  0.03106  0.36054  0.97341  1.0000
  H   H1278     1.0  0.04382  0.38131  0.86239  1.0000
  H   H1279     1.0  0.05172  0.38722  0.89025  1.0000
  H   H1280     1.0  0.34890  0.62315  0.90806  1.0000
  S   S222      1.0  0.12317  0.38178  0.91748  1.0000
  H   H1281     1.0  0.32611  0.55403  0.82818  1.0000
  Fe  Fe106     1.0  0.25278  0.34562  0.89523  1.0000
  Fe  Fe107     1.0  0.39197  0.65081  0.80420  1.0000
  C   C1603     1.0  0.24522  0.34931  0.84331  1.0000
  H   H1282     1.0  0.43743  0.65380  0.95038  1.0000
  C   C1604     1.0  0.08846  0.38571  0.84485  1.0000
  C   C1605     1.0  0.08133  0.39756  0.82869  1.0000
  C   C1606     1.0  0.07125  0.38901  0.82000  1.0000
  P   P52       1.0  0.08689  0.42270  0.81823  1.0000
  C   C1607     1.0  0.08423  0.43575  0.83673  1.0000
  C   C1608     1.0  0.11299  0.42013  0.80478  1.0000
  C   C1609     1.0  0.11895  0.43640  0.79027  1.0000
  C   C1610     1.0  0.13933  0.43497  0.78047  1.0000
  C   C1611     1.0  0.15395  0.41739  0.78521  1.0000
  C   C1612     1.0  0.14821  0.40122  0.79975  1.0000
  C   C1613     1.0  0.12784  0.40256  0.80951  1.0000
  C   C1614     1.0  0.06669  0.43641  0.85134  1.0000
  C   C1615     1.0  0.06444  0.44667  0.86554  1.0000
  C   C1616     1.0  0.08007  0.45559  0.86574  1.0000
  C   C1617     1.0  0.09775  0.45473  0.85146  1.0000
  C   C1618     1.0  0.09978  0.44503  0.83690  1.0000
  C   C1619     1.0  0.06943  0.43688  0.80288  1.0000
  C   C1620     1.0  0.07411  0.43471  0.78409  1.0000
  C   C1621     1.0  0.06066  0.44527  0.77217  1.0000
  C   C1622     1.0  0.04234  0.45794  0.77892  1.0000
  C   C1623     1.0  0.03738  0.45994  0.79762  1.0000
  C   C1624     1.0  0.05079  0.44944  0.80959  1.0000
  H   H1283     1.0  0.09618  0.39194  0.85190  1.0000
  H   H1284     1.0  0.06501  0.39787  0.80789  1.0000
  H   H1285     1.0  0.10787  0.45030  0.78670  1.0000
  H   H1286     1.0  0.14379  0.44757  0.76926  1.0000
  H   H1287     1.0  0.16975  0.41633  0.77766  1.0000
  H   H1288     1.0  0.15954  0.38765  0.80358  1.0000
  H   H1289     1.0  0.12388  0.38993  0.82082  1.0000
  H   H1290     1.0  0.05471  0.42900  0.85175  1.0000
  H   H1291     1.0  0.05078  0.44726  0.87668  1.0000
  H   H1292     1.0  0.07867  0.46278  0.87719  1.0000
  H   H1293     1.0  0.11002  0.46129  0.85191  1.0000
  H   H1294     1.0  0.11363  0.44460  0.82605  1.0000
  H   H1295     1.0  0.08800  0.42460  0.77872  1.0000
  C   C1625     1.0  0.17152  0.34048  0.84354  1.0000
  C   C1626     1.0  0.32995  0.51509  0.76505  1.0000
  H   H1296     1.0  0.02291  0.46944  0.80289  1.0000
  H   H1297     1.0  0.04622  0.45104  0.82404  1.0000
  H   H1298     1.0  0.35017  0.49330  0.81874  1.0000
  P   P53       1.0  0.38457  0.64167  0.89573  1.0000
  C   C1627     1.0  0.32283  0.64757  0.90454  1.0000
  C   C1628     1.0  0.13958  0.45942  0.97621  1.0000
  C   C1629     1.0  0.35774  0.65241  0.89675  1.0000
  C   C1630     1.0  0.09653  0.46313  0.94450  1.0000
  C   C1631     1.0  0.09127  0.46849  0.92683  1.0000
  P   P54       1.0  0.12204  0.46303  0.94604  1.0000
  H   H1299     1.0  0.48738  0.61861  0.76541  1.0000
  C   C1632     1.0  0.13854  0.43858  0.94344  1.0000
  C   C1633     1.0  0.15958  0.43718  0.93585  1.0000
  C   C1634     1.0  0.17246  0.41828  0.93412  1.0000
  C   C1635     1.0  0.16449  0.40061  0.94014  1.0000
  C   C1636     1.0  0.14365  0.40181  0.94791  1.0000
  C   C1637     1.0  0.13065  0.42072  0.94953  1.0000
  C   C1638     1.0  0.34369  0.63949  0.90357  1.0000
  H   H1300     1.0  0.04207  0.46231  0.94080  1.0000
  H   H1301     1.0  0.35472  0.43306  0.74850  1.0000
  C   C1639     1.0  0.34226  0.37875  0.78589  1.0000
  H   H1302     1.0  0.34914  0.35732  0.84689  1.0000
  C   C1640     1.0  0.13157  0.48311  0.92740  1.0000
  C   C1641     1.0  0.13030  0.50226  0.93090  1.0000
  C   C1642     1.0  0.13790  0.51759  0.91639  1.0000
  C   C1643     1.0  0.14677  0.51395  0.89831  1.0000
  C   C1644     1.0  0.14795  0.49500  0.89469  1.0000
  C   C1645     1.0  0.14031  0.47969  0.90914  1.0000
  C   C1646     1.0  0.99773  0.48059  0.74593  1.0000
  C   C1647     1.0  0.34460  0.51773  0.74812  1.0000
  C   C1648     1.0  0.28433  0.42164  0.82367  1.0000
  H   H1303     1.0  0.43024  0.61692  0.94066  1.0000
  H   H1304     1.0  0.10234  0.47237  0.91393  1.0000
  H   H1305     1.0  0.16611  0.45066  0.93119  1.0000
  H   H1306     1.0  0.18860  0.41734  0.92781  1.0000
  H   H1307     1.0  0.17445  0.38607  0.93846  1.0000
  C   C1649     1.0  0.25196  0.34701  0.82468  1.0000
  C   C1650     1.0  0.15144  0.34769  0.84085  1.0000
  H   H1308     1.0  0.40309  0.62656  0.96786  1.0000
  C   C1651     1.0  0.36576  0.36660  0.75888  1.0000
  H   H1309     1.0  0.31305  0.36671  0.85006  1.0000
  C   C1652     1.0  0.23791  0.34695  0.81461  1.0000
  H   H1310     1.0  0.25616  0.34916  0.85115  1.0000
  H   H1311     1.0  0.12348  0.50548  0.94475  1.0000
  H   H1312     1.0  0.13691  0.53232  0.91918  1.0000
  H   H1313     1.0  0.15269  0.52580  0.88708  1.0000
  H   H1314     1.0  0.15480  0.49212  0.88068  1.0000
  H   H1315     1.0  0.14118  0.46514  0.90607  1.0000
  C   C1653     1.0  0.35555  0.58110  0.82038  1.0000
  C   C1654     1.0  0.24636  0.36554  0.97606  1.0000
  C   C1655     1.0  0.37509  0.38322  0.80603  1.0000
  C   C1656     1.0  0.25609  0.39419  0.98136  1.0000
  H   H1316     1.0  0.09097  0.35660  0.86458  1.0000
  Fe  Fe108     1.0  0.10398  0.37205  0.90364  1.0000
  C   C1657     1.0  0.32843  0.49543  0.77571  1.0000
  C   C1658     1.0  0.34132  0.47841  0.76928  1.0000
  C   C1659     1.0  0.31330  0.43800  0.81300  1.0000
  H   H1317     1.0  0.19726  0.39011  0.82443  1.0000
  C   C1660     1.0  0.08581  0.36557  0.85195  1.0000
  C   C1661     1.0  0.45597  0.48310  0.80878  1.0000
  H   H1318     1.0  0.31734  0.49335  0.78898  1.0000
  H   H1319     1.0  0.34021  0.46313  0.77744  1.0000
  C   C1662     1.0  0.40997  0.62678  0.92139  1.0000
  S   S223      1.0  0.41661  0.63014  0.81838  1.0000
  H   H1320     1.0  0.31991  0.52828  0.77000  1.0000
  C   C1663     1.0  0.48719  0.61353  0.75318  1.0000
  C   C1664     1.0  0.39352  0.38019  0.81140  1.0000
  C   C1665     1.0  0.39583  0.36915  0.82943  1.0000
  C   C1666     1.0  0.37974  0.36091  0.84206  1.0000
  C   C1667     1.0  0.44873  0.65039  0.95882  1.0000
  H   H1321     1.0  0.45560  0.55037  0.74278  1.0000
  H   H1322     1.0  0.40599  0.38662  0.80161  1.0000
  H   H1323     1.0  0.41002  0.36721  0.83363  1.0000
  C   C1668     1.0  0.37954  0.63777  0.95194  1.0000
  C   C1669     1.0  0.41470  0.62340  0.93898  1.0000
  H   H1324     1.0  0.06225  0.33906  0.95340  1.0000
  H   H1325     1.0  0.35167  0.61890  0.84256  1.0000
  C   C1670     1.0  0.21313  0.43298  0.97702  1.0000
  C   C1671     1.0  0.47651  0.62717  0.74000  1.0000
  C   C1672     1.0  0.17191  0.38186  0.84709  1.0000
  H   H1326     1.0  0.40108  0.55276  0.74011  1.0000
  S   S224      1.0  0.26302  0.37335  0.87530  1.0000
  C   C1673     1.0  0.29229  0.43915  0.81955  1.0000
  H   H1327     1.0  0.14807  0.44003  0.83703  1.0000
  H   H1328     1.0  0.48174  0.60844  0.82247  1.0000
  H   H1329     1.0  0.38464  0.52402  0.74560  1.0000
  C   C1674     1.0  0.48386  0.63549  0.91394  1.0000
  C   C1675     1.0  0.17574  0.35436  0.90843  1.0000
  C   C1676     1.0  0.35596  0.48103  0.75240  1.0000
  H   H1330     1.0  0.00207  0.41010  0.74813  1.0000
  C   C1677     1.0  0.06850  0.36892  0.82724  1.0000
  H   H1331     1.0  0.26805  0.42247  0.82899  1.0000
  H   H1332     1.0  0.15432  0.40257  0.90268  1.0000
  C   C1678     1.0  0.33122  0.39375  0.77356  1.0000
  C   C1679     1.0  0.21713  0.34917  0.82322  1.0000
  H   H1333     1.0  0.26808  0.34519  0.81812  1.0000
  H   H1334     1.0  0.32993  0.34235  0.79983  1.0000
  H   H1335     1.0  0.15267  0.44958  0.96941  1.0000
  C   C1680     1.0  0.20013  0.42929  0.96772  1.0000
  H   H1336     1.0  0.02233  0.43103  0.98109  1.0000
  H   H1337     1.0  0.19979  0.35183  0.95742  1.0000
  H   H1338     1.0  0.32254  0.62049  0.79903  1.0000
  C   C1681     1.0  0.40423  0.41919  0.75293  1.0000
  C   C1682     1.0  0.14396  0.41033  0.85364  1.0000
  C   C1683     1.0  0.33476  0.41584  0.98095  1.0000
  H   H1339     1.0  0.00562  0.55227  0.77603  1.0000
  H   H1340     1.0  0.45518  0.53809  0.77733  1.0000
  H   H1341     1.0  0.99826  0.46555  0.75504  1.0000
  H   H1342     1.0  0.25996  0.40908  0.97604  1.0000
  H   H1343     1.0  0.36930  0.58275  0.84199  1.0000
  S   S225      1.0  0.43814  0.61670  0.77811  1.0000
  H   H1344     1.0  0.11453  0.42126  0.95550  1.0000
  C   C1684     1.0  0.35886  0.37475  0.81855  1.0000
  C   C1685     1.0  0.46711  0.65726  0.95116  1.0000
  H   H1345     1.0  0.42199  0.62293  0.90954  1.0000
  H   H1346     1.0  0.24312  0.34516  0.80015  1.0000
  H   H1347     1.0  0.20073  0.43627  0.95292  1.0000
  H   H1348     1.0  0.17658  0.41348  0.97023  1.0000
  C   C1686     1.0  0.33642  0.34539  0.92619  1.0000
  C   C1687     1.0  0.02960  0.39201  0.95952  1.0000
  H   H1349     1.0  0.18199  0.42685  0.81813  1.0000
  C   C1688     1.0  0.30207  0.37222  0.94130  1.0000
  C   C1689     1.0  0.32078  0.37846  0.93417  1.0000
  C   C1690     1.0  0.33802  0.36486  0.92662  1.0000
  P   P55       1.0  0.32243  0.40338  0.93572  1.0000
  C   C1691     1.0  0.32421  0.40244  0.95941  1.0000
  C   C1692     1.0  0.34441  0.41125  0.91856  1.0000
  C   C1693     1.0  0.34229  0.42496  0.90129  1.0000
  C   C1694     1.0  0.35945  0.43071  0.88814  1.0000
  C   C1695     1.0  0.37890  0.42266  0.89194  1.0000
  C   C1696     1.0  0.38119  0.40898  0.90904  1.0000
  C   C1697     1.0  0.36404  0.40332  0.92231  1.0000
  H   H1350     1.0  0.37937  0.35641  0.75311  1.0000
  C   C1698     1.0  0.44466  0.63943  0.97751  1.0000
  C   C1699     1.0  0.33449  0.41561  0.96255  1.0000
  C   C1700     1.0  0.29920  0.42102  0.93096  1.0000
  C   C1701     1.0  0.29152  0.42062  0.91577  1.0000
  C   C1702     1.0  0.27364  0.43426  0.91184  1.0000
  C   C1703     1.0  0.26296  0.44802  0.92338  1.0000
  H   H1351     1.0  0.34556  0.53301  0.73992  1.0000
  C   C1704     1.0  0.28840  0.43492  0.94251  1.0000
  C   C1705     1.0  0.17819  0.34712  0.87808  1.0000
  C   C1706     1.0  0.29736  0.40299  0.82115  1.0000
  H   H1352     1.0  0.28596  0.34814  0.94670  1.0000
  H   H1353     1.0  0.28863  0.38246  0.94708  1.0000
  H   H1354     1.0  0.35258  0.36929  0.92069  1.0000
  H   H1355     1.0  0.32753  0.43114  0.89768  1.0000
  H   H1356     1.0  0.35770  0.44118  0.87478  1.0000
  H   H1357     1.0  0.39220  0.42692  0.88155  1.0000
  H   H1358     1.0  0.39631  0.40266  0.91189  1.0000
  H   H1359     1.0  0.36610  0.39253  0.93541  1.0000
  H   H1360     1.0  0.40894  0.64907  0.85601  1.0000
  C   C1707     1.0  0.30402  0.33874  0.85282  1.0000
  H   H1361     1.0  0.34192  0.42602  0.95082  1.0000
  H   H1362     1.0  0.29941  0.40971  0.90698  1.0000
  C   C1708     1.0  0.47015  0.65446  0.91345  1.0000
  H   H1363     1.0  0.16066  0.33495  0.93280  1.0000
  H   H1364     1.0  0.29374  0.43538  0.95452  1.0000
  C   C1709     1.0  0.35430  0.53870  0.78785  1.0000
  C   C1710     1.0  0.35662  0.51760  0.79469  1.0000
  C   C1711     1.0  0.16903  0.34785  0.97065  1.0000
  H   H1365     1.0  0.43179  0.52298  0.73994  1.0000
  C   C1712     1.0  0.48708  0.43882  0.75928  1.0000
  H   H1366     1.0  0.18826  0.37227  0.88169  1.0000
  C   C1713     1.0  0.18231  0.39545  0.83262  1.0000
  H   H1367     1.0  0.36147  0.54433  0.77335  1.0000
  H   H1368     1.0  0.36536  0.50735  0.78546  1.0000
  C   C1714     1.0  0.06239  0.45686  0.95945  1.0000
  H   H1369     1.0  0.25117  0.39264  0.95474  1.0000
  H   H1370     1.0  0.32250  0.61674  0.76608  1.0000
  C   C1715     1.0  0.45343  0.64559  0.89346  1.0000
  C   C1716     1.0  0.46735  0.62691  0.89374  1.0000
  C   C1717     1.0  0.32295  0.35668  0.82363  1.0000
  C   C1718     1.0  0.47194  0.64686  0.84068  1.0000
  H   H1371     1.0  0.48169  0.40966  0.75971  1.0000
  C   C1719     1.0  0.27937  0.58640  0.78990  1.0000
  C   C1720     1.0  0.34883  0.61110  0.83324  1.0000
  C   C1721     1.0  0.49060  0.65256  0.83769  1.0000
  C   C1722     1.0  0.19493  0.42511  0.88133  1.0000
  C   C1723     1.0  0.39945  0.62882  0.95428  1.0000
  H   H1372     1.0  0.06375  0.35088  0.98576  1.0000
  H   H1373     1.0  0.26797  0.43397  0.89992  1.0000
  H   H1374     1.0  0.12670  0.34138  0.83294  1.0000
  C   C1724     1.0  0.15263  0.38949  0.85755  1.0000
  C   C1725     1.0  0.14238  0.33594  0.83451  1.0000
  C   C1726     1.0  0.39034  0.59619  0.75370  1.0000
  H   H1375     1.0  0.34958  0.33519  0.91983  1.0000
  H   H1376     1.0  0.44188  0.64960  0.88525  1.0000
  H   H1377     1.0  0.46666  0.61657  0.88564  1.0000
  H   H1378     1.0  0.45811  0.51089  0.75849  1.0000
  C   C1727     1.0  0.34207  0.59142  0.80834  1.0000
  H   H1379     1.0  0.07349  0.34170  0.84895  1.0000
  P   P56       1.0  0.33953  0.57942  0.79095  1.0000
  C   C1728     1.0  0.18400  0.41004  0.89189  1.0000
  C   C1729     1.0  0.47468  0.65420  0.80684  1.0000
  H   H1380     1.0  0.44999  0.64254  0.82755  1.0000
  C   C1730     1.0  0.38991  0.63534  0.91901  1.0000
  H   H1381     1.0  0.05129  0.45211  0.97205  1.0000
  C   C1731     1.0  0.35944  0.36503  0.77839  1.0000
  H   H1382     1.0  0.30375  0.32798  0.97656  1.0000
  H   H1383     1.0  0.32866  0.63755  0.82092  1.0000
  C   C1732     1.0  0.22448  0.35131  0.85206  1.0000
  C   C1733     1.0  0.31333  0.35517  0.84280  1.0000
  S   S226      1.0  0.24033  0.35280  0.96171  1.0000
  H   H1384     1.0  0.29075  0.38976  0.82407  1.0000
  C   C1734     1.0  0.39080  0.61954  0.88548  1.0000
  C   C1735     1.0  0.32645  0.41929  0.81088  1.0000
  H   H1385     1.0  0.21983  0.35270  0.86661  1.0000
  H   H1386     1.0  0.02753  0.42438  0.94926  1.0000
  C   C1736     1.0  0.35488  0.38174  0.74672  1.0000
  Fe  Fe109     1.0  0.23772  0.39104  0.89396  1.0000
  H   H1387     1.0  0.03176  0.46601  0.76978  1.0000
  C   C1737     1.0  0.49001  0.48293  0.81095  1.0000
  C   C1738     1.0  0.39079  0.60475  0.85985  1.0000
  C   C1739     1.0  0.40052  0.58573  0.86879  1.0000
  C   C1740     1.0  0.40492  0.58339  0.88631  1.0000
  C   C1741     1.0  0.39998  0.60017  0.89472  1.0000
  H   H1388     1.0  0.43069  0.45635  0.75078  1.0000
  H   H1389     1.0  0.36414  0.56572  0.81975  1.0000
  H   H1390     1.0  0.03165  0.38921  0.94562  1.0000
  C   C1742     1.0  0.33237  0.61186  0.80861  1.0000
  P   P57       1.0  0.33548  0.37776  0.81100  1.0000
  C   C1743     1.0  0.18159  0.35903  0.88871  1.0000
  H   H1391     1.0  0.26078  0.61100  0.77365  1.0000
  H   H1392     1.0  0.35949  0.64880  0.93274  1.0000
  H   H1393     1.0  0.48475  0.59546  0.85667  1.0000
  H   H1394     1.0  0.06425  0.44349  0.75774  1.0000
  C   C1744     1.0  0.46333  0.48159  0.78992  1.0000
  C   C1745     1.0  0.18464  0.44394  0.87245  1.0000
  C   C1746     1.0  0.18662  0.41627  0.97746  1.0000
  C   C1747     1.0  0.18636  0.35556  0.96825  1.0000
  H   H1395     1.0  0.40467  0.57285  0.86205  1.0000
  H   H1396     1.0  0.41222  0.56854  0.89334  1.0000
  H   H1397     1.0  0.40325  0.59780  0.90841  1.0000
  H   H1398     1.0  0.45282  0.48107  0.78202  1.0000
  H   H1399     1.0  0.47989  0.56025  0.87260  1.0000
  C   C1748     1.0  0.27571  0.60500  0.77702  1.0000
  H   H1400     1.0  0.34271  0.41868  0.80616  1.0000
  C   C1749     1.0  0.38571  0.62154  0.86821  1.0000
  C   C1750     1.0  0.34317  0.55209  0.79978  1.0000
  H   H1401     1.0  0.39888  0.48249  0.75010  1.0000
  S   S227      1.0  0.38798  0.62756  0.79064  1.0000
  C   C1751     1.0  0.37112  0.42803  0.74469  1.0000
  H   H1402     1.0  0.32953  0.40721  0.74446  1.0000
  H   H1403     1.0  0.12926  0.41613  0.86198  1.0000
  C   C1752     1.0  0.48412  0.48044  0.78150  1.0000
  S   S228      1.0  0.22565  0.36340  0.91243  1.0000
  C   C1753     1.0  0.02719  0.41189  0.96158  1.0000
  C   C1754     1.0  0.31391  0.38981  0.97502  1.0000
  C   C1755     1.0  0.16266  0.32605  0.90716  1.0000
  H   H1404     1.0  0.31800  0.40462  0.77885  1.0000
  S   S229      1.0  0.46672  0.65290  0.78721  1.0000
  H   H1405     1.0  0.19189  0.39559  0.89887  1.0000
  C   C1756     1.0  0.30054  0.35273  0.94105  1.0000
  C   C1757     1.0  0.17368  0.41636  0.82893  1.0000
  H   H1406     1.0  0.06780  0.47230  0.91187  1.0000
  C   C1758     1.0  0.36133  0.36368  0.83668  1.0000
  H   H1407     1.0  0.31952  0.45146  0.81028  1.0000
  C   C1759     1.0  0.25121  0.38487  0.96926  1.0000
  C   C1760     1.0  0.48169  0.65239  0.96224  1.0000
  C   C1761     1.0  0.33715  0.52286  0.82548  1.0000
  C   C1762     1.0  0.49406  0.59415  0.79882  1.0000
  H   H1408     1.0  0.49362  0.60755  0.90384  1.0000
  C   C1763     1.0  0.48003  0.55305  0.77275  1.0000
  C   C1764     1.0  0.15455  0.42380  0.83950  1.0000
  C   C1765     1.0  0.33575  0.62163  0.82103  1.0000
  C   C1766     1.0  0.05715  0.46272  0.94187  1.0000
  C   C1767     1.0  0.46933  0.48370  0.81933  1.0000
  H   H1409     1.0  0.36791  0.64286  0.96355  1.0000
  H   H1410     1.0  0.38759  0.60654  0.84617  1.0000
  C   C1768     1.0  0.31058  0.60810  0.77283  1.0000
  C   C1769     1.0  0.08205  0.45683  0.96077  1.0000
  C   C1770     1.0  0.21024  0.35118  0.84210  1.0000
  C   C1771     1.0  0.12227  0.46780  0.96835  1.0000
  H   H1411     1.0  0.14439  0.37938  0.86894  1.0000
  H   H1412     1.0  0.24898  0.45838  0.92042  1.0000
  H   H1413     1.0  0.47933  0.55979  0.75823  1.0000
  S   S230      1.0  0.09232  0.40376  0.88858  1.0000
  H   H1414     1.0  0.28850  0.63026  0.75849  1.0000
  C   C1772     1.0  0.34810  0.50968  0.81346  1.0000
  H   H1415     1.0  0.37367  0.39211  0.79204  1.0000
  C   C1773     1.0  0.07595  0.35713  0.84311  1.0000
  C   C1774     1.0  0.31858  0.40161  0.81499  1.0000
  C   C1775     1.0  0.46572  0.53281  0.80270  1.0000
  C   C1776     1.0  0.16607  0.33800  0.91763  1.0000
  C   C1777     1.0  0.46611  0.54086  0.78357  1.0000
  C   C1778     1.0  0.07162  0.46845  0.92557  1.0000
  S   S231      1.0  0.11938  0.34836  0.88647  1.0000
  H   H1416     1.0  0.34202  0.58030  0.75129  1.0000
  C   C1779     1.0  0.35868  0.59083  0.83294  1.0000
  H   H1417     1.0  0.46401  0.64111  0.85479  1.0000
  H   H1418     1.0  0.13750  0.38807  0.95250  1.0000
  H   H1419     1.0  0.30519  0.38004  0.97324  1.0000
  S   S232      1.0  0.22127  0.42131  0.87957  1.0000
  H   H1420     1.0  0.19997  0.37407  0.97761  1.0000
  S   S233      1.0  0.25737  0.39163  0.91290  1.0000
  H   H1421     1.0  0.17807  0.36384  0.91650  1.0000
  H   H1422     1.0  0.28224  0.45353  0.82176  1.0000
  C   C1780     1.0  0.45965  0.50402  0.74683  1.0000
  S   S234      1.0  0.27345  0.34278  0.91422  1.0000
  H   H1423     1.0  0.33073  0.51658  0.84009  1.0000
  H   H1424     1.0  0.45405  0.52448  0.81125  1.0000
  C   C1781     1.0  0.10566  0.48078  0.97751  1.0000
  C   C1782     1.0  0.37478  0.64106  0.93438  1.0000
  H   H1425     1.0  0.30108  0.56416  0.80423  1.0000
  C   C1783     1.0  0.33466  0.54400  0.81869  1.0000
  C   C1784     1.0  0.29131  0.61584  0.76850  1.0000
  C   C1785     1.0  0.29864  0.57859  0.79425  1.0000
  H   H1426     1.0  0.14244  0.36198  0.84424  1.0000
  P   P58       1.0  0.18315  0.35492  0.85264  1.0000
  Fe  Fe110     1.0  0.41234  0.63897  0.76643  1.0000
  H   H1427     1.0  0.26197  0.45885  0.94780  1.0000
  H   H1428     1.0  0.48029  0.52897  0.82552  1.0000
  C   C1786     1.0  0.31443  0.58938  0.78572  1.0000
  Fe  Fe111     1.0  0.28169  0.37171  0.89561  1.0000
  H   H1429     1.0  0.20643  0.34938  0.81511  1.0000
  C   C1787     1.0  0.46397  0.64769  0.82525  1.0000
  Fe  Fe112     1.0  0.43808  0.64150  0.79177  1.0000
  H   H1430     1.0  0.22391  0.44272  0.96945  1.0000
  H   H1431     1.0  0.48595  0.54242  0.95451  1.0000
  H   H1432     1.0  0.36827  0.35345  0.78761  1.0000
  H   H1433     1.0  0.37447  0.64477  0.74425  1.0000
  H   H1434     1.0  0.00867  0.57365  0.74348  1.0000
  C   C1788     1.0  0.48255  0.62183  0.90401  1.0000
  C   C1789     1.0  0.47582  0.48770  0.74287  1.0000
  H   H1435     1.0  0.43583  0.58605  0.73764  1.0000
  H   H1436     1.0  0.34254  0.42614  0.98332  1.0000
  C   C1790     1.0  0.49446  0.54748  0.79992  1.0000
  H   H1437     1.0  0.29783  0.64920  0.97236  1.0000
  C   C1791     1.0  0.49383  0.42710  0.80984  1.0000
  H   H1438     1.0  0.08587  0.45185  0.97448  1.0000
  C   C1792     1.0  0.35796  0.50067  0.74189  1.0000
  H   H1439     1.0  0.99808  0.43657  0.85947  1.0000
  H   H1440     1.0  0.09234  0.48786  0.97150  1.0000
  C   C1793     1.0  0.49403  0.55691  0.78097  1.0000
  H   H1441     1.0  0.43023  0.63459  0.98349  1.0000
  C   C1794     1.0  0.16882  0.33048  0.88749  1.0000
  H   H1442     1.0  0.03126  0.32728  0.95486  1.0000
  H   H1443     1.0  0.36585  0.46774  0.74758  1.0000
  C   C1795     1.0  0.42490  0.46195  0.73797  1.0000
  C   C1796     1.0  0.49281  0.56533  0.87374  1.0000
  P   P59       1.0  0.49412  0.47692  0.75759  1.0000
  C   C1797     1.0  0.40672  0.47653  0.73760  1.0000
  C   C1798     1.0  0.49287  0.41787  0.75977  1.0000
  C   C1799     1.0  0.15214  0.35187  0.98522  1.0000
  H   H1444     1.0  0.32024  0.65876  0.94087  1.0000
  C   C1800     1.0  0.07507  0.40091  0.98593  1.0000
  Fe  Fe113     1.0  0.38886  0.91110  0.02059  1.0000
  S   S235      1.0  0.39842  0.89202  0.04712  1.0000
  S   S236      1.0  0.35629  0.92343  0.01727  1.0000
  C   C1801     1.0  0.47773  0.76642  0.02850  1.0000
  S   S237      1.0  0.44586  0.89199  0.02377  1.0000
  C   C1802     1.0  0.43473  0.67404  0.14159  1.0000
  Fe  Fe114     1.0  0.42233  0.87358  0.02819  1.0000
  S   S238      1.0  0.43100  0.83913  0.03637  1.0000
  Fe  Fe115     1.0  0.42114  0.91201  0.04077  1.0000
  S   S239      1.0  0.42260  0.92299  0.06592  1.0000
  S   S240      1.0  0.41088  0.89106  0.00197  1.0000
  S   S241      1.0  0.40956  0.93275  0.01559  1.0000
  Fe  Fe116     1.0  0.37814  0.72608  0.02467  1.0000
  S   S242      1.0  0.40010  0.70476  0.00707  1.0000
  Fe  Fe117     1.0  0.36496  0.76809  0.03383  1.0000
  S   S243      1.0  0.34360  0.75775  0.06104  1.0000
  S   S244      1.0  0.36453  0.80156  0.02309  1.0000
  Fe  Fe118     1.0  0.33424  0.74164  0.04401  1.0000
  S   S245      1.0  0.30138  0.74172  0.04569  1.0000
  S   S246      1.0  0.39104  0.74195  0.03941  1.0000
  S   S247      1.0  0.35416  0.75344  0.01646  1.0000
  C   C1803     1.0  0.31018  0.71974  0.11196  1.0000
  Fe  Fe119     1.0  0.21911  0.88017  0.07873  1.0000
  S   S248      1.0  0.24079  0.90018  0.06022  1.0000
  S   S249      1.0  0.19982  0.88476  0.10766  1.0000
  Fe  Fe120     1.0  0.23292  0.85055  0.05198  1.0000
  S   S250      1.0  0.25441  0.86891  0.03097  1.0000
  S   S251      1.0  0.22987  0.82068  0.04794  1.0000
  Fe  Fe121     1.0  0.26374  0.87125  0.05622  1.0000
  S   S252      1.0  0.29731  0.86176  0.05662  1.0000
  Fe  Fe122     1.0  0.22974  0.89608  0.03639  1.0000
  S   S253      1.0  0.22124  0.92476  0.01498  1.0000
  S   S254      1.0  0.24335  0.85137  0.07706  1.0000
  S   S255      1.0  0.20680  0.87764  0.05513  1.0000
  Fe  Fe123     1.0  0.07467  0.92827  0.18998  1.0000
  S   S256      1.0  0.09875  0.94712  0.17758  1.0000
  C   C1804     1.0  0.01119  0.92865  0.20928  1.0000
  H   H1445     1.0  0.24128  0.82268  0.13959  1.0000
  C   C1805     1.0  0.33690  0.67499  0.03967  1.0000
  Fe  Fe124     1.0  0.09164  0.94837  0.14985  1.0000
  S   S257      1.0  0.11443  0.94818  0.12159  1.0000
  C   C1806     1.0  0.25905  0.71233  0.99350  1.0000
  S   S258      1.0  0.06920  0.92746  0.16210  1.0000
  S   S259      1.0  0.04897  0.95468  0.19437  1.0000
  C   C1807     1.0  0.28806  0.85031  0.99579  1.0000
  H   H1446     1.0  0.46603  0.80460  0.98675  1.0000
  C   C1808     1.0  0.26269  0.92477  0.08870  1.0000
  H   H1447     1.0  0.03324  0.90355  0.19920  1.0000
  C   C1809     1.0  0.42550  0.65994  0.08357  1.0000
  C   C1810     1.0  0.34665  0.68352  0.02150  1.0000
  C   C1811     1.0  0.48599  0.92128  0.23333  1.0000
  C   C1812     1.0  0.26455  0.72226  0.01974  1.0000
  C   C1813     1.0  0.32323  0.91594  0.15075  1.0000
  C   C1814     1.0  0.31705  0.68297  0.10080  1.0000
  H   H1448     1.0  0.43134  0.99180  0.23496  1.0000
  S   S260      1.0  0.47572  0.95876  0.13351  1.0000
  H   H1449     1.0  0.43679  0.76839  0.07249  1.0000
  H   H1450     1.0  0.32798  0.83711  0.08871  1.0000
  C   C1815     1.0  0.46007  0.70143  0.20763  1.0000
  H   H1451     1.0  0.43378  0.68198  0.18435  1.0000
  C   C1816     1.0  0.24877  0.83464  0.13018  1.0000
  H   H1452     1.0  0.33931  0.88516  0.98873  1.0000
  H   H1453     1.0  0.36301  0.68256  0.01814  1.0000
  C   C1817     1.0  0.49078  0.84590  0.03855  1.0000
  H   H1454     1.0  0.06275  0.70195  0.16820  1.0000
  H   H1455     1.0  0.03293  0.72015  0.18843  1.0000
  H   H1456     1.0  0.32068  0.92934  0.15643  1.0000
  H   H1457     1.0  0.29501  0.69223  0.18957  1.0000
  C   C1818     1.0  0.47895  0.70285  0.19522  1.0000
  C   C1819     1.0  0.17586  0.90216  0.11118  1.0000
  C   C1820     1.0  0.16418  0.90212  0.12965  1.0000
  C   C1821     1.0  0.14525  0.91590  0.13306  1.0000
  C   C1822     1.0  0.13788  0.93004  0.11801  1.0000
  C   C1823     1.0  0.14958  0.93009  0.09954  1.0000
  C   C1824     1.0  0.16841  0.91618  0.09611  1.0000
  H   H1458     1.0  0.16977  0.89136  0.14141  1.0000
  H   H1459     1.0  0.13646  0.91568  0.14735  1.0000
  H   H1460     1.0  0.14405  0.94095  0.08779  1.0000
  H   H1461     1.0  0.17721  0.91643  0.08183  1.0000
  H   H1462     1.0  0.23864  0.72706  0.15612  1.0000
  H   H1463     1.0  0.01839  0.89265  0.17629  1.0000
  C   C1825     1.0  0.45109  0.68320  0.13051  1.0000
  C   C1826     1.0  0.27248  0.76294  0.16769  1.0000
  C   C1827     1.0  0.21873  0.86249  0.00276  1.0000
  P   P60       1.0  0.31339  0.70129  0.14909  1.0000
  C   C1828     1.0  0.37933  0.69184  0.10351  1.0000
  H   H1464     1.0  0.35476  0.68716  0.15709  1.0000
  H   H1465     1.0  0.36728  0.84252  0.01949  1.0000
  C   C1829     1.0  0.20852  0.87316  0.98827  1.0000
  C   C1830     1.0  0.28259  0.76456  0.04612  1.0000
  C   C1831     1.0  0.28674  0.78326  0.04603  1.0000
  C   C1832     1.0  0.27078  0.80084  0.04660  1.0000
  C   C1833     1.0  0.25080  0.79968  0.04705  1.0000
  C   C1834     1.0  0.24695  0.78102  0.04695  1.0000
  C   C1835     1.0  0.26262  0.76358  0.04683  1.0000
  H   H1466     1.0  0.30211  0.78418  0.04564  1.0000
  H   H1467     1.0  0.27392  0.81524  0.04663  1.0000
  H   H1468     1.0  0.23161  0.77998  0.04733  1.0000
  H   H1469     1.0  0.25920  0.74920  0.04738  1.0000
  H   H1470     1.0  0.49028  0.68721  0.06995  1.0000
  H   H1471     1.0  0.43261  0.68915  0.07894  1.0000
  H   H1472     1.0  0.47306  0.75292  0.07398  1.0000
  C   C1836     1.0  0.23838  0.85061  0.99859  1.0000
  H   H1473     1.0  0.42038  0.71074  0.10057  1.0000
  C   C1837     1.0  0.02264  0.67230  0.20370  1.0000
  C   C1838     1.0  0.27620  0.91815  0.00121  1.0000
  C   C1839     1.0  0.44355  0.93038  0.06921  1.0000
  C   C1840     1.0  0.46273  0.92784  0.05692  1.0000
  C   C1841     1.0  0.47905  0.93357  0.06041  1.0000
  C   C1842     1.0  0.47627  0.94202  0.07607  1.0000
  C   C1843     1.0  0.45707  0.94463  0.08828  1.0000
  C   C1844     1.0  0.44082  0.93875  0.08489  1.0000
  H   H1474     1.0  0.46497  0.92145  0.04480  1.0000
  H   H1475     1.0  0.00133  0.90784  0.14404  1.0000
  H   H1476     1.0  0.45475  0.95111  0.10038  1.0000
  H   H1477     1.0  0.42604  0.94075  0.09447  1.0000
  C   C1845     1.0  0.41241  0.82831  0.03340  1.0000
  C   C1846     1.0  0.41476  0.80704  0.03706  1.0000
  C   C1847     1.0  0.39994  0.79853  0.03426  1.0000
  C   C1848     1.0  0.38293  0.81135  0.02767  1.0000
  C   C1849     1.0  0.38054  0.83254  0.02430  1.0000
  C   C1850     1.0  0.39521  0.84097  0.02722  1.0000
  H   H1478     1.0  0.42802  0.79721  0.04193  1.0000
  H   H1479     1.0  0.40181  0.78215  0.03692  1.0000
  C   C1851     1.0  0.31622  0.74271  0.99131  1.0000
  H   H1480     1.0  0.39318  0.85732  0.02463  1.0000
  C   C1852     1.0  0.34028  0.90569  0.02655  1.0000
  C   C1853     1.0  0.34786  0.88558  0.03510  1.0000
  C   C1854     1.0  0.33469  0.87186  0.04326  1.0000
  C   C1855     1.0  0.31381  0.87831  0.04342  1.0000
  C   C1856     1.0  0.30636  0.89816  0.03419  1.0000
  C   C1857     1.0  0.31958  0.91186  0.02578  1.0000
  H   H1481     1.0  0.36378  0.88070  0.03573  1.0000
  H   H1482     1.0  0.34066  0.85629  0.04977  1.0000
  H   H1483     1.0  0.29029  0.90312  0.03415  1.0000
  H   H1484     1.0  0.31367  0.92741  0.01914  1.0000
  H   H1485     1.0  0.09142  0.88819  0.00760  1.0000
  C   C1858     1.0  0.31346  0.70155  0.08787  1.0000
  C   C1859     1.0  0.38804  0.66188  0.12799  1.0000
  C   C1860     1.0  0.26269  0.70342  0.19238  1.0000
  C   C1861     1.0  0.45432  0.96796  0.18224  1.0000
  C   C1862     1.0  0.09797  0.89302  0.99271  1.0000
  H   H1486     1.0  0.42640  0.96386  0.17831  1.0000
  C   C1863     1.0  0.28875  0.83246  0.99022  1.0000
  C   C1864     1.0  0.27959  0.77171  0.17855  1.0000
  H   H1487     1.0  0.02983  0.85616  0.19060  1.0000
  C   C1865     1.0  0.26618  0.92579  0.10572  1.0000
  C   C1866     1.0  0.48734  0.83877  0.02434  1.0000
  H   H1488     1.0  0.21375  0.72837  0.02232  1.0000
  C   C1867     1.0  0.23012  0.72445  0.01704  1.0000
  H   H1489     1.0  0.28820  0.68676  0.03378  1.0000
  H   H1490     1.0  0.44254  0.68209  0.22969  1.0000
  H   H1491     1.0  0.41150  0.67204  0.98820  1.0000
  H   H1492     1.0  0.20782  0.95805  0.98721  1.0000
  C   C1868     1.0  0.00093  0.85381  0.21008  1.0000
  H   H1493     1.0  0.06691  0.66487  0.17052  1.0000
  C   C1869     1.0  0.36778  0.66076  0.10712  1.0000
  C   C1870     1.0  0.39210  0.70179  0.98810  1.0000
  C   C1871     1.0  0.31543  0.81444  0.00750  1.0000
  C   C1872     1.0  0.31402  0.83203  0.01363  1.0000
  C   C1873     1.0  0.30057  0.85002  0.00757  1.0000
  H   H1494     1.0  0.41244  0.95272  0.21268  1.0000
  C   C1874     1.0  0.28598  0.95076  0.99352  1.0000
  C   C1875     1.0  0.32675  0.67707  0.16067  1.0000
  C   C1876     1.0  0.00808  0.88476  0.18777  1.0000
  S   S261      1.0  0.01239  0.96674  0.16151  1.0000
  H   H1495     1.0  0.02290  0.92745  0.15037  1.0000
  C   C1877     1.0  0.28728  0.70618  0.16230  1.0000
  H   H1496     1.0  0.39661  0.69069  0.12358  1.0000
  H   H1497     1.0  0.27401  0.72103  0.13782  1.0000
  H   H1498     1.0  0.27912  0.76473  0.19335  1.0000
  H   H1499     1.0  0.32007  0.66872  0.09639  1.0000
  H   H1500     1.0  0.32615  0.80059  0.01199  1.0000
  H   H1501     1.0  0.32359  0.83188  0.02282  1.0000
  H   H1502     1.0  0.29974  0.86365  0.01227  1.0000
  C   C1878     1.0  0.47626  0.83103  0.98786  1.0000
  H   H1503     1.0  0.32539  0.89479  0.17734  1.0000
  C   C1879     1.0  0.30442  0.68629  0.03018  1.0000
  C   C1880     1.0  0.30300  0.81470  0.99567  1.0000
  C   C1881     1.0  0.38875  0.68230  0.11882  1.0000
  H   H1504     1.0  0.48022  0.97178  0.18986  1.0000
  H   H1505     1.0  0.42691  0.66689  0.13548  1.0000
  C   C1882     1.0  0.46738  0.72269  0.08729  1.0000
  H   H1506     1.0  0.32053  0.66815  0.12896  1.0000
  H   H1507     1.0  0.34303  0.70001  0.99367  1.0000
  C   C1883     1.0  0.27274  0.77207  0.14866  1.0000
  H   H1508     1.0  0.28927  0.67097  0.99551  1.0000
  H   H1509     1.0  0.26680  0.76522  0.14064  1.0000
  H   H1510     1.0  0.23111  0.71577  0.19103  1.0000
  H   H1511     1.0  0.46345  0.76325  0.03776  1.0000
  H   H1512     1.0  0.49055  0.88933  0.00278  1.0000
  H   H1513     1.0  0.49465  0.79623  0.09550  1.0000
  C   C1884     1.0  0.47916  0.78655  0.01931  1.0000
  C   C1885     1.0  0.00661  0.93325  0.15193  1.0000
  C   C1886     1.0  0.34673  0.67473  0.16277  1.0000
  H   H1514     1.0  0.00954  0.93724  0.19528  1.0000
  C   C1887     1.0  0.27253  0.71442  0.00335  1.0000
  C   C1888     1.0  0.05391  0.67282  0.17938  1.0000
  H   H1515     1.0  0.48621  0.80395  0.06408  1.0000
  C   C1889     1.0  0.02432  0.90952  0.21148  1.0000
  C   C1890     1.0  0.36884  0.68099  0.09773  1.0000
  H   H1516     1.0  0.25937  0.76516  0.01036  1.0000
  C   C1891     1.0  0.43850  0.95604  0.22086  1.0000
  H   H1517     1.0  0.27471  0.72492  0.02701  1.0000
  H   H1518     1.0  0.47818  0.85506  0.04677  1.0000
  H   H1519     1.0  0.47200  0.84227  0.02206  1.0000
  H   H1520     1.0  0.07889  0.97100  0.23561  1.0000
  Fe  Fe125     1.0  0.43243  0.91105  0.99896  1.0000
  C   C1892     1.0  0.26571  0.79440  0.99477  1.0000
  H   H1521     1.0  0.25937  0.69839  0.20763  1.0000
  C   C1893     1.0  0.02035  0.69333  0.20220  1.0000
  H   H1522     1.0  0.31351  0.70180  0.07343  1.0000
  H   H1523     1.0  0.34572  0.66745  0.05039  1.0000
  C   C1894     1.0  0.31403  0.69556  0.01207  1.0000
  C   C1895     1.0  0.24341  0.72703  0.02666  1.0000
  P   P61       1.0  0.45957  0.68373  0.10554  1.0000
  C   C1896     1.0  0.27118  0.71607  0.15302  1.0000
  C   C1897     1.0  0.03951  0.66214  0.19212  1.0000
  H   H1524     1.0  0.49386  0.93157  0.05088  1.0000
  C   C1898     1.0  0.26732  0.82981  0.11736  1.0000
  C   C1899     1.0  0.27663  0.84570  0.10544  1.0000
  P   P62       1.0  0.27874  0.80341  0.11644  1.0000
  C   C1900     1.0  0.26387  0.79242  0.10717  1.0000
  C   C1901     1.0  0.23239  0.79288  0.09891  1.0000
  C   C1902     1.0  0.24356  0.80176  0.10605  1.0000
  C   C1903     1.0  0.28732  0.79880  0.15136  1.0000
  C   C1904     1.0  0.30383  0.80124  0.10099  1.0000
  C   C1905     1.0  0.30563  0.80882  0.08146  1.0000
  C   C1906     1.0  0.32487  0.80762  0.06928  1.0000
  C   C1907     1.0  0.34244  0.79847  0.07640  1.0000
  C   C1908     1.0  0.34079  0.79037  0.09575  1.0000
  C   C1909     1.0  0.32155  0.79175  0.10805  1.0000
  C   C1910     1.0  0.01448  0.86416  0.19576  1.0000
  H   H1525     1.0  0.29091  0.84262  0.09550  1.0000
  H   H1526     1.0  0.21700  0.80060  0.09734  1.0000
  H   H1527     1.0  0.23631  0.81612  0.11018  1.0000
  H   H1528     1.0  0.29277  0.81291  0.14527  1.0000
  H   H1529     1.0  0.29243  0.79651  0.17880  1.0000
  H   H1530     1.0  0.29216  0.81607  0.07564  1.0000
  H   H1531     1.0  0.32616  0.81385  0.05428  1.0000
  H   H1532     1.0  0.35729  0.79744  0.06678  1.0000
  H   H1533     1.0  0.35445  0.78296  0.10113  1.0000
  H   H1534     1.0  0.32062  0.78529  0.12294  1.0000
  H   H1535     1.0  0.30803  0.72717  0.17599  1.0000
  H   H1536     1.0  0.46607  0.79883  0.02207  1.0000
  H   H1537     1.0  0.26649  0.74920  0.17412  1.0000
  C   C1911     1.0  0.45746  0.96193  0.21459  1.0000
  H   H1538     1.0  0.38013  0.95830  0.05389  1.0000
  C   C1912     1.0  0.48665  0.98186  0.22014  1.0000
  H   H1539     1.0  0.24127  0.89622  0.98935  1.0000
  C   C1913     1.0  0.31582  0.67621  0.04396  1.0000
  C   C1914     1.0  0.31726  0.68273  0.11935  1.0000
  H   H1540     1.0  0.22760  0.71557  0.99275  1.0000
  H   H1541     1.0  0.25347  0.93130  0.11640  1.0000
  H   H1542     1.0  0.07893  0.92320  0.99022  1.0000
  C   C1915     1.0  0.27254  0.93791  0.00401  1.0000
  C   C1916     1.0  0.24833  0.87074  0.11798  1.0000
  H   H1543     1.0  0.48315  0.71638  0.08820  1.0000
  C   C1917     1.0  0.45743  0.68310  0.22059  1.0000
  H   H1544     1.0  0.28299  0.96617  0.99555  1.0000
  H   H1545     1.0  0.21144  0.86334  0.01728  1.0000
  H   H1546     1.0  0.41061  0.74701  0.08572  1.0000
  C   C1918     1.0  0.47384  0.66620  0.22151  1.0000
  H   H1547     1.0  0.23267  0.76793  0.08719  1.0000
  C   C1919     1.0  0.43536  0.67344  0.08658  1.0000
  H   H1548     1.0  0.26861  0.75139  0.08869  1.0000
  C   C1920     1.0  0.24676  0.71319  0.18303  1.0000
  H   H1549     1.0  0.04328  0.98125  0.23148  1.0000
  H   H1550     1.0  0.27765  0.86437  0.99127  1.0000
  H   H1551     1.0  0.46021  0.97313  0.16734  1.0000
  C   C1921     1.0  0.27283  0.77418  0.10085  1.0000
  C   C1922     1.0  0.22407  0.92675  0.99065  1.0000
  C   C1923     1.0  0.33530  0.69356  0.00771  1.0000
  C   C1924     1.0  0.31722  0.66024  0.16756  1.0000
  C   C1925     1.0  0.31374  0.70115  0.12509  1.0000
  C   C1926     1.0  0.99777  0.95196  0.15721  1.0000
  C   C1927     1.0  0.32588  0.89648  0.16253  1.0000
  H   H1552     1.0  0.35373  0.76287  0.14815  1.0000
  H   H1553     1.0  0.31166  0.86965  0.09847  1.0000
  C   C1928     1.0  0.37045  0.85606  0.08081  1.0000
  C   C1929     1.0  0.35848  0.84247  0.08180  1.0000
  C   C1930     1.0  0.33733  0.84736  0.08844  1.0000
  C   C1931     1.0  0.32809  0.86601  0.09370  1.0000
  C   C1932     1.0  0.33997  0.87997  0.09230  1.0000
  C   C1933     1.0  0.36128  0.87465  0.08626  1.0000
  P   P63       1.0  0.32819  0.90396  0.09937  1.0000
  C   C1934     1.0  0.30251  0.91241  0.09521  1.0000
  C   C1935     1.0  0.29876  0.91116  0.07828  1.0000
  C   C1936     1.0  0.27899  0.91756  0.07497  1.0000
  C   C1937     1.0  0.42735  0.95660  0.20782  1.0000
  C   C1938     1.0  0.28599  0.91972  0.10897  1.0000
  C   C1939     1.0  0.34368  0.92228  0.08525  1.0000
  C   C1940     1.0  0.34197  0.93192  0.06660  1.0000
  C   C1941     1.0  0.35491  0.94505  0.05544  1.0000
  C   C1942     1.0  0.36967  0.94864  0.06272  1.0000
  C   C1943     1.0  0.37150  0.93913  0.08121  1.0000
  C   C1944     1.0  0.35880  0.92579  0.09234  1.0000
  H   H1554     1.0  0.38683  0.85239  0.07542  1.0000
  H   H1555     1.0  0.36556  0.82842  0.07694  1.0000
  C   C1945     1.0  0.31011  0.71990  0.09345  1.0000
  H   H1556     1.0  0.37084  0.88497  0.08540  1.0000
  H   H1557     1.0  0.33245  0.86784  0.13063  1.0000
  H   H1558     1.0  0.31110  0.90505  0.06770  1.0000
  H   H1559     1.0  0.27624  0.91667  0.06183  1.0000
  H   H1560     1.0  0.00736  0.70156  0.21084  1.0000
  H   H1561     1.0  0.33120  0.92900  0.06030  1.0000
  H   H1562     1.0  0.35385  0.95199  0.04091  1.0000
  C   C1946     1.0  0.05156  0.69370  0.17806  1.0000
  C   C1947     1.0  0.32918  0.87922  0.15518  1.0000
  H   H1563     1.0  0.36134  0.91783  0.10624  1.0000
  C   C1948     1.0  0.26710  0.86606  0.10566  1.0000
  H   H1564     1.0  0.26974  0.79725  0.00653  1.0000
  C   C1949     1.0  0.00089  0.93704  0.22501  1.0000
  H   H1565     1.0  0.41495  0.66549  0.07418  1.0000
  C   C1950     1.0  0.34587  0.75131  0.14834  1.0000
  H   H1566     1.0  0.22438  0.85878  0.13947  1.0000
  C   C1951     1.0  0.45437  0.69217  0.15830  1.0000
  C   C1952     1.0  0.46069  0.69249  0.13897  1.0000
  C   C1953     1.0  0.45270  0.71041  0.09434  1.0000
  C   C1954     1.0  0.32989  0.88139  0.13604  1.0000
  C   C1955     1.0  0.46169  0.74352  0.07938  1.0000
  C   C1956     1.0  0.44127  0.75228  0.07863  1.0000
  C   C1957     1.0  0.42651  0.74030  0.08612  1.0000
  C   C1958     1.0  0.43214  0.71958  0.09427  1.0000
  Fe  Fe126     1.0  0.36873  0.72997  0.06522  1.0000
  C   C1959     1.0  0.29329  0.91111  0.98803  1.0000
  H   H1567     1.0  0.32933  0.76833  0.98862  1.0000
  Fe  Fe127     1.0  0.04510  0.95583  0.16560  1.0000
  H   H1568     1.0  0.28817  0.92065  0.12229  1.0000
  C   C1960     1.0  0.02672  0.89847  0.22946  1.0000
  H   H1569     1.0  0.32568  0.75375  0.17531  1.0000
  H   H1570     1.0  0.32178  0.93336  0.12266  1.0000
  H   H1571     1.0  0.49192  0.70606  0.23433  1.0000
  H   H1572     1.0  0.47468  0.92193  0.22569  1.0000
  H   H1573     1.0  0.25906  0.94331  0.01410  1.0000
  H   H1574     1.0  0.26552  0.90841  0.00911  1.0000
  H   H1575     1.0  0.24733  0.92939  0.08618  1.0000
  S   S262      1.0  0.06687  0.97690  0.15130  1.0000
  S   S263      1.0  0.35727  0.71258  0.05076  1.0000
  C   C1961     1.0  0.25941  0.77625  0.99716  1.0000
  H   H1576     1.0  0.46223  0.69883  0.16484  1.0000
  Fe  Fe128     1.0  0.07228  0.97389  0.17982  1.0000
  C   C1962     1.0  0.33005  0.74618  0.16362  1.0000
  C   C1963     1.0  0.32001  0.73112  0.16393  1.0000
  C   C1964     1.0  0.44811  0.66659  0.09958  1.0000
  C   C1965     1.0  0.03478  0.70395  0.18945  1.0000
  H   H1577     1.0  0.24588  0.84199  0.01002  1.0000
  C   C1966     1.0  0.32735  0.90089  0.12411  1.0000
  C   C1967     1.0  0.49252  0.66756  0.20859  1.0000
  S   S264      1.0  0.38046  0.71745  0.09215  1.0000
  H   H1578     1.0  0.47324  0.69969  0.13064  1.0000
  C   C1968     1.0  0.35175  0.74128  0.13343  1.0000
  H   H1579     1.0  0.38336  0.94151  0.08663  1.0000
  H   H1580     1.0  0.36119  0.68825  0.08626  1.0000
  C   C1969     1.0  0.28007  0.79016  0.14039  1.0000
  P   P64       1.0  0.29974  0.70921  0.99405  1.0000
  H   H1581     1.0  0.28866  0.76709  0.10096  1.0000
  H   H1582     1.0  0.36423  0.74486  0.12164  1.0000
  C   C1970     1.0  0.24127  0.77450  0.09308  1.0000
  S   S265      1.0  0.07727  0.89998  0.21317  1.0000
  C   C1971     1.0  0.28286  0.69992  0.18208  1.0000
  H   H1583     1.0  0.48099  0.71696  0.18505  1.0000
  C   C1972     1.0  0.23926  0.85503  0.13035  1.0000
  C   C1973     1.0  0.34172  0.72628  0.13373  1.0000
  C   C1974     1.0  0.32391  0.91817  0.13163  1.0000
  H   H1584     1.0  0.44740  0.71447  0.20705  1.0000
  H   H1585     1.0  0.32061  0.73493  0.00458  1.0000
  C   C1975     1.0  0.32566  0.72121  0.14884  1.0000
  H   H1586     1.0  0.11912  0.86431  0.99101  1.0000
  C   C1976     1.0  0.46550  0.96747  0.19516  1.0000
  C   C1977     1.0  0.43519  0.96276  0.18850  1.0000
  H   H1587     1.0  0.30762  0.73428  0.08333  1.0000
  H   H1588     1.0  0.30758  0.73412  0.11602  1.0000
  H   H1589     1.0  0.23731  0.73303  0.03935  1.0000
  H   H1590     1.0  0.24045  0.88652  0.11755  1.0000
  C   C1978     1.0  0.43834  0.68268  0.16929  1.0000
  C   C1979     1.0  0.28710  0.78958  0.17035  1.0000
  C   C1980     1.0  0.42845  0.67374  0.16091  1.0000
  H   H1591     1.0  0.34666  0.71843  0.12223  1.0000
  H   H1592     1.0  0.06556  0.93456  0.23238  1.0000
  C   C1981     1.0  0.25101  0.71954  0.16337  1.0000
  H   H1593     1.0  0.33123  0.86415  0.16431  1.0000
  C   C1982     1.0  0.26151  0.76519  0.09398  1.0000
  H   H1594     1.0  0.99641  0.97852  0.11241  1.0000
  H   H1595     1.0  0.27390  0.87817  0.09570  1.0000
  C   C1983     1.0  0.48681  0.67400  0.09987  1.0000
  H   H1596     1.0  0.00573  0.83770  0.21596  1.0000
  H   H1597     1.0  0.41613  0.66621  0.16943  1.0000
  H   H1598     1.0  0.19344  0.88263  0.99151  1.0000
  Fe  Fe129     1.0  0.49345  0.96521  0.10349  1.0000
  H   H1599     1.0  0.03750  0.88395  0.23102  1.0000
  H   H1600     1.0  0.35099  0.84768  0.99337  1.0000
  H   H1601     1.0  0.02441  0.95581  0.23313  1.0000
  P   P65       1.0  0.47096  0.96321  0.23132  1.0000
  H   H1602     1.0  0.30442  0.80103  0.99094  1.0000
  C   C1984     1.0  0.23793  0.71718  0.00042  1.0000
  H   H1603     1.0  0.30199  0.66155  0.16577  1.0000
  H   H1604     1.0  0.30829  0.66943  0.05801  1.0000
  H   H1605     1.0  0.49356  0.73491  0.03305  1.0000
  H   H1606     1.0  0.43212  0.95151  0.23579  1.0000
  C   C1985     1.0  0.49466  0.75048  0.02581  1.0000
  C   C1986     1.0  0.08135  0.97903  0.24495  1.0000
  S   S266      1.0  0.03460  0.68020  0.42254  1.0000
  H   H1607     1.0  0.00862  0.77574  0.39838  1.0000
  H   H1608     1.0  0.47108  0.95433  0.27201  1.0000
  C   C1987     1.0  0.02896  0.66357  0.33321  1.0000
  C   C1988     1.0  0.15606  0.66157  0.37015  1.0000
  Fe  Fe130     1.0  0.05169  0.70451  0.40472  1.0000
  S   S267      1.0  0.03788  0.73734  0.40616  1.0000
  H   H1609     1.0  0.05006  0.82924  0.38160  1.0000
  S   S268      1.0  0.08171  0.68716  0.41178  1.0000
  C   C1989     1.0  0.43066  0.66606  0.28148  1.0000
  C   C1990     1.0  0.03966  0.86434  0.34320  1.0000
  H   H1610     1.0  0.19519  0.87060  0.33621  1.0000
  H   H1611     1.0  0.04375  0.87712  0.36448  1.0000
  C   C1991     1.0  0.15349  0.83304  0.28727  1.0000
  H   H1612     1.0  0.02742  0.89211  0.31179  1.0000
  C   C1992     1.0  0.12218  0.84017  0.31072  1.0000
  H   H1613     1.0  0.11890  0.70076  0.48421  1.0000
  H   H1614     1.0  0.04272  0.67026  0.35271  1.0000
  S   S269      1.0  0.22977  0.70612  0.36344  1.0000
  C   C1993     1.0  0.20517  0.82903  0.42773  1.0000
  C   C1994     1.0  0.23836  0.84478  0.38754  1.0000
  H   H1615     1.0  0.22691  0.78647  0.37194  1.0000
  C   C1995     1.0  0.06748  0.92033  0.24271  1.0000
  C   C1996     1.0  0.00643  0.95684  0.26154  1.0000
  H   H1616     1.0  0.01133  0.96068  0.41625  1.0000
  H   H1617     1.0  0.00058  0.87132  0.32545  1.0000
  C   C1997     1.0  0.27359  0.81627  0.37666  1.0000
  C   C1998     1.0  0.46956  0.71085  0.30214  1.0000
  H   H1618     1.0  0.11248  0.87821  0.32893  1.0000
  C   C1999     1.0  0.02083  0.81364  0.42508  1.0000
  H   H1619     1.0  0.09861  0.86456  0.30026  1.0000
  Fe  Fe131     1.0  0.10487  0.78542  0.43701  1.0000
  S   S270      1.0  0.11016  0.80636  0.40849  1.0000
  S   S271      1.0  0.07520  0.77575  0.45216  1.0000
  Fe  Fe132     1.0  0.14584  0.78437  0.44372  1.0000
  S   S272      1.0  0.15500  0.80515  0.41584  1.0000
  S   S273      1.0  0.16555  0.77013  0.46502  1.0000
  Fe  Fe133     1.0  0.12298  0.82347  0.42197  1.0000
  S   S274      1.0  0.11846  0.85785  0.41420  1.0000
  Fe  Fe134     1.0  0.14162  0.78667  0.40428  1.0000
  S   S275      1.0  0.15588  0.78084  0.37525  1.0000
  S   S276      1.0  0.11498  0.80428  0.45101  1.0000
  S   S277      1.0  0.13529  0.76406  0.43157  1.0000
  C   C2000     1.0  0.00406  0.86198  0.38513  1.0000
  S   S278      1.0  0.02569  0.92023  0.33794  1.0000
  H   H1620     1.0  0.18670  0.80277  0.37685  1.0000
  S   S279      1.0  0.02850  0.96023  0.35132  1.0000
  Fe  Fe135     1.0  0.04137  0.92645  0.35734  1.0000
  S   S280      1.0  0.03715  0.90619  0.38652  1.0000
  C   C2001     1.0  0.01126  0.91309  0.29152  1.0000
  H   H1621     1.0  0.14721  0.72405  0.48426  1.0000
  C   C2002     1.0  0.02592  0.80752  0.37157  1.0000
  C   C2003     1.0  0.20643  0.78238  0.41908  1.0000
  C   C2004     1.0  0.14462  0.84763  0.27331  1.0000
  S   S281      1.0  0.22387  0.66367  0.45382  1.0000
  C   C2005     1.0  0.31826  0.67557  0.42384  1.0000
  C   C2006     1.0  0.02296  0.81501  0.35304  1.0000
  C   C2007     1.0  0.03189  0.97716  0.24412  1.0000
  H   H1622     1.0  0.42830  0.67899  0.28773  1.0000
  C   C2008     1.0  0.09173  0.97843  0.27314  1.0000
  Fe  Fe136     1.0  0.06518  0.66179  0.42737  1.0000
  C   C2009     1.0  0.09592  0.87107  0.40632  1.0000
  C   C2010     1.0  0.07802  0.86351  0.41357  1.0000
  C   C2011     1.0  0.05999  0.87443  0.40751  1.0000
  C   C2012     1.0  0.05995  0.89272  0.39380  1.0000
  C   C2013     1.0  0.07790  0.90027  0.38649  1.0000
  C   C2014     1.0  0.09572  0.88968  0.39303  1.0000
  H   H1623     1.0  0.07801  0.84952  0.42424  1.0000
  H   H1624     1.0  0.04607  0.86869  0.41342  1.0000
  H   H1625     1.0  0.07790  0.91456  0.37619  1.0000
  H   H1626     1.0  0.10938  0.89589  0.38772  1.0000
  H   H1627     1.0  0.16900  0.82457  0.28363  1.0000
  H   H1628     1.0  0.01615  0.85946  0.39245  1.0000
  C   C2015     1.0  0.02451  0.98706  0.40218  1.0000
  C   C2016     1.0  0.07050  0.71776  0.47774  1.0000
  H   H1629     1.0  0.22854  0.74938  0.38132  1.0000
  H   H1630     1.0  0.03264  0.81081  0.32440  1.0000
  C   C2017     1.0  0.30807  0.68493  0.45414  1.0000
  H   H1631     1.0  0.14542  0.81176  0.46671  1.0000
  C   C2018     1.0  0.41772  0.67281  0.43383  1.0000
  C   C2019     1.0  0.47421  0.68974  0.30954  1.0000
  C   C2020     1.0  0.20866  0.72619  0.36757  1.0000
  C   C2021     1.0  0.20480  0.74233  0.35233  1.0000
  C   C2022     1.0  0.18854  0.75892  0.35495  1.0000
  C   C2023     1.0  0.17633  0.75983  0.37293  1.0000
  C   C2024     1.0  0.18039  0.74398  0.38837  1.0000
  C   C2025     1.0  0.19635  0.72693  0.38564  1.0000
  H   H1632     1.0  0.21428  0.74186  0.33839  1.0000
  H   H1633     1.0  0.18545  0.77112  0.34299  1.0000
  H   H1634     1.0  0.17099  0.74466  0.40228  1.0000
  H   H1635     1.0  0.19933  0.71462  0.39752  1.0000
  C   C2026     1.0  0.42567  0.98693  0.28198  1.0000
  H   H1636     1.0  0.25376  0.79605  0.38071  1.0000
  S   S282      1.0  0.20545  0.66978  0.40974  1.0000
  H   H1637     1.0  0.28907  0.69399  0.43385  1.0000
  H   H1638     1.0  0.15317  0.85045  0.25883  1.0000
  C   C2027     1.0  0.24336  0.65969  0.46570  1.0000
  Fe  Fe137     1.0  0.08601  0.67448  0.38640  1.0000
  C   C2028     1.0  0.18595  0.70035  0.46838  1.0000
  C   C2029     1.0  0.44191  0.69275  0.33250  1.0000
  H   H1639     1.0  0.15771  0.67670  0.41122  1.0000
  C   C2030     1.0  0.17462  0.85069  0.44192  1.0000
  H   H1640     1.0  0.38302  0.71757  0.43527  1.0000
  C   C2031     1.0  0.02096  0.96265  0.24512  1.0000
  C   C2032     1.0  0.44706  0.66277  0.26623  1.0000
  H   H1641     1.0  0.00661  0.80871  0.43200  1.0000
  H   H1642     1.0  0.01149  0.82847  0.34957  1.0000
  C   C2033     1.0  0.49464  0.69316  0.26322  1.0000
  H   H1643     1.0  0.15908  0.67318  0.35745  1.0000
  C   C2034     1.0  0.41004  0.69377  0.43232  1.0000
  H   H1644     1.0  0.09681  0.96994  0.28597  1.0000
  C   C2035     1.0  0.25444  0.81113  0.38137  1.0000
  C   C2036     1.0  0.04535  0.82498  0.39681  1.0000
  S   S283      1.0  0.06782  0.90021  0.29904  1.0000
  C   C2037     1.0  0.05224  0.82032  0.42756  1.0000
  H   H1645     1.0  0.15128  0.86286  0.42583  1.0000
  C   C2038     1.0  0.17742  0.84396  0.41136  1.0000
  H   H1646     1.0  0.11971  0.74595  0.46842  1.0000
  C   C2039     1.0  0.99798  0.84563  0.38213  1.0000
  C   C2040     1.0  0.07013  0.84436  0.32699  1.0000
  C   C2041     1.0  0.16532  0.71065  0.44498  1.0000
  H   H1647     1.0  0.32974  0.67335  0.47184  1.0000
  H   H1648     1.0  0.44720  0.96782  0.29857  1.0000
  C   C2042     1.0  0.40433  0.65938  0.43939  1.0000
  C   C2043     1.0  0.15717  0.78288  0.48373  1.0000
  C   C2044     1.0  0.04978  0.78740  0.34276  1.0000
  C   C2045     1.0  0.10646  0.70427  0.47717  1.0000
  C   C2046     1.0  0.00161  0.68253  0.26482  1.0000
  C   C2047     1.0  0.18157  0.82446  0.35155  1.0000
  Fe  Fe138     1.0  0.01542  0.95412  0.32987  1.0000
  C   C2048     1.0  0.04888  0.74687  0.41931  1.0000
  C   C2049     1.0  0.03644  0.75484  0.43473  1.0000
  C   C2050     1.0  0.04477  0.76321  0.44503  1.0000
  C   C2051     1.0  0.06531  0.76465  0.43934  1.0000
  C   C2052     1.0  0.07765  0.75723  0.42361  1.0000
  C   C2053     1.0  0.06956  0.74788  0.41383  1.0000
  H   H1649     1.0  0.02041  0.75425  0.43888  1.0000
  H   H1650     1.0  0.03520  0.76890  0.45722  1.0000
  H   H1651     1.0  0.09338  0.75870  0.41907  1.0000
  H   H1652     1.0  0.07917  0.74190  0.40180  1.0000
  H   H1653     1.0  0.49343  0.92015  0.48434  1.0000
  H   H1654     1.0  0.07220  0.83079  0.40125  1.0000
  H   H1655     1.0  0.22016  0.81954  0.42853  1.0000
  H   H1656     1.0  0.12110  0.76227  0.33629  1.0000
  Fe  Fe139     1.0  0.05420  0.92461  0.31592  1.0000
  C   C2054     1.0  0.12477  0.85884  0.27810  1.0000
  C   C2055     1.0  0.43479  0.98596  0.24886  1.0000
  C   C2056     1.0  0.02659  0.81910  0.40532  1.0000
  H   H1657     1.0  0.04164  0.67656  0.46540  1.0000
  S   S284      1.0  0.04279  0.95803  0.30629  1.0000
  H   H1658     1.0  0.06367  0.76574  0.36458  1.0000
  H   H1659     1.0  0.19943  0.79118  0.42984  1.0000
  C   C2057     1.0  0.06502  0.92043  0.26195  1.0000
  C   C2058     1.0  0.06816  0.90189  0.27520  1.0000
  H   H1660     1.0  0.01954  0.89825  0.25882  1.0000
  H   H1661     1.0  0.99954  0.89463  0.38081  1.0000
  P   P66       1.0  0.01003  0.81938  0.39066  1.0000
  H   H1662     1.0  0.06121  0.93475  0.26639  1.0000
  S   S285      1.0  0.07219  0.98870  0.31798  1.0000
  C   C2059     1.0  0.19409  0.83863  0.44256  1.0000
  H   H1663     1.0  0.07499  0.86912  0.27948  1.0000
  H   H1664     1.0  0.05883  0.77943  0.33175  1.0000
  H   H1665     1.0  0.02956  0.80956  0.45137  1.0000
  C   C2060     1.0  0.03042  0.66450  0.35120  1.0000
  C   C2061     1.0  0.45717  0.96504  0.26955  1.0000
  C   C2062     1.0  0.05131  0.67077  0.47554  1.0000
  H   H1666     1.0  0.08867  0.78084  0.38810  1.0000
  C   C2063     1.0  0.00336  0.96562  0.27697  1.0000
  C   C2064     1.0  0.18933  0.81734  0.36792  1.0000
  H   H1667     1.0  0.02334  0.92160  0.28559  1.0000
  H   H1668     1.0  0.14944  0.67238  0.48066  1.0000
  H   H1669     1.0  0.06231  0.82040  0.43621  1.0000
  H   H1670     1.0  0.16582  0.85783  0.45356  1.0000
  C   C2065     1.0  0.45097  0.72273  0.30961  1.0000
  H   H1671     1.0  0.29666  0.69254  0.46440  1.0000
  Fe  Fe140     1.0  0.23072  0.67622  0.38464  1.0000
  C   C2066     1.0  0.14241  0.82951  0.30597  1.0000
  H   H1672     1.0  0.02481  0.66949  0.24357  1.0000
  C   C2067     1.0  0.07289  0.90169  0.23692  1.0000
  C   C2068     1.0  0.24233  0.73269  0.46724  1.0000
  C   C2069     1.0  0.21357  0.79175  0.40020  1.0000
  H   H1673     1.0  0.17712  0.84931  0.32774  1.0000
  C   C2070     1.0  0.16638  0.85347  0.42628  1.0000
  C   C2071     1.0  0.22177  0.77961  0.38668  1.0000
  C   C2072     1.0  0.23944  0.71568  0.46256  1.0000
  C   C2073     1.0  0.24501  0.71363  0.44381  1.0000
  C   C2074     1.0  0.25393  0.72834  0.42964  1.0000
  C   C2075     1.0  0.25709  0.74523  0.43419  1.0000
  C   C2076     1.0  0.25144  0.74734  0.45295  1.0000
  C   C2077     1.0  0.15820  0.68380  0.47256  1.0000
  C   C2078     1.0  0.04101  0.78991  0.37547  1.0000
  C   C2079     1.0  0.01003  0.97508  0.40600  1.0000
  C   C2080     1.0  0.32678  0.67376  0.45838  1.0000
  C   C2081     1.0  0.19685  0.83150  0.41207  1.0000
  C   C2082     1.0  0.25752  0.84985  0.38285  1.0000
  H   H1674     1.0  0.21293  0.76899  0.46765  1.0000
  H   H1675     1.0  0.19288  0.80261  0.47262  1.0000
  C   C2083     1.0  0.20742  0.76133  0.42424  1.0000
  H   H1676     1.0  0.01123  0.98744  0.28770  1.0000
  H   H1677     1.0  0.45741  0.67321  0.26081  1.0000
  H   H1678     1.0  0.24242  0.70058  0.44028  1.0000
  H   H1679     1.0  0.25814  0.72674  0.41510  1.0000
  H   H1680     1.0  0.26381  0.75673  0.42316  1.0000
  H   H1681     1.0  0.25419  0.76036  0.45634  1.0000
  C   C2084     1.0  0.48734  0.93878  0.23831  1.0000
  H   H1682     1.0  0.12731  0.89512  0.34515  1.0000
  C   C2085     1.0  0.03497  0.80504  0.33867  1.0000
  H   H1683     1.0  0.35925  0.69414  0.44507  1.0000
  C   C2086     1.0  0.23783  0.66307  0.48400  1.0000
  C   C2087     1.0  0.19381  0.85561  0.34495  1.0000
  C   C2088     1.0  0.07517  0.88338  0.25039  1.0000
  C   C2089     1.0  0.17430  0.68591  0.47898  1.0000
  C   C2090     1.0  0.05800  0.82576  0.40791  1.0000
  H   H1684     1.0  0.19032  0.72401  0.44336  1.0000
  H   H1685     1.0  0.02351  0.87093  0.34517  1.0000
  H   H1686     1.0  0.44742  0.73902  0.30383  1.0000
  Fe  Fe141     1.0  0.05669  0.96186  0.32832  1.0000
  C   C2091     1.0  0.02820  0.98626  0.25934  1.0000
  H   H1687     1.0  0.04043  0.85012  0.32096  1.0000
  H   H1688     1.0  0.22489  0.85605  0.39173  1.0000
  H   H1689     1.0  0.14420  0.83779  0.38267  1.0000
  C   C2092     1.0  0.03368  0.81426  0.43614  1.0000
  H   H1690     1.0  0.42272  0.72287  0.33052  1.0000
  H   H1691     1.0  0.14958  0.81847  0.31675  1.0000
  H   H1692     1.0  0.12328  0.79790  0.32072  1.0000
  H   H1693     1.0  0.04341  0.78360  0.38970  1.0000
  C   C2093     1.0  0.38895  0.70132  0.43640  1.0000
  H   H1694     1.0  0.21565  0.73322  0.41453  1.0000
  C   C2094     1.0  0.05268  0.77978  0.36119  1.0000
  H   H1695     1.0  0.20989  0.85780  0.36451  1.0000
  H   H1696     1.0  0.10366  0.75354  0.36990  1.0000
  C   C2095     1.0  0.22270  0.75858  0.39191  1.0000
  C   C2096     1.0  0.07283  0.88348  0.26934  1.0000
  P   P67       1.0  0.13476  0.69090  0.44619  1.0000
  C   C2097     1.0  0.10955  0.70063  0.45907  1.0000
  C   C2098     1.0  0.15379  0.69589  0.45538  1.0000
  H   H1697     1.0  0.43409  0.66695  0.43070  1.0000
  C   C2099     1.0  0.20208  0.84830  0.36107  1.0000
  S   S286      1.0  0.05728  0.69413  0.37779  1.0000
  H   H1698     1.0  0.09150  0.81636  0.37305  1.0000
  C   C2100     1.0  0.21252  0.77348  0.48039  1.0000
  C   C2101     1.0  0.09277  0.70523  0.45069  1.0000
  H   H1699     1.0  0.03703  0.98196  0.40941  1.0000
  C   C2102     1.0  0.13776  0.70304  0.42147  1.0000
  C   C2103     1.0  0.15044  0.69265  0.40756  1.0000
  C   C2104     1.0  0.15424  0.70301  0.38863  1.0000
  C   C2105     1.0  0.14529  0.72365  0.38347  1.0000
  C   C2106     1.0  0.13262  0.73402  0.39725  1.0000
  C   C2107     1.0  0.12881  0.72372  0.41615  1.0000
  C   C2108     1.0  0.08701  0.71293  0.48639  1.0000
  H   H1700     1.0  0.42045  0.70415  0.42803  1.0000
  H   H1701     1.0  0.48037  0.71818  0.29075  1.0000
  C   C2109     1.0  0.14783  0.80361  0.48059  1.0000
  C   C2110     1.0  0.44363  0.97272  0.28473  1.0000
  C   C2111     1.0  0.45282  0.97152  0.25147  1.0000
  H   H1702     1.0  0.09474  0.70257  0.43680  1.0000
  H   H1703     1.0  0.06045  0.71699  0.45348  1.0000
  H   H1704     1.0  0.01243  0.68455  0.27175  1.0000
  H   H1705     1.0  0.16448  0.69514  0.37799  1.0000
  H   H1706     1.0  0.14866  0.73175  0.36887  1.0000
  H   H1707     1.0  0.12635  0.75021  0.39337  1.0000
  H   H1708     1.0  0.11939  0.73197  0.42679  1.0000
  C   C2112     1.0  0.18128  0.71289  0.45155  1.0000
  C   C2113     1.0  0.18370  0.84362  0.34011  1.0000
  S   S287      1.0  0.07089  0.92837  0.33595  1.0000
  H   H1709     1.0  0.17050  0.84614  0.39955  1.0000
  H   H1710     1.0  0.17337  0.81525  0.34809  1.0000
  C   C2114     1.0  0.33698  0.66428  0.42806  1.0000
  H   H1711     1.0  0.07731  0.83511  0.31658  1.0000
  S   S288      1.0  0.25585  0.66508  0.40068  1.0000
  H   H1712     1.0  0.28725  0.80523  0.37239  1.0000
  H   H1713     1.0  0.20163  0.75434  0.43879  1.0000
  H   H1714     1.0  0.16241  0.72009  0.43162  1.0000
  H   H1715     1.0  0.12998  0.82056  0.36647  1.0000
  H   H1716     1.0  0.08039  0.86264  0.36025  1.0000
  C   C2115     1.0  0.20013  0.82897  0.37259  1.0000
  C   C2116     1.0  0.23662  0.82536  0.38682  1.0000
  C   C2117     1.0  0.08834  0.96804  0.26125  1.0000
  P   P68       1.0  0.21163  0.81914  0.39296  1.0000
  H   H1717     1.0  0.28998  0.83959  0.37370  1.0000
  C   C2118     1.0  0.21535  0.74947  0.41065  1.0000
  H   H1718     1.0  0.43132  0.68572  0.34439  1.0000
  C   C2119     1.0  0.07333  0.71363  0.46003  1.0000
  H   H1719     1.0  0.14318  0.87486  0.37214  1.0000
  H   H1720     1.0  0.25870  0.86487  0.38343  1.0000
  C   C2120     1.0  0.01369  0.89613  0.30637  1.0000
  C   C2121     1.0  0.11367  0.85527  0.29676  1.0000
  C   C2122     1.0  0.37550  0.68794  0.44195  1.0000
  H   H1721     1.0  0.09102  0.95150  0.26474  1.0000
  C   C2123     1.0  0.01380  0.98067  0.27570  1.0000
  C   C2124     1.0  0.20108  0.79268  0.48314  1.0000
  H   H1722     1.0  0.04013  0.66873  0.32086  1.0000
  C   C2125     1.0  0.04918  0.85262  0.32962  1.0000
  H   H1723     1.0  0.20048  0.83661  0.45467  1.0000
  H   H1724     1.0  0.11798  0.87050  0.26740  1.0000
  C   C2126     1.0  0.13905  0.66366  0.44888  1.0000
  C   C2127     1.0  0.46050  0.68086  0.32511  1.0000
  C   C2128     1.0  0.27513  0.83562  0.37738  1.0000
  P   P69       1.0  0.10847  0.83630  0.33504  1.0000
  C   C2129     1.0  0.10824  0.80978  0.34596  1.0000
  C   C2130     1.0  0.12009  0.84813  0.34656  1.0000
  C   C2131     1.0  0.12924  0.83681  0.36165  1.0000
  C   C2132     1.0  0.13754  0.84650  0.37076  1.0000
  C   C2133     1.0  0.13708  0.86743  0.36471  1.0000
  C   C2134     1.0  0.12816  0.87878  0.34955  1.0000
  C   C2135     1.0  0.11973  0.86917  0.34045  1.0000
  C   C2136     1.0  0.09816  0.80468  0.36491  1.0000
  C   C2137     1.0  0.09652  0.78452  0.37349  1.0000
  C   C2138     1.0  0.10490  0.76921  0.36321  1.0000
  C   C2139     1.0  0.11472  0.77416  0.34425  1.0000
  C   C2140     1.0  0.11619  0.79441  0.33555  1.0000
  C   C2141     1.0  0.08176  0.84820  0.33764  1.0000
  C   C2142     1.0  0.07203  0.85983  0.35140  1.0000
  C   C2143     1.0  0.05108  0.86793  0.35405  1.0000
  H   H1725     1.0  0.07917  0.86897  0.24607  1.0000
  C   C2144     1.0  0.30376  0.68574  0.43693  1.0000
  H   H1726     1.0  0.19899  0.70134  0.47288  1.0000
  H   H1727     1.0  0.46421  0.66475  0.33161  1.0000
  C   C2145     1.0  0.43709  0.71366  0.32470  1.0000
  C   C2146     1.0  0.11908  0.74600  0.48284  1.0000
  H   H1728     1.0  0.48681  0.98977  0.26558  1.0000
  H   H1729     1.0  0.10782  0.66334  0.44961  1.0000
  H   H1730     1.0  0.23307  0.70388  0.47334  1.0000
  H   H1731     1.0  0.31488  0.67634  0.41047  1.0000
  H   H1732     1.0  0.47828  0.69558  0.26862  1.0000
  C   C2147     1.0  0.00343  0.92616  0.24312  1.0000
  C   C2148     1.0  0.01646  0.90675  0.24523  1.0000
  H   H1733     1.0  0.09093  0.76805  0.48523  1.0000
  Fe  Fe142     1.0  0.04256  0.66832  0.39601  1.0000
  H   H1734     1.0  0.05543  0.72430  0.48494  1.0000
  C   C2149     1.0  0.99870  0.88441  0.31390  1.0000
  H   H1735     1.0  0.06636  0.98268  0.35898  1.0000
  H   H1736     1.0  0.09741  0.83445  0.47870  1.0000
  H   H1737     1.0  0.06158  0.85343  0.48000  1.0000
  C   C2150     1.0  0.38309  0.66685  0.44341  1.0000
  C   C2151     1.0  0.34129  0.66304  0.44549  1.0000
  S   S289      1.0  0.11644  0.67222  0.36600  1.0000
  C   C2152     1.0  0.00853  0.67380  0.24901  1.0000
  H   H1738     1.0  0.11162  0.78427  0.53257  1.0000
  C   C2153     1.0  0.09883  0.93144  0.61534  1.0000
  H   H1739     1.0  0.01513  0.87438  0.73438  1.0000
  H   H1740     1.0  0.05841  0.91223  0.60569  1.0000
  S   S290      1.0  0.09569  0.69581  0.54224  1.0000
  Fe  Fe143     1.0  0.08386  0.69034  0.57359  1.0000
  S   S291      1.0  0.06902  0.71414  0.59102  1.0000
  Fe  Fe144     1.0  0.07642  0.67435  0.54284  1.0000
  C   C2154     1.0  0.08446  0.85028  0.72231  1.0000
  H   H1741     1.0  0.43646  0.67325  0.70551  1.0000
  H   H1742     1.0  0.23358  0.74708  0.62494  1.0000
  H   H1743     1.0  0.24965  0.74341  0.59217  1.0000
  S   S292      1.0  0.16167  0.76919  0.56689  1.0000
  H   H1744     1.0  0.01749  0.66495  0.54068  1.0000
  C   C2155     1.0  0.47985  0.67647  0.67173  1.0000
  H   H1745     1.0  0.24901  0.73065  0.54429  1.0000
  C   C2156     1.0  0.24591  0.70201  0.56403  1.0000
  Fe  Fe145     1.0  0.14489  0.77404  0.59571  1.0000
  S   S293      1.0  0.17218  0.77871  0.60312  1.0000
  S   S294      1.0  0.12358  0.75559  0.61744  1.0000
  H   H1746     1.0  0.99678  0.96616  0.58863  1.0000
  Fe  Fe146     1.0  0.18796  0.77705  0.57317  1.0000
  H   H1747     1.0  0.01724  0.78767  0.62215  1.0000
  Fe  Fe147     1.0  0.16065  0.81199  0.59147  1.0000
  S   S295      1.0  0.16122  0.83447  0.60800  1.0000
  S   S296      1.0  0.13234  0.80737  0.58598  1.0000
  Fe  Fe148     1.0  0.03094  0.91624  0.69110  1.0000
  S   S297      1.0  0.05722  0.88934  0.69155  1.0000
  C   C2157     1.0  0.09445  0.67391  0.63743  1.0000
  Fe  Fe149     1.0  0.05857  0.94641  0.66943  1.0000
  S   S298      1.0  0.08701  0.92179  0.66728  1.0000
  H   H1748     1.0  0.11813  0.94331  0.65739  1.0000
  Fe  Fe150     1.0  0.06807  0.90392  0.66120  1.0000
  S   S299      1.0  0.07457  0.88660  0.63829  1.0000
  Fe  Fe151     1.0  0.07372  0.90963  0.69775  1.0000
  S   S300      1.0  0.09330  0.89842  0.71939  1.0000
  S   S301      1.0  0.04074  0.92977  0.66048  1.0000
  S   S302      1.0  0.04629  0.93518  0.70032  1.0000
  H   H1749     1.0  0.18887  0.66260  0.63643  1.0000
  C   C2158     1.0  0.14618  0.80394  0.51311  1.0000
  H   H1750     1.0  0.10366  0.97782  0.73068  1.0000
  H   H1751     1.0  0.28282  0.67763  0.57730  1.0000
  C   C2159     1.0  0.13284  0.73260  0.51089  1.0000
  H   H1752     1.0  0.15834  0.77514  0.52994  1.0000
  H   H1753     1.0  0.16951  0.96382  0.67844  1.0000
  C   C2160     1.0  0.18402  0.67890  0.63541  1.0000
  H   H1754     1.0  0.14441  0.72231  0.51791  1.0000
  P   P70       1.0  0.14117  0.96742  0.62397  1.0000
  H   H1755     1.0  0.18641  0.73132  0.55467  1.0000
  S   S303      1.0  0.13992  0.81795  0.53084  1.0000
  C   C2161     1.0  0.16145  0.69584  0.58652  1.0000
  H   H1756     1.0  0.12043  0.93237  0.69072  1.0000
  H   H1757     1.0  0.02112  0.68619  0.56040  1.0000
  C   C2162     1.0  0.22231  0.76004  0.49442  1.0000
  H   H1758     1.0  0.08674  0.96586  0.67941  1.0000
  C   C2163     1.0  0.13770  0.85060  0.61537  1.0000
  C   C2164     1.0  0.12135  0.85350  0.60694  1.0000
  C   C2165     1.0  0.10234  0.86531  0.61369  1.0000
  C   C2166     1.0  0.09940  0.87408  0.62909  1.0000
  C   C2167     1.0  0.11592  0.87199  0.63709  1.0000
  C   C2168     1.0  0.13511  0.86031  0.63016  1.0000
  H   H1759     1.0  0.12333  0.84666  0.59518  1.0000
  H   H1760     1.0  0.08983  0.86753  0.60704  1.0000
  H   H1761     1.0  0.11381  0.87892  0.64885  1.0000
  H   H1762     1.0  0.14778  0.85828  0.63661  1.0000
  C   C2169     1.0  0.23613  0.69270  0.58190  1.0000
  H   H1763     1.0  0.22193  0.66814  0.49033  1.0000
  H   H1764     1.0  0.19800  0.72652  0.48994  1.0000
  C   C2170     1.0  0.21694  0.72597  0.58758  1.0000
  C   C2171     1.0  0.22223  0.70474  0.59386  1.0000
  H   H1765     1.0  0.20571  0.73513  0.59670  1.0000
  H   H1766     1.0  0.21500  0.69756  0.60780  1.0000
  C   C2172     1.0  0.08224  0.77606  0.54557  1.0000
  C   C2173     1.0  0.29933  0.71789  0.50709  1.0000
  P   P71       1.0  0.07874  0.77259  0.52395  1.0000
  C   C2174     1.0  0.08279  0.83024  0.65895  1.0000
  C   C2175     1.0  0.05929  0.75860  0.52697  1.0000
  S   S304      1.0  0.99854  0.91252  0.70462  1.0000
  H   H1767     1.0  0.16818  0.75663  0.50405  1.0000
  H   H1768     1.0  0.18684  0.70836  0.58585  1.0000
  C   C2176     1.0  0.12232  0.69098  0.63191  1.0000
  C   C2177     1.0  0.32048  0.68920  0.62656  1.0000
  C   C2178     1.0  0.29158  0.70318  0.50343  1.0000
  H   H1769     1.0  0.27588  0.71317  0.58590  1.0000
  H   H1770     1.0  0.05370  0.75105  0.66185  1.0000
  H   H1771     1.0  0.16067  0.73231  0.53726  1.0000
  H   H1772     1.0  0.31606  0.70410  0.61778  1.0000
  C   C2179     1.0  0.15852  0.95906  0.67373  1.0000
  C   C2180     1.0  0.08483  0.72547  0.59772  1.0000
  C   C2181     1.0  0.10353  0.72909  0.58605  1.0000
  C   C2182     1.0  0.11563  0.73857  0.59176  1.0000
  C   C2183     1.0  0.10896  0.74428  0.60922  1.0000
  C   C2184     1.0  0.09021  0.74072  0.62076  1.0000
  C   C2185     1.0  0.07806  0.73163  0.61492  1.0000
  H   H1773     1.0  0.10827  0.72509  0.57246  1.0000
  H   H1774     1.0  0.13003  0.74145  0.58269  1.0000
  H   H1775     1.0  0.08507  0.74509  0.63423  1.0000
  H   H1776     1.0  0.06355  0.72898  0.62390  1.0000
  S   S305      1.0  0.06268  0.67112  0.57379  1.0000
  H   H1777     1.0  0.09688  0.97480  0.62863  1.0000
  C   C2186     1.0  0.04723  0.67965  0.49114  1.0000
  H   H1778     1.0  0.18918  0.81290  0.50254  1.0000
  C   C2187     1.0  0.16080  0.77261  0.50163  1.0000
  H   H1779     1.0  0.15533  0.72165  0.61304  1.0000
  C   C2188     1.0  0.03027  0.96046  0.60597  1.0000
  S   S306      1.0  0.10907  0.66348  0.57998  1.0000
  C   C2189     1.0  0.12958  0.94763  0.66169  1.0000
  H   H1780     1.0  0.03115  0.97613  0.59905  1.0000
  H   H1781     1.0  0.35699  0.78763  0.69192  1.0000
  P   P72       1.0  0.23642  0.73486  0.49154  1.0000
  H   H1782     1.0  0.08971  0.78664  0.59096  1.0000
  H   H1783     1.0  0.25349  0.66904  0.63021  1.0000
  H   H1784     1.0  0.07967  0.94229  0.71534  1.0000
  C   C2190     1.0  0.04370  0.72941  0.54341  1.0000
  C   C2191     1.0  0.09991  0.78222  0.54538  1.0000
  C   C2192     1.0  0.06693  0.77440  0.56220  1.0000
  H   H1785     1.0  0.14914  0.92876  0.61138  1.0000
  H   H1786     1.0  0.33568  0.68924  0.53387  1.0000
  C   C2193     1.0  0.17569  0.70844  0.57842  1.0000
  C   C2194     1.0  0.20785  0.78477  0.51437  1.0000
  C   C2195     1.0  0.06967  0.77810  0.57855  1.0000
  C   C2196     1.0  0.04663  0.94478  0.60092  1.0000
  C   C2197     1.0  0.03571  0.74956  0.51367  1.0000
  C   C2198     1.0  0.11993  0.92400  0.61175  1.0000
  H   H1787     1.0  0.03441  0.69231  0.49295  1.0000
  C   C2199     1.0  0.99801  0.67576  0.58422  1.0000
  H   H1788     1.0  0.00074  0.84730  0.71929  1.0000
  S   S307      1.0  0.05391  0.68334  0.52398  1.0000
  H   H1789     1.0  0.01155  0.90304  0.66736  1.0000
  C   C2200     1.0  0.10354  0.96086  0.62353  1.0000
  H   H1790     1.0  0.34110  0.69903  0.63722  1.0000
  C   C2201     1.0  0.48306  0.72478  0.72723  1.0000
  H   H1791     1.0  0.26073  0.75900  0.49996  1.0000
  H   H1792     1.0  0.05813  0.77619  0.59150  1.0000
  H   H1793     1.0  0.02326  0.81890  0.62690  1.0000
  H   H1794     1.0  0.23892  0.70658  0.52816  1.0000
  C   C2202     1.0  0.11627  0.74481  0.52076  1.0000
  H   H1795     1.0  0.00968  0.85515  0.64549  1.0000
  C   C2203     1.0  0.32000  0.71578  0.67154  1.0000
  C   C2204     1.0  0.06476  0.83808  0.48847  1.0000
  C   C2205     1.0  0.00812  0.66433  0.55485  1.0000
  C   C2206     1.0  0.15743  0.96502  0.65469  1.0000
  H   H1796     1.0  0.45173  0.66832  0.67307  1.0000
  P   P73       1.0  0.16126  0.67958  0.60978  1.0000
  H   H1797     1.0  0.30018  0.68756  0.50443  1.0000
  C   C2207     1.0  0.33178  0.68282  0.69074  1.0000
  C   C2208     1.0  0.15526  0.78311  0.51631  1.0000
  C   C2209     1.0  0.19615  0.69066  0.53106  1.0000
  C   C2210     1.0  0.12480  0.95369  0.61968  1.0000
  C   C2211     1.0  0.46011  0.67347  0.68036  1.0000
  C   C2212     1.0  0.45153  0.67618  0.69873  1.0000
  C   C2213     1.0  0.46272  0.68164  0.70865  1.0000
  C   C2214     1.0  0.26905  0.74334  0.50100  1.0000
  C   C2215     1.0  0.48274  0.68440  0.70020  1.0000
  H   H1798     1.0  0.06010  0.94840  0.59050  1.0000
  H   H1799     1.0  0.11505  0.74366  0.53560  1.0000
  H   H1800     1.0  0.06140  0.86913  0.58602  1.0000
  C   C2216     1.0  0.25450  0.73172  0.60388  1.0000
  H   H1801     1.0  0.13733  0.68530  0.58159  1.0000
  C   C2217     1.0  0.25156  0.71869  0.63748  1.0000
  H   H1802     1.0  0.22574  0.75503  0.52311  1.0000
  H   H1803     1.0  0.26670  0.69690  0.49590  1.0000
  C   C2218     1.0  0.19882  0.79838  0.50007  1.0000
  C   C2219     1.0  0.08209  0.93562  0.72949  1.0000
  C   C2220     1.0  0.02619  0.98685  0.70288  1.0000
  C   C2221     1.0  0.10208  0.68923  0.64016  1.0000
  H   H1804     1.0  0.09898  0.85501  0.71668  1.0000
  C   C2222     1.0  0.01624  0.98077  0.72171  1.0000
  C   C2223     1.0  0.22072  0.71746  0.50693  1.0000
  H   H1805     1.0  0.41711  0.66437  0.64669  1.0000
  C   C2224     1.0  0.13434  0.73334  0.49192  1.0000
  H   H1806     1.0  0.17801  0.67601  0.49192  1.0000
  H   H1807     1.0  0.07288  0.84113  0.66701  1.0000
  H   H1808     1.0  0.49221  0.73220  0.71442  1.0000
  C   C2225     1.0  0.20275  0.71657  0.50250  1.0000
  S   S308      1.0  0.17881  0.81079  0.56199  1.0000
  H   H1809     1.0  0.13358  0.81038  0.64587  1.0000
  Fe  Fe152     1.0  0.15152  0.80300  0.55753  1.0000
  H   H1810     1.0  0.09212  0.70022  0.64818  1.0000
  C   C2226     1.0  0.22642  0.73531  0.56963  1.0000
  C   C2227     1.0  0.13087  0.94141  0.68067  1.0000
  C   C2228     1.0  0.31263  0.67266  0.62640  1.0000
  P   P74       1.0  0.29502  0.67654  0.61145  1.0000
  H   H1811     1.0  0.04001  0.86237  0.66499  1.0000
  H   H1812     1.0  0.05286  0.77033  0.56262  1.0000
  C   C2229     1.0  0.13290  0.93502  0.61395  1.0000
  C   C2230     1.0  0.41607  0.67858  0.65048  1.0000
  C   C2231     1.0  0.43264  0.68823  0.64360  1.0000
  C   C2232     1.0  0.43174  0.70622  0.64885  1.0000
  C   C2233     1.0  0.41414  0.71471  0.66077  1.0000
  C   C2234     1.0  0.39712  0.70544  0.66728  1.0000
  C   C2235     1.0  0.39834  0.68711  0.66223  1.0000
  P   P75       1.0  0.37434  0.71683  0.68244  1.0000
  C   C2236     1.0  0.37685  0.70905  0.70672  1.0000
  C   C2237     1.0  0.37078  0.74427  0.67474  1.0000
  C   C2238     1.0  0.36445  0.75680  0.68789  1.0000
  C   C2239     1.0  0.36180  0.77803  0.68171  1.0000
  C   C2240     1.0  0.36541  0.78688  0.66241  1.0000
  C   C2241     1.0  0.37165  0.77451  0.64924  1.0000
  C   C2242     1.0  0.37431  0.75328  0.65536  1.0000
  H   H1813     1.0  0.20183  0.67868  0.65472  1.0000
  C   C2243     1.0  0.26101  0.72855  0.49764  1.0000
  H   H1814     1.0  0.08464  0.71580  0.50031  1.0000
  H   H1815     1.0  0.20544  0.78885  0.52779  1.0000
  C   C2244     1.0  0.39617  0.70311  0.71116  1.0000
  C   C2245     1.0  0.35219  0.70881  0.68118  1.0000
  C   C2246     1.0  0.34914  0.68919  0.69083  1.0000
  C   C2247     1.0  0.33747  0.72212  0.67149  1.0000
  C   C2248     1.0  0.09064  0.94988  0.62119  1.0000
  H   H1816     1.0  0.33928  0.73740  0.66401  1.0000
  C   C2249     1.0  0.14522  0.94729  0.68672  1.0000
  C   C2250     1.0  0.11725  0.81292  0.64712  1.0000
  H   H1817     1.0  0.44631  0.68147  0.63446  1.0000
  H   H1818     1.0  0.44482  0.71343  0.64381  1.0000
  H   H1819     1.0  0.41384  0.72853  0.66487  1.0000
  H   H1820     1.0  0.38577  0.67927  0.66724  1.0000
  H   H1821     1.0  0.36161  0.75029  0.70290  1.0000
  H   H1822     1.0  0.31403  0.71378  0.51088  1.0000
  H   H1823     1.0  0.36340  0.80333  0.65765  1.0000
  H   H1824     1.0  0.37449  0.78137  0.63426  1.0000
  H   H1825     1.0  0.37913  0.74389  0.64497  1.0000
  C   C2251     1.0  0.28809  0.73795  0.50585  1.0000
  C   C2252     1.0  0.19146  0.68799  0.64580  1.0000
  H   H1826     1.0  0.08348  0.80034  0.62966  1.0000
  H   H1827     1.0  0.99517  0.98378  0.66082  1.0000
  H   H1828     1.0  0.40990  0.70300  0.70014  1.0000
  H   H1829     1.0  0.36026  0.67881  0.69845  1.0000
  H   H1830     1.0  0.08881  0.92268  0.61398  1.0000
  C   C2253     1.0  0.05966  0.83287  0.72026  1.0000
  H   H1831     1.0  0.12757  0.70343  0.63372  1.0000
  C   C2254     1.0  0.22572  0.70552  0.52396  1.0000
  C   C2255     1.0  0.04567  0.92442  0.60940  1.0000
  C   C2256     1.0  0.08744  0.78397  0.57827  1.0000
  H   H1832     1.0  0.11074  0.98342  0.68468  1.0000
  C   C2257     1.0  0.30797  0.68385  0.55409  1.0000
  C   C2258     1.0  0.16660  0.96108  0.60989  1.0000
  H   H1833     1.0  0.24827  0.66384  0.50783  1.0000
  H   H1834     1.0  0.19547  0.66541  0.58028  1.0000
  H   H1835     1.0  0.10971  0.83404  0.66527  1.0000
  H   H1836     1.0  0.16795  0.97401  0.64480  1.0000
  H   H1837     1.0  0.12618  0.90946  0.60758  1.0000
  C   C2259     1.0  0.10378  0.82621  0.65807  1.0000
  H   H1838     1.0  0.45594  0.68288  0.72309  1.0000
  C   C2260     1.0  0.05292  0.80913  0.51108  1.0000
  C   C2261     1.0  0.08685  0.98165  0.67246  1.0000
  C   C2262     1.0  0.29829  0.68016  0.57321  1.0000
  H   H1839     1.0  0.33726  0.68169  0.59164  1.0000
  C   C2263     1.0  0.04900  0.76201  0.51242  1.0000
  C   C2264     1.0  0.13523  0.67715  0.62105  1.0000
  H   H1840     1.0  0.10490  0.79939  0.49756  1.0000
  H   H1841     1.0  0.02794  0.90393  0.62982  1.0000
  C   C2265     1.0  0.05701  0.74182  0.54217  1.0000
  C   C2266     1.0  0.27569  0.69911  0.61547  1.0000
  C   C2267     1.0  0.32863  0.68273  0.58139  1.0000
  H   H1842     1.0  0.27126  0.68983  0.64587  1.0000
  C   C2268     1.0  0.05985  0.67242  0.50421  1.0000
  C   C2269     1.0  0.24133  0.72338  0.55804  1.0000
  H   H1843     1.0  0.07422  0.95539  0.62450  1.0000
  H   H1844     1.0  0.03253  0.75366  0.63938  1.0000
  H   H1845     1.0  0.24449  0.72031  0.65183  1.0000
  H   H1846     1.0  0.30870  0.72606  0.66401  1.0000
  H   H1847     1.0  0.04043  0.97765  0.69692  1.0000
  C   C2270     1.0  0.10251  0.78606  0.56168  1.0000
  C   C2271     1.0  0.14781  0.70827  0.55819  1.0000
  C   C2272     1.0  0.16106  0.72188  0.55083  1.0000
  S   S309      1.0  0.15220  0.66684  0.53306  1.0000
  C   C2273     1.0  0.01291  0.95585  0.61973  1.0000
  H   H1848     1.0  0.05505  0.82388  0.71313  1.0000
  C   C2274     1.0  0.14799  0.69534  0.57598  1.0000
  Fe  Fe153     1.0  0.11939  0.66717  0.54863  1.0000
  H   H1849     1.0  0.00014  0.88239  0.61877  1.0000
  H   H1850     1.0  0.04226  0.71632  0.55507  1.0000
  H   H1851     1.0  0.12027  0.79345  0.62844  1.0000
  C   C2275     1.0  0.33459  0.68642  0.63757  1.0000
  C   C2276     1.0  0.10975  0.80356  0.63710  1.0000
  C   C2277     1.0  0.14228  0.81408  0.49527  1.0000
  C   C2278     1.0  0.00992  0.84294  0.70632  1.0000
  H   H1852     1.0  0.04040  0.80239  0.52035  1.0000
  C   C2279     1.0  0.02839  0.91972  0.62293  1.0000
  H   H1853     1.0  0.02241  0.80381  0.68387  1.0000
  H   H1854     1.0  0.02032  0.87120  0.69528  1.0000
  H   H1855     1.0  0.35404  0.68804  0.55817  1.0000
  C   C2280     1.0  0.17083  0.69092  0.62355  1.0000
  C   C2281     1.0  0.16529  0.71209  0.62226  1.0000
  C   C2282     1.0  0.17263  0.72112  0.63272  1.0000
  C   C2283     1.0  0.18577  0.70910  0.64445  1.0000
  C   C2284     1.0  0.01198  0.93535  0.62797  1.0000
  C   C2285     1.0  0.07314  0.79809  0.50988  1.0000
  H   H1856     1.0  0.13715  0.70779  0.55034  1.0000
  H   H1857     1.0  0.07102  0.84136  0.61234  1.0000
  H   H1858     1.0  0.30382  0.69110  0.68093  1.0000
  C   C2286     1.0  0.10124  0.75806  0.51145  1.0000
  H   H1859     1.0  0.14586  0.94290  0.70149  1.0000
  H   H1860     1.0  0.06015  0.78221  0.66671  1.0000
  C   C2287     1.0  0.19080  0.70278  0.51432  1.0000
  C   C2288     1.0  0.21937  0.76560  0.51164  1.0000
  H   H1861     1.0  0.21696  0.68363  0.54945  1.0000
  H   H1862     1.0  0.06599  0.73787  0.55279  1.0000
  H   H1863     1.0  0.25694  0.69276  0.55489  1.0000
  H   H1864     1.0  0.02597  0.88977  0.58908  1.0000
  H   H1865     1.0  0.08851  0.83423  0.70048  1.0000
  S   S310      1.0  0.24070  0.66610  0.58979  1.0000
  H   H1866     1.0  0.16808  0.73750  0.63161  1.0000
  H   H1867     1.0  0.19159  0.71619  0.65239  1.0000
  H   H1868     1.0  0.17715  0.70169  0.51078  1.0000
  C   C2289     1.0  0.31716  0.69614  0.68115  1.0000
  C   C2290     1.0  0.30841  0.67991  0.58698  1.0000
  S   S311      1.0  0.22044  0.76191  0.56182  1.0000
  H   H1869     1.0  0.17574  0.93346  0.63011  1.0000
  C   C2291     1.0  0.49125  0.68162  0.68165  1.0000
  H   H1870     1.0  0.29992  0.68416  0.54359  1.0000
  H   H1871     1.0  0.05174  0.77381  0.49977  1.0000
  C   C2292     1.0  0.24543  0.73379  0.62238  1.0000
  H   H1872     1.0  0.18644  0.68061  0.54060  1.0000
  C   C2293     1.0  0.32800  0.68685  0.54862  1.0000
  C   C2294     1.0  0.21337  0.69232  0.53605  1.0000
  C   C2295     1.0  0.03301  0.73330  0.52919  1.0000
  C   C2296     1.0  0.25275  0.66029  0.49409  1.0000
  H   H1873     1.0  0.19716  0.97785  0.56754  1.0000
  C   C2297     1.0  0.17543  0.72150  0.56072  1.0000
  H   H1874     1.0  0.11626  0.79069  0.56136  1.0000
  C   C2298     1.0  0.33831  0.68630  0.56227  1.0000
  C   C2299     1.0  0.26946  0.71442  0.60039  1.0000
  C   C2300     1.0  0.08915  0.80746  0.49835  1.0000
  C   C2301     1.0  0.26671  0.70147  0.63405  1.0000
  C   C2302     1.0  0.04663  0.83893  0.73642  1.0000
  H   H1875     1.0  0.02326  0.72322  0.52985  1.0000
  C   C2303     1.0  0.07854  0.83862  0.71316  1.0000
  C   C2304     1.0  0.02646  0.78654  0.63199  1.0000
  C   C2305     1.0  0.03501  0.76738  0.64175  1.0000
  C   C2306     1.0  0.04693  0.76592  0.65441  1.0000
  C   C2307     1.0  0.05055  0.78360  0.65712  1.0000
  C   C2308     1.0  0.04226  0.80292  0.64716  1.0000
  C   C2309     1.0  0.02996  0.80427  0.63473  1.0000
  P   P76       1.0  0.04789  0.82559  0.65016  1.0000
  C   C2310     1.0  0.04127  0.84652  0.63109  1.0000
  C   C2311     1.0  0.03318  0.83215  0.67230  1.0000
  C   C2312     1.0  0.03215  0.85133  0.67563  1.0000
  C   C2313     1.0  0.02086  0.85649  0.69271  1.0000
  S   S312      1.0  0.05731  0.97973  0.65552  1.0000
  C   C2314     1.0  0.01062  0.82395  0.70304  1.0000
  C   C2315     1.0  0.02226  0.81851  0.68614  1.0000
  C   C2316     1.0  0.05561  0.85041  0.61407  1.0000
  C   C2317     1.0  0.05015  0.86607  0.59903  1.0000
  C   C2318     1.0  0.03021  0.87768  0.60074  1.0000
  C   C2319     1.0  0.01570  0.87359  0.61749  1.0000
  C   C2320     1.0  0.02121  0.85815  0.63266  1.0000
  C   C2321     1.0  0.07506  0.82081  0.64897  1.0000
  C   C2322     1.0  0.08880  0.80753  0.63789  1.0000
  H   H1876     1.0  0.99867  0.93144  0.63839  1.0000
  C   C2323     1.0  0.19991  0.93818  0.60562  1.0000
  C   C2324     1.0  0.14266  0.95967  0.64858  1.0000
  H   H1877     1.0  0.22119  0.94655  0.57949  1.0000
  C   C2325     1.0  0.18030  0.94338  0.61655  1.0000
  C   C2326     1.0  0.39792  0.69699  0.73002  1.0000
  H   H1878     1.0  0.21035  0.92444  0.61079  1.0000
  H   H1879     1.0  0.29405  0.74936  0.50875  1.0000
  C   C2327     1.0  0.17281  0.97345  0.59211  1.0000
  C   C2328     1.0  0.20600  0.95061  0.58798  1.0000
  C   C2329     1.0  0.35931  0.70910  0.72143  1.0000
  C   C2330     1.0  0.27255  0.70851  0.49863  1.0000
  H   H1880     1.0  0.48677  0.67375  0.65766  1.0000
  C   C2331     1.0  0.19246  0.96823  0.58124  1.0000
  C   C2332     1.0  0.10269  0.75841  0.49249  1.0000
  H   H1881     1.0  0.99990  0.68518  0.59264  1.0000
  H   H1882     1.0  0.02806  0.75210  0.50228  1.0000
  C   C2333     1.0  0.34053  0.66728  0.64890  1.0000
  C   C2334     1.0  0.01010  0.67640  0.56598  1.0000
  C   C2335     1.0  0.48284  0.70399  0.73047  1.0000
  C   C2336     1.0  0.99585  0.90158  0.67300  1.0000
  H   H1883     1.0  0.02295  0.96667  0.73026  1.0000
  H   H1884     1.0  0.02682  0.98516  0.63246  1.0000
  H   H1885     1.0  0.34422  0.71383  0.71839  1.0000
  H   H1886     1.0  0.03311  0.83737  0.50099  1.0000
  C   C2337     1.0  0.04875  0.82900  0.50024  1.0000
  H   H1887     1.0  0.13526  0.83017  0.49271  1.0000
  H   H1888     1.0  0.14259  0.91770  0.73596  1.0000
  C   C2338     1.0  0.08885  0.91451  0.73505  1.0000
  H   H1889     1.0  0.07858  0.67300  0.64329  1.0000
  H   H1890     1.0  0.00196  0.81351  0.71354  1.0000
  H   H1891     1.0  0.35146  0.66509  0.65745  1.0000
  H   H1892     1.0  0.16255  0.98710  0.58657  1.0000
  H   H1893     1.0  0.32988  0.66742  0.69792  1.0000
  C   C2339     1.0  0.10716  0.66008  0.62667  1.0000
  C   C2340     1.0  0.12743  0.66172  0.61844  1.0000
  H   H1894     1.0  0.41287  0.69186  0.73343  1.0000
  C   C2341     1.0  0.08495  0.82738  0.48768  1.0000
  C   C2342     1.0  0.10040  0.99160  0.67544  1.0000
  C   C2343     1.0  0.07369  0.99210  0.66031  1.0000
  C   C2344     1.0  0.08723  0.92353  0.92323  1.0000
  C   C2345     1.0  0.20902  0.98979  0.90771  1.0000
  P   P77       1.0  0.12666  0.91418  0.92962  1.0000
  H   H1895     1.0  0.42536  0.90773  0.95814  1.0000
  H   H1896     1.0  0.05759  0.79590  0.82786  1.0000
  H   H1897     1.0  0.09073  0.91200  0.78037  1.0000
  Fe  Fe154     1.0  0.43082  0.91515  0.84043  1.0000
  S   S313      1.0  0.45375  0.88885  0.85204  1.0000
  S   S314      1.0  0.43948  0.93656  0.81258  1.0000
  Fe  Fe155     1.0  0.39634  0.90513  0.87348  1.0000
  S   S315      1.0  0.41662  0.87826  0.88839  1.0000
  S   S316      1.0  0.36309  0.91312  0.88808  1.0000
  Fe  Fe156     1.0  0.43941  0.89828  0.87968  1.0000
  S   S317      1.0  0.46370  0.89727  0.89459  1.0000
  Fe  Fe157     1.0  0.42948  0.87073  0.85978  1.0000
  S   S318      1.0  0.43803  0.83880  0.85432  1.0000
  S   S319      1.0  0.41810  0.92611  0.86747  1.0000
  S   S320      1.0  0.40755  0.89623  0.84541  1.0000
  Fe  Fe158     1.0  0.36757  0.76655  0.90564  1.0000
  S   S321      1.0  0.34484  0.75030  0.92742  1.0000
  S   S322      1.0  0.38057  0.78601  0.91656  1.0000
  Fe  Fe159     1.0  0.36916  0.74355  0.87626  1.0000
  S   S323      1.0  0.34706  0.72501  0.89611  1.0000
  S   S324      1.0  0.38669  0.73779  0.84757  1.0000
  Fe  Fe160     1.0  0.32946  0.75483  0.90382  1.0000
  S   S325      1.0  0.29529  0.75919  0.90923  1.0000
  Fe  Fe161     1.0  0.36433  0.72237  0.91787  1.0000
  H   H1898     1.0  0.34266  0.69246  0.84910  1.0000
  S   S326      1.0  0.35048  0.77384  0.88243  1.0000
  S   S327      1.0  0.38803  0.73832  0.89747  1.0000
  Fe  Fe162     1.0  0.26209  0.90004  0.87553  1.0000
  S   S328      1.0  0.25915  0.88689  0.90664  1.0000
  S   S329      1.0  0.29275  0.90206  0.85534  1.0000
  Fe  Fe163     1.0  0.21542  0.91099  0.87848  1.0000
  S   S330      1.0  0.20928  0.89876  0.90977  1.0000
  S   S331      1.0  0.18933  0.92969  0.86423  1.0000
  Fe  Fe164     1.0  0.23357  0.91407  0.91009  1.0000
  Fe  Fe165     1.0  0.23536  0.87266  0.90334  1.0000
  S   S332      1.0  0.23012  0.84110  0.91827  1.0000
  S   S333      1.0  0.23814  0.92823  0.87915  1.0000
  S   S334      1.0  0.23988  0.88377  0.87183  1.0000
  Fe  Fe166     1.0  0.04734  0.92439  0.84318  1.0000
  S   S335      1.0  0.07494  0.91102  0.82310  1.0000
  S   S336      1.0  0.01613  0.91714  0.85712  1.0000
  Fe  Fe167     1.0  0.06621  0.95912  0.84312  1.0000
  S   S337      1.0  0.09525  0.94924  0.82294  1.0000
  C   C2346     1.0  0.31996  0.69804  0.95960  1.0000
  Fe  Fe168     1.0  0.07498  0.94340  0.80724  1.0000
  S   S338      1.0  0.07799  0.95609  0.77588  1.0000
  Fe  Fe169     1.0  0.09339  0.91767  0.84029  1.0000
  S   S339      1.0  0.12115  0.89506  0.84903  1.0000
  S   S340      1.0  0.04606  0.95622  0.82594  1.0000
  S   S341      1.0  0.06580  0.92804  0.86174  1.0000
  C   C2347     1.0  0.48864  0.76752  0.93711  1.0000
  H   H1899     1.0  0.29896  0.88679  0.92330  1.0000
  H   H1900     1.0  0.04656  0.99079  0.77455  1.0000
  H   H1901     1.0  0.16584  0.89592  0.80203  1.0000
  C   C2348     1.0  0.13209  0.88467  0.90894  1.0000
  C   C2349     1.0  0.42151  0.69078  0.86085  1.0000
  H   H1902     1.0  0.24430  0.85851  0.95093  1.0000
  C   C2350     1.0  0.45945  0.70620  0.76076  1.0000
  C   C2351     1.0  0.23750  0.85980  0.96541  1.0000
  C   C2352     1.0  0.28740  0.86324  0.94567  1.0000
  H   H1903     1.0  0.46779  0.68655  0.86248  1.0000
  C   C2353     1.0  0.42061  0.67551  0.85257  1.0000
  H   H1904     1.0  0.14599  0.98949  0.91579  1.0000
  H   H1905     1.0  0.48366  0.84429  0.94850  1.0000
  C   C2354     1.0  0.05351  0.80771  0.81594  1.0000
  H   H1906     1.0  0.42568  0.86229  0.97305  1.0000
  C   C2355     1.0  0.11099  0.94252  0.89994  1.0000
  H   H1907     1.0  0.13640  0.86193  0.89305  1.0000
  H   H1908     1.0  0.06938  0.84902  0.78485  1.0000
  H   H1909     1.0  0.04033  0.89734  0.73876  1.0000
  C   C2356     1.0  0.30818  0.85786  0.91523  1.0000
  C   C2357     1.0  0.09208  0.90604  0.75339  1.0000
  C   C2358     1.0  0.18229  0.83369  0.76021  1.0000
  H   H1910     1.0  0.15230  0.98722  0.75417  1.0000
  C   C2359     1.0  0.16986  0.91929  0.86185  1.0000
  C   C2360     1.0  0.15139  0.93244  0.85854  1.0000
  C   C2361     1.0  0.13617  0.92508  0.85504  1.0000
  C   C2362     1.0  0.13935  0.90451  0.85468  1.0000
  C   C2363     1.0  0.15750  0.89122  0.85862  1.0000
  C   C2364     1.0  0.17271  0.89854  0.86227  1.0000
  H   H1911     1.0  0.14876  0.94841  0.85868  1.0000
  H   H1912     1.0  0.12203  0.93536  0.85250  1.0000
  H   H1913     1.0  0.15986  0.87521  0.85872  1.0000
  H   H1914     1.0  0.18678  0.88823  0.86499  1.0000
  C   C2365     1.0  0.27818  0.78269  0.91103  1.0000
  C   C2366     1.0  0.28462  0.80083  0.90872  1.0000
  C   C2367     1.0  0.27001  0.81913  0.91045  1.0000
  C   C2368     1.0  0.24910  0.81918  0.91460  1.0000
  C   C2369     1.0  0.24285  0.80100  0.91701  1.0000
  C   C2370     1.0  0.25729  0.78292  0.91512  1.0000
  H   H1915     1.0  0.30075  0.80074  0.90545  1.0000
  H   H1916     1.0  0.27478  0.83317  0.90879  1.0000
  H   H1917     1.0  0.22674  0.80087  0.92042  1.0000
  H   H1918     1.0  0.25221  0.76897  0.91696  1.0000
  C   C2371     1.0  0.37103  0.68779  0.82872  1.0000
  C   C2372     1.0  0.38946  0.69424  0.82022  1.0000
  C   C2373     1.0  0.39385  0.71004  0.82569  1.0000
  C   C2374     1.0  0.38016  0.71898  0.84012  1.0000
  C   C2375     1.0  0.36165  0.71267  0.84845  1.0000
  C   C2376     1.0  0.35705  0.69720  0.84269  1.0000
  C   C2377     1.0  0.00291  0.87796  0.83338  1.0000
  H   H1919     1.0  0.19217  0.89036  0.81983  1.0000
  H   H1920     1.0  0.11568  0.97549  0.93377  1.0000
  C   C2378     1.0  0.42374  0.82263  0.87197  1.0000
  C   C2379     1.0  0.41842  0.80665  0.86769  1.0000
  C   C2380     1.0  0.40586  0.79459  0.88163  1.0000
  C   C2381     1.0  0.39839  0.79881  0.89963  1.0000
  C   C2382     1.0  0.40463  0.81401  0.90412  1.0000
  C   C2383     1.0  0.41740  0.82575  0.89036  1.0000
  H   H1921     1.0  0.42345  0.80405  0.85351  1.0000
  H   H1922     1.0  0.40143  0.78247  0.87834  1.0000
  H   H1923     1.0  0.39899  0.81723  0.91808  1.0000
  H   H1924     1.0  0.42222  0.83727  0.89403  1.0000
  C   C2384     1.0  0.34392  0.91004  0.87850  1.0000
  C   C2385     1.0  0.34754  0.90847  0.85975  1.0000
  C   C2386     1.0  0.33173  0.90623  0.85269  1.0000
  C   C2387     1.0  0.31222  0.90553  0.86430  1.0000
  C   C2388     1.0  0.30859  0.90742  0.88294  1.0000
  C   C2389     1.0  0.32443  0.90949  0.89000  1.0000
  H   H1925     1.0  0.36246  0.90898  0.85065  1.0000
  H   H1926     1.0  0.33465  0.90518  0.83817  1.0000
  H   H1927     1.0  0.29356  0.90736  0.89189  1.0000
  H   H1928     1.0  0.32166  0.91063  0.90446  1.0000
  H   H1929     1.0  0.49169  0.90473  0.85176  1.0000
  C   C2390     1.0  0.45912  0.90493  0.91596  1.0000
  C   C2391     1.0  0.17159  0.86630  0.91446  1.0000
  H   H1930     1.0  0.27028  0.92457  0.92589  1.0000
  H   H1931     1.0  0.01790  0.82342  0.78914  1.0000
  S   S342      1.0  0.36515  0.66808  0.82206  1.0000
  C   C2392     1.0  0.41193  0.69064  0.87968  1.0000
  H   H1932     1.0  0.33474  0.68970  0.93292  1.0000
  C   C2393     1.0  0.15867  0.93431  0.91117  1.0000
  H   H1933     1.0  0.29596  0.81352  0.94290  1.0000
  C   C2394     1.0  0.01386  0.88884  0.83882  1.0000
  H   H1934     1.0  0.48098  0.74334  0.86107  1.0000
  H   H1935     1.0  0.03116  0.92340  0.89416  1.0000
  C   C2395     1.0  0.42142  0.97440  0.90642  1.0000
  H   H1936     1.0  0.03018  0.88375  0.83753  1.0000
  H   H1937     1.0  0.45941  0.79247  0.82627  1.0000
  C   C2396     1.0  0.11607  0.98428  0.91945  1.0000
  H   H1938     1.0  0.03214  0.83419  0.74186  1.0000
  C   C2397     1.0  0.46745  0.96101  0.79579  1.0000
  C   C2398     1.0  0.45981  0.94731  0.81204  1.0000
  C   C2399     1.0  0.46856  0.94212  0.82774  1.0000
  H   H1939     1.0  0.39312  0.67617  0.90458  1.0000
  H   H1940     1.0  0.40032  0.68712  0.80941  1.0000
  H   H1941     1.0  0.46062  0.96515  0.78366  1.0000
  H   H1942     1.0  0.46258  0.93175  0.84038  1.0000
  C   C2400     1.0  0.48513  0.95029  0.82711  1.0000
  H   H1943     1.0  0.45051  0.69881  0.77382  1.0000
  C   C2401     1.0  0.17063  0.82076  0.75908  1.0000
  H   H1944     1.0  0.44710  0.78694  0.89475  1.0000
  H   H1945     1.0  0.36110  0.68382  0.88546  1.0000
  C   C2402     1.0  0.25873  0.80550  0.96343  1.0000
  H   H1946     1.0  0.99757  0.85701  0.79519  1.0000
  H   H1947     1.0  0.03865  0.93696  0.77401  1.0000
  C   C2403     1.0  0.11357  0.87956  0.98335  1.0000
  C   C2404     1.0  0.21782  0.87165  0.96962  1.0000
  C   C2405     1.0  0.10675  0.92825  0.91698  1.0000
  C   C2406     1.0  0.44375  0.83339  0.93201  1.0000
  H   H1948     1.0  0.04055  0.93132  0.74249  1.0000
  H   H1949     1.0  0.45406  0.77417  0.86582  1.0000
  C   C2407     1.0  0.07199  0.93362  0.91311  1.0000
  H   H1950     1.0  0.08665  0.98888  0.79365  1.0000
  H   H1951     1.0  0.45974  0.94200  0.88351  1.0000
  C   C2408     1.0  0.16060  0.88318  0.92215  1.0000
  C   C2409     1.0  0.36672  0.96421  0.86290  1.0000
  C   C2410     1.0  0.47261  0.91714  0.93623  1.0000
  C   C2411     1.0  0.14437  0.92974  0.92809  1.0000
  C   C2412     1.0  0.43997  0.85352  0.97679  1.0000
  C   C2413     1.0  0.07623  0.94811  0.89643  1.0000
  C   C2414     1.0  0.48408  0.96919  0.79513  1.0000
  C   C2415     1.0  0.30294  0.94389  0.98005  1.0000
  C   C2416     1.0  0.47478  0.91162  0.91923  1.0000
  C   C2417     1.0  0.43908  0.90896  0.94722  1.0000
  H   H1952     1.0  0.40151  0.94017  0.94531  1.0000
  H   H1953     1.0  0.15887  0.92898  0.89894  1.0000
  C   C2418     1.0  0.22692  0.93239  0.95166  1.0000
  P   P78       1.0  0.03552  0.85902  0.76617  1.0000
  C   C2419     1.0  0.03820  0.88321  0.76845  1.0000
  C   C2420     1.0  0.04240  0.83879  0.78560  1.0000
  S   S343      1.0  0.45387  0.92199  0.97172  1.0000
  C   C2421     1.0  0.24806  0.84957  0.97987  1.0000
  C   C2422     1.0  0.01979  0.98829  0.76696  1.0000
  H   H1954     1.0  0.24391  0.90133  0.95463  1.0000
  C   C2423     1.0  0.16023  0.94644  0.94297  1.0000
  H   H1955     1.0  0.48860  0.69739  0.94031  1.0000
  H   H1956     1.0  0.12677  0.83604  0.78961  1.0000
  C   C2424     1.0  0.07855  0.94817  0.74225  1.0000
  C   C2425     1.0  0.03696  0.90595  0.78827  1.0000
  C   C2426     1.0  0.03651  0.88669  0.78634  1.0000
  H   H1957     1.0  0.48158  0.72223  0.80625  1.0000
  H   H1958     1.0  0.18699  0.85930  0.91644  1.0000
  H   H1959     1.0  0.31460  0.82719  0.91116  1.0000
  C   C2427     1.0  0.45494  0.91562  0.95039  1.0000
  C   C2428     1.0  0.29906  0.67527  0.98182  1.0000
  H   H1960     1.0  0.43440  0.84158  0.94275  1.0000
  H   H1961     1.0  0.44330  0.67335  0.90339  1.0000
  C   C2429     1.0  0.14223  0.83569  0.78148  1.0000
  H   H1962     1.0  0.09727  0.88974  0.75766  1.0000
  C   C2430     1.0  0.39508  0.98175  0.85026  1.0000
  C   C2431     1.0  0.17345  0.94499  0.91011  1.0000
  C   C2432     1.0  0.30681  0.92393  0.97734  1.0000
  H   H1963     1.0  0.14847  0.88308  0.75561  1.0000
  C   C2433     1.0  0.15063  0.82174  0.76974  1.0000
  C   C2434     1.0  0.00371  0.87155  0.74731  1.0000
  H   H1964     1.0  0.03569  0.90861  0.80208  1.0000
  H   H1965     1.0  0.35145  0.83005  0.96890  1.0000
  C   C2435     1.0  0.03843  0.92202  0.77246  1.0000
  C   C2436     1.0  0.25279  0.77269  0.98274  1.0000
  H   H1966     1.0  0.40813  0.71495  0.81908  1.0000
  C   C2437     1.0  0.07139  0.85649  0.73838  1.0000
  C   C2438     1.0  0.28369  0.92995  0.92530  1.0000
  C   C2439     1.0  0.28949  0.94606  0.91074  1.0000
  C   C2440     1.0  0.30679  0.95304  0.91001  1.0000
  C   C2441     1.0  0.31830  0.94391  0.92385  1.0000
  C   C2442     1.0  0.31279  0.92739  0.93830  1.0000
  C   C2443     1.0  0.29517  0.92075  0.93909  1.0000
  P   P79       1.0  0.32591  0.91652  0.95746  1.0000
  C   C2444     1.0  0.33352  0.88912  0.96103  1.0000
  C   C2445     1.0  0.34939  0.92498  0.95342  1.0000
  H   H1967     1.0  0.29070  0.73908  0.96012  1.0000
  C   C2446     1.0  0.39476  0.68108  0.96608  1.0000
  C   C2447     1.0  0.38702  0.93592  0.94755  1.0000
  C   C2448     1.0  0.38235  0.93002  0.93323  1.0000
  C   C2449     1.0  0.36371  0.92432  0.93624  1.0000
  H   H1968     1.0  0.01086  0.86448  0.82789  1.0000
  H   H1969     1.0  0.02997  0.98538  0.89810  1.0000
  H   H1970     1.0  0.41474  0.97721  0.92047  1.0000
  C   C2450     1.0  0.34085  0.85786  0.94977  1.0000
  C   C2451     1.0  0.33465  0.87913  0.94685  1.0000
  C   C2452     1.0  0.40056  0.68385  0.98140  1.0000
  C   C2453     1.0  0.38942  0.95979  0.83299  1.0000
  C   C2454     1.0  0.29648  0.82953  0.93890  1.0000
  C   C2455     1.0  0.29839  0.87080  0.92771  1.0000
  C   C2456     1.0  0.14078  0.89254  0.91941  1.0000
  H   H1971     1.0  0.36367  0.94537  0.84597  1.0000
  H   H1972     1.0  0.47714  0.80494  0.89289  1.0000
  H   H1973     1.0  0.28059  0.95301  0.90001  1.0000
  H   H1974     1.0  0.31130  0.96550  0.89869  1.0000
  H   H1975     1.0  0.33129  0.94992  0.92326  1.0000
  H   H1976     1.0  0.29014  0.90859  0.95049  1.0000
  C   C2457     1.0  0.01940  0.93419  0.90127  1.0000
  H   H1977     1.0  0.02729  0.79670  0.81623  1.0000
  H   H1978     1.0  0.39423  0.95252  0.82104  1.0000
  H   H1979     1.0  0.39327  0.92955  0.91989  1.0000
  H   H1980     1.0  0.36054  0.91922  0.92523  1.0000
  C   C2458     1.0  0.39965  0.66035  0.88189  1.0000
  C   C2459     1.0  0.47278  0.70428  0.83396  1.0000
  C   C2460     1.0  0.37778  0.71702  0.97944  1.0000
  H   H1981     1.0  0.34135  0.85017  0.93894  1.0000
  H   H1982     1.0  0.33100  0.88772  0.93347  1.0000
  C   C2461     1.0  0.45984  0.72685  0.75751  1.0000
  H   H1983     1.0  0.48484  0.81903  0.84579  1.0000
  C   C2462     1.0  0.37810  0.97715  0.86455  1.0000
  P   P80       1.0  0.27270  0.83302  0.97484  1.0000
  H   H1984     1.0  0.34760  0.70274  0.75158  1.0000
  H   H1985     1.0  0.35391  0.96027  0.87412  1.0000
  H   H1986     1.0  0.31885  0.78731  0.95879  1.0000
  H   H1987     1.0  0.24675  0.78487  0.95488  1.0000
  C   C2463     1.0  0.03100  0.82352  0.79415  1.0000
  H   H1988     1.0  0.11294  0.97961  0.75932  1.0000
  H   H1989     1.0  0.13497  0.93222  0.95748  1.0000
  H   H1990     1.0  0.16130  0.95066  0.95540  1.0000
  C   C2464     1.0  0.36113  0.70293  0.74026  1.0000
  C   C2465     1.0  0.06538  0.82243  0.80703  1.0000
  C   C2466     1.0  0.17394  0.84768  0.77191  1.0000
  H   H1991     1.0  0.09411  0.93446  0.95639  1.0000
  H   H1992     1.0  0.09911  0.96328  0.87653  1.0000
  H   H1993     1.0  0.36142  0.72627  0.95717  1.0000
  C   C2467     1.0  0.45378  0.86351  0.97901  1.0000
  C   C2468     1.0  0.21708  0.94837  0.96090  1.0000
  C   C2469     1.0  0.00923  0.86346  0.76485  1.0000
  H   H1994     1.0  0.46377  0.73705  0.95817  1.0000
  C   C2470     1.0  0.49276  0.66091  0.80392  1.0000
  H   H1995     1.0  0.13435  0.87513  0.95731  1.0000
  C   C2471     1.0  0.40093  0.67562  0.89014  1.0000
  H   H1996     1.0  0.07873  0.82197  0.81197  1.0000
  H   H1997     1.0  0.47052  0.67879  0.75014  1.0000
  C   C2472     1.0  0.11519  0.90558  0.95422  1.0000
  C   C2473     1.0  0.14528  0.93592  0.94403  1.0000
  H   H1998     1.0  0.37096  0.73083  0.98466  1.0000
  C   C2474     1.0  0.16241  0.96261  0.77622  1.0000
  C   C2475     1.0  0.48510  0.71636  0.82010  1.0000
  C   C2476     1.0  0.12218  0.88579  0.96419  1.0000
  C   C2477     1.0  0.09952  0.91903  0.96374  1.0000
  H   H1999     1.0  0.12598  0.94604  0.89434  1.0000
  C   C2478     1.0  0.09576  0.95237  0.88973  1.0000
  H   H2000     1.0  0.45105  0.73558  0.76803  1.0000
  C   C2479     1.0  0.37319  0.93583  0.96494  1.0000
  C   C2480     1.0  0.05997  0.83780  0.79178  1.0000
  C   C2481     1.0  0.14295  0.96385  0.80795  1.0000
  C   C2482     1.0  0.15914  0.95419  0.79562  1.0000
  H   H2001     1.0  0.22129  0.98365  0.91528  1.0000
  H   H2002     1.0  0.42772  0.67589  0.83781  1.0000
  H   H2003     1.0  0.49189  0.94617  0.83928  1.0000
  H   H2004     1.0  0.32438  0.69785  0.88739  1.0000
  C   C2483     1.0  0.23583  0.91353  0.96185  1.0000
  H   H2005     1.0  0.42193  0.78751  0.93204  1.0000
  H   H2006     1.0  0.18625  0.95851  0.92541  1.0000
  H   H2007     1.0  0.44850  0.86085  0.91128  1.0000
  H   H2008     1.0  0.14045  0.95751  0.82299  1.0000
  H   H2009     1.0  0.16915  0.94027  0.80116  1.0000
  H   H2010     1.0  0.45028  0.87991  0.97704  1.0000
  H   H2011     1.0  0.39310  0.77617  0.95642  1.0000
  H   H2012     1.0  0.22305  0.97152  0.88695  1.0000
  C   C2484     1.0  0.15381  0.84886  0.78258  1.0000
  H   H2013     1.0  0.17504  0.95524  0.76663  1.0000
  P   P81       1.0  0.14329  0.86766  0.79701  1.0000
  C   C2485     1.0  0.16192  0.86450  0.81078  1.0000
  C   C2486     1.0  0.13905  0.89298  0.78218  1.0000
  C   C2487     1.0  0.13104  0.91005  0.79043  1.0000
  C   C2488     1.0  0.12812  0.92974  0.77905  1.0000
  C   C2489     1.0  0.13260  0.93249  0.75942  1.0000
  C   C2490     1.0  0.03957  0.89947  0.75264  1.0000
  C   C2491     1.0  0.14318  0.89589  0.76242  1.0000
  C   C2492     1.0  0.16891  0.84503  0.82134  1.0000
  C   C2493     1.0  0.18405  0.84199  0.83134  1.0000
  C   C2494     1.0  0.19252  0.85830  0.83068  1.0000
  C   C2495     1.0  0.18585  0.87765  0.82003  1.0000
  C   C2496     1.0  0.17063  0.88078  0.81011  1.0000
  C   C2497     1.0  0.11876  0.86372  0.81180  1.0000
  C   C2498     1.0  0.10194  0.86777  0.80351  1.0000
  C   C2499     1.0  0.08281  0.86487  0.81467  1.0000
  C   C2500     1.0  0.08024  0.85817  0.83423  1.0000
  C   C2501     1.0  0.09682  0.85437  0.84263  1.0000
  C   C2502     1.0  0.11602  0.85709  0.83148  1.0000
  C   C2503     1.0  0.47159  0.73615  0.74073  1.0000
  C   C2504     1.0  0.01415  0.95443  0.89163  1.0000
  H   H2014     1.0  0.12710  0.90812  0.80567  1.0000
  H   H2015     1.0  0.12179  0.94288  0.78543  1.0000
  C   C2505     1.0  0.40967  0.66037  0.86298  1.0000
  H   H2016     1.0  0.41467  0.97476  0.82400  1.0000
  H   H2017     1.0  0.47916  0.81968  0.81147  1.0000
  H   H2018     1.0  0.16259  0.83222  0.82187  1.0000
  H   H2019     1.0  0.18918  0.82701  0.83967  1.0000
  H   H2020     1.0  0.20405  0.85605  0.83862  1.0000
  H   H2021     1.0  0.47513  0.75688  0.82372  1.0000
  H   H2022     1.0  0.44495  0.94932  0.91548  1.0000
  H   H2023     1.0  0.10360  0.87339  0.78843  1.0000
  H   H2024     1.0  0.06978  0.86867  0.80826  1.0000
  H   H2025     1.0  0.06526  0.85661  0.84295  1.0000
  H   H2026     1.0  0.09469  0.84996  0.85785  1.0000
  H   H2027     1.0  0.12838  0.85473  0.83843  1.0000
  C   C2506     1.0  0.30203  0.81288  0.85443  1.0000
  C   C2507     1.0  0.28623  0.82583  0.86418  1.0000
  C   C2508     1.0  0.29007  0.84296  0.86772  1.0000
  C   C2509     1.0  0.30962  0.84716  0.86153  1.0000
  C   C2510     1.0  0.32540  0.83465  0.85117  1.0000
  C   C2511     1.0  0.32154  0.81732  0.84780  1.0000
  P   P82       1.0  0.35036  0.84089  0.84288  1.0000
  C   C2512     1.0  0.36829  0.82022  0.83344  1.0000
  C   C2513     1.0  0.35031  0.86369  0.82425  1.0000
  C   C2514     1.0  0.36895  0.86883  0.81360  1.0000
  C   C2515     1.0  0.36920  0.88658  0.79933  1.0000
  C   C2516     1.0  0.35086  0.89919  0.79541  1.0000
  C   C2517     1.0  0.33227  0.89399  0.80569  1.0000
  C   C2518     1.0  0.33196  0.87629  0.82002  1.0000
  C   C2519     1.0  0.37963  0.80456  0.84492  1.0000
  C   C2520     1.0  0.39246  0.78784  0.83793  1.0000
  C   C2521     1.0  0.39395  0.78659  0.81944  1.0000
  C   C2522     1.0  0.38279  0.80222  0.80782  1.0000
  C   C2523     1.0  0.36996  0.81898  0.81479  1.0000
  C   C2524     1.0  0.35738  0.84409  0.86308  1.0000
  C   C2525     1.0  0.35168  0.83161  0.88093  1.0000
  C   C2526     1.0  0.35612  0.83459  0.89682  1.0000
  C   C2527     1.0  0.36624  0.85001  0.89505  1.0000
  C   C2528     1.0  0.37240  0.86209  0.87733  1.0000
  C   C2529     1.0  0.36801  0.85922  0.86138  1.0000
  H   H2028     1.0  0.29917  0.79927  0.85219  1.0000
  H   H2029     1.0  0.27113  0.82235  0.86942  1.0000
  H   H2030     1.0  0.27795  0.85287  0.87550  1.0000
  H   H2031     1.0  0.31243  0.86031  0.86466  1.0000
  H   H2032     1.0  0.33351  0.80702  0.84034  1.0000
  H   H2033     1.0  0.38329  0.85927  0.81657  1.0000
  H   H2034     1.0  0.38362  0.89068  0.79148  1.0000
  H   H2035     1.0  0.35103  0.91311  0.78456  1.0000
  H   H2036     1.0  0.31799  0.90392  0.80296  1.0000
  H   H2037     1.0  0.31732  0.87291  0.82794  1.0000
  H   H2038     1.0  0.37815  0.80497  0.85941  1.0000
  H   H2039     1.0  0.40070  0.77546  0.84706  1.0000
  H   H2040     1.0  0.40334  0.77322  0.81434  1.0000
  H   H2041     1.0  0.38375  0.80111  0.79357  1.0000
  H   H2042     1.0  0.36099  0.83072  0.80581  1.0000
  H   H2043     1.0  0.34382  0.81955  0.88260  1.0000
  H   H2044     1.0  0.35197  0.82476  0.91051  1.0000
  H   H2045     1.0  0.36975  0.85236  0.90730  1.0000
  H   H2046     1.0  0.38037  0.87390  0.87602  1.0000
  H   H2047     1.0  0.37268  0.86913  0.84794  1.0000
  C   C2530     1.0  0.16540  0.98709  0.85324  1.0000
  H   H2048     1.0  0.32687  0.71121  0.95590  1.0000
  C   C2531     1.0  0.29920  0.74523  0.96652  1.0000
  C   C2532     1.0  0.26610  0.80887  0.97761  1.0000
  H   H2049     1.0  0.44457  0.96274  0.85660  1.0000
  C   C2533     1.0  0.31481  0.77267  0.96573  1.0000
  C   C2534     1.0  0.30727  0.83721  0.92088  1.0000
  C   C2535     1.0  0.43843  0.95859  0.90363  1.0000
  C   C2536     1.0  0.30391  0.66290  0.96876  1.0000
  H   H2050     1.0  0.46047  0.70029  0.83049  1.0000
  C   C2537     1.0  0.44680  0.95454  0.88563  1.0000
  S   S344      1.0  0.22822  0.93754  0.92723  1.0000
  H   H2051     1.0  0.07615  0.86563  0.74524  1.0000
  C   C2538     1.0  0.44109  0.90377  0.92988  1.0000
  H   H2052     1.0  0.42896  0.89850  0.92746  1.0000
  H   H2053     1.0  0.42891  0.70318  0.85251  1.0000
  H   H2054     1.0  0.08380  0.91182  0.93576  1.0000
  H   H2055     1.0  0.35070  0.71995  0.85909  1.0000
  C   C2539     1.0  0.30668  0.69318  0.97717  1.0000
  H   H2056     1.0  0.05697  0.92997  0.91799  1.0000
  C   C2540     1.0  0.14306  0.86766  0.90142  1.0000
  H   H2057     1.0  0.16760  0.88892  0.93024  1.0000
  H   H2058     1.0  0.31631  0.86390  0.90115  1.0000
  C   C2541     1.0  0.08176  0.93971  0.76061  1.0000
  C   C2542     1.0  0.45313  0.69507  0.92418  1.0000
  C   C2543     1.0  0.45314  0.70780  0.90616  1.0000
  C   C2544     1.0  0.43916  0.72648  0.90388  1.0000
  C   C2545     1.0  0.42539  0.73277  0.91958  1.0000
  C   C2546     1.0  0.42515  0.72010  0.93747  1.0000
  C   C2547     1.0  0.43910  0.70146  0.93987  1.0000
  S   S345      1.0  0.37463  0.69283  0.93739  1.0000
  C   C2548     1.0  0.03955  0.91882  0.75471  1.0000
  C   C2549     1.0  0.48553  0.74602  0.90405  1.0000
  H   H2059     1.0  0.18476  0.94796  0.89711  1.0000
  H   H2060     1.0  0.46386  0.70323  0.89389  1.0000
  H   H2061     1.0  0.43880  0.73608  0.88996  1.0000
  H   H2062     1.0  0.41461  0.74731  0.91790  1.0000
  H   H2063     1.0  0.41395  0.72467  0.94950  1.0000
  H   H2064     1.0  0.43873  0.69228  0.95402  1.0000
  C   C2550     1.0  0.32465  0.68571  0.94653  1.0000
  C   C2551     1.0  0.34660  0.84653  0.96659  1.0000
  C   C2552     1.0  0.38041  0.69682  0.74455  1.0000
  C   C2553     1.0  0.03643  0.80818  0.80941  1.0000
  H   H2065     1.0  0.18310  0.85774  0.77253  1.0000
  H   H2066     1.0  0.10022  0.98193  0.84243  1.0000
  C   C2554     1.0  0.30357  0.76455  0.95796  1.0000
  H   H2067     1.0  0.37387  0.98327  0.87713  1.0000
  C   C2555     1.0  0.05223  0.85121  0.74532  1.0000
  P   P83       1.0  0.47182  0.67139  0.92699  1.0000
  S   S346      1.0  0.41364  0.66426  0.77876  1.0000
  H   H2068     1.0  0.11698  0.89169  0.90633  1.0000
  H   H2069     1.0  0.17150  0.84561  0.89796  1.0000
  C   C2556     1.0  0.17433  0.95091  0.92604  1.0000
  H   H2070     1.0  0.49106  0.81131  0.93892  1.0000
  C   C2557     1.0  0.16284  0.85854  0.90410  1.0000
  C   C2558     1.0  0.46338  0.83400  0.90006  1.0000
  C   C2559     1.0  0.45159  0.84433  0.91416  1.0000
  C   C2560     1.0  0.43827  0.96641  0.87037  1.0000
  C   C2561     1.0  0.44793  0.81204  0.93591  1.0000
  C   C2562     1.0  0.45961  0.80149  0.92176  1.0000
  C   C2563     1.0  0.46761  0.81264  0.90388  1.0000
  P   P84       1.0  0.46623  0.77390  0.92729  1.0000
  H   H2071     1.0  0.41259  0.70250  0.88606  1.0000
  C   C2564     1.0  0.44512  0.76391  0.94391  1.0000
  C   C2565     1.0  0.44851  0.74602  0.95788  1.0000
  C   C2566     1.0  0.43209  0.73984  0.97192  1.0000
  C   C2567     1.0  0.41221  0.75105  0.97170  1.0000
  C   C2568     1.0  0.40861  0.76794  0.95704  1.0000
  C   C2569     1.0  0.42499  0.77430  0.94317  1.0000
  C   C2570     1.0  0.25232  0.78738  0.96592  1.0000
  H   H2072     1.0  0.21042  0.96304  0.95311  1.0000
  H   H2073     1.0  0.47170  0.76725  0.96594  1.0000
  C   C2571     1.0  0.38094  0.69649  0.95702  1.0000
  C   C2572     1.0  0.08830  0.91858  0.76624  1.0000
  C   C2573     1.0  0.47075  0.76386  0.90651  1.0000
  C   C2574     1.0  0.45912  0.77363  0.89281  1.0000
  C   C2575     1.0  0.46299  0.76635  0.87639  1.0000
  C   C2576     1.0  0.00346  0.90551  0.84703  1.0000
  C   C2577     1.0  0.37230  0.95565  0.84706  1.0000
  H   H2074     1.0  0.46918  0.84265  0.88617  1.0000
  C   C2578     1.0  0.35449  0.93027  0.96793  1.0000
  C   C2579     1.0  0.00906  0.92771  0.91980  1.0000
  H   H2075     1.0  0.29542  0.89597  0.98570  1.0000
  H   H2076     1.0  0.44201  0.80383  0.94995  1.0000
  H   H2077     1.0  0.02741  0.97444  0.76192  1.0000
  H   H2078     1.0  0.16476  0.97518  0.86602  1.0000
  H   H2079     1.0  0.03437  0.87472  0.79887  1.0000
  H   H2080     1.0  0.29860  0.77299  0.94505  1.0000
  H   H2081     1.0  0.27973  0.87354  0.95510  1.0000
  H   H2082     1.0  0.34430  0.92968  0.98170  1.0000
  C   C2580     1.0  0.48413  0.76846  0.81713  1.0000
  H   H2083     1.0  0.25751  0.81708  0.95061  1.0000
  H   H2084     1.0  0.06447  0.95575  0.88851  1.0000
  H   H2085     1.0  0.14158  0.81172  0.76884  1.0000
  H   H2086     1.0  0.20989  0.87983  0.95837  1.0000
  H   H2087     1.0  0.48482  0.92245  0.93847  1.0000
  C   C2581     1.0  0.47184  0.85238  0.98447  1.0000
  C   C2582     1.0  0.37244  0.71448  0.96373  1.0000
  C   C2583     1.0  0.28612  0.84259  0.95129  1.0000
  C   C2584     1.0  0.32095  0.76184  0.98246  1.0000
  C   C2585     1.0  0.13995  0.91558  0.75113  1.0000
  H   H2088     1.0  0.38179  0.69184  0.75915  1.0000
  C   C2586     1.0  0.47692  0.69657  0.85196  1.0000
  H   H2089     1.0  0.12964  0.94768  0.75066  1.0000
  H   H2090     1.0  0.40123  0.66716  0.96102  1.0000
  H   H2091     1.0  0.19780  0.83296  0.75193  1.0000
  H   H2092     1.0  0.49433  0.89495  0.96832  1.0000
  C   C2587     1.0  0.32976  0.68155  0.89204  1.0000
  H   H2093     1.0  0.31267  0.95432  0.97142  1.0000
  C   C2588     1.0  0.33960  0.87768  0.97777  1.0000
  H   H2094     1.0  0.17328  0.96574  0.83515  1.0000
  C   C2589     1.0  0.21563  0.94555  0.98023  1.0000
  C   C2590     1.0  0.48664  0.76515  0.95658  1.0000
  C   C2591     1.0  0.49373  0.70054  0.85596  1.0000
  C   C2592     1.0  0.12990  0.98173  0.80092  1.0000
  C   C2593     1.0  0.46274  0.82102  0.98486  1.0000
  C   C2594     1.0  0.23442  0.91069  0.98143  1.0000
  C   C2595     1.0  0.30593  0.73394  0.98302  1.0000
  C   C2596     1.0  0.09941  0.98758  0.91126  1.0000
  C   C2597     1.0  0.47083  0.69485  0.74729  1.0000
  C   C2598     1.0  0.49349  0.84241  0.93502  1.0000
  C   C2599     1.0  0.14944  0.98064  0.76919  1.0000
  C   C2600     1.0  0.48624  0.80403  0.81028  1.0000
  C   C2601     1.0  0.41294  0.98639  0.89115  1.0000
  C   C2602     1.0  0.44445  0.83225  0.97974  1.0000
  C   C2603     1.0  0.31587  0.66861  0.89880  1.0000
  H   H2095     1.0  0.01300  0.91194  0.92711  1.0000
  H   H2096     1.0  0.17707  0.81000  0.74992  1.0000
  C   C2604     1.0  0.47511  0.78865  0.81865  1.0000
  C   C2605     1.0  0.47817  0.74897  0.87375  1.0000
  H   H2097     1.0  0.02235  0.95918  0.87723  1.0000
  H   H2098     1.0  0.49004  0.97962  0.78253  1.0000
  H   H2099     1.0  0.37705  0.93970  0.97632  1.0000
  H   H2100     1.0  0.08612  0.98131  0.91917  1.0000
  H   H2101     1.0  0.48869  0.91263  0.90850  1.0000
  S   S347      1.0  0.05644  0.98626  0.85654  1.0000
  H   H2102     1.0  0.43353  0.82449  0.97841  1.0000
  C   C2606     1.0  0.48936  0.73871  0.88763  1.0000
  C   C2607     1.0  0.09094  0.91274  0.98290  1.0000
  H   H2103     1.0  0.29973  0.67493  0.89944  1.0000
  H   H2104     1.0  0.19533  0.98475  0.86976  1.0000
  C   C2608     1.0  0.35063  0.67350  0.89098  1.0000
  C   C2609     1.0  0.13289  0.99013  0.78153  1.0000
  C   C2610     1.0  0.49305  0.96367  0.81076  1.0000
  H   H2105     1.0  0.26476  0.70735  0.98028  1.0000
  H   H2106     1.0  0.49412  0.73775  0.91476  1.0000
  C   C2611     1.0  0.34627  0.85648  0.98044  1.0000
  C   C2612     1.0  0.31656  0.66822  0.95105  1.0000
  C   C2613     1.0  0.45459  0.65923  0.90348  1.0000
  H   H2107     1.0  0.11748  0.98905  0.81054  1.0000
  H   H2108     1.0  0.07315  0.96447  0.73792  1.0000
  H   H2109     1.0  0.39954  0.74638  0.98268  1.0000
  H   H2110     1.0  0.47193  0.75215  0.73822  1.0000
  H   H2111     1.0  0.24776  0.75870  0.98466  1.0000
  C   C2614     1.0  0.20999  0.98292  0.89171  1.0000
  H   H2112     1.0  0.43463  0.72630  0.98300  1.0000
  C   C2615     1.0  0.99795  0.96818  0.90027  1.0000
  C   C2616     1.0  0.42159  0.98274  0.87292  1.0000
  C   C2617     1.0  0.40093  0.97260  0.83465  1.0000
  C   C2618     1.0  0.19404  0.99037  0.88211  1.0000
  C   C2619     1.0  0.17002  0.98168  0.83578  1.0000
  H   H2113     1.0  0.48214  0.86047  0.98636  1.0000
  C   C2620     1.0  0.54045  0.05720  0.15011  1.0000
  H   H2114     1.0  0.58387  0.01008  0.15947  1.0000
  H   H2115     1.0  0.72736  0.20325  0.01368  1.0000
  H   H2116     1.0  0.73237  0.21355  0.05406  1.0000
  H   H2117     1.0  0.61712  0.05519  0.15933  1.0000
  C   C2621     1.0  0.93611  0.02319  0.16655  1.0000
  C   C2622     1.0  0.51827  0.09320  0.22553  1.0000
  S   S348      1.0  0.56790  0.99633  0.21216  1.0000
  S   S349      1.0  0.63554  0.18540  0.00738  1.0000
  H   H2118     1.0  0.50273  0.31134  0.10046  1.0000
  C   C2623     1.0  0.52427  0.08736  0.04826  1.0000
  C   C2624     1.0  0.88240  0.00534  0.15734  1.0000
  Fe  Fe170     1.0  0.62375  0.15899  0.00612  1.0000
  S   S350      1.0  0.61695  0.13477  0.03217  1.0000
  H   H2119     1.0  0.57538  0.03571  0.11222  1.0000
  C   C2625     1.0  0.57150  0.13286  0.98744  1.0000
  P   P85       1.0  0.55087  0.24360  0.06826  1.0000
  Fe  Fe171     1.0  0.77587  0.20064  0.04149  1.0000
  S   S351      1.0  0.76641  0.23396  0.04231  1.0000
  Fe  Fe172     1.0  0.79688  0.15779  0.05851  1.0000
  C   C2626     1.0  0.70652  0.18377  0.09135  1.0000
  S   S352      1.0  0.80847  0.13695  0.08381  1.0000
  H   H2120     1.0  0.56355  0.07234  0.13121  1.0000
  H   H2121     1.0  0.92290  0.01760  0.17579  1.0000
  C   C2627     1.0  0.61886  0.02856  0.14889  1.0000
  S   S353      1.0  0.76455  0.17537  0.06428  1.0000
  Fe  Fe173     1.0  0.93492  0.10257  0.14580  1.0000
  S   S354      1.0  0.91635  0.13438  0.14349  1.0000
  S   S355      1.0  0.96927  0.09634  0.13803  1.0000
  Fe  Fe174     1.0  0.89736  0.08389  0.16045  1.0000
  S   S356      1.0  0.87558  0.11443  0.15954  1.0000
  S   S357      1.0  0.88565  0.05481  0.17352  1.0000
  Fe  Fe175     1.0  0.89617  0.12372  0.13135  1.0000
  S   S358      1.0  0.88777  0.14453  0.10459  1.0000
  Fe  Fe176     1.0  0.89781  0.12217  0.17181  1.0000
  S   S359      1.0  0.89011  0.14052  0.19418  1.0000
  S   S360      1.0  0.91635  0.09254  0.13131  1.0000
  S   S361      1.0  0.91796  0.09098  0.17496  1.0000
  Fe  Fe177     1.0  0.53219  0.14968  0.11771  1.0000
  S   S362      1.0  0.54478  0.11602  0.12487  1.0000
  S   S363      1.0  0.54066  0.17098  0.08998  1.0000
  Fe  Fe178     1.0  0.54354  0.12141  0.15328  1.0000
  S   S364      1.0  0.57049  0.11329  0.16684  1.0000
  S   S365      1.0  0.53347  0.15553  0.14492  1.0000
  C   C2628     1.0  0.57815  0.08957  0.18160  1.0000
  C   C2629     1.0  0.59371  0.08791  0.19064  1.0000
  C   C2630     1.0  0.60085  0.06951  0.20237  1.0000
  C   C2631     1.0  0.96423  0.06796  0.20635  1.0000
  S   S366      1.0  0.59747  0.31385  0.00771  1.0000
  C   C2632     1.0  0.56977  0.07251  0.18425  1.0000
  H   H2122     1.0  0.60026  0.10101  0.18862  1.0000
  C   C2633     1.0  0.95865  0.13431  0.09418  1.0000
  H   H2123     1.0  0.57544  0.07244  0.03805  1.0000
  H   H2124     1.0  0.55771  0.07368  0.17729  1.0000
  C   C2634     1.0  0.96559  0.99645  0.11240  1.0000
  C   C2635     1.0  0.83074  0.13924  0.08903  1.0000
  C   C2636     1.0  0.83645  0.12700  0.10565  1.0000
  C   C2637     1.0  0.85365  0.12884  0.11079  1.0000
  C   C2638     1.0  0.86529  0.14296  0.09924  1.0000
  C   C2639     1.0  0.85938  0.15553  0.08276  1.0000
  C   C2640     1.0  0.84217  0.15362  0.07761  1.0000
  H   H2125     1.0  0.82748  0.11610  0.11461  1.0000
  H   H2126     1.0  0.85804  0.11919  0.12355  1.0000
  H   H2127     1.0  0.86833  0.16652  0.07381  1.0000
  H   H2128     1.0  0.83777  0.16325  0.06486  1.0000
  H   H2129     1.0  0.73557  0.27795  0.00344  1.0000
  H   H2130     1.0  0.96507  0.14871  0.17186  1.0000
  C   C2641     1.0  0.73202  0.26438  0.04152  1.0000
  C   C2642     1.0  0.73985  0.24327  0.04522  1.0000
  C   C2643     1.0  0.70525  0.23749  0.05413  1.0000
  H   H2131     1.0  0.74233  0.27483  0.03691  1.0000
  C   C2644     1.0  0.59527  0.14437  0.04804  1.0000
  C   C2645     1.0  0.58215  0.16275  0.04216  1.0000
  C   C2646     1.0  0.56501  0.17046  0.05501  1.0000
  C   C2647     1.0  0.56113  0.15999  0.07388  1.0000
  C   C2648     1.0  0.57430  0.14163  0.07979  1.0000
  C   C2649     1.0  0.59126  0.13374  0.06683  1.0000
  H   H2132     1.0  0.58526  0.17123  0.02779  1.0000
  H   H2133     1.0  0.55510  0.18487  0.05044  1.0000
  H   H2134     1.0  0.57182  0.13381  0.09441  1.0000
  H   H2135     1.0  0.60149  0.11961  0.07138  1.0000
  C   C2650     1.0  0.59312  0.25415  0.99638  1.0000
  C   C2651     1.0  0.57611  0.27016  0.99836  1.0000
  Fe  Fe179     1.0  0.51215  0.99674  0.11034  1.0000
  C   C2652     1.0  0.59643  0.29040  0.00385  1.0000
  C   C2653     1.0  0.61353  0.27429  0.00215  1.0000
  C   C2654     1.0  0.61191  0.25612  0.99832  1.0000
  C   C2655     1.0  0.61410  0.01111  0.08269  1.0000
  H   H2136     1.0  0.77522  0.13939  0.99394  1.0000
  C   C2656     1.0  0.57776  0.28817  0.00202  1.0000
  C   C2657     1.0  0.90642  0.01080  0.22947  1.0000
  C   C2658     1.0  0.70307  0.17000  0.99413  1.0000
  H   H2137     1.0  0.50073  0.11211  0.03816  1.0000
  C   C2659     1.0  0.73289  0.16513  0.00698  1.0000
  C   C2660     1.0  0.72153  0.15905  0.02519  1.0000
  H   H2138     1.0  0.52020  0.03738  0.16711  1.0000
  C   C2661     1.0  0.69179  0.16380  0.01230  1.0000
  H   H2139     1.0  0.52152  0.02144  0.20101  1.0000
  H   H2140     1.0  0.74867  0.16588  0.00489  1.0000
  C   C2662     1.0  0.97388  0.00820  0.21051  1.0000
  H   H2141     1.0  0.67600  0.16303  0.01445  1.0000
  C   C2663     1.0  0.57979  0.13107  0.00281  1.0000
  S   S367      1.0  0.65735  0.29773  0.00608  1.0000
  C   C2664     1.0  0.89227  0.12552  0.21685  1.0000
  C   C2665     1.0  0.63053  0.01111  0.08995  1.0000
  C   C2666     1.0  0.54997  0.28522  0.05311  1.0000
  H   H2142     1.0  0.58140  0.01989  0.08540  1.0000
  H   H2143     1.0  0.86602  0.99364  0.07825  1.0000
  H   H2144     1.0  0.88825  0.09832  0.21133  1.0000
  H   H2145     1.0  0.52814  0.07024  0.14761  1.0000
  H   H2146     1.0  0.75114  0.22111  0.98781  1.0000
  C   C2667     1.0  0.97946  0.11190  0.14634  1.0000
  C   C2668     1.0  0.96666  0.12593  0.15689  1.0000
  C   C2669     1.0  0.97503  0.13805  0.16357  1.0000
  C   C2670     1.0  0.56110  0.09046  0.05922  1.0000
  H   H2147     1.0  0.57673  0.12166  0.03273  1.0000
  H   H2148     1.0  0.95033  0.12720  0.16031  1.0000
  C   C2671     1.0  0.92896  0.03253  0.22852  1.0000
  C   C2672     1.0  0.88767  0.01088  0.13764  1.0000
  C   C2673     1.0  0.89370  0.02955  0.12891  1.0000
  C   C2674     1.0  0.89396  0.04286  0.13980  1.0000
  C   C2675     1.0  0.88781  0.03767  0.15946  1.0000
  C   C2676     1.0  0.88239  0.01875  0.16821  1.0000
  C   C2677     1.0  0.57012  0.12258  0.02103  1.0000
  H   H2149     1.0  0.89784  0.03383  0.11372  1.0000
  H   H2150     1.0  0.89822  0.05738  0.13301  1.0000
  H   H2151     1.0  0.87765  0.01466  0.18343  1.0000
  C   C2678     1.0  0.56068  0.05855  0.14134  1.0000
  H   H2152     1.0  0.62802  0.27593  0.00346  1.0000
  C   C2679     1.0  0.61620  0.10683  0.10638  1.0000
  C   C2680     1.0  0.70289  0.22952  0.01410  1.0000
  H   H2153     1.0  0.62169  0.99868  0.14370  1.0000
  H   H2154     1.0  0.95860  0.19715  0.17678  1.0000
  C   C2681     1.0  0.50345  0.04329  0.11322  1.0000
  H   H2155     1.0  0.93710  0.04142  0.18494  1.0000
  C   C2682     1.0  0.62453  0.07062  0.10702  1.0000
  H   H2156     1.0  0.63410  0.05807  0.10085  1.0000
  C   C2683     1.0  0.57598  0.26726  0.07102  1.0000
  Fe  Fe180     1.0  0.66002  0.29819  0.03490  1.0000
  C   C2684     1.0  0.72644  0.22983  0.05134  1.0000
  H   H2157     1.0  0.83602  0.04387  0.17052  1.0000
  H   H2158     1.0  0.64036  0.09264  0.08634  1.0000
  H   H2159     1.0  0.87985  0.02595  0.21782  1.0000
  H   H2160     1.0  0.68253  0.17827  0.13768  1.0000
  H   H2161     1.0  0.69281  0.22166  0.02579  1.0000
  H   H2162     1.0  0.50769  0.20190  0.11895  1.0000
  C   C2685     1.0  0.57461  0.30279  0.05531  1.0000
  H   H2163     1.0  0.58363  0.25338  0.07917  1.0000
  H   H2164     1.0  0.81258  0.09435  0.16780  1.0000
  C   C2686     1.0  0.65574  0.31467  0.22845  1.0000
  C   C2687     1.0  0.63783  0.99681  0.16468  1.0000
  C   C2688     1.0  0.57200  0.02351  0.15686  1.0000
  S   S368      1.0  0.60270  0.02983  0.22002  1.0000
  C   C2689     1.0  0.89351  0.02774  0.22089  1.0000
  H   H2165     1.0  0.61666  0.00388  0.07100  1.0000
  H   H2166     1.0  0.55125  0.05233  0.09437  1.0000
  H   H2167     1.0  0.87553  0.16737  0.15794  1.0000
  S   S369      1.0  0.80874  0.18420  0.03768  1.0000
  C   C2690     1.0  0.84491  0.16330  0.17130  1.0000
  C   C2691     1.0  0.60078  0.10366  0.12254  1.0000
  H   H2168     1.0  0.53550  0.08275  0.10878  1.0000
  P   P86       1.0  0.79700  0.16958  0.14703  1.0000
  C   C2692     1.0  0.79678  0.14392  0.14619  1.0000
  C   C2693     1.0  0.77768  0.17676  0.16696  1.0000
  C   C2694     1.0  0.76105  0.16702  0.17471  1.0000
  C   C2695     1.0  0.74611  0.17274  0.19010  1.0000
  C   C2696     1.0  0.74761  0.18826  0.19777  1.0000
  C   C2697     1.0  0.76402  0.19814  0.19001  1.0000
  C   C2698     1.0  0.77897  0.19248  0.17462  1.0000
  C   C2699     1.0  0.78633  0.14056  0.13419  1.0000
  C   C2700     1.0  0.78583  0.12068  0.13399  1.0000
  C   C2701     1.0  0.79534  0.10400  0.14605  1.0000
  C   C2702     1.0  0.79144  0.18743  0.12562  1.0000
  C   C2703     1.0  0.80143  0.18268  0.10805  1.0000
  C   C2704     1.0  0.79648  0.19553  0.09141  1.0000
  C   C2705     1.0  0.78154  0.21341  0.09214  1.0000
  C   C2706     1.0  0.77161  0.21847  0.10955  1.0000
  C   C2707     1.0  0.77649  0.20555  0.12625  1.0000
  H   H2169     1.0  0.81392  0.15962  0.18082  1.0000
  H   H2170     1.0  0.75956  0.15504  0.16890  1.0000
  H   H2171     1.0  0.73336  0.16512  0.19608  1.0000
  H   H2172     1.0  0.73604  0.19264  0.20972  1.0000
  H   H2173     1.0  0.76517  0.21021  0.19593  1.0000
  H   H2174     1.0  0.79154  0.20037  0.16866  1.0000
  H   H2175     1.0  0.77876  0.15317  0.12475  1.0000
  H   H2176     1.0  0.77843  0.11825  0.12414  1.0000
  H   H2177     1.0  0.79515  0.08859  0.14572  1.0000
  H   H2178     1.0  0.81278  0.16876  0.10732  1.0000
  H   H2179     1.0  0.80407  0.19145  0.07795  1.0000
  H   H2180     1.0  0.77757  0.22329  0.07921  1.0000
  H   H2181     1.0  0.75997  0.23234  0.11004  1.0000
  H   H2182     1.0  0.76837  0.20972  0.13951  1.0000
  S   S370      1.0  0.51177  0.11591  0.16619  1.0000
  H   H2183     1.0  0.74368  0.10106  0.01571  1.0000
  P   P87       1.0  0.60276  0.04216  0.13242  1.0000
  H   H2184     1.0  0.72051  0.18732  0.08184  1.0000
  H   H2185     1.0  0.64588  0.00392  0.08383  1.0000
  C   C2708     1.0  0.94142  0.23358  0.06950  1.0000
  C   C2709     1.0  0.92965  0.24915  0.07869  1.0000
  C   C2710     1.0  0.92874  0.24705  0.09784  1.0000
  C   C2711     1.0  0.93947  0.22932  0.10786  1.0000
  C   C2712     1.0  0.95105  0.21347  0.09879  1.0000
  C   C2713     1.0  0.95219  0.21584  0.07947  1.0000
  P   P88       1.0  0.96503  0.19055  0.11156  1.0000
  C   C2714     1.0  0.95337  0.18777  0.13648  1.0000
  C   C2715     1.0  0.96288  0.16867  0.10425  1.0000
  C   C2716     1.0  0.59088  0.02909  0.10607  1.0000
  C   C2717     1.0  0.92402  0.01322  0.23339  1.0000
  H   H2186     1.0  0.96176  0.11768  0.20546  1.0000
  C   C2718     1.0  0.94288  0.15162  0.09407  1.0000
  C   C2719     1.0  0.94494  0.16872  0.09910  1.0000
  C   C2720     1.0  0.96125  0.19458  0.14834  1.0000
  C   C2721     1.0  0.95203  0.19257  0.16755  1.0000
  C   C2722     1.0  0.93470  0.18402  0.17502  1.0000
  C   C2723     1.0  0.92659  0.17750  0.16327  1.0000
  C   C2724     1.0  0.93581  0.17942  0.14409  1.0000
  P   P89       1.0  0.54027  0.10419  0.04785  1.0000
  C   C2725     1.0  0.55172  0.02186  0.16462  1.0000
  C   C2726     1.0  0.94585  0.99590  0.11156  1.0000
  C   C2727     1.0  0.50547  0.09574  0.04285  1.0000
  H   H2187     1.0  0.94209  0.23519  0.05466  1.0000
  H   H2188     1.0  0.92117  0.26283  0.07100  1.0000
  H   H2189     1.0  0.91959  0.25911  0.10498  1.0000
  H   H2190     1.0  0.93853  0.22799  0.12269  1.0000
  C   C2728     1.0  0.55222  0.11534  0.02406  1.0000
  C   C2729     1.0  0.99358  0.02268  0.22340  1.0000
  H   H2191     1.0  0.51729  0.17453  0.05869  1.0000
  H   H2192     1.0  0.76735  0.08330  0.99117  1.0000
  H   H2193     1.0  0.92880  0.15160  0.09057  1.0000
  H   H2194     1.0  0.93225  0.18173  0.09944  1.0000
  H   H2195     1.0  0.51784  0.09007  0.21236  1.0000
  H   H2196     1.0  0.71070  0.12305  0.00978  1.0000
  H   H2197     1.0  0.92778  0.18202  0.18997  1.0000
  H   H2198     1.0  0.91334  0.17056  0.16915  1.0000
  H   H2199     1.0  0.92924  0.17421  0.13534  1.0000
  H   H2200     1.0  0.88805  0.06023  0.20975  1.0000
  C   C2730     1.0  0.82175  0.16977  0.15034  1.0000
  H   H2201     1.0  0.96957  0.05749  0.19693  1.0000
  H   H2202     1.0  0.53551  0.23643  0.01038  1.0000
  H   H2203     1.0  0.99086  0.21765  0.08324  1.0000
  C   C2731     1.0  0.86052  0.16827  0.15580  1.0000
  Fe  Fe181     1.0  0.51202  0.11384  0.13685  1.0000
  C   C2732     1.0  0.96715  0.08797  0.19938  1.0000
  C   C2733     1.0  0.55777  0.30291  0.04864  1.0000
  P   P90       1.0  0.97109  0.01997  0.11350  1.0000
  C   C2734     1.0  0.73958  0.10284  0.00241  1.0000
  C   C2735     1.0  0.96097  0.02569  0.13669  1.0000
  H   H2204     1.0  0.57082  0.04061  0.19790  1.0000
  H   H2205     1.0  0.98153  0.04581  0.13274  1.0000
  C   C2736     1.0  0.94408  0.03668  0.17173  1.0000
  C   C2737     1.0  0.96062  0.04456  0.15958  1.0000
  C   C2738     1.0  0.96906  0.03910  0.14215  1.0000
  C   C2739     1.0  0.77789  0.24320  0.98826  1.0000
  H   H2206     1.0  0.97504  0.09257  0.18491  1.0000
  C   C2740     1.0  0.51171  0.01051  0.20548  1.0000
  H   H2207     1.0  0.69491  0.22704  0.05916  1.0000
  C   C2741     1.0  0.59721  0.08400  0.13098  1.0000
  C   C2742     1.0  0.95980  0.04060  0.09648  1.0000
  C   C2743     1.0  0.95323  0.06052  0.09959  1.0000
  C   C2744     1.0  0.94527  0.07655  0.08602  1.0000
  C   C2745     1.0  0.94329  0.07275  0.06945  1.0000
  C   C2746     1.0  0.94959  0.05293  0.06630  1.0000
  C   C2747     1.0  0.95797  0.03694  0.07968  1.0000
  C   C2748     1.0  0.58368  0.28501  0.06656  1.0000
  C   C2749     1.0  0.70110  0.15817  0.02774  1.0000
  C   C2750     1.0  0.52400  0.03995  0.10419  1.0000
  H   H2208     1.0  0.96653  0.05538  0.16342  1.0000
  C   C2751     1.0  0.50841  0.24975  0.02871  1.0000
  C   C2752     1.0  0.95460  0.06158  0.22528  1.0000
  C   C2753     1.0  0.52955  0.06616  0.05512  1.0000
  S   S371      1.0  0.79246  0.14421  0.03651  1.0000
  C   C2754     1.0  0.80622  0.12706  0.15831  1.0000
  C   C2755     1.0  0.57656  0.07605  0.05074  1.0000
  H   H2209     1.0  0.95426  0.06384  0.11242  1.0000
  H   H2210     1.0  0.94047  0.09189  0.08851  1.0000
  H   H2211     1.0  0.93679  0.08515  0.05909  1.0000
  C   C2756     1.0  0.72099  0.11529  0.99907  1.0000
  C   C2757     1.0  0.53749  0.23590  0.09240  1.0000
  C   C2758     1.0  0.65742  0.12618  0.06085  1.0000
  C   C2759     1.0  0.67663  0.11379  0.06221  1.0000
  H   H2212     1.0  0.79992  0.22449  0.00446  1.0000
  C   C2760     1.0  0.68216  0.13607  0.07913  1.0000
  C   C2761     1.0  0.66306  0.14888  0.07739  1.0000
  C   C2762     1.0  0.65055  0.14351  0.06859  1.0000
  P   P91       1.0  0.65411  0.17177  0.08668  1.0000
  C   C2763     1.0  0.63131  0.16794  0.10467  1.0000
  C   C2764     1.0  0.67339  0.17551  0.09643  1.0000
  C   C2765     1.0  0.67015  0.17492  0.11576  1.0000
  C   C2766     1.0  0.51471  0.15908  0.06323  1.0000
  C   C2767     1.0  0.69167  0.18004  0.08427  1.0000
  C   C2768     1.0  0.63167  0.14941  0.11816  1.0000
  C   C2769     1.0  0.61397  0.14560  0.13163  1.0000
  C   C2770     1.0  0.59572  0.16012  0.13160  1.0000
  C   C2771     1.0  0.59523  0.17864  0.11829  1.0000
  C   C2772     1.0  0.61297  0.18261  0.10494  1.0000
  C   C2773     1.0  0.65032  0.19441  0.06814  1.0000
  C   C2774     1.0  0.64381  0.21373  0.07266  1.0000
  C   C2775     1.0  0.64227  0.23146  0.05840  1.0000
  C   C2776     1.0  0.64785  0.23012  0.03948  1.0000
  C   C2777     1.0  0.65490  0.21100  0.03480  1.0000
  C   C2778     1.0  0.65609  0.19322  0.04905  1.0000
  H   H2213     1.0  0.64789  0.12246  0.05362  1.0000
  H   H2214     1.0  0.83556  0.17823  0.12052  1.0000
  C   C2779     1.0  0.52923  0.24144  0.02359  1.0000
  H   H2215     1.0  0.63558  0.15287  0.06747  1.0000
  H   H2216     1.0  0.65608  0.17185  0.12541  1.0000
  H   H2217     1.0  0.58117  0.31626  0.05106  1.0000
  H   H2218     1.0  0.69449  0.18069  0.06926  1.0000
  H   H2219     1.0  0.64560  0.13780  0.11817  1.0000
  H   H2220     1.0  0.61424  0.13124  0.14200  1.0000
  H   H2221     1.0  0.58193  0.15692  0.14184  1.0000
  H   H2222     1.0  0.58097  0.18978  0.11820  1.0000
  H   H2223     1.0  0.61207  0.19690  0.09463  1.0000
  H   H2224     1.0  0.64035  0.21514  0.08719  1.0000
  H   H2225     1.0  0.63741  0.24634  0.06194  1.0000
  H   H2226     1.0  0.64700  0.24395  0.02847  1.0000
  H   H2227     1.0  0.65957  0.20994  0.02010  1.0000
  H   H2228     1.0  0.66171  0.17868  0.04501  1.0000
  C   C2780     1.0  0.79784  0.09168  0.08276  1.0000
  C   C2781     1.0  0.79727  0.08735  0.06595  1.0000
  C   C2782     1.0  0.81412  0.07489  0.05671  1.0000
  C   C2783     1.0  0.83159  0.06681  0.06425  1.0000
  C   C2784     1.0  0.83214  0.07083  0.08133  1.0000
  C   C2785     1.0  0.81523  0.08356  0.09039  1.0000
  P   P92       1.0  0.85540  0.06267  0.08998  1.0000
  C   C2786     1.0  0.87076  0.03958  0.08258  1.0000
  C   C2787     1.0  0.86946  0.08302  0.08079  1.0000
  C   C2788     1.0  0.88447  0.08387  0.08957  1.0000
  C   C2789     1.0  0.89431  0.10032  0.08324  1.0000
  C   C2790     1.0  0.89005  0.11552  0.06753  1.0000
  C   C2791     1.0  0.87554  0.11455  0.05840  1.0000
  C   C2792     1.0  0.86516  0.09847  0.06506  1.0000
  C   C2793     1.0  0.89218  0.03653  0.07763  1.0000
  H   H2229     1.0  0.96307  0.02172  0.07687  1.0000
  C   C2794     1.0  0.98866  0.31808  0.00258  1.0000
  C   C2795     1.0  0.87329  0.00579  0.07772  1.0000
  C   C2796     1.0  0.86142  0.02409  0.08241  1.0000
  C   C2797     1.0  0.84836  0.05712  0.11555  1.0000
  C   C2798     1.0  0.84252  0.03862  0.12562  1.0000
  C   C2799     1.0  0.83765  0.03407  0.14536  1.0000
  C   C2800     1.0  0.83867  0.04788  0.15525  1.0000
  C   C2801     1.0  0.84419  0.06642  0.14539  1.0000
  C   C2802     1.0  0.84860  0.07120  0.12567  1.0000
  H   H2230     1.0  0.78514  0.10206  0.08949  1.0000
  H   H2231     1.0  0.78395  0.09411  0.05986  1.0000
  H   H2232     1.0  0.81383  0.07188  0.04347  1.0000
  H   H2233     1.0  0.84480  0.05789  0.05650  1.0000
  H   H2234     1.0  0.81573  0.08791  0.10293  1.0000
  H   H2235     1.0  0.88802  0.07221  0.10174  1.0000
  H   H2236     1.0  0.90457  0.10179  0.09100  1.0000
  H   H2237     1.0  0.89729  0.12856  0.06301  1.0000
  H   H2238     1.0  0.87167  0.12674  0.04664  1.0000
  H   H2239     1.0  0.85348  0.09851  0.05812  1.0000
  H   H2240     1.0  0.89988  0.04799  0.07784  1.0000
  H   H2241     1.0  0.68205  0.10054  0.05594  1.0000
  C   C2803     1.0  0.55905  0.26723  0.06432  1.0000
  H   H2242     1.0  0.93773  0.00746  0.14535  1.0000
  H   H2243     1.0  0.84498  0.02590  0.08638  1.0000
  H   H2244     1.0  0.84236  0.02729  0.11840  1.0000
  H   H2245     1.0  0.83410  0.01936  0.15296  1.0000
  H   H2246     1.0  0.84593  0.07672  0.15301  1.0000
  H   H2247     1.0  0.85277  0.08564  0.11847  1.0000
  C   C2804     1.0  0.59315  0.18980  0.06893  1.0000
  C   C2805     1.0  0.60728  0.19438  0.05210  1.0000
  C   C2806     1.0  0.60504  0.21421  0.04103  1.0000
  C   C2807     1.0  0.58858  0.22937  0.04666  1.0000
  C   C2808     1.0  0.57372  0.22463  0.06307  1.0000
  C   C2809     1.0  0.57625  0.20478  0.07435  1.0000
  C   C2810     1.0  0.63511  0.02843  0.17356  1.0000
  C   C2811     1.0  0.53438  0.24589  0.05267  1.0000
  H   H2248     1.0  0.52436  0.21442  0.08595  1.0000
  S   S372      1.0  0.49957  0.14711  0.12754  1.0000
  H   H2249     1.0  0.69240  0.15332  0.04170  1.0000
  H   H2250     1.0  0.94804  0.04996  0.05347  1.0000
  H   H2251     1.0  0.57630  0.32330  0.08575  1.0000
  H   H2252     1.0  0.59474  0.17435  0.07738  1.0000
  H   H2253     1.0  0.61968  0.18246  0.04746  1.0000
  H   H2254     1.0  0.61572  0.21783  0.02779  1.0000
  H   H2255     1.0  0.58692  0.24457  0.03768  1.0000
  H   H2256     1.0  0.56504  0.20054  0.08700  1.0000
  H   H2257     1.0  0.95677  0.12083  0.09091  1.0000
  H   H2258     1.0  0.55816  0.23288  0.03106  1.0000
  S   S373      1.0  0.73245  0.15223  0.04499  1.0000
  H   H2259     1.0  0.56158  0.26869  0.99690  1.0000
  C   C2812     1.0  0.51345  0.25433  0.05767  1.0000
  H   H2260     1.0  0.76603  0.24520  0.00079  1.0000
  C   C2813     1.0  0.82564  0.16396  0.16861  1.0000
  S   S374      1.0  0.58975  0.23228  0.99133  1.0000
  H   H2261     1.0  0.61283  0.06853  0.20934  1.0000
  C   C2814     1.0  0.68510  0.17864  0.12279  1.0000
  S   S375      1.0  0.53502  0.01709  0.09656  1.0000
  C   C2815     1.0  0.53594  0.03873  0.16135  1.0000
  C   C2816     1.0  0.57671  0.04189  0.14516  1.0000
  C   C2817     1.0  0.73599  0.22949  0.99289  1.0000
  H   H2262     1.0  0.81423  0.12912  0.16782  1.0000
  H   H2263     1.0  0.61875  0.12212  0.09978  1.0000
  H   H2264     1.0  0.69218  0.13965  0.08589  1.0000
  C   C2818     1.0  0.83768  0.17440  0.13481  1.0000
  H   H2265     1.0  0.59718  0.28480  0.07116  1.0000
  H   H2266     1.0  0.53110  0.24286  0.13684  1.0000
  C   C2819     1.0  0.73848  0.29091  0.99207  1.0000
  Fe  Fe182     1.0  0.76098  0.16389  0.04065  1.0000
  H   H2267     1.0  0.93357  0.00920  0.11243  1.0000
  H   H2268     1.0  0.99062  0.24064  0.15304  1.0000
  H   H2269     1.0  0.68136  0.25806  0.01177  1.0000
  C   C2820     1.0  0.59377  0.06655  0.05835  1.0000
  C   C2821     1.0  0.59570  0.07148  0.07438  1.0000
  C   C2822     1.0  0.58034  0.08573  0.08298  1.0000
  C   C2823     1.0  0.72252  0.21918  0.00736  1.0000
  C   C2824     1.0  0.80535  0.10723  0.15833  1.0000
  H   H2270     1.0  0.91908  0.06463  0.21633  1.0000
  C   C2825     1.0  0.71087  0.27204  0.04346  1.0000
  C   C2826     1.0  0.94448  0.01766  0.14912  1.0000
  H   H2271     1.0  0.60571  0.05554  0.05169  1.0000
  H   H2272     1.0  0.60915  0.06423  0.08005  1.0000
  H   H2273     1.0  0.58188  0.08971  0.09533  1.0000
  C   C2827     1.0  0.70327  0.18308  0.11058  1.0000
  H   H2274     1.0  0.90258  0.99587  0.23327  1.0000
  C   C2828     1.0  0.70986  0.26054  0.99160  1.0000
  H   H2275     1.0  0.92051  0.01560  0.06991  1.0000
  C   C2829     1.0  0.50618  0.07454  0.11959  1.0000
  C   C2830     1.0  0.62329  0.03901  0.16026  1.0000
  C   C2831     1.0  0.56319  0.09540  0.07530  1.0000
  S   S376      1.0  0.76967  0.19071  0.01827  1.0000
  C   C2832     1.0  0.54394  0.11718  0.00854  1.0000
  C   C2833     1.0  0.69743  0.25860  0.04992  1.0000
  H   H2276     1.0  0.70396  0.10926  0.07230  1.0000
  C   C2834     1.0  0.60845  0.06741  0.12280  1.0000
  H   H2277     1.0  0.84797  0.15853  0.18538  1.0000
  H   H2278     1.0  0.73010  0.31162  0.01079  1.0000
  H   H2279     1.0  0.95956  0.00669  0.20869  1.0000
  C   C2835     1.0  0.53552  0.05452  0.10194  1.0000
  C   C2836     1.0  0.85690  0.17378  0.13759  1.0000
  H   H2280     1.0  0.71482  0.18612  0.11595  1.0000
  H   H2281     1.0  0.51682  0.32202  0.18278  1.0000
  C   C2837     1.0  0.51653  0.05357  0.05603  1.0000
  C   C2838     1.0  0.95977  0.10205  0.21100  1.0000
  H   H2282     1.0  0.70493  0.28834  0.04037  1.0000
  C   C2839     1.0  0.62826  0.09025  0.09877  1.0000
  C   C2840     1.0  0.62592  0.00731  0.15143  1.0000
  S   S377      1.0  0.62775  0.31538  0.04322  1.0000
  H   H2283     1.0  0.86918  0.17711  0.12553  1.0000
  C   C2841     1.0  0.57718  0.05380  0.19592  1.0000
  C   C2842     1.0  0.59273  0.05238  0.20504  1.0000
  H   H2284     1.0  0.97465  0.20122  0.14291  1.0000
  C   C2843     1.0  0.89815  0.04708  0.21632  1.0000
  H   H2285     1.0  0.56453  0.30052  0.00334  1.0000
  Fe  Fe183     1.0  0.80160  0.17217  0.01600  1.0000
  C   C2844     1.0  0.52662  0.07178  0.10987  1.0000
  S   S378      1.0  0.67083  0.26775  0.05329  1.0000
  C   C2845     1.0  0.49968  0.15399  0.07927  1.0000
  P   P93       1.0  0.95152  0.03541  0.23399  1.0000
  H   H2286     1.0  0.58556  0.08188  0.14378  1.0000
  H   H2287     1.0  0.96127  0.20389  0.07216  1.0000
  C   C2846     1.0  0.91582  0.04950  0.22005  1.0000
  C   C2847     1.0  0.68892  0.11865  0.07148  1.0000
  C   C2848     1.0  0.54217  0.23947  0.03549  1.0000
  H   H2288     1.0  0.64006  0.02017  0.11063  1.0000
  C   C2849     1.0  0.90401  0.01816  0.07303  1.0000
  H   H2289     1.0  0.59145  0.11649  0.12852  1.0000
  C   C2850     1.0  0.62717  0.02026  0.10519  1.0000
  H   H2290     1.0  0.55183  0.10694  0.08178  1.0000
  C   C2851     1.0  0.50924  0.11884  0.07608  1.0000
  H   H2291     1.0  0.53020  0.11181  0.01037  1.0000
  C   C2852     1.0  0.97866  0.15117  0.10429  1.0000
  C   C2853     1.0  0.60731  0.02943  0.11331  1.0000
  H   H2292     1.0  0.52058  0.03726  0.06164  1.0000
  C   C2854     1.0  0.89079  0.10503  0.22157  1.0000
  C   C2855     1.0  0.52432  0.12387  0.05988  1.0000
  C   C2856     1.0  0.97657  0.13415  0.09914  1.0000
  H   H2293     1.0  0.89614  0.15008  0.22689  1.0000
  C   C2857     1.0  0.52571  0.22101  0.09688  1.0000
  C   C2858     1.0  0.99198  0.99865  0.19993  1.0000
  H   H2294     1.0  0.68001  0.29638  0.21163  1.0000
  H   H2295     1.0  0.54338  0.05917  0.06028  1.0000
  C   C2859     1.0  0.97455  0.02022  0.22247  1.0000
  C   C2860     1.0  0.53672  0.08831  0.23130  1.0000
  H   H2296     1.0  0.98030  0.30876  0.99951  1.0000
  C   C2861     1.0  0.89506  0.13421  0.23045  1.0000
  C   C2862     1.0  0.49695  0.13387  0.08569  1.0000
  H   H2297     1.0  0.54836  0.00731  0.17282  1.0000
  C   C2863     1.0  0.59428  0.02011  0.09076  1.0000
  H   H2298     1.0  0.55066  0.08161  0.22248  1.0000
  H   H2299     1.0  0.60257  0.30318  0.10367  1.0000
  H   H2300     1.0  0.53744  0.28547  0.04714  1.0000
  C   C2864     1.0  0.67271  0.31168  0.21367  1.0000
  H   H2301     1.0  0.53899  0.14830  0.04152  1.0000
  C   C2865     1.0  0.53927  0.24387  0.10691  1.0000
  S   S379      1.0  0.60096  0.17804  0.98906  1.0000
  H   H2302     1.0  0.55147  0.31644  0.03917  1.0000
  C   C2866     1.0  0.51816  0.22175  0.12997  1.0000
  H   H2303     1.0  0.59376  0.13627  0.00069  1.0000
  Fe  Fe184     1.0  0.62630  0.31703  0.01355  1.0000
  H   H2304     1.0  0.63789  0.03645  0.18273  1.0000
  C   C2867     1.0  0.52708  0.14408  0.05359  1.0000
  C   C2868     1.0  0.72371  0.17038  0.99144  1.0000
  S   S380      1.0  0.88550  0.99532  0.12377  1.0000
  H   H2305     1.0  0.99239  0.15020  0.10875  1.0000
  C   C2869     1.0  0.55356  0.12595  0.99031  1.0000
  C   C2870     1.0  0.73561  0.30994  0.99629  1.0000
  H   H2306     1.0  0.54821  0.25535  0.10392  1.0000
  Fe  Fe185     1.0  0.50184  0.14963  0.15562  1.0000
  S   S381      1.0  0.82418  0.17136  0.98815  1.0000
  H   H2307     1.0  0.98320  0.08160  0.09880  1.0000
  C   C2871     1.0  0.94959  0.09602  0.22969  1.0000
  Fe  Fe186     1.0  0.59347  0.00059  0.22223  1.0000
  C   C2872     1.0  0.50486  0.32402  0.10489  1.0000
  C   C2873     1.0  0.64250  0.00738  0.17569  1.0000
  H   H2308     1.0  0.51090  0.21600  0.14448  1.0000
  C   C2874     1.0  0.69649  0.25011  0.00614  1.0000
  C   C2875     1.0  0.75290  0.09290  0.98855  1.0000
  C   C2876     1.0  0.99156  0.19200  0.10729  1.0000
  H   H2309     1.0  0.99447  0.03253  0.23187  1.0000
  C   C2877     1.0  0.51623  0.21387  0.11558  1.0000
  C   C2878     1.0  0.52958  0.23682  0.12563  1.0000
  H   H2310     1.0  0.62516  0.24385  0.99663  1.0000
  H   H2311     1.0  0.50719  0.10323  0.08153  1.0000
  H   H2312     1.0  0.98852  0.12048  0.09984  1.0000
  Fe  Fe187     1.0  0.61449  0.20417  0.98822  1.0000
  C   C2879     1.0  0.59265  0.31692  0.10767  1.0000
  H   H2313     1.0  0.60666  0.31465  0.13050  1.0000
  C   C2880     1.0  0.59491  0.32333  0.12283  1.0000
  C   C2881     1.0  0.79715  0.23146  0.99042  1.0000
  H   H2314     1.0  0.65119  0.99914  0.18637  1.0000
  H   H2315     1.0  0.50711  0.25940  0.07082  1.0000
  H   H2316     1.0  0.49841  0.25113  0.01949  1.0000
  C   C2882     1.0  0.50052  0.25619  0.04575  1.0000
  H   H2317     1.0  0.79284  0.32050  0.99702  1.0000
  C   C2883     1.0  0.49811  0.06198  0.05022  1.0000
  H   H2318     1.0  0.52255  0.04688  0.23319  1.0000
  C   C2884     1.0  0.89457  0.00277  0.07315  1.0000
  H   H2319     1.0  0.78172  0.29417  0.98811  1.0000
  S   S382      1.0  0.49593  0.99336  0.14090  1.0000
  H   H2320     1.0  0.89894  0.12904  0.25900  1.0000
  C   C2885     1.0  0.94279  0.02231  0.29868  1.0000
  H   H2321     1.0  0.88657  0.99929  0.33305  1.0000
  H   H2322     1.0  0.91643  0.04515  0.26409  1.0000
  H   H2323     1.0  0.87052  0.31834  0.41996  1.0000
  H   H2324     1.0  0.88870  0.15017  0.42876  1.0000
  Fe  Fe188     1.0  0.80161  0.22217  0.44930  1.0000
  S   S383      1.0  0.81802  0.22161  0.41918  1.0000
  S   S384      1.0  0.76837  0.23523  0.46078  1.0000
  Fe  Fe189     1.0  0.84035  0.20293  0.46445  1.0000
  S   S385      1.0  0.86019  0.20136  0.43566  1.0000
  C   C2886     1.0  0.50047  0.10557  0.25414  1.0000
  Fe  Fe190     1.0  0.84179  0.23263  0.42653  1.0000
  S   S386      1.0  0.85488  0.25933  0.40780  1.0000
  Fe  Fe191     1.0  0.83503  0.19020  0.43084  1.0000
  S   S387      1.0  0.84387  0.16056  0.42061  1.0000
  S   S388      1.0  0.82428  0.23533  0.45569  1.0000
  S   S389      1.0  0.81632  0.18967  0.46049  1.0000
  Fe  Fe192     1.0  0.90541  0.07702  0.33988  1.0000
  S   S390      1.0  0.88033  0.09773  0.32629  1.0000
  S   S391      1.0  0.90093  0.04809  0.36173  1.0000
  Fe  Fe193     1.0  0.93702  0.10157  0.31509  1.0000
  S   S392      1.0  0.91461  0.12385  0.29888  1.0000
  S   S393      1.0  0.97068  0.10162  0.30646  1.0000
  Fe  Fe194     1.0  0.89361  0.12319  0.32772  1.0000
  S   S394      1.0  0.87422  0.15304  0.33492  1.0000
  Fe  Fe195     1.0  0.90335  0.09655  0.29891  1.0000
  S   S395      1.0  0.89679  0.08618  0.27574  1.0000
  S   S396      1.0  0.91691  0.10255  0.34384  1.0000
  S   S397      1.0  0.92758  0.07424  0.31264  1.0000
  H   H2325     1.0  0.91207  0.03955  0.29843  1.0000
  H   H2326     1.0  0.94547  0.00409  0.40563  1.0000
  H   H2327     1.0  0.64918  0.00308  0.34908  1.0000
  H   H2328     1.0  0.59790  0.01249  0.28029  1.0000
  C   C2887     1.0  0.85291  0.15939  0.39659  1.0000
  C   C2888     1.0  0.84721  0.17568  0.38210  1.0000
  C   C2889     1.0  0.85392  0.17363  0.36320  1.0000
  C   C2890     1.0  0.86631  0.15529  0.35870  1.0000
  C   C2891     1.0  0.87208  0.13909  0.37319  1.0000
  C   C2892     1.0  0.86533  0.14115  0.39204  1.0000
  H   H2329     1.0  0.83736  0.18968  0.38551  1.0000
  H   H2330     1.0  0.84943  0.18624  0.35204  1.0000
  H   H2331     1.0  0.88150  0.12489  0.36992  1.0000
  H   H2332     1.0  0.86956  0.12846  0.40321  1.0000
  C   C2893     1.0  0.73897  0.29618  0.42663  1.0000
  C   C2894     1.0  0.73034  0.28951  0.44570  1.0000
  C   C2895     1.0  0.73953  0.27081  0.45603  1.0000
  C   C2896     1.0  0.75760  0.25892  0.44753  1.0000
  C   C2897     1.0  0.76645  0.26583  0.42855  1.0000
  C   C2898     1.0  0.75697  0.28423  0.41807  1.0000
  H   H2333     1.0  0.71639  0.29860  0.45229  1.0000
  H   H2334     1.0  0.79772  0.29450  0.33406  1.0000
  H   H2335     1.0  0.78037  0.25684  0.42184  1.0000
  H   H2336     1.0  0.76374  0.28935  0.40334  1.0000
  H   H2337     1.0  0.85723  0.21788  0.37501  1.0000
  C   C2899     1.0  0.88863  0.20170  0.37077  1.0000
  H   H2338     1.0  0.90139  0.17847  0.40469  1.0000
  C   C2900     1.0  0.63715  0.99350  0.25852  1.0000
  C   C2901     1.0  0.86710  0.26132  0.43883  1.0000
  C   C2902     1.0  0.86269  0.27166  0.42122  1.0000
  C   C2903     1.0  0.86423  0.29213  0.41435  1.0000
  H   H2339     1.0  0.94808  0.16116  0.29497  1.0000
  S   S398      1.0  0.84266  0.00001  0.34802  1.0000
  H   H2340     1.0  0.86104  0.30001  0.40068  1.0000
  H   H2341     1.0  0.53312  0.14640  0.47320  1.0000
  C   C2904     1.0  0.97080  0.17469  0.36576  1.0000
  C   C2905     1.0  0.97203  0.11912  0.33479  1.0000
  H   H2342     1.0  0.92474  0.10785  0.39411  1.0000
  C   C2906     1.0  0.98766  0.00665  0.44364  1.0000
  C   C2907     1.0  0.58178  0.01383  0.28143  1.0000
  H   H2343     1.0  0.94688  0.10144  0.44762  1.0000
  H   H2344     1.0  0.95581  0.11970  0.33968  1.0000
  H   H2345     1.0  0.65991  0.03296  0.25271  1.0000
  H   H2346     1.0  0.54327  0.04202  0.25975  1.0000
  C   C2908     1.0  0.85949  0.01342  0.35074  1.0000
  C   C2909     1.0  0.85163  0.02755  0.36235  1.0000
  C   C2910     1.0  0.86443  0.03798  0.36567  1.0000
  C   C2911     1.0  0.88509  0.03521  0.35672  1.0000
  C   C2912     1.0  0.89306  0.02122  0.34490  1.0000
  C   C2913     1.0  0.92008  0.15944  0.38518  1.0000
  H   H2347     1.0  0.83557  0.03030  0.36902  1.0000
  H   H2348     1.0  0.85828  0.04805  0.37537  1.0000
  H   H2349     1.0  0.79633  0.19691  0.32355  1.0000
  C   C2914     1.0  0.98268  0.12510  0.34505  1.0000
  C   C2915     1.0  0.91392  0.22247  0.36298  1.0000
  H   H2350     1.0  0.80323  0.00936  0.38203  1.0000
  H   H2351     1.0  0.58000  0.03926  0.25753  1.0000
  H   H2352     1.0  0.63687  0.28905  0.46271  1.0000
  H   H2353     1.0  0.90950  0.15991  0.35017  1.0000
  H   H2354     1.0  0.95927  0.19176  0.33207  1.0000
  C   C2916     1.0  0.85497  0.08753  0.38357  1.0000
  C   C2917     1.0  0.84802  0.09909  0.39741  1.0000
  C   C2918     1.0  0.83037  0.11446  0.39704  1.0000
  C   C2919     1.0  0.81950  0.11803  0.38300  1.0000
  C   C2920     1.0  0.82608  0.10608  0.36933  1.0000
  C   C2921     1.0  0.84402  0.09096  0.36962  1.0000
  P   P94       1.0  0.81164  0.11075  0.35145  1.0000
  C   C2922     1.0  0.78826  0.10138  0.36124  1.0000
  C   C2923     1.0  0.80645  0.13800  0.34237  1.0000
  C   C2924     1.0  0.78709  0.14873  0.33921  1.0000
  C   C2925     1.0  0.78347  0.16993  0.33242  1.0000
  C   C2926     1.0  0.79911  0.18050  0.32877  1.0000
  C   C2927     1.0  0.81840  0.16986  0.33188  1.0000
  C   C2928     1.0  0.82203  0.14873  0.33867  1.0000
  C   C2929     1.0  0.77802  0.09797  0.34912  1.0000
  C   C2930     1.0  0.75997  0.09059  0.35644  1.0000
  C   C2931     1.0  0.75200  0.08659  0.37591  1.0000
  C   C2932     1.0  0.76209  0.08993  0.38806  1.0000
  C   C2933     1.0  0.78017  0.09728  0.38079  1.0000
  C   C2934     1.0  0.82602  0.09785  0.33258  1.0000
  C   C2935     1.0  0.82892  0.07651  0.33578  1.0000
  C   C2936     1.0  0.84016  0.06626  0.32142  1.0000
  C   C2937     1.0  0.84842  0.07725  0.30372  1.0000
  C   C2938     1.0  0.84528  0.09850  0.30030  1.0000
  C   C2939     1.0  0.83411  0.10881  0.31464  1.0000
  H   H2355     1.0  0.86908  0.07614  0.38339  1.0000
  H   H2356     1.0  0.85662  0.09663  0.40807  1.0000
  H   H2357     1.0  0.82547  0.12402  0.40731  1.0000
  H   H2358     1.0  0.80609  0.13027  0.38270  1.0000
  H   H2359     1.0  0.84990  0.08207  0.35890  1.0000
  H   H2360     1.0  0.77478  0.14086  0.34201  1.0000
  H   H2361     1.0  0.93901  0.07176  0.25135  1.0000
  C   C2940     1.0  0.92960  0.03441  0.40883  1.0000
  H   H2362     1.0  0.83065  0.17790  0.32906  1.0000
  H   H2363     1.0  0.83707  0.14069  0.34100  1.0000
  H   H2364     1.0  0.78401  0.10099  0.33399  1.0000
  H   H2365     1.0  0.75219  0.08794  0.34701  1.0000
  H   H2366     1.0  0.73800  0.08088  0.38158  1.0000
  H   H2367     1.0  0.75591  0.08681  0.40316  1.0000
  H   H2368     1.0  0.78772  0.09962  0.39051  1.0000
  H   H2369     1.0  0.82280  0.06774  0.34947  1.0000
  H   H2370     1.0  0.84275  0.04975  0.32405  1.0000
  H   H2371     1.0  0.85760  0.06930  0.29271  1.0000
  H   H2372     1.0  0.85209  0.10688  0.28663  1.0000
  H   H2373     1.0  0.83230  0.12522  0.31166  1.0000
  C   C2941     1.0  0.77911  0.30241  0.45019  1.0000
  C   C2942     1.0  0.92679  0.13933  0.38251  1.0000
  C   C2943     1.0  0.80886  0.28182  0.38405  1.0000
  C   C2944     1.0  0.57170  0.02897  0.26866  1.0000
  C   C2945     1.0  0.80511  0.99805  0.39492  1.0000
  C   C2946     1.0  0.81048  0.26609  0.37521  1.0000
  C   C2947     1.0  0.90914  0.20315  0.36701  1.0000
  C   C2948     1.0  0.79934  0.30675  0.35675  1.0000
  H   H2374     1.0  0.91583  0.06625  0.40786  1.0000
  P   P95       1.0  0.97315  0.00795  0.36891  1.0000
  C   C2949     1.0  0.95554  0.17708  0.31214  1.0000
  C   C2950     1.0  0.92679  0.05523  0.40042  1.0000
  H   H2375     1.0  0.73263  0.26547  0.47061  1.0000
  H   H2376     1.0  0.81490  0.25035  0.38236  1.0000
  H   H2377     1.0  0.82165  0.29502  0.41562  1.0000
  H   H2378     1.0  0.64530  0.25330  0.48066  1.0000
  C   C2951     1.0  0.94411  0.16551  0.30846  1.0000
  H   H2379     1.0  0.78773  0.25622  0.48021  1.0000
  H   H2380     1.0  0.90193  0.25476  0.36127  1.0000
  H   H2381     1.0  0.97458  0.13020  0.35787  1.0000
  H   H2382     1.0  0.94339  0.13431  0.42405  1.0000
  H   H2383     1.0  0.90839  0.00584  0.40023  1.0000
  C   C2952     1.0  0.91978  0.12325  0.39642  1.0000
  C   C2953     1.0  0.95707  0.10273  0.43380  1.0000
  C   C2954     1.0  0.98330  0.10617  0.39815  1.0000
  H   H2384     1.0  0.95428  0.03403  0.33759  1.0000
  H   H2385     1.0  0.87666  0.26334  0.46299  1.0000
  C   C2955     1.0  0.80640  0.27063  0.35724  1.0000
  H   H2386     1.0  0.72776  0.31082  0.47810  1.0000
  H   H2387     1.0  0.93732  0.13604  0.36967  1.0000
  C   C2956     1.0  0.64937  0.30130  0.47922  1.0000
  C   C2957     1.0  0.95081  0.18376  0.37373  1.0000
  H   H2388     1.0  0.90041  0.11478  0.42379  1.0000
  C   C2958     1.0  0.85848  0.02665  0.41564  1.0000
  C   C2959     1.0  0.89663  0.12234  0.24862  1.0000
  H   H2389     1.0  0.54490  0.00914  0.33493  1.0000
  C   C2960     1.0  0.79909  0.29449  0.44153  1.0000
  C   C2961     1.0  0.80620  0.30136  0.42217  1.0000
  C   C2962     1.0  0.98536  0.08750  0.41133  1.0000
  C   C2963     1.0  0.94777  0.19429  0.38802  1.0000
  H   H2390     1.0  0.88467  0.18701  0.37345  1.0000
  C   C2964     1.0  0.99308  0.07140  0.35413  1.0000
  H   H2391     1.0  0.83396  0.01053  0.42518  1.0000
  C   C2965     1.0  0.49836  0.99414  0.30639  1.0000
  C   C2966     1.0  0.66595  0.00372  0.27185  1.0000
  H   H2392     1.0  0.96833  0.18185  0.30140  1.0000
  H   H2393     1.0  0.92964  0.22407  0.35950  1.0000
  C   C2967     1.0  0.55100  0.03048  0.26987  1.0000
  C   C2968     1.0  0.94347  0.02020  0.39901  1.0000
  H   H2394     1.0  0.51973  0.10315  0.27315  1.0000
  H   H2395     1.0  0.97859  0.01066  0.26032  1.0000
  C   C2969     1.0  0.87788  0.23825  0.36812  1.0000
  C   C2970     1.0  0.79322  0.31584  0.41130  1.0000
  H   H2396     1.0  0.93246  0.20068  0.39498  1.0000
  H   H2397     1.0  0.84855  0.04122  0.41746  1.0000
  H   H2398     1.0  0.88572  0.03903  0.40448  1.0000
  C   C2971     1.0  0.97219  0.08589  0.42925  1.0000
  C   C2972     1.0  0.96140  0.01411  0.28785  1.0000
  H   H2399     1.0  0.93394  0.00007  0.24005  1.0000
  H   H2400     1.0  0.55173  0.99337  0.47768  1.0000
  H   H2401     1.0  0.91811  0.15130  0.31916  1.0000
  S   S399      1.0  0.88171  0.30462  0.45621  1.0000
  C   C2973     1.0  0.89203  0.09331  0.23976  1.0000
  C   C2974     1.0  0.94704  0.07587  0.23686  1.0000
  C   C2975     1.0  0.95513  0.12127  0.42056  1.0000
  C   C2976     1.0  0.93465  0.17524  0.34399  1.0000
  C   C2977     1.0  0.87309  0.27145  0.44946  1.0000
  H   H2402     1.0  0.95984  0.05307  0.35831  1.0000
  C   C2978     1.0  0.96404  0.01722  0.26829  1.0000
  C   C2979     1.0  0.90675  0.16312  0.40220  1.0000
  C   C2980     1.0  0.93789  0.06181  0.38224  1.0000
  H   H2403     1.0  0.90911  0.01870  0.33818  1.0000
  C   C2981     1.0  0.97072  0.03118  0.33251  1.0000
  H   H2404     1.0  0.96915  0.05153  0.30534  1.0000
  C   C2982     1.0  0.92908  0.03619  0.27055  1.0000
  C   C2983     1.0  0.86955  0.30247  0.42525  1.0000
  C   C2984     1.0  0.90623  0.12711  0.41316  1.0000
  C   C2985     1.0  0.98748  0.17752  0.37088  1.0000
  H   H2405     1.0  0.97599  0.07613  0.38143  1.0000
  H   H2406     1.0  0.97383  0.00548  0.29471  1.0000
  H   H2407     1.0  0.83731  0.31755  0.35443  1.0000
  P   P96       1.0  0.92900  0.18032  0.36730  1.0000
  H   H2408     1.0  0.96935  0.00923  0.42410  1.0000
  C   C2986     1.0  0.50030  0.00308  0.33455  1.0000
  H   H2409     1.0  0.96200  0.20520  0.40421  1.0000
  C   C2987     1.0  0.87306  0.21917  0.37151  1.0000
  H   H2410     1.0  0.93176  0.00967  0.36592  1.0000
  C   C2988     1.0  0.97903  0.04101  0.31421  1.0000
  C   C2989     1.0  0.96823  0.12296  0.40274  1.0000
  H   H2411     1.0  0.93560  0.07790  0.37558  1.0000
  H   H2412     1.0  0.76851  0.17821  0.33005  1.0000
  C   C2990     1.0  0.87943  0.02541  0.40851  1.0000
  C   C2991     1.0  0.95056  0.18235  0.32970  1.0000
  C   C2992     1.0  0.98262  0.11177  0.31851  1.0000
  C   C2993     1.0  0.89971  0.14704  0.41603  1.0000
  C   C2994     1.0  0.96449  0.19679  0.39337  1.0000
  C   C2995     1.0  0.99300  0.99954  0.38229  1.0000
  C   C2996     1.0  0.94802  0.02880  0.25941  1.0000
  H   H2413     1.0  0.81218  0.27775  0.39792  1.0000
  H   H2414     1.0  0.67145  0.99564  0.31901  1.0000
  C   C2997     1.0  0.92260  0.16457  0.33981  1.0000
  C   C2998     1.0  0.80313  0.30232  0.37495  1.0000
  H   H2415     1.0  0.92088  0.02926  0.42286  1.0000
  C   C2999     1.0  0.89830  0.23993  0.36374  1.0000
  C   C3000     1.0  0.89510  0.10184  0.25328  1.0000
  C   C3001     1.0  0.88031  0.01018  0.34203  1.0000
  C   C3002     1.0  0.87415  0.29210  0.44277  1.0000
  H   H2416     1.0  0.94099  0.02030  0.31375  1.0000
  C   C3003     1.0  0.95172  0.04762  0.37241  1.0000
  H   H2417     1.0  0.67663  0.00815  0.27721  1.0000
  C   C3004     1.0  0.80086  0.29096  0.34800  1.0000
  H   H2418     1.0  0.77307  0.29651  0.46488  1.0000
  H   H2419     1.0  0.80900  0.28276  0.44965  1.0000
  C   C3005     1.0  0.95467  0.02670  0.38073  1.0000
  C   C3006     1.0  0.64913  0.26548  0.48450  1.0000
  H   H2420     1.0  0.97370  0.16543  0.35555  1.0000
  C   C3007     1.0  0.89224  0.00667  0.40605  1.0000
  C   C3008     1.0  0.92740  0.15967  0.32216  1.0000
  C   C3009     1.0  0.51469  0.03453  0.24061  1.0000
  H   H2421     1.0  0.86577  0.25172  0.36916  1.0000
  C   C3010     1.0  0.51589  0.99853  0.25414  1.0000
  C   C3011     1.0  0.92654  0.03308  0.29008  1.0000
  H   H2422     1.0  0.80757  0.25837  0.35051  1.0000
  H   H2423     1.0  0.52451  0.01796  0.28395  1.0000
  C   C3012     1.0  0.93963  0.99380  0.36818  1.0000
  H   H2424     1.0  0.86619  0.24542  0.44415  1.0000
  C   C3013     1.0  0.54977  0.99339  0.34186  1.0000
  C   C3014     1.0  0.98436  0.18857  0.38467  1.0000
  H   H2425     1.0  0.97850  0.04124  0.40372  1.0000
  H   H2426     1.0  0.97987  0.07629  0.34786  1.0000
  C   C3015     1.0  0.52591  0.01471  0.24552  1.0000
  H   H2427     1.0  0.79528  0.32241  0.34925  1.0000
  H   H2428     1.0  0.96676  0.13730  0.39245  1.0000
  C   C3016     1.0  0.85027  0.00924  0.41986  1.0000
  H   H2429     1.0  0.78209  0.31646  0.48018  1.0000
  H   H2430     1.0  0.97362  0.07174  0.43978  1.0000
  C   C3017     1.0  0.65638  0.01790  0.25809  1.0000
  C   C3018     1.0  0.57121  0.00008  0.29531  1.0000
  H   H2431     1.0  0.54235  0.01199  0.24251  1.0000
  C   C3019     1.0  0.51908  0.10055  0.25989  1.0000
  H   H2432     1.0  0.83696  0.99780  0.39022  1.0000
  H   H2433     1.0  0.99352  0.10779  0.38436  1.0000
  H   H2434     1.0  0.99386  0.06973  0.23999  1.0000
  C   C3020     1.0  0.64212  0.01271  0.25131  1.0000
  H   H2435     1.0  0.99125  0.13961  0.42299  1.0000
  P   P97       1.0  0.80160  0.32291  0.38593  1.0000
  C   C3021     1.0  0.98364  0.01853  0.34439  1.0000
  C   C3022     1.0  0.53712  0.09196  0.24848  1.0000
  H   H2436     1.0  0.58639  0.99845  0.47531  1.0000
  C   C3023     1.0  0.54039  0.01670  0.28369  1.0000
  C   C3024     1.0  0.55039  0.00140  0.29661  1.0000
  H   H2437     1.0  0.63473  0.02362  0.24058  1.0000
  C   C3025     1.0  0.97954  0.01614  0.42766  1.0000
  H   H2438     1.0  0.98368  0.99249  0.45245  1.0000
  S   S400      1.0  0.72776  0.31938  0.41308  1.0000
  H   H2439     1.0  0.56065  0.00149  0.36236  1.0000
  C   C3026     1.0  0.76666  0.31789  0.43978  1.0000
  H   H2440     1.0  0.75123  0.32416  0.44646  1.0000
  H   H2441     1.0  0.55146  0.08807  0.25292  1.0000
  H   H2442     1.0  0.89050  0.07757  0.24344  1.0000
  C   C3027     1.0  0.84086  0.32472  0.36380  1.0000
  H   H2443     1.0  0.50871  0.00322  0.34455  1.0000
  C   C3028     1.0  0.98489  0.03424  0.41608  1.0000
  H   H2444     1.0  0.64578  0.31696  0.47142  1.0000
  H   H2445     1.0  0.64992  0.30168  0.23793  1.0000
  C   C3029     1.0  0.64435  0.28559  0.47437  1.0000
  C   C3030     1.0  0.99106  0.07153  0.37305  1.0000
  H   H2446     1.0  0.77387  0.99453  0.40291  1.0000
  H   H2447     1.0  0.94349  0.10702  0.23865  1.0000
  C   C3031     1.0  0.77361  0.32453  0.42042  1.0000
  C   C3032     1.0  0.50022  0.10176  0.23689  1.0000
  H   H2448     1.0  0.49706  0.14726  0.47361  1.0000
  C   C3033     1.0  0.50995  0.99411  0.31895  1.0000
  C   C3034     1.0  0.52236  0.14334  0.48654  1.0000
  Fe  Fe196     1.0  0.64664  0.05963  0.62434  1.0000
  S   S401      1.0  0.61320  0.07366  0.62812  1.0000
  S   S402      1.0  0.66906  0.06257  0.63950  1.0000
  Fe  Fe197     1.0  0.61974  0.08009  0.59649  1.0000
  S   S403      1.0  0.60419  0.11042  0.58160  1.0000
  S   S404      1.0  0.65362  0.06846  0.59271  1.0000
  H   H2449     1.0  0.63319  0.09568  0.64593  1.0000
  H   H2450     1.0  0.96425  0.12983  0.68825  1.0000
  C   C3035     1.0  0.71320  0.20472  0.52577  1.0000
  C   C3036     1.0  0.51475  0.13520  0.52088  1.0000
  C   C3037     1.0  0.66325  0.09085  0.71452  1.0000
  C   C3038     1.0  0.50210  0.14380  0.48673  1.0000
  C   C3039     1.0  0.84168  0.26701  0.51421  1.0000
  Fe  Fe198     1.0  0.67496  0.29228  0.61172  1.0000
  S   S405      1.0  0.69739  0.31267  0.60267  1.0000
  S   S406      1.0  0.68874  0.25903  0.61298  1.0000
  H   H2451     1.0  0.71755  0.25280  0.50198  1.0000
  H   H2452     1.0  0.56055  0.05357  0.55633  1.0000
  H   H2453     1.0  0.85542  0.00814  0.67851  1.0000
  C   C3040     1.0  0.58109  0.00923  0.70544  1.0000
  S   S407      1.0  0.65359  0.31323  0.59373  1.0000
  Fe  Fe199     1.0  0.81490  0.22156  0.58686  1.0000
  S   S408      1.0  0.79464  0.20575  0.61198  1.0000
  S   S409      1.0  0.80442  0.23026  0.55961  1.0000
  Fe  Fe200     1.0  0.84081  0.22714  0.61057  1.0000
  S   S410      1.0  0.82243  0.21206  0.63755  1.0000
  S   S411      1.0  0.86737  0.23762  0.61337  1.0000
  Fe  Fe201     1.0  0.82353  0.18915  0.62144  1.0000
  S   S412      1.0  0.82646  0.15651  0.63737  1.0000
  Fe  Fe202     1.0  0.79534  0.23003  0.62570  1.0000
  S   S413      1.0  0.76807  0.24678  0.64338  1.0000
  S   S414      1.0  0.84413  0.20273  0.59500  1.0000
  S   S415      1.0  0.81351  0.24727  0.59997  1.0000
  Fe  Fe203     1.0  0.93110  0.04957  0.68149  1.0000
  S   S416      1.0  0.94878  0.05700  0.65172  1.0000
  S   S417      1.0  0.92047  0.01989  0.69494  1.0000
  Fe  Fe204     1.0  0.93249  0.08971  0.68942  1.0000
  S   S418      1.0  0.95013  0.10051  0.66025  1.0000
  S   S419      1.0  0.92475  0.10958  0.71040  1.0000
  Fe  Fe205     1.0  0.92871  0.08824  0.65104  1.0000
  S   S420      1.0  0.91710  0.10579  0.62496  1.0000
  H   H2454     1.0  0.78582  0.23772  0.68582  1.0000
  S   S421      1.0  0.90933  0.08002  0.68006  1.0000
  S   S422      1.0  0.95251  0.05846  0.69378  1.0000
  H   H2455     1.0  0.73584  0.21729  0.50283  1.0000
  C   C3041     1.0  0.49618  0.08016  0.56626  1.0000
  H   H2456     1.0  0.62790  0.03163  0.56571  1.0000
  C   C3042     1.0  0.51930  0.05845  0.67892  1.0000
  H   H2457     1.0  0.55462  0.01015  0.67341  1.0000
  C   C3043     1.0  0.69225  0.24542  0.52488  1.0000
  S   S423      1.0  0.58270  0.02903  0.64242  1.0000
  H   H2458     1.0  0.90972  0.07237  0.72287  1.0000
  C   C3044     1.0  0.81820  0.21836  0.54091  1.0000
  C   C3045     1.0  0.83674  0.20442  0.54182  1.0000
  C   C3046     1.0  0.84764  0.19578  0.52622  1.0000
  C   C3047     1.0  0.84001  0.20110  0.50976  1.0000
  C   C3048     1.0  0.82135  0.21486  0.50902  1.0000
  C   C3049     1.0  0.81047  0.22343  0.52458  1.0000
  H   H2459     1.0  0.84277  0.20045  0.55439  1.0000
  H   H2460     1.0  0.86207  0.18511  0.52682  1.0000
  H   H2461     1.0  0.85263  0.07169  0.70450  1.0000
  H   H2462     1.0  0.79610  0.23416  0.52391  1.0000
  C   C3050     1.0  0.85201  0.14339  0.63437  1.0000
  C   C3051     1.0  0.85812  0.12708  0.64866  1.0000
  C   C3052     1.0  0.87812  0.11547  0.64594  1.0000
  C   C3053     1.0  0.89206  0.12017  0.62889  1.0000
  C   C3054     1.0  0.88595  0.13657  0.61464  1.0000
  C   C3055     1.0  0.86602  0.14832  0.61746  1.0000
  H   H2463     1.0  0.84738  0.12345  0.66181  1.0000
  H   H2464     1.0  0.88256  0.10267  0.65687  1.0000
  H   H2465     1.0  0.89668  0.14025  0.60141  1.0000
  H   H2466     1.0  0.86139  0.16069  0.60625  1.0000
  C   C3056     1.0  0.70975  0.25410  0.62345  1.0000
  C   C3057     1.0  0.71171  0.26825  0.63255  1.0000
  C   C3058     1.0  0.72961  0.26586  0.63868  1.0000
  C   C3059     1.0  0.74550  0.24904  0.63614  1.0000
  C   C3060     1.0  0.74305  0.23419  0.62814  1.0000
  C   C3061     1.0  0.72515  0.23665  0.62192  1.0000
  H   H2467     1.0  0.69960  0.28130  0.63466  1.0000
  H   H2468     1.0  0.73140  0.27743  0.64479  1.0000
  H   H2469     1.0  0.75483  0.22077  0.62674  1.0000
  H   H2470     1.0  0.72371  0.22543  0.61526  1.0000
  H   H2471     1.0  0.57234  0.18778  0.67801  1.0000
  H   H2472     1.0  0.51509  0.03564  0.60352  1.0000
  Fe  Fe206     1.0  0.96852  0.06851  0.66371  1.0000
  C   C3062     1.0  0.87919  0.17807  0.70904  1.0000
  C   C3063     1.0  0.84899  0.29401  0.63882  1.0000
  C   C3064     1.0  0.83673  0.29122  0.62822  1.0000
  C   C3065     1.0  0.84188  0.27350  0.62099  1.0000
  C   C3066     1.0  0.85969  0.25895  0.62371  1.0000
  C   C3067     1.0  0.87186  0.26171  0.63438  1.0000
  C   C3068     1.0  0.86639  0.27908  0.64211  1.0000
  H   H2473     1.0  0.82320  0.30262  0.62570  1.0000
  H   H2474     1.0  0.83243  0.27142  0.61279  1.0000
  H   H2475     1.0  0.88555  0.25042  0.63667  1.0000
  H   H2476     1.0  0.87580  0.28108  0.65044  1.0000
  C   C3069     1.0  0.56250  0.13534  0.53197  1.0000
  H   H2477     1.0  0.71262  0.31837  0.53523  1.0000
  S   S424      1.0  0.61361  0.05072  0.59502  1.0000
  H   H2478     1.0  0.91978  0.03164  0.65508  1.0000
  H   H2479     1.0  0.65360  0.28287  0.71816  1.0000
  C   C3070     1.0  0.55447  0.07239  0.67602  1.0000
  S   S425      1.0  0.64251  0.02835  0.62561  1.0000
  H   H2480     1.0  0.54439  0.13885  0.50305  1.0000
  Fe  Fe207     1.0  0.63077  0.14715  0.69665  1.0000
  C   C3071     1.0  0.82280  0.15452  0.68862  1.0000
  C   C3072     1.0  0.99050  0.01195  0.71824  1.0000
  H   H2481     1.0  0.51765  0.07945  0.65209  1.0000
  C   C3073     1.0  0.86610  0.05272  0.68423  1.0000
  C   C3074     1.0  0.57798  0.11200  0.59134  1.0000
  C   C3075     1.0  0.56541  0.13012  0.59593  1.0000
  H   H2482     1.0  0.63825  0.18609  0.65879  1.0000
  H   H2483     1.0  0.86438  0.00635  0.70819  1.0000
  C   C3076     1.0  0.75226  0.31405  0.72915  1.0000
  C   C3077     1.0  0.56989  0.09453  0.59576  1.0000
  H   H2484     1.0  0.57163  0.14364  0.59274  1.0000
  C   C3078     1.0  0.59166  0.10923  0.53975  1.0000
  C   C3079     1.0  0.52420  0.03828  0.64465  1.0000
  H   H2485     1.0  0.57940  0.08065  0.59213  1.0000
  C   C3080     1.0  0.66427  0.08408  0.64925  1.0000
  C   C3081     1.0  0.68001  0.08725  0.65557  1.0000
  C   C3082     1.0  0.67723  0.10439  0.66296  1.0000
  C   C3083     1.0  0.65851  0.11825  0.66467  1.0000
  C   C3084     1.0  0.64247  0.11490  0.65882  1.0000
  C   C3085     1.0  0.64545  0.09798  0.65080  1.0000
  C   C3086     1.0  0.68374  0.22932  0.53751  1.0000
  H   H2486     1.0  0.58576  0.01921  0.60429  1.0000
  H   H2487     1.0  0.62798  0.12562  0.65996  1.0000
  C   C3087     1.0  0.64124  0.28941  0.54417  1.0000
  C   C3088     1.0  0.74932  0.26575  0.51775  1.0000
  C   C3089     1.0  0.75686  0.27913  0.52356  1.0000
  C   C3090     1.0  0.77554  0.22765  0.69391  1.0000
  C   C3091     1.0  0.69495  0.28909  0.51633  1.0000
  P   P98       1.0  0.78461  0.30317  0.52008  1.0000
  C   C3092     1.0  0.55754  0.18668  0.67696  1.0000
  C   C3093     1.0  0.77318  0.30384  0.54461  1.0000
  H   H2488     1.0  0.63264  0.08591  0.72465  1.0000
  C   C3094     1.0  0.49702  0.16790  0.54804  1.0000
  C   C3095     1.0  0.75529  0.30591  0.58245  1.0000
  C   C3096     1.0  0.77415  0.29285  0.57789  1.0000
  C   C3097     1.0  0.78311  0.29177  0.55905  1.0000
  C   C3098     1.0  0.72192  0.31592  0.50613  1.0000
  C   C3099     1.0  0.50917  0.11108  0.55968  1.0000
  C   C3100     1.0  0.82468  0.30884  0.50597  1.0000
  H   H2489     1.0  0.81766  0.15096  0.67783  1.0000
  C   C3101     1.0  0.87816  0.01053  0.73568  1.0000
  H   H2490     1.0  0.55776  0.02154  0.54982  1.0000
  H   H2491     1.0  0.76776  0.28508  0.72145  1.0000
  C   C3102     1.0  0.84561  0.30174  0.49979  1.0000
  H   H2492     1.0  0.89020  0.00443  0.72488  1.0000
  C   C3103     1.0  0.81203  0.29498  0.51604  1.0000
  C   C3104     1.0  0.82080  0.27410  0.52060  1.0000
  H   H2493     1.0  0.73481  0.26180  0.52534  1.0000
  H   H2494     1.0  0.74800  0.28530  0.53567  1.0000
  S   S426      1.0  0.65660  0.14068  0.67209  1.0000
  C   C3105     1.0  0.59896  0.09397  0.68963  1.0000
  Fe  Fe208     1.0  0.50292  0.17854  0.64098  1.0000
  H   H2495     1.0  0.78191  0.28369  0.58900  1.0000
  H   H2496     1.0  0.79778  0.28161  0.55587  1.0000
  C   C3106     1.0  0.82431  0.09807  0.59238  1.0000
  H   H2497     1.0  0.57414  0.05223  0.58388  1.0000
  H   H2498     1.0  0.87668  0.03680  0.66166  1.0000
  C   C3107     1.0  0.61866  0.20180  0.61243  1.0000
  H   H2499     1.0  0.72128  0.18905  0.52594  1.0000
  C   C3108     1.0  0.70049  0.01360  0.61439  1.0000
  C   C3109     1.0  0.55794  0.10139  0.54934  1.0000
  H   H2500     1.0  0.50381  0.12436  0.58387  1.0000
  H   H2501     1.0  0.81128  0.26320  0.52825  1.0000
  C   C3110     1.0  0.59439  0.19228  0.56522  1.0000
  C   C3111     1.0  0.57311  0.19677  0.57121  1.0000
  C   C3112     1.0  0.56406  0.19123  0.59032  1.0000
  C   C3113     1.0  0.57619  0.18093  0.60341  1.0000
  C   C3114     1.0  0.59755  0.17582  0.59747  1.0000
  C   C3115     1.0  0.60660  0.18205  0.57832  1.0000
  P   P99       1.0  0.61302  0.16283  0.61470  1.0000
  C   C3116     1.0  0.61956  0.18167  0.62315  1.0000
  C   C3117     1.0  0.59773  0.14649  0.63255  1.0000
  C   C3118     1.0  0.58714  0.15169  0.64985  1.0000
  C   C3119     1.0  0.57241  0.14093  0.66186  1.0000
  C   C3120     1.0  0.56792  0.12524  0.65655  1.0000
  C   C3121     1.0  0.57889  0.11955  0.63968  1.0000
  C   C3122     1.0  0.59378  0.13002  0.62780  1.0000
  C   C3123     1.0  0.62647  0.17626  0.64000  1.0000
  C   C3124     1.0  0.59751  0.02431  0.67369  1.0000
  C   C3125     1.0  0.72373  0.99292  0.59285  1.0000
  C   C3126     1.0  0.74873  0.29645  0.68631  1.0000
  C   C3127     1.0  0.89843  0.16474  0.70804  1.0000
  C   C3128     1.0  0.63592  0.14586  0.60518  1.0000
  C   C3129     1.0  0.65277  0.13959  0.61376  1.0000
  C   C3130     1.0  0.66946  0.12462  0.60786  1.0000
  C   C3131     1.0  0.66956  0.11587  0.59326  1.0000
  C   C3132     1.0  0.65304  0.12224  0.58444  1.0000
  C   C3133     1.0  0.63627  0.13707  0.59043  1.0000
  H   H2502     1.0  0.60138  0.19673  0.55042  1.0000
  H   H2503     1.0  0.56362  0.20465  0.56110  1.0000
  C   C3134     1.0  0.71102  0.31128  0.52477  1.0000
  H   H2504     1.0  0.56873  0.17698  0.61816  1.0000
  H   H2505     1.0  0.62304  0.17892  0.57352  1.0000
  H   H2506     1.0  0.58947  0.16456  0.65373  1.0000
  H   H2507     1.0  0.56391  0.14519  0.67503  1.0000
  H   H2508     1.0  0.55570  0.11776  0.66537  1.0000
  H   H2509     1.0  0.57545  0.10753  0.63531  1.0000
  H   H2510     1.0  0.60137  0.12586  0.61444  1.0000
  H   H2511     1.0  0.62709  0.16099  0.64865  1.0000
  H   H2512     1.0  0.90972  0.01521  0.63482  1.0000
  H   H2513     1.0  0.74109  0.00977  0.56785  1.0000
  C   C3135     1.0  0.62660  0.01215  0.54866  1.0000
  H   H2514     1.0  0.61322  0.20657  0.59947  1.0000
  H   H2515     1.0  0.65279  0.14544  0.62559  1.0000
  H   H2516     1.0  0.68183  0.11907  0.61527  1.0000
  H   H2517     1.0  0.68208  0.10366  0.58923  1.0000
  H   H2518     1.0  0.65270  0.11504  0.57353  1.0000
  H   H2519     1.0  0.62321  0.14089  0.58406  1.0000
  C   C3136     1.0  0.82263  0.04278  0.64245  1.0000
  C   C3137     1.0  0.65526  0.00833  0.56269  1.0000
  C   C3138     1.0  0.72151  0.22062  0.51286  1.0000
  C   C3139     1.0  0.70222  0.25428  0.71309  1.0000
  C   C3140     1.0  0.63578  0.01855  0.55978  1.0000
  H   H2520     1.0  0.56142  0.20136  0.64731  1.0000
  H   H2521     1.0  0.66874  0.23230  0.54661  1.0000
  C   C3141     1.0  0.66926  0.27730  0.71142  1.0000
  C   C3142     1.0  0.98391  0.10731  0.70491  1.0000
  C   C3143     1.0  0.66508  0.26541  0.56203  1.0000
  C   C3144     1.0  0.65153  0.26903  0.57885  1.0000
  C   C3145     1.0  0.63281  0.28273  0.57836  1.0000
  C   C3146     1.0  0.82881  0.11703  0.59039  1.0000
  C   C3147     1.0  0.84522  0.00402  0.63795  1.0000
  H   H2522     1.0  0.82295  0.13015  0.58025  1.0000
  H   H2523     1.0  0.67593  0.25562  0.73649  1.0000
  C   C3148     1.0  0.81410  0.14800  0.70768  1.0000
  C   C3149     1.0  0.65464  0.01731  0.67486  1.0000
  H   H2524     1.0  0.94748  0.99305  0.62926  1.0000
  H   H2525     1.0  0.67854  0.03610  0.70537  1.0000
  C   C3150     1.0  0.63273  0.19055  0.64584  1.0000
  C   C3151     1.0  0.70658  0.03114  0.60239  1.0000
  C   C3152     1.0  0.76034  0.25774  0.50199  1.0000
  H   H2526     1.0  0.68169  0.11500  0.73029  1.0000
  C   C3153     1.0  0.56633  0.01246  0.67894  1.0000
  H   H2527     1.0  0.63716  0.29789  0.53092  1.0000
  C   C3154     1.0  0.56562  0.00656  0.69842  1.0000
  C   C3155     1.0  0.53265  0.19178  0.65814  1.0000
  C   C3156     1.0  0.57566  0.07639  0.71475  1.0000
  H   H2528     1.0  0.66320  0.30908  0.49763  1.0000
  H   H2529     1.0  0.67967  0.25510  0.56273  1.0000
  H   H2530     1.0  0.65580  0.26161  0.59228  1.0000
  C   C3157     1.0  0.53700  0.11280  0.60993  1.0000
  C   C3158     1.0  0.88302  0.31142  0.53325  1.0000
  C   C3159     1.0  0.54498  0.13041  0.60558  1.0000
  C   C3160     1.0  0.49966  0.02316  0.69569  1.0000
  H   H2531     1.0  0.53548  0.14419  0.60973  1.0000
  C   C3161     1.0  0.81268  0.02666  0.64610  1.0000
  H   H2532     1.0  0.81531  0.21890  0.49647  1.0000
  H   H2533     1.0  0.64148  0.23296  0.66986  1.0000
  S   S427      1.0  0.58147  0.00075  0.72943  1.0000
  H   H2534     1.0  0.80108  0.30742  0.65598  1.0000
  H   H2535     1.0  0.53700  0.03745  0.65055  1.0000
  C   C3162     1.0  0.82397  0.00732  0.64369  1.0000
  C   C3163     1.0  0.62467  0.21613  0.61844  1.0000
  H   H2536     1.0  0.54837  0.09149  0.64945  1.0000
  H   H2537     1.0  0.64270  0.04788  0.67877  1.0000
  C   C3164     1.0  0.57316  0.03827  0.58084  1.0000
  C   C3165     1.0  0.74214  0.22308  0.71315  1.0000
  H   H2538     1.0  0.87596  0.04172  0.69293  1.0000
  C   C3166     1.0  0.51229  0.00504  0.69099  1.0000
  C   C3167     1.0  0.82076  0.15269  0.72152  1.0000
  C   C3168     1.0  0.71532  0.15564  0.71274  1.0000
  C   C3169     1.0  0.70649  0.15149  0.69992  1.0000
  C   C3170     1.0  0.69444  0.13666  0.70631  1.0000
  P   P100      1.0  0.70935  0.16606  0.67583  1.0000
  C   C3171     1.0  0.68741  0.18669  0.67333  1.0000
  C   C3172     1.0  0.73180  0.17680  0.67008  1.0000
  C   C3173     1.0  0.75107  0.16610  0.66229  1.0000
  C   C3174     1.0  0.76825  0.17470  0.65770  1.0000
  C   C3175     1.0  0.76639  0.19385  0.66118  1.0000
  C   C3176     1.0  0.74738  0.20430  0.66946  1.0000
  C   C3177     1.0  0.73017  0.19584  0.67395  1.0000
  C   C3178     1.0  0.66877  0.18606  0.68647  1.0000
  C   C3179     1.0  0.65228  0.20265  0.68507  1.0000
  C   C3180     1.0  0.65422  0.21999  0.67065  1.0000
  C   C3181     1.0  0.67254  0.22057  0.65728  1.0000
  C   C3182     1.0  0.68905  0.20394  0.65845  1.0000
  C   C3183     1.0  0.71265  0.14936  0.66017  1.0000
  C   C3184     1.0  0.72496  0.12965  0.66328  1.0000
  C   C3185     1.0  0.72815  0.11689  0.65086  1.0000
  C   C3186     1.0  0.71872  0.12353  0.63550  1.0000
  C   C3187     1.0  0.70613  0.14294  0.63254  1.0000
  C   C3188     1.0  0.70317  0.15587  0.64474  1.0000
  H   H2539     1.0  0.68857  0.29557  0.54416  1.0000
  H   H2540     1.0  0.72425  0.16732  0.70839  1.0000
  H   H2541     1.0  0.68697  0.13364  0.69680  1.0000
  H   H2542     1.0  0.75299  0.15118  0.65970  1.0000
  H   H2543     1.0  0.78303  0.16665  0.65125  1.0000
  H   H2544     1.0  0.77962  0.20071  0.65733  1.0000
  H   H2545     1.0  0.74596  0.21917  0.67215  1.0000
  H   H2546     1.0  0.71562  0.20429  0.68035  1.0000
  H   H2547     1.0  0.66688  0.17294  0.69790  1.0000
  H   H2548     1.0  0.54758  0.19494  0.59516  1.0000
  C   C3189     1.0  0.52997  0.05116  0.69354  1.0000
  H   H2549     1.0  0.67399  0.23405  0.64616  1.0000
  H   H2550     1.0  0.70319  0.20478  0.64798  1.0000
  H   H2551     1.0  0.73210  0.12417  0.67529  1.0000
  H   H2552     1.0  0.73752  0.10165  0.65340  1.0000
  H   H2553     1.0  0.72067  0.11341  0.62622  1.0000
  H   H2554     1.0  0.69827  0.14780  0.62104  1.0000
  H   H2555     1.0  0.69310  0.17070  0.64231  1.0000
  H   H2556     1.0  0.80225  0.13927  0.71169  1.0000
  C   C3190     1.0  0.89204  0.30965  0.60373  1.0000
  H   H2557     1.0  0.50077  0.11201  0.70094  1.0000
  S   S428      1.0  0.61897  0.20246  0.73234  1.0000
  C   C3191     1.0  0.84540  0.17003  0.69720  1.0000
  C   C3192     1.0  0.83837  0.16547  0.68337  1.0000
  P   P101      1.0  0.86550  0.18433  0.69025  1.0000
  C   C3193     1.0  0.85430  0.21137  0.68552  1.0000
  C   C3194     1.0  0.86300  0.22542  0.68929  1.0000
  C   C3195     1.0  0.85433  0.24632  0.68540  1.0000
  C   C3196     1.0  0.83735  0.25339  0.67717  1.0000
  C   C3197     1.0  0.82921  0.23962  0.67257  1.0000
  C   C3198     1.0  0.83745  0.21867  0.67698  1.0000
  C   C3199     1.0  0.88198  0.17731  0.66888  1.0000
  C   C3200     1.0  0.88552  0.19218  0.65211  1.0000
  C   C3201     1.0  0.89725  0.18638  0.63541  1.0000
  C   C3202     1.0  0.90573  0.16579  0.63534  1.0000
  C   C3203     1.0  0.90235  0.15095  0.65195  1.0000
  C   C3204     1.0  0.89020  0.15660  0.66855  1.0000
  H   H2558     1.0  0.70475  0.05646  0.69818  1.0000
  H   H2559     1.0  0.66272  0.24539  0.50695  1.0000
  C   C3205     1.0  0.82964  0.31082  0.57714  1.0000
  H   H2560     1.0  0.84496  0.17024  0.66846  1.0000
  H   H2561     1.0  0.87665  0.22037  0.69495  1.0000
  H   H2562     1.0  0.86112  0.25718  0.68819  1.0000
  H   H2563     1.0  0.83102  0.26965  0.67367  1.0000
  H   H2564     1.0  0.81690  0.24529  0.66507  1.0000
  H   H2565     1.0  0.83107  0.20824  0.67322  1.0000
  H   H2566     1.0  0.87900  0.20825  0.65164  1.0000
  H   H2567     1.0  0.89953  0.19791  0.62245  1.0000
  H   H2568     1.0  0.91475  0.16123  0.62240  1.0000
  H   H2569     1.0  0.90894  0.13498  0.65187  1.0000
  C   C3206     1.0  0.91551  0.01699  0.66083  1.0000
  C   C3207     1.0  0.77894  0.18287  0.51389  1.0000
  C   C3208     1.0  0.90969  0.00769  0.64938  1.0000
  C   C3209     1.0  0.69424  0.20907  0.53799  1.0000
  H   H2570     1.0  0.60976  0.03131  0.66426  1.0000
  C   C3210     1.0  0.50172  0.18841  0.56711  1.0000
  C   C3211     1.0  0.85402  0.28081  0.50348  1.0000
  H   H2571     1.0  0.65692  0.02202  0.65966  1.0000
  C   C3212     1.0  0.65982  0.99671  0.68346  1.0000
  C   C3213     1.0  0.54957  0.12146  0.54091  1.0000
  H   H2572     1.0  0.89698  0.31194  0.61525  1.0000
  C   C3214     1.0  0.69742  0.29813  0.52983  1.0000
  H   H2573     1.0  0.63797  0.20218  0.69527  1.0000
  H   H2574     1.0  0.54371  0.03375  0.61806  1.0000
  H   H2575     1.0  0.79622  0.02912  0.65084  1.0000
  C   C3215     1.0  0.58216  0.02150  0.66663  1.0000
  H   H2576     1.0  0.61155  0.02015  0.54644  1.0000
  H   H2577     1.0  0.49639  0.20161  0.57345  1.0000
  C   C3216     1.0  0.70944  0.26223  0.69383  1.0000
  C   C3217     1.0  0.69677  0.27798  0.68366  1.0000
  C   C3218     1.0  0.67670  0.28541  0.69239  1.0000
  C   C3219     1.0  0.87043  0.18653  0.72509  1.0000
  C   C3220     1.0  0.70496  0.32000  0.73115  1.0000
  C   C3221     1.0  0.51961  0.18285  0.67410  1.0000
  H   H2578     1.0  0.84103  0.16725  0.72730  1.0000
  H   H2579     1.0  0.84505  0.13359  0.59941  1.0000
  H   H2580     1.0  0.68955  0.10683  0.66758  1.0000
  P   P102      1.0  0.67792  0.27147  0.52278  1.0000
  C   C3222     1.0  0.91471  0.09632  0.73295  1.0000
  C   C3223     1.0  0.83336  0.32222  0.54332  1.0000
  H   H2581     1.0  0.72460  0.25623  0.68644  1.0000
  H   H2582     1.0  0.70234  0.28439  0.66889  1.0000
  H   H2583     1.0  0.66695  0.29740  0.68428  1.0000
  C   C3224     1.0  0.69138  0.12610  0.72521  1.0000
  H   H2584     1.0  0.84813  0.25074  0.51708  1.0000
  C   C3225     1.0  0.61547  0.07936  0.69541  1.0000
  C   C3226     1.0  0.52569  0.17531  0.69126  1.0000
  S   S429      1.0  0.60840  0.17716  0.69687  1.0000
  S   S430      1.0  0.84223  0.31532  0.64911  1.0000
  C   C3227     1.0  0.68360  0.08261  0.70719  1.0000
  C   C3228     1.0  0.56993  0.00218  0.57355  1.0000
  S   S431      1.0  0.63964  0.14652  0.72323  1.0000
  C   C3229     1.0  0.90886  0.04196  0.59409  1.0000
  C   C3230     1.0  0.92374  0.04790  0.59938  1.0000
  C   C3231     1.0  0.91817  0.05801  0.61421  1.0000
  C   C3232     1.0  0.89784  0.06180  0.62407  1.0000
  C   C3233     1.0  0.88292  0.05516  0.61934  1.0000
  C   C3234     1.0  0.88848  0.04586  0.60384  1.0000
  P   P103      1.0  0.85648  0.06072  0.63150  1.0000
  C   C3235     1.0  0.84396  0.03968  0.63622  1.0000
  C   C3236     1.0  0.85486  0.06464  0.65457  1.0000
  C   C3237     1.0  0.86676  0.05011  0.66638  1.0000
  H   H2585     1.0  0.77781  0.21506  0.50456  1.0000
  C   C3238     1.0  0.85298  0.06959  0.69071  1.0000
  C   C3239     1.0  0.84043  0.08375  0.67935  1.0000
  C   C3240     1.0  0.84139  0.08136  0.66128  1.0000
  H   H2586     1.0  0.68741  0.19675  0.54752  1.0000
  H   H2587     1.0  0.63634  0.22163  0.63978  1.0000
  C   C3241     1.0  0.63703  0.99572  0.54010  1.0000
  H   H2588     1.0  0.99019  0.15118  0.67224  1.0000
  C   C3242     1.0  0.85521  0.02004  0.63452  1.0000
  C   C3243     1.0  0.84464  0.08291  0.61623  1.0000
  C   C3244     1.0  0.83230  0.08102  0.60514  1.0000
  H   H2589     1.0  0.70816  0.00014  0.52772  1.0000
  H   H2590     1.0  0.59330  0.14010  0.52493  1.0000
  H   H2591     1.0  0.51263  0.09342  0.53905  1.0000
  P   P104      1.0  0.63385  0.04557  0.71940  1.0000
  H   H2592     1.0  0.91312  0.03441  0.58240  1.0000
  H   H2593     1.0  0.93953  0.04495  0.59184  1.0000
  H   H2594     1.0  0.92955  0.06321  0.61797  1.0000
  H   H2595     1.0  0.89389  0.07008  0.63523  1.0000
  H   H2596     1.0  0.87708  0.04149  0.59936  1.0000
  H   H2597     1.0  0.51583  0.16762  0.70333  1.0000
  C   C3245     1.0  0.75385  0.31633  0.54942  1.0000
  H   H2598     1.0  0.85964  0.10350  0.62163  1.0000
  H   H2599     1.0  0.83022  0.09680  0.68440  1.0000
  H   H2600     1.0  0.83174  0.09262  0.65261  1.0000
  H   H2601     1.0  0.63081  0.08087  0.68788  1.0000
  H   H2602     1.0  0.62371  0.23167  0.61022  1.0000
  C   C3246     1.0  0.56533  0.03903  0.56545  1.0000
  Fe  Fe209     1.0  0.64684  0.03824  0.59418  1.0000
  H   H2603     1.0  0.87171  0.01690  0.63077  1.0000
  H   H2604     1.0  0.82926  0.06635  0.60590  1.0000
  H   H2605     1.0  0.55626  0.15105  0.52591  1.0000
  H   H2606     1.0  0.87006  0.27532  0.49779  1.0000
  S   S432      1.0  0.50848  0.14583  0.65692  1.0000
  C   C3247     1.0  0.72131  0.02966  0.58570  1.0000
  H   H2607     1.0  0.97705  0.02221  0.72400  1.0000
  C   C3248     1.0  0.71109  0.24085  0.51243  1.0000
  H   H2608     1.0  0.81634  0.99476  0.64652  1.0000
  H   H2609     1.0  0.56020  0.07539  0.72222  1.0000
  Fe  Fe210     1.0  0.60960  0.04326  0.62633  1.0000
  H   H2610     1.0  0.81496  0.09651  0.58374  1.0000
  H   H2611     1.0  0.56872  0.07684  0.67432  1.0000
  C   C3249     1.0  0.75913  0.28626  0.67171  1.0000
  C   C3250     1.0  0.59706  0.01795  0.69307  1.0000
  H   H2612     1.0  0.75253  0.27546  0.66863  1.0000
  H   H2613     1.0  0.98230  0.05777  0.71967  1.0000
  H   H2614     1.0  0.56629  0.10446  0.69562  1.0000
  H   H2615     1.0  0.90592  0.15802  0.69596  1.0000
  C   C3251     1.0  0.54489  0.17656  0.69254  1.0000
  H   H2616     1.0  0.99438  0.03223  0.69079  1.0000
  S   S433      1.0  0.51173  0.11248  0.62206  1.0000
  H   H2617     1.0  0.69372  0.21703  0.71092  1.0000
  C   C3252     1.0  0.54757  0.05809  0.69202  1.0000
  C   C3253     1.0  0.52547  0.15646  0.56361  1.0000
  H   H2618     1.0  0.55638  0.05160  0.70284  1.0000
  C   C3254     1.0  0.57978  0.01946  0.59238  1.0000
  C   C3255     1.0  0.52811  0.03607  0.62610  1.0000
  C   C3256     1.0  0.88682  0.30275  0.51757  1.0000
  P   P105      1.0  0.86872  0.29998  0.55587  1.0000
  C   C3257     1.0  0.87128  0.27330  0.55630  1.0000
  C   C3258     1.0  0.87810  0.30342  0.57462  1.0000
  C   C3259     1.0  0.89023  0.28720  0.58502  1.0000
  C   C3260     1.0  0.89740  0.29042  0.59932  1.0000
  C   C3261     1.0  0.64654  0.03202  0.68581  1.0000
  H   H2619     1.0  0.88800  0.03899  0.72886  1.0000
  S   S434      1.0  0.52615  0.19746  0.63622  1.0000
  C   C3262     1.0  0.85399  0.26531  0.55871  1.0000
  C   C3263     1.0  0.85622  0.24519  0.55736  1.0000
  C   C3264     1.0  0.87563  0.23278  0.55379  1.0000
  C   C3265     1.0  0.89292  0.24057  0.55136  1.0000
  C   C3266     1.0  0.89078  0.26081  0.55242  1.0000
  H   H2620     1.0  0.58536  0.08000  0.55550  1.0000
  C   C3267     1.0  0.57894  0.09530  0.54862  1.0000
  Fe  Fe211     1.0  0.58594  0.15769  0.71381  1.0000
  H   H2621     1.0  0.53692  0.21727  0.72142  1.0000
  H   H2622     1.0  0.50763  0.07631  0.72008  1.0000
  C   C3268     1.0  0.50180  0.11214  0.57871  1.0000
  H   H2623     1.0  0.72579  0.04331  0.57627  1.0000
  H   H2624     1.0  0.54331  0.08131  0.60821  1.0000
  H   H2625     1.0  0.88154  0.28910  0.51889  1.0000
  H   H2626     1.0  0.89378  0.27192  0.58263  1.0000
  H   H2627     1.0  0.90650  0.27777  0.60746  1.0000
  C   C3269     1.0  0.84131  0.11895  0.60116  1.0000
  C   C3270     1.0  0.90845  0.15971  0.72291  1.0000
  H   H2628     1.0  0.69964  0.04589  0.60599  1.0000
  H   H2629     1.0  0.83873  0.27456  0.56132  1.0000
  H   H2630     1.0  0.84283  0.23925  0.55897  1.0000
  H   H2631     1.0  0.87724  0.21715  0.55285  1.0000
  H   H2632     1.0  0.90798  0.23095  0.54855  1.0000
  H   H2633     1.0  0.90432  0.26681  0.55005  1.0000
  C   C3271     1.0  0.67408  0.05130  0.70814  1.0000
  H   H2634     1.0  0.60162  0.10649  0.67768  1.0000
  C   C3272     1.0  0.91504  0.00768  0.67983  1.0000
  C   C3273     1.0  0.68903  0.06280  0.70406  1.0000
  C   C3274     1.0  0.78170  0.20664  0.69487  1.0000
  C   C3275     1.0  0.84938  0.10193  0.61389  1.0000
  C   C3276     1.0  0.77388  0.16697  0.52906  1.0000
  C   C3277     1.0  0.65357  0.05958  0.71542  1.0000
  C   C3278     1.0  0.77320  0.20294  0.51627  1.0000
  C   C3279     1.0  0.76219  0.20725  0.53378  1.0000
  C   C3280     1.0  0.75675  0.19139  0.54905  1.0000
  C   C3281     1.0  0.76304  0.17117  0.54662  1.0000
  P   P106      1.0  0.74447  0.19632  0.57229  1.0000
  C   C3282     1.0  0.76146  0.18037  0.58732  1.0000
  C   C3283     1.0  0.74173  0.22299  0.57198  1.0000
  C   C3284     1.0  0.75499  0.22936  0.57910  1.0000
  C   C3285     1.0  0.75193  0.24981  0.57984  1.0000
  C   C3286     1.0  0.73526  0.26397  0.57399  1.0000
  C   C3287     1.0  0.72209  0.25785  0.56668  1.0000
  C   C3288     1.0  0.72548  0.23751  0.56535  1.0000
  C   C3289     1.0  0.75405  0.16788  0.60463  1.0000
  C   C3290     1.0  0.76759  0.15497  0.61567  1.0000
  C   C3291     1.0  0.78850  0.15476  0.60975  1.0000
  C   C3292     1.0  0.79597  0.16713  0.59254  1.0000
  C   C3293     1.0  0.78256  0.17973  0.58127  1.0000
  C   C3294     1.0  0.71921  0.19040  0.58109  1.0000
  C   C3295     1.0  0.71373  0.17557  0.57515  1.0000
  C   C3296     1.0  0.69418  0.17118  0.58234  1.0000
  C   C3297     1.0  0.67994  0.18164  0.59539  1.0000
  C   C3298     1.0  0.68533  0.19619  0.60157  1.0000
  C   C3299     1.0  0.70486  0.20046  0.59455  1.0000
  H   H2635     1.0  0.77890  0.15136  0.52727  1.0000
  H   H2636     1.0  0.75860  0.22283  0.53541  1.0000
  H   H2637     1.0  0.76017  0.15856  0.55844  1.0000
  H   H2638     1.0  0.76757  0.21867  0.58440  1.0000
  H   H2639     1.0  0.76218  0.25444  0.58558  1.0000
  H   H2640     1.0  0.73234  0.27959  0.57544  1.0000
  H   H2641     1.0  0.70901  0.26883  0.56253  1.0000
  H   H2642     1.0  0.71513  0.23298  0.55968  1.0000
  H   H2643     1.0  0.73791  0.16800  0.60962  1.0000
  H   H2644     1.0  0.76185  0.14516  0.62884  1.0000
  H   H2645     1.0  0.79896  0.14518  0.61853  1.0000
  H   H2646     1.0  0.81214  0.16729  0.58806  1.0000
  H   H2647     1.0  0.78864  0.18933  0.56799  1.0000
  H   H2648     1.0  0.72432  0.16748  0.56490  1.0000
  H   H2649     1.0  0.69000  0.15974  0.57771  1.0000
  H   H2650     1.0  0.66475  0.17842  0.60084  1.0000
  H   H2651     1.0  0.67440  0.20420  0.61183  1.0000
  H   H2652     1.0  0.70862  0.21179  0.59962  1.0000
  C   C3300     1.0  0.87275  0.32268  0.57921  1.0000
  H   H2653     1.0  0.78590  0.28237  0.64935  1.0000
  C   C3301     1.0  0.64361  0.02623  0.70555  1.0000
  C   C3302     1.0  0.55135  0.19438  0.65966  1.0000
  H   H2654     1.0  0.74849  0.30688  0.59705  1.0000
  H   H2655     1.0  0.65884  0.10628  0.71666  1.0000
  H   H2656     1.0  0.88726  0.14476  0.68113  1.0000
  H   H2657     1.0  0.97215  0.01916  0.61275  1.0000
  C   C3303     1.0  0.63175  0.21050  0.63511  1.0000
  H   H2658     1.0  0.85521  0.31246  0.49156  1.0000
  C   C3304     1.0  0.56371  0.02099  0.56182  1.0000
  C   C3305     1.0  0.98661  0.01845  0.61581  1.0000
  C   C3306     1.0  0.97601  0.06083  0.73368  1.0000
  C   C3307     1.0  0.64957  0.00555  0.71407  1.0000
  C   C3308     1.0  0.99248  0.03674  0.61394  1.0000
  H   H2659     1.0  0.81374  0.05768  0.64446  1.0000
  C   C3309     1.0  0.54941  0.09496  0.60478  1.0000
  S   S435      1.0  0.65831  0.30368  0.63799  1.0000
  C   C3310     1.0  0.52869  0.13908  0.50355  1.0000
  S   S436      1.0  0.60753  0.12776  0.71100  1.0000
  C   C3311     1.0  0.77797  0.29019  0.66076  1.0000
  C   C3312     1.0  0.64833  0.07933  0.71883  1.0000
  C   C3313     1.0  0.77547  0.28466  0.51359  1.0000
  C   C3314     1.0  0.54326  0.08045  0.66194  1.0000
  C   C3315     1.0  0.75692  0.31114  0.68973  1.0000
  H   H2660     1.0  0.99349  0.10291  0.65236  1.0000
  S   S437      1.0  0.66716  0.01593  0.57666  1.0000
  H   H2661     1.0  0.75177  0.25196  0.70309  1.0000
  C   C3316     1.0  0.68197  0.26185  0.72175  1.0000
  H   H2662     1.0  0.69453  0.07651  0.65454  1.0000
  P   P107      1.0  0.71778  0.23361  0.72678  1.0000
  H   H2663     1.0  0.79936  0.31900  0.59391  1.0000
  C   C3317     1.0  0.57908  0.09276  0.69960  1.0000
  H   H2664     1.0  0.60779  0.10465  0.53989  1.0000
  H   H2665     1.0  0.81409  0.14757  0.73631  1.0000
  C   C3318     1.0  0.84208  0.31222  0.55892  1.0000
  H   H2666     1.0  0.73840  0.19163  0.72221  1.0000
  C   C3319     1.0  0.52571  0.07362  0.66346  1.0000
  H   H2667     1.0  0.62248  0.28582  0.59140  1.0000
  C   C3320     1.0  0.72991  0.01063  0.58096  1.0000
  C   C3321     1.0  0.51199  0.03714  0.61799  1.0000
  Fe  Fe212     1.0  0.61519  0.17473  0.72489  1.0000
  H   H2668     1.0  0.54828  0.09061  0.55699  1.0000
  C   C3322     1.0  0.78647  0.30432  0.66443  1.0000
  H   H2669     1.0  0.97224  0.09845  0.71158  1.0000
  H   H2670     1.0  0.77301  0.17750  0.70582  1.0000
  H   H2671     1.0  0.83615  0.30315  0.58930  1.0000
  C   C3323     1.0  0.74513  0.31762  0.56820  1.0000
  C   C3324     1.0  0.90815  0.07836  0.73508  1.0000
  H   H2672     1.0  0.55333  0.99967  0.70795  1.0000
  H   H2673     1.0  0.70869  0.99705  0.56082  1.0000
  C   C3325     1.0  0.58346  0.12923  0.53141  1.0000
  S   S438      1.0  0.55313  0.16327  0.71322  1.0000
  P   P108      1.0  0.49904  0.04708  0.67852  1.0000
  H   H2674     1.0  0.79681  0.20038  0.68746  1.0000
  C   C3326     1.0  0.97918  0.12536  0.69168  1.0000
  C   C3327     1.0  0.65994  0.27539  0.54454  1.0000
  C   C3328     1.0  0.76825  0.19376  0.70519  1.0000
  C   C3329     1.0  0.68471  0.31803  0.73467  1.0000
  C   C3330     1.0  0.62771  0.29299  0.56103  1.0000
  C   C3331     1.0  0.99373  0.13739  0.68275  1.0000
  H   H2675     1.0  0.52140  0.00504  0.67686  1.0000
  C   C3332     1.0  0.83621  0.16380  0.71632  1.0000
  H   H2676     1.0  0.85571  0.19699  0.72617  1.0000
  C   C3333     1.0  0.75601  0.23577  0.70333  1.0000
  C   C3334     1.0  0.78670  0.27611  0.49801  1.0000
  H   H2677     1.0  0.61341  0.30400  0.56064  1.0000
  H   H2678     1.0  0.73421  0.29305  0.69464  1.0000
  H   H2679     1.0  0.52530  0.03960  0.70576  1.0000
  C   C3335     1.0  0.61223  0.06333  0.71119  1.0000
  C   C3336     1.0  0.74850  0.20192  0.71426  1.0000
  C   C3337     1.0  0.50673  0.09470  0.55362  1.0000
  H   H2680     1.0  0.92316  0.14918  0.72202  1.0000
  H   H2681     1.0  0.52760  0.17617  0.58018  1.0000
  H   H2682     1.0  0.68891  0.01490  0.62722  1.0000
  H   H2683     1.0  0.98259  0.05127  0.60956  1.0000
  C   C3338     1.0  0.71231  0.14495  0.73157  1.0000
  C   C3339     1.0  0.89744  0.31169  0.49995  1.0000
  H   H2684     1.0  0.55697  0.10698  0.73440  1.0000
  C   C3340     1.0  0.80881  0.31967  0.57978  1.0000
  C   C3341     1.0  0.52538  0.21133  0.73304  1.0000
  C   C3342     1.0  0.77603  0.31477  0.67881  1.0000
  C   C3343     1.0  0.51450  0.15330  0.55196  1.0000
  C   C3344     1.0  0.65904  0.26106  0.49940  1.0000
  H   H2685     1.0  0.53858  0.14513  0.56744  1.0000
  C   C3345     1.0  0.69310  0.20887  0.72546  1.0000
  H   H2686     1.0  0.60894  0.01995  0.69857  1.0000
  C   C3346     1.0  0.51924  0.17406  0.57094  1.0000
  H   H2687     1.0  0.69508  0.09169  0.70365  1.0000
  C   C3347     1.0  0.57844  0.00125  0.58869  1.0000
  P   P109      1.0  0.52228  0.13011  0.54314  1.0000
  H   H2688     1.0  0.51352  0.99223  0.63937  1.0000
  H   H2689     1.0  0.50499  0.18118  0.67317  1.0000
  C   C3348     1.0  0.59210  0.06160  0.72049  1.0000
  H   H2690     1.0  0.65960  0.32010  0.72229  1.0000
  H   H2691     1.0  0.64833  0.00068  0.72915  1.0000
  C   C3349     1.0  0.76374  0.29395  0.73215  1.0000
  H   H2692     1.0  0.78776  0.17965  0.50036  1.0000
  C   C3350     1.0  0.66430  0.27679  0.50420  1.0000
  C   C3351     1.0  0.50403  0.04223  0.65516  1.0000
  C   C3352     1.0  0.70894  0.99456  0.60965  1.0000
  C   C3353     1.0  0.67521  0.32177  0.71965  1.0000
  H   H2693     1.0  0.52645  0.11027  0.72195  1.0000
  C   C3354     1.0  0.50515  0.22214  0.73569  1.0000
  H   H2694     1.0  0.95594  0.99575  0.73109  1.0000
  H   H2695     1.0  0.92347  0.99635  0.60936  1.0000
  C   C3355     1.0  0.71604  0.32542  0.71252  1.0000
  C   C3356     1.0  0.65926  0.29687  0.49408  1.0000
  H   H2696     1.0  0.58893  0.04920  0.73240  1.0000
  Fe  Fe213     1.0  0.49720  0.14000  0.63430  1.0000
  C   C3357     1.0  0.71945  0.30714  0.49258  1.0000
  C   C3358     1.0  0.70600  0.29384  0.49763  1.0000
  H   H2697     1.0  0.75444  0.24767  0.49719  1.0000
  H   H2698     1.0  0.84262  0.32367  0.52911  1.0000
  C   C3359     1.0  0.52565  0.11893  0.73214  1.0000
  H   H2699     1.0  0.81844  0.32506  0.50234  1.0000
  H   H2700     1.0  0.74553  0.32527  0.53864  1.0000
  C   C3360     1.0  0.85352  0.99508  0.69010  1.0000
  C   C3361     1.0  0.85872  0.99388  0.70704  1.0000
  H   H2701     1.0  0.54161  0.99609  0.61132  1.0000
  H   H2702     1.0  0.67379  0.18986  0.72423  1.0000
  H   H2703     1.0  0.50100  0.23663  0.72621  1.0000
  C   C3362     1.0  0.68199  0.19338  0.73284  1.0000
  C   C3363     1.0  0.77916  0.26263  0.49234  1.0000
  S   S439      1.0  0.85394  0.19044  0.49025  1.0000
  H   H2704     1.0  0.80119  0.28000  0.49006  1.0000
  H   H2705     1.0  0.90005  0.30503  0.48786  1.0000
  Fe  Fe214     1.0  0.67936  0.32552  0.62780  1.0000
  H   H2706     1.0  0.70395  0.28755  0.48685  1.0000
  C   C3364     1.0  0.55445  0.30786  0.86402  1.0000
  H   H2707     1.0  0.58358  0.11777  0.79810  1.0000
  S   S440      1.0  0.55458  0.00416  0.77943  1.0000
  C   C3365     1.0  0.51587  0.18404  0.75957  1.0000
  C   C3366     1.0  0.94817  0.00209  0.89009  1.0000
  H   H2708     1.0  0.54111  0.12881  0.83941  1.0000
  S   S441      1.0  0.61983  0.10230  0.76148  1.0000
  C   C3367     1.0  0.91640  0.00961  0.76620  1.0000
  C   C3368     1.0  0.53952  0.32106  0.91580  1.0000
  C   C3369     1.0  0.75327  0.31597  0.76056  1.0000
  H   H2709     1.0  0.86152  0.19016  0.81546  1.0000
  Fe  Fe215     1.0  0.65648  0.20620  0.81705  1.0000
  S   S442      1.0  0.63614  0.23727  0.81742  1.0000
  S   S443      1.0  0.65062  0.18087  0.80744  1.0000
  Fe  Fe216     1.0  0.68459  0.21246  0.83839  1.0000
  S   S444      1.0  0.66681  0.24388  0.84072  1.0000
  S   S445      1.0  0.70978  0.19798  0.85414  1.0000
  Fe  Fe217     1.0  0.63898  0.23077  0.84748  1.0000
  S   S446      1.0  0.61358  0.23997  0.87134  1.0000
  Fe  Fe218     1.0  0.66569  0.24776  0.81051  1.0000
  S   S447      1.0  0.66961  0.27792  0.79075  1.0000
  S   S448      1.0  0.65684  0.19885  0.84775  1.0000
  S   S449      1.0  0.68605  0.21720  0.80742  1.0000
  Fe  Fe219     1.0  0.82818  0.24720  0.86186  1.0000
  S   S450      1.0  0.79611  0.24286  0.86795  1.0000
  S   S451      1.0  0.83707  0.27573  0.86217  1.0000
  Fe  Fe220     1.0  0.84693  0.20323  0.85837  1.0000
  S   S452      1.0  0.81638  0.19514  0.86408  1.0000
  S   S453      1.0  0.87776  0.18246  0.85196  1.0000
  Fe  Fe221     1.0  0.80813  0.22548  0.84479  1.0000
  S   S454      1.0  0.79187  0.22966  0.82167  1.0000
  Fe  Fe222     1.0  0.80746  0.21313  0.88670  1.0000
  S   S455      1.0  0.78717  0.20331  0.91495  1.0000
  S   S456      1.0  0.83948  0.23221  0.83716  1.0000
  S   S457      1.0  0.83867  0.21888  0.88253  1.0000
  C   C3370     1.0  0.94504  0.12622  0.86302  1.0000
  C   C3371     1.0  0.59649  0.07905  0.78953  1.0000
  P   P110      1.0  0.49794  0.07023  0.83845  1.0000
  Fe  Fe223     1.0  0.90341  0.05950  0.81350  1.0000
  S   S458      1.0  0.88861  0.04756  0.84343  1.0000
  S   S459      1.0  0.88640  0.06271  0.79120  1.0000
  Fe  Fe224     1.0  0.94241  0.05972  0.82396  1.0000
  S   S460      1.0  0.93094  0.04771  0.85482  1.0000
  C   C3372     1.0  0.58245  0.14993  0.79267  1.0000
  Fe  Fe225     1.0  0.91888  0.02650  0.84506  1.0000
  H   H2710     1.0  0.89739  0.17117  0.81064  1.0000
  Fe  Fe226     1.0  0.90183  0.06997  0.85017  1.0000
  S   S461      1.0  0.88080  0.08791  0.87111  1.0000
  S   S462      1.0  0.93281  0.03658  0.81453  1.0000
  S   S463      1.0  0.91419  0.08395  0.81992  1.0000
  C   C3373     1.0  0.79773  0.19474  0.93512  1.0000
  C   C3374     1.0  0.81867  0.19211  0.93374  1.0000
  C   C3375     1.0  0.82668  0.18486  0.95008  1.0000
  C   C3376     1.0  0.81374  0.18059  0.96789  1.0000
  C   C3377     1.0  0.79279  0.18335  0.96926  1.0000
  C   C3378     1.0  0.78486  0.19017  0.95291  1.0000
  H   H2711     1.0  0.82874  0.19540  0.92012  1.0000
  H   H2712     1.0  0.84292  0.18262  0.94892  1.0000
  C   C3379     1.0  0.71613  0.26161  0.74796  1.0000
  H   H2713     1.0  0.76875  0.19168  0.95409  1.0000
  C   C3380     1.0  0.87815  0.15638  0.85530  1.0000
  C   C3381     1.0  0.86016  0.14892  0.86220  1.0000
  C   C3382     1.0  0.86099  0.12788  0.86642  1.0000
  C   C3383     1.0  0.87979  0.11423  0.86331  1.0000
  C   C3384     1.0  0.89770  0.12172  0.85520  1.0000
  C   C3385     1.0  0.89689  0.14279  0.85144  1.0000
  H   H2714     1.0  0.84567  0.15922  0.86506  1.0000
  H   H2715     1.0  0.84706  0.12225  0.87235  1.0000
  H   H2716     1.0  0.91222  0.11120  0.85259  1.0000
  H   H2717     1.0  0.91079  0.14857  0.84582  1.0000
  H   H2718     1.0  0.93137  0.10177  0.88206  1.0000
  H   H2719     1.0  0.85891  0.15155  0.76700  1.0000
  C   C3386     1.0  0.95904  0.99627  0.75880  1.0000
  H   H2720     1.0  0.79379  0.28846  0.95570  1.0000
  C   C3387     1.0  0.69610  0.11077  0.94945  1.0000
  H   H2721     1.0  0.79907  0.28646  0.84918  1.0000
  C   C3388     1.0  0.68732  0.28642  0.79772  1.0000
  C   C3389     1.0  0.92782  0.01017  0.89767  1.0000
  H   H2722     1.0  0.98519  0.03845  0.87989  1.0000
  H   H2723     1.0  0.71891  0.07289  0.94137  1.0000
  H   H2724     1.0  0.95591  0.99591  0.78830  1.0000
  H   H2725     1.0  0.72898  0.26734  0.81723  1.0000
  H   H2726     1.0  0.65897  0.32413  0.96128  1.0000
  C   C3390     1.0  0.86449  0.30980  0.82977  1.0000
  H   H2727     1.0  0.98299  0.19396  0.82469  1.0000
  C   C3391     1.0  0.73159  0.20854  0.84511  1.0000
  C   C3392     1.0  0.73620  0.21906  0.82631  1.0000
  C   C3393     1.0  0.75457  0.22607  0.81922  1.0000
  C   C3394     1.0  0.76809  0.22282  0.83098  1.0000
  C   C3395     1.0  0.76300  0.21308  0.84994  1.0000
  C   C3396     1.0  0.74487  0.20582  0.85691  1.0000
  H   H2728     1.0  0.72590  0.22137  0.81716  1.0000
  H   H2729     1.0  0.75848  0.23383  0.80463  1.0000
  H   H2730     1.0  0.77324  0.21079  0.85914  1.0000
  H   H2731     1.0  0.74120  0.19800  0.87145  1.0000
  C   C3397     1.0  0.61528  0.18566  0.92151  1.0000
  C   C3398     1.0  0.61159  0.20551  0.92427  1.0000
  C   C3399     1.0  0.61035  0.22228  0.90893  1.0000
  C   C3400     1.0  0.61274  0.21923  0.89081  1.0000
  C   C3401     1.0  0.61554  0.19946  0.88821  1.0000
  C   C3402     1.0  0.61676  0.18270  0.90355  1.0000
  H   H2732     1.0  0.60983  0.20796  0.93818  1.0000
  H   H2733     1.0  0.60804  0.23753  0.91105  1.0000
  H   H2734     1.0  0.61702  0.19705  0.87431  1.0000
  H   H2735     1.0  0.61945  0.16740  0.90137  1.0000
  C   C3403     1.0  0.83601  0.32501  0.90717  1.0000
  H   H2736     1.0  0.78138  0.18108  0.77131  1.0000
  C   C3404     1.0  0.78593  0.31760  0.85193  1.0000
  C   C3405     1.0  0.84873  0.00685  0.76144  1.0000
  H   H2737     1.0  0.53878  0.31293  0.84166  1.0000
  S   S464      1.0  0.52226  0.00316  0.75537  1.0000
  H   H2738     1.0  0.89553  0.00869  0.83170  1.0000
  C   C3406     1.0  0.62607  0.19692  0.75402  1.0000
  C   C3407     1.0  0.62751  0.17720  0.76535  1.0000
  C   C3408     1.0  0.63434  0.17264  0.78214  1.0000
  C   C3409     1.0  0.63983  0.18775  0.78760  1.0000
  C   C3410     1.0  0.63788  0.20763  0.77654  1.0000
  C   C3411     1.0  0.63100  0.21220  0.75973  1.0000
  H   H2739     1.0  0.62368  0.16538  0.76103  1.0000
  H   H2740     1.0  0.63590  0.15725  0.79067  1.0000
  H   H2741     1.0  0.64226  0.21926  0.78064  1.0000
  H   H2742     1.0  0.62994  0.22744  0.75093  1.0000
  H   H2743     1.0  0.80439  0.15644  0.83181  1.0000
  C   C3412     1.0  0.83782  0.08954  0.85147  1.0000
  C   C3413     1.0  0.92938  0.18927  0.83811  1.0000
  C   C3414     1.0  0.91301  0.10378  0.74888  1.0000
  C   C3415     1.0  0.88563  0.16464  0.80906  1.0000
  C   C3416     1.0  0.50013  0.09000  0.78163  1.0000
  C   C3417     1.0  0.51020  0.02963  0.83488  1.0000
  C   C3418     1.0  0.66308  0.12193  0.94073  1.0000
  C   C3419     1.0  0.94806  0.18022  0.82775  1.0000
  H   H2744     1.0  0.62650  0.04103  0.78751  1.0000
  C   C3420     1.0  0.49552  0.19494  0.76212  1.0000
  C   C3421     1.0  0.95416  0.18880  0.80845  1.0000
  C   C3422     1.0  0.95771  0.05506  0.74414  1.0000
  H   H2745     1.0  0.83578  0.27291  0.95329  1.0000
  C   C3423     1.0  0.93543  0.11619  0.88066  1.0000
  C   C3424     1.0  0.80934  0.06200  0.93950  1.0000
  C   C3425     1.0  0.82345  0.05286  0.92547  1.0000
  C   C3426     1.0  0.83506  0.06459  0.91039  1.0000
  C   C3427     1.0  0.83256  0.08543  0.90934  1.0000
  C   C3428     1.0  0.81859  0.09476  0.92344  1.0000
  C   C3429     1.0  0.80688  0.08287  0.93850  1.0000
  P   P111      1.0  0.81476  0.12198  0.92155  1.0000
  C   C3430     1.0  0.80206  0.12795  0.94434  1.0000
  C   C3431     1.0  0.83862  0.13055  0.91449  1.0000
  C   C3432     1.0  0.85734  0.11662  0.91518  1.0000
  C   C3433     1.0  0.87566  0.12352  0.90899  1.0000
  C   C3434     1.0  0.87542  0.14440  0.90274  1.0000
  C   C3435     1.0  0.85684  0.15841  0.90286  1.0000
  C   C3436     1.0  0.83850  0.15156  0.90866  1.0000
  C   C3437     1.0  0.81361  0.12825  0.95682  1.0000
  C   C3438     1.0  0.98523  0.16406  0.84358  1.0000
  H   H2746     1.0  0.99389  0.03865  0.78410  1.0000
  C   C3439     1.0  0.77003  0.28504  0.74921  1.0000
  C   C3440     1.0  0.78064  0.13176  0.95001  1.0000
  C   C3441     1.0  0.79983  0.13578  0.90405  1.0000
  C   C3442     1.0  0.78804  0.15540  0.90509  1.0000
  C   C3443     1.0  0.77731  0.16661  0.89111  1.0000
  C   C3444     1.0  0.77795  0.15821  0.87612  1.0000
  C   C3445     1.0  0.78957  0.13868  0.87495  1.0000
  C   C3446     1.0  0.80062  0.12757  0.88875  1.0000
  P   P112      1.0  0.52264  0.15850  0.77333  1.0000
  H   H2747     1.0  0.82550  0.03666  0.92634  1.0000
  H   H2748     1.0  0.84621  0.05757  0.89955  1.0000
  H   H2749     1.0  0.84170  0.09423  0.89753  1.0000
  H   H2750     1.0  0.79593  0.08960  0.94953  1.0000
  H   H2751     1.0  0.85802  0.10040  0.92018  1.0000
  H   H2752     1.0  0.89004  0.11259  0.90859  1.0000
  H   H2753     1.0  0.88959  0.14979  0.89736  1.0000
  H   H2754     1.0  0.85671  0.17457  0.89777  1.0000
  H   H2755     1.0  0.82432  0.16273  0.90836  1.0000
  H   H2756     1.0  0.83012  0.12556  0.95282  1.0000
  C   C3447     1.0  0.84289  0.10532  0.83611  1.0000
  C   C3448     1.0  0.86391  0.99889  0.74716  1.0000
  H   H2757     1.0  0.50776  0.17816  0.80525  1.0000
  H   H2758     1.0  0.77137  0.13161  0.94070  1.0000
  H   H2759     1.0  0.78745  0.16227  0.91650  1.0000
  H   H2760     1.0  0.76878  0.18200  0.89182  1.0000
  H   H2761     1.0  0.76964  0.16694  0.86529  1.0000
  H   H2762     1.0  0.79032  0.13230  0.86317  1.0000
  H   H2763     1.0  0.80997  0.11281  0.88711  1.0000
  C   C3449     1.0  0.78644  0.17553  0.78449  1.0000
  C   C3450     1.0  0.68375  0.12257  0.93675  1.0000
  C   C3451     1.0  0.94590  0.15337  0.87689  1.0000
  H   H2764     1.0  0.90330  0.09909  0.77921  1.0000
  C   C3452     1.0  0.71716  0.27852  0.81102  1.0000
  H   H2765     1.0  0.77872  0.28301  0.89308  1.0000
  S   S465      1.0  0.59098  0.15745  0.74186  1.0000
  C   C3453     1.0  0.58097  0.06797  0.79723  1.0000
  C   C3454     1.0  0.74844  0.30578  0.95880  1.0000
  C   C3455     1.0  0.63936  0.29998  0.82878  1.0000
  C   C3456     1.0  0.64110  0.30592  0.84436  1.0000
  H   H2766     1.0  0.59137  0.09378  0.74396  1.0000
  H   H2767     1.0  0.64607  0.28456  0.82694  1.0000
  H   H2768     1.0  0.64953  0.29511  0.85434  1.0000
  C   C3457     1.0  0.81853  0.29846  0.85926  1.0000
  C   C3458     1.0  0.94186  0.20626  0.79972  1.0000
  Fe  Fe227     1.0  0.53981  0.03692  0.77883  1.0000
  H   H2769     1.0  0.69749  0.12234  0.75253  1.0000
  H   H2770     1.0  0.54638  0.18399  0.74236  1.0000
  C   C3459     1.0  0.57490  0.13294  0.79357  1.0000
  H   H2771     1.0  0.74178  0.25997  0.78091  1.0000
  H   H2772     1.0  0.89476  0.05410  0.75474  1.0000
  C   C3460     1.0  0.97526  0.07750  0.84215  1.0000
  H   H2773     1.0  0.55095  0.12212  0.78901  1.0000
  H   H2774     1.0  0.94318  0.14179  0.81890  1.0000
  H   H2775     1.0  0.80894  0.27920  0.90521  1.0000
  H   H2776     1.0  0.89995  0.01484  0.76912  1.0000
  C   C3461     1.0  0.73905  0.22876  0.75448  1.0000
  H   H2777     1.0  0.55924  0.09923  0.82471  1.0000
  H   H2778     1.0  0.87705  0.28546  0.85073  1.0000
  C   C3462     1.0  0.93864  0.02192  0.91992  1.0000
  C   C3463     1.0  0.51353  0.04471  0.84208  1.0000
  H   H2779     1.0  0.56804  0.25273  0.95596  1.0000
  C   C3464     1.0  0.89950  0.16800  0.73887  1.0000
  C   C3465     1.0  0.55659  0.13551  0.78809  1.0000
  C   C3466     1.0  0.57152  0.16956  0.78656  1.0000
  C   C3467     1.0  0.85715  0.32128  0.90591  1.0000
  C   C3468     1.0  0.58842  0.08665  0.75883  1.0000
  C   C3469     1.0  0.72919  0.10835  0.96767  1.0000
  H   H2780     1.0  0.51032  0.09689  0.76931  1.0000
  C   C3470     1.0  0.63033  0.04258  0.75791  1.0000
  H   H2781     1.0  0.96841  0.18195  0.80014  1.0000
  Fe  Fe228     1.0  0.52305  0.99844  0.78578  1.0000
  C   C3471     1.0  0.60013  0.08860  0.77040  1.0000
  C   C3472     1.0  0.92304  0.02020  0.91248  1.0000
  C   C3473     1.0  0.54608  0.15516  0.78089  1.0000
  H   H2782     1.0  0.86100  0.05296  0.75415  1.0000
  C   C3474     1.0  0.61467  0.01956  0.75041  1.0000
  C   C3475     1.0  0.98727  0.11597  0.79572  1.0000
  C   C3476     1.0  0.76462  0.29597  0.76348  1.0000
  H   H2783     1.0  0.62859  0.30934  0.80303  1.0000
  C   C3477     1.0  0.72430  0.24183  0.74467  1.0000
  H   H2784     1.0  0.54516  0.18758  0.77625  1.0000
  C   C3478     1.0  0.61204  0.01957  0.78303  1.0000
  H   H2785     1.0  0.91579  0.00893  0.89175  1.0000
  C   C3479     1.0  0.79946  0.16153  0.81855  1.0000
  C   C3480     1.0  0.93637  0.14327  0.89452  1.0000
  H   H2786     1.0  0.61683  0.27180  0.76607  1.0000
  C   C3481     1.0  0.52241  0.00997  0.83739  1.0000
  H   H2787     1.0  0.63854  0.05482  0.75382  1.0000
  H   H2788     1.0  0.64748  0.27264  0.89140  1.0000
  P   P113      1.0  0.57407  0.30049  0.89357  1.0000
  H   H2789     1.0  0.77110  0.18004  0.83021  1.0000
  C   C3482     1.0  0.53288  0.11758  0.83951  1.0000
  C   C3483     1.0  0.97712  0.07544  0.75894  1.0000
  C   C3484     1.0  0.96397  0.00401  0.89727  1.0000
  C   C3485     1.0  0.84993  0.16672  0.81064  1.0000
  C   C3486     1.0  0.97340  0.14112  0.82194  1.0000
  H   H2790     1.0  0.59888  0.00012  0.77411  1.0000
  C   C3487     1.0  0.76611  0.06484  0.91271  1.0000
  Fe  Fe229     1.0  0.61464  0.12927  0.73765  1.0000
  C   C3488     1.0  0.72251  0.26805  0.76097  1.0000
  H   H2791     1.0  0.55593  0.12747  0.75613  1.0000
  C   C3489     1.0  0.89754  0.07569  0.76896  1.0000
  H   H2792     1.0  0.70246  0.25596  0.80902  1.0000
  C   C3490     1.0  0.68104  0.18262  0.75152  1.0000
  C   C3491     1.0  0.69064  0.18775  0.76304  1.0000
  C   C3492     1.0  0.70149  0.20347  0.75583  1.0000
  C   C3493     1.0  0.62687  0.31945  0.75539  1.0000
  H   H2793     1.0  0.71609  0.28320  0.76369  1.0000
  H   H2794     1.0  0.99254  0.10546  0.78631  1.0000
  C   C3494     1.0  0.84773  0.27530  0.90590  1.0000
  C   C3495     1.0  0.95901  0.01380  0.91241  1.0000
  H   H2795     1.0  0.67239  0.17064  0.75723  1.0000
  H   H2796     1.0  0.68911  0.17989  0.77777  1.0000
  H   H2797     1.0  0.70834  0.20743  0.76519  1.0000
  H   H2798     1.0  0.90265  0.21355  0.83737  1.0000
  C   C3496     1.0  0.74455  0.28879  0.97327  1.0000
  C   C3497     1.0  0.79896  0.29986  0.95942  1.0000
  H   H2799     1.0  0.60619  0.01401  0.79793  1.0000
  C   C3498     1.0  0.93125  0.12462  0.89643  1.0000
  P   P114      1.0  0.99038  0.99397  0.88733  1.0000
  C   C3499     1.0  0.62934  0.31400  0.81534  1.0000
  C   C3500     1.0  0.89947  0.06815  0.75306  1.0000
  C   C3501     1.0  0.71694  0.29932  0.80773  1.0000
  H   H2800     1.0  0.66002  0.08784  0.98289  1.0000
  H   H2801     1.0  0.95196  0.07310  0.78310  1.0000
  H   H2802     1.0  0.93550  0.05411  0.77041  1.0000
  H   H2803     1.0  0.72730  0.18380  0.93704  1.0000
  C   C3502     1.0  0.72280  0.28562  0.92121  1.0000
  C   C3503     1.0  0.73502  0.27312  0.90895  1.0000
  C   C3504     1.0  0.75061  0.25729  0.91485  1.0000
  C   C3505     1.0  0.75407  0.25403  0.93294  1.0000
  C   C3506     1.0  0.74287  0.26744  0.94484  1.0000
  C   C3507     1.0  0.72669  0.28286  0.93906  1.0000
  P   P115      1.0  0.74796  0.26427  0.96788  1.0000
  C   C3508     1.0  0.84882  0.09984  0.76594  1.0000
  C   C3509     1.0  0.77376  0.25150  0.97017  1.0000
  H   H2804     1.0  0.90729  0.16392  0.75040  1.0000
  H   H2805     1.0  0.65352  0.13147  0.93110  1.0000
  H   H2806     1.0  0.90727  0.02671  0.91808  1.0000
  C   C3510     1.0  0.80886  0.23722  0.95650  1.0000
  C   C3511     1.0  0.78984  0.24955  0.95431  1.0000
  C   C3512     1.0  0.63498  0.28553  0.89356  1.0000
  S   S466      1.0  0.69177  0.17699  0.97462  1.0000
  H   H2807     1.0  0.77886  0.26954  0.75155  1.0000
  C   C3513     1.0  0.84153  0.10717  0.78255  1.0000
  H   H2808     1.0  0.78276  0.17962  0.98283  1.0000
  H   H2809     1.0  0.97630  0.09009  0.86491  1.0000
  H   H2810     1.0  0.73227  0.27551  0.89499  1.0000
  H   H2811     1.0  0.75970  0.24712  0.90561  1.0000
  H   H2812     1.0  0.76522  0.24072  0.93760  1.0000
  H   H2813     1.0  0.71713  0.29285  0.94830  1.0000
  C   C3514     1.0  0.98644  0.07088  0.82566  1.0000
  H   H2814     1.0  0.53125  0.05066  0.85876  1.0000
  H   H2815     1.0  0.83374  0.09785  0.79499  1.0000
  H   H2816     1.0  0.82064  0.23443  0.94415  1.0000
  H   H2817     1.0  0.78779  0.25718  0.94023  1.0000
  H   H2818     1.0  0.86708  0.25118  0.89254  1.0000
  H   H2819     1.0  0.83775  0.99807  0.77077  1.0000
  C   C3515     1.0  0.59921  0.30169  0.89496  1.0000
  S   S467      1.0  0.97458  0.06409  0.81129  1.0000
  Fe  Fe230     1.0  0.50955  0.03617  0.75680  1.0000
  C   C3516     1.0  0.73933  0.09406  0.93217  1.0000
  C   C3517     1.0  0.80104  0.29953  0.85305  1.0000
  C   C3518     1.0  0.84250  0.26850  0.93991  1.0000
  H   H2820     1.0  0.91900  0.00833  0.73737  1.0000
  H   H2821     1.0  0.92408  0.11670  0.91013  1.0000
  C   C3519     1.0  0.73135  0.21929  0.93830  1.0000
  C   C3520     1.0  0.72426  0.21722  0.95772  1.0000
  C   C3521     1.0  0.70343  0.22280  0.96526  1.0000
  C   C3522     1.0  0.68968  0.23015  0.95335  1.0000
  C   C3523     1.0  0.69683  0.23266  0.93370  1.0000
  C   C3524     1.0  0.71777  0.22711  0.92626  1.0000
  P   P116      1.0  0.67915  0.24013  0.91840  1.0000
  C   C3525     1.0  0.67408  0.21745  0.91500  1.0000
  C   C3526     1.0  0.65608  0.25531  0.92988  1.0000
  C   C3527     1.0  0.63711  0.25013  0.93292  1.0000
  C   C3528     1.0  0.61964  0.26050  0.94353  1.0000
  C   C3529     1.0  0.62082  0.27634  0.95092  1.0000
  C   C3530     1.0  0.63961  0.28159  0.94803  1.0000
  C   C3531     1.0  0.65720  0.27104  0.93770  1.0000
  C   C3532     1.0  0.66567  0.21845  0.89982  1.0000
  C   C3533     1.0  0.66246  0.20071  0.89690  1.0000
  C   C3534     1.0  0.70026  0.13027  0.73782  1.0000
  H   H2822     1.0  0.84504  0.28533  0.89267  1.0000
  C   C3535     1.0  0.67866  0.19861  0.92740  1.0000
  C   C3536     1.0  0.69085  0.25434  0.89591  1.0000
  C   C3537     1.0  0.70139  0.24444  0.88099  1.0000
  C   C3538     1.0  0.71018  0.25553  0.86354  1.0000
  C   C3539     1.0  0.70866  0.27645  0.86087  1.0000
  C   C3540     1.0  0.69853  0.28629  0.87564  1.0000
  C   C3541     1.0  0.69010  0.27524  0.89321  1.0000
  H   H2823     1.0  0.74741  0.21450  0.93254  1.0000
  H   H2824     1.0  0.73487  0.21069  0.96692  1.0000
  C   C3542     1.0  0.95036  0.14491  0.86098  1.0000
  H   H2825     1.0  0.67349  0.23316  0.95960  1.0000
  H   H2826     1.0  0.72366  0.22836  0.91123  1.0000
  H   H2827     1.0  0.63578  0.23772  0.92763  1.0000
  H   H2828     1.0  0.87369  0.18809  0.75223  1.0000
  H   H2829     1.0  0.60731  0.28413  0.95941  1.0000
  H   H2830     1.0  0.64062  0.29345  0.95430  1.0000
  H   H2831     1.0  0.67175  0.27470  0.93645  1.0000
  H   H2832     1.0  0.66175  0.23282  0.89010  1.0000
  H   H2833     1.0  0.65625  0.20153  0.88504  1.0000
  H   H2834     1.0  0.86476  0.30753  0.91424  1.0000
  H   H2835     1.0  0.75323  0.30437  0.94427  1.0000
  C   C3543     1.0  0.56675  0.25543  0.94142  1.0000
  H   H2836     1.0  0.70301  0.22817  0.88268  1.0000
  H   H2837     1.0  0.71817  0.24796  0.85204  1.0000
  H   H2838     1.0  0.71556  0.28502  0.84743  1.0000
  H   H2839     1.0  0.99476  0.99250  0.81128  1.0000
  H   H2840     1.0  0.68319  0.28316  0.90455  1.0000
  H   H2841     1.0  0.95004  0.16768  0.87568  1.0000
  C   C3544     1.0  0.54200  0.12848  0.75198  1.0000
  C   C3545     1.0  0.79870  0.30799  0.91438  1.0000
  C   C3546     1.0  0.57051  0.29881  0.83379  1.0000
  H   H2842     1.0  0.98434  0.08324  0.76502  1.0000
  C   C3547     1.0  0.62345  0.03480  0.77716  1.0000
  H   H2843     1.0  0.83438  0.17538  0.81295  1.0000
  H   H2844     1.0  0.54715  0.12736  0.97836  1.0000
  H   H2845     1.0  0.57365  0.28530  0.93375  1.0000
  C   C3548     1.0  0.61539  0.28481  0.89285  1.0000
  S   S468      1.0  0.73652  0.30666  0.81300  1.0000
  C   C3549     1.0  0.57308  0.30032  0.86988  1.0000
  C   C3550     1.0  0.56867  0.27719  0.90990  1.0000
  C   C3551     1.0  0.99252  0.99340  0.86306  1.0000
  H   H2846     1.0  0.56951  0.29784  0.82001  1.0000
  C   C3552     1.0  0.87692  0.03011  0.73795  1.0000
  H   H2847     1.0  0.83627  0.03220  0.77522  1.0000
  C   C3553     1.0  0.56463  0.26172  0.90370  1.0000
  H   H2848     1.0  0.84683  0.08499  0.76585  1.0000
  C   C3554     1.0  0.58901  0.29107  0.83956  1.0000
  H   H2849     1.0  0.50421  0.13245  0.85449  1.0000
  C   C3555     1.0  0.71578  0.11806  0.98180  1.0000
  C   C3556     1.0  0.62602  0.03497  0.74435  1.0000
  H   H2850     1.0  0.49838  0.03301  0.82710  1.0000
  C   C3557     1.0  0.70301  0.21397  0.73689  1.0000
  H   H2851     1.0  0.55289  0.01604  0.86281  1.0000
  H   H2852     1.0  0.97090  0.01524  0.91836  1.0000
  C   C3558     1.0  0.59464  0.32077  0.74828  1.0000
  H   H2853     1.0  0.54074  0.31391  0.87347  1.0000
  H   H2854     1.0  0.85768  0.10910  0.83340  1.0000
  C   C3559     1.0  0.94932  0.05916  0.76207  1.0000
  H   H2855     1.0  0.76908  0.28897  0.77690  1.0000
  H   H2856     1.0  0.61292  0.27103  0.89061  1.0000
  H   H2857     1.0  0.82704  0.21800  0.97626  1.0000
  H   H2858     1.0  0.92387  0.18273  0.85283  1.0000
  H   H2859     1.0  0.91369  0.22867  0.80343  1.0000
  C   C3560     1.0  0.79692  0.29257  0.90659  1.0000
  H   H2860     1.0  0.56457  0.26343  0.88903  1.0000
  H   H2861     1.0  0.60531  0.25575  0.94654  1.0000
  H   H2862     1.0  0.84873  0.08123  0.86014  1.0000
  C   C3561     1.0  0.53250  0.08663  0.83107  1.0000
  H   H2863     1.0  0.58573  0.29183  0.75445  1.0000
  C   C3562     1.0  0.90023  0.99234  0.83320  1.0000
  C   C3563     1.0  0.86535  0.17535  0.81184  1.0000
  C   C3564     1.0  0.86048  0.25603  0.90580  1.0000
  C   C3565     1.0  0.98494  0.08467  0.85234  1.0000
  C   C3566     1.0  0.86441  0.24302  0.92272  1.0000
  C   C3567     1.0  0.85567  0.24938  0.93974  1.0000
  H   H2864     1.0  0.87418  0.22801  0.92265  1.0000
  H   H2865     1.0  0.85875  0.23930  0.95287  1.0000
  C   C3568     1.0  0.57317  0.07498  0.76648  1.0000
  C   C3569     1.0  0.78063  0.17491  0.81771  1.0000
  C   C3570     1.0  0.77407  0.18184  0.80074  1.0000
  H   H2866     1.0  0.57750  0.18272  0.78576  1.0000
  S   S469      1.0  0.61907  0.16437  0.94010  1.0000
  C   C3571     1.0  0.85587  0.13717  0.76681  1.0000
  C   C3572     1.0  0.56159  0.24331  0.91633  1.0000
  H   H2867     1.0  0.85684  0.30027  0.82608  1.0000
  C   C3573     1.0  0.82904  0.11577  0.82446  1.0000
  C   C3574     1.0  0.51208  0.11962  0.84797  1.0000
  C   C3575     1.0  0.59037  0.29200  0.85742  1.0000
  C   C3576     1.0  0.68711  0.30731  0.79422  1.0000
  C   C3577     1.0  0.86174  0.03797  0.75213  1.0000
  C   C3578     1.0  0.56938  0.06578  0.78574  1.0000
  C   C3579     1.0  0.81892  0.08416  0.85545  1.0000
  C   C3580     1.0  0.80500  0.09453  0.84401  1.0000
  C   C3581     1.0  0.81005  0.11020  0.82854  1.0000
  Fe  Fe231     1.0  0.55256  0.01199  0.74912  1.0000
  C   C3582     1.0  0.87517  0.13657  0.80382  1.0000
  C   C3583     1.0  0.89053  0.14522  0.80512  1.0000
  H   H2868     1.0  0.93494  0.02968  0.93141  1.0000
  C   C3584     1.0  0.84776  0.02628  0.76396  1.0000
  C   C3585     1.0  0.99017  0.01546  0.77216  1.0000
  H   H2869     1.0  0.71189  0.31679  0.74308  1.0000
  H   H2870     1.0  0.75939  0.19217  0.80026  1.0000
  C   C3586     1.0  0.81182  0.15474  0.80240  1.0000
  H   H2871     1.0  0.68492  0.19746  0.93930  1.0000
  C   C3587     1.0  0.55324  0.30727  0.84600  1.0000
  C   C3588     1.0  0.83815  0.28148  0.92295  1.0000
  C   C3589     1.0  0.56990  0.27383  0.92882  1.0000
  C   C3590     1.0  0.60276  0.31885  0.89897  1.0000
  C   C3591     1.0  0.90457  0.09336  0.76693  1.0000
  H   H2872     1.0  0.81523  0.07175  0.86724  1.0000
  H   H2873     1.0  0.79040  0.09024  0.84696  1.0000
  H   H2874     1.0  0.79919  0.11785  0.81965  1.0000
  H   H2875     1.0  0.87920  0.12146  0.80081  1.0000
  H   H2876     1.0  0.90617  0.13668  0.80346  1.0000
  C   C3592     1.0  0.72583  0.14290  0.91200  1.0000
  C   C3593     1.0  0.60780  0.01186  0.76964  1.0000
  C   C3594     1.0  0.80527  0.16199  0.78528  1.0000
  H   H2877     1.0  0.75075  0.31363  0.89492  1.0000
  C   C3595     1.0  0.87582  0.30145  0.84377  1.0000
  C   C3596     1.0  0.96637  0.12339  0.80159  1.0000
  C   C3597     1.0  0.61475  0.28827  0.76117  1.0000
  C   C3598     1.0  0.62949  0.29823  0.76159  1.0000
  H   H2878     1.0  0.83491  0.31519  0.86801  1.0000
  C   C3599     1.0  0.92704  0.00598  0.74842  1.0000
  H   H2879     1.0  0.94847  0.11910  0.85117  1.0000
  H   H2880     1.0  0.74576  0.21354  0.75201  1.0000
  H   H2881     1.0  0.93311  0.14982  0.90675  1.0000
  C   C3600     1.0  0.51158  0.08860  0.83936  1.0000
  C   C3601     1.0  0.73700  0.25489  0.77078  1.0000
  H   H2882     1.0  0.53781  0.30639  0.92501  1.0000
  P   P117      1.0  0.83524  0.13600  0.80426  1.0000
  H   H2883     1.0  0.94658  0.21274  0.78481  1.0000
  H   H2884     1.0  0.72530  0.16715  0.88700  1.0000
  C   C3602     1.0  0.54309  0.10099  0.83119  1.0000
  C   C3603     1.0  0.74530  0.23526  0.76752  1.0000
  C   C3604     1.0  0.81252  0.31116  0.94599  1.0000
  C   C3605     1.0  0.52394  0.14220  0.75784  1.0000
  H   H2885     1.0  0.59690  0.14789  0.79648  1.0000
  H   H2886     1.0  0.56100  0.22561  0.94475  1.0000
  C   C3606     1.0  0.54275  0.11686  0.73930  1.0000
  C   C3607     1.0  0.70174  0.31379  0.79955  1.0000
  H   H2887     1.0  0.60229  0.28385  0.83040  1.0000
  C   C3608     1.0  0.72725  0.17247  0.92983  1.0000
  C   C3609     1.0  0.72992  0.25037  0.98517  1.0000
  C   C3610     1.0  0.56268  0.24015  0.93515  1.0000
  C   C3611     1.0  0.91720  0.20680  0.82934  1.0000
  C   C3612     1.0  0.92338  0.21526  0.81017  1.0000
  H   H2888     1.0  0.57822  0.06074  0.81208  1.0000
  H   H2889     1.0  0.67785  0.16671  0.93483  1.0000
  C   C3613     1.0  0.66682  0.18204  0.90945  1.0000
  C   C3614     1.0  0.67480  0.18102  0.92480  1.0000
  C   C3615     1.0  0.72669  0.17776  0.91075  1.0000
  C   C3616     1.0  0.59726  0.29956  0.75462  1.0000
  P   P118      1.0  0.96408  0.15752  0.83864  1.0000
  H   H2890     1.0  0.95908  0.07769  0.84670  1.0000
  C   C3617     1.0  0.77189  0.08289  0.91171  1.0000
  C   C3618     1.0  0.99424  0.99277  0.82565  1.0000
  H   H2891     1.0  0.81447  0.15712  0.77260  1.0000
  S   S470      1.0  0.73023  0.32376  0.85991  1.0000
  H   H2892     1.0  0.75660  0.22517  0.77511  1.0000
  H   H2893     1.0  0.78673  0.08556  0.90349  1.0000
  C   C3619     1.0  0.72654  0.15267  0.94014  1.0000
  H   H2894     1.0  0.66359  0.16850  0.90745  1.0000
  H   H2895     1.0  0.68974  0.13260  0.92390  1.0000
  H   H2896     1.0  0.64293  0.28942  0.76682  1.0000
  C   C3620     1.0  0.95880  0.06963  0.76933  1.0000
  H   H2897     1.0  0.63835  0.10954  0.96060  1.0000
  H   H2898     1.0  0.55926  0.23114  0.91130  1.0000
  H   H2899     1.0  0.57901  0.13966  0.97334  1.0000
  H   H2900     1.0  0.56418  0.07331  0.75763  1.0000
  C   C3621     1.0  0.85473  0.14722  0.80663  1.0000
  H   H2901     1.0  0.60566  0.08032  0.79846  1.0000
  C   C3622     1.0  0.84490  0.12597  0.78309  1.0000
  H   H2902     1.0  0.74250  0.04735  0.92413  1.0000
  C   C3623     1.0  0.68747  0.09787  0.96594  1.0000
  C   C3624     1.0  0.74699  0.06135  0.92338  1.0000
  H   H2903     1.0  0.77644  0.05352  0.90521  1.0000
  H   H2904     1.0  0.95555  0.11878  0.79651  1.0000
  H   H2905     1.0  0.73258  0.17482  0.97735  1.0000
  C   C3625     1.0  0.70211  0.27210  0.80644  1.0000
  H   H2906     1.0  0.69782  0.22043  0.98040  1.0000
  C   C3626     1.0  0.75858  0.09746  0.92142  1.0000
  H   H2907     1.0  0.65249  0.32445  0.93040  1.0000
  H   H2908     1.0  0.52012  0.99858  0.83132  1.0000
  H   H2909     1.0  0.69736  0.30250  0.87349  1.0000
  H   H2910     1.0  0.72617  0.14948  0.95502  1.0000
  C   C3627     1.0  0.77959  0.29455  0.89980  1.0000
  H   H2911     1.0  0.97470  0.02294  0.77120  1.0000
  H   H2912     1.0  0.60485  0.28566  0.86145  1.0000
  P   P119      1.0  0.82139  0.30639  0.92248  1.0000
  C   C3628     1.0  0.63840  0.30280  0.89714  1.0000
  H   H2913     1.0  0.72623  0.19345  0.90310  1.0000
  C   C3629     1.0  0.95944  0.13616  0.81445  1.0000
  H   H2914     1.0  0.72503  0.13167  0.90490  1.0000
  C   C3630     1.0  0.80391  0.13226  0.97466  1.0000
  C   C3631     1.0  0.72609  0.16294  0.90177  1.0000
  C   C3632     1.0  0.72560  0.13773  0.93141  1.0000
  H   H2915     1.0  0.76336  0.11133  0.92059  1.0000
  S   S471      1.0  0.53985  0.04552  0.74795  1.0000
  Fe  Fe232     1.0  0.65787  0.17892  0.98089  1.0000
  C   C3633     1.0  0.65453  0.10949  0.95737  1.0000
  C   C3634     1.0  0.79208  0.30308  0.97779  1.0000
  C   C3635     1.0  0.85965  0.11110  0.74980  1.0000
  C   C3636     1.0  0.62231  0.31930  0.90010  1.0000
  C   C3637     1.0  0.73363  0.07589  0.93311  1.0000
  P   P120      1.0  0.72251  0.11262  0.94515  1.0000
  H   H2916     1.0  0.51804  0.08990  0.80045  1.0000
  C   C3638     1.0  0.53071  0.19239  0.74493  1.0000
  S   S472      1.0  0.54968  0.05226  0.79634  1.0000
  H   H2917     1.0  0.65345  0.30349  0.89778  1.0000
  C   C3639     1.0  0.55330  0.17220  0.78090  1.0000
  H   H2918     1.0  0.71038  0.29756  0.91679  1.0000
  C   C3640     1.0  0.88508  0.31381  0.84908  1.0000
  C   C3641     1.0  0.86328  0.12969  0.75027  1.0000
  C   C3642     1.0  0.92695  0.00611  0.78043  1.0000
  C   C3643     1.0  0.81248  0.22803  0.97454  1.0000
  H   H2919     1.0  0.80038  0.05288  0.95121  1.0000
  S   S473      1.0  0.64765  0.15104  0.98108  1.0000
  H   H2920     1.0  0.75834  0.08785  0.96072  1.0000
  S   S474      1.0  0.63796  0.20034  0.96166  1.0000
  Fe  Fe233     1.0  0.62588  0.17278  0.96402  1.0000
  C   C3644     1.0  0.55561  0.32271  0.89982  1.0000
  C   C3645     1.0  0.82126  0.31574  0.86355  1.0000
  H   H2921     1.0  0.75450  0.13926  0.97208  1.0000
  H   H2922     1.0  0.61079  0.01375  0.74024  1.0000
  S   S475      1.0  0.50831  0.03070  0.78769  1.0000
  C   C3646     1.0  0.94820  0.99906  0.74480  1.0000
  H   H2923     1.0  0.89361  0.30735  0.86010  1.0000
  C   C3647     1.0  0.77100  0.13598  0.96781  1.0000
  H   H2924     1.0  0.91834  0.11749  0.74731  1.0000
  C   C3648     1.0  0.99440  0.13356  0.81599  1.0000
  H   H2925     1.0  0.91864  0.00863  0.79430  1.0000
  C   C3649     1.0  0.94814  0.99915  0.77687  1.0000
  H   H2926     1.0  0.67556  0.31843  0.78762  1.0000
  C   C3650     1.0  0.52869  0.03952  0.85260  1.0000
  C   C3651     1.0  0.54090  0.01983  0.85509  1.0000
  C   C3652     1.0  0.49889  0.16672  0.80760  1.0000
  H   H2927     1.0  0.77256  0.31835  0.84701  1.0000
  C   C3653     1.0  0.66674  0.09735  0.96991  1.0000
  H   H2928     1.0  0.54064  0.07401  0.82440  1.0000
  C   C3654     1.0  0.53785  0.00511  0.84735  1.0000
  C   C3655     1.0  0.50771  0.13273  0.73765  1.0000
  H   H2929     1.0  0.69662  0.08849  0.97592  1.0000
  C   C3656     1.0  0.88055  0.18153  0.73990  1.0000
  C   C3657     1.0  0.50145  0.10519  0.84791  1.0000
  C   C3658     1.0  0.50687  0.14439  0.75036  1.0000
  H   H2930     1.0  0.70475  0.27665  0.98585  1.0000
  H   H2931     1.0  0.70145  0.12818  0.97934  1.0000
  C   C3659     1.0  0.74775  0.09560  0.97124  1.0000
  C   C3660     1.0  0.76385  0.31181  0.90078  1.0000
  H   H2932     1.0  0.87242  0.13792  0.73796  1.0000
  H   H2933     1.0  0.67656  0.31329  0.74909  1.0000
  C   C3661     1.0  0.99106  0.18284  0.83471  1.0000
  C   C3662     1.0  0.50447  0.08592  0.79945  1.0000
  C   C3663     1.0  0.79838  0.31790  0.98280  1.0000
  C   C3664     1.0  0.74722  0.32505  0.74344  1.0000
  C   C3665     1.0  0.50299  0.15451  0.79445  1.0000
  H   H2934     1.0  0.99207  0.13536  0.86339  1.0000
  H   H2935     1.0  0.94989  0.04752  0.73836  1.0000
  H   H2936     1.0  0.74904  0.32433  0.77173  1.0000
  H   H2937     1.0  0.70493  0.27217  0.74056  1.0000
  C   C3666     1.0  0.98593  0.07094  0.74108  1.0000
  C   C3667     1.0  0.78264  0.13606  0.98018  1.0000
  H   H2938     1.0  0.71887  0.14842  0.74147  1.0000
  C   C3668     1.0  0.74569  0.32480  0.96302  1.0000
  C   C3669     1.0  0.78244  0.32496  0.91593  1.0000
  H   H2939     1.0  0.95143  0.99460  0.87849  1.0000
  S   S476      1.0  0.92234  0.99296  0.85791  1.0000
  H   H2940     1.0  0.86597  0.10505  0.73714  1.0000
  H   H2941     1.0  0.81288  0.13299  0.98405  1.0000
  Fe  Fe234     1.0  0.59458  0.61015  0.17016  1.0000
  S   S477      1.0  0.60756  0.60031  0.14246  1.0000
  S   S478      1.0  0.61167  0.59894  0.19368  1.0000
  Fe  Fe235     1.0  0.55397  0.63251  0.15973  1.0000
  S   S479      1.0  0.56417  0.62533  0.13107  1.0000
  H   H2942     1.0  0.69352  0.32614  0.19016  1.0000
  Fe  Fe236     1.0  0.57663  0.59363  0.14589  1.0000
  S   S480      1.0  0.56196  0.56887  0.14462  1.0000
  Fe  Fe237     1.0  0.59375  0.63289  0.13031  1.0000
  S   S481      1.0  0.95824  0.52867  0.21789  1.0000
  S   S482      1.0  0.56522  0.60073  0.17456  1.0000
  H   H2943     1.0  0.50507  0.65438  0.20831  1.0000
  H   H2944     1.0  0.64697  0.44297  0.17686  1.0000
  H   H2945     1.0  0.64737  0.64798  0.14906  1.0000
  C   C3670     1.0  0.51853  0.33746  0.18113  1.0000
  Fe  Fe238     1.0  0.64091  0.34356  0.03112  1.0000
  S   S483      1.0  0.62873  0.37328  0.04126  1.0000
  C   C3671     1.0  0.88989  0.55947  0.20824  1.0000
  C   C3672     1.0  0.75242  0.64740  0.99262  1.0000
  H   H2946     1.0  0.53213  0.60101  0.21889  1.0000
  C   C3673     1.0  0.81456  0.64560  0.99117  1.0000
  Fe  Fe239     1.0  0.58367  0.45829  0.13331  1.0000
  S   S484      1.0  0.59731  0.42867  0.15088  1.0000
  S   S485      1.0  0.60199  0.48323  0.12225  1.0000
  Fe  Fe240     1.0  0.54530  0.44355  0.13617  1.0000
  S   S486      1.0  0.55580  0.41318  0.15421  1.0000
  C   C3674     1.0  0.50392  0.44244  0.18482  1.0000
  Fe  Fe241     1.0  0.56599  0.43078  0.16945  1.0000
  S   S487      1.0  0.55903  0.42409  0.20127  1.0000
  Fe  Fe242     1.0  0.58624  0.41354  0.13399  1.0000
  S   S488      1.0  0.60417  0.38342  0.12632  1.0000
  S   S489      1.0  0.55294  0.46128  0.15311  1.0000
  S   S490      1.0  0.57513  0.44297  0.11473  1.0000
  Fe  Fe243     1.0  0.83541  0.64373  0.20745  1.0000
  H   H2947     1.0  0.71094  0.61533  0.08543  1.0000
  Fe  Fe244     1.0  0.97895  0.49861  0.22596  1.0000
  C   C3675     1.0  0.98456  0.37428  0.06107  1.0000
  H   H2948     1.0  0.60595  0.49684  0.18425  1.0000
  C   C3676     1.0  0.56873  0.35922  0.02620  1.0000
  C   C3677     1.0  0.64041  0.40094  0.16655  1.0000
  C   C3678     1.0  0.77458  0.61430  0.99089  1.0000
  H   H2949     1.0  0.51907  0.35398  0.22444  1.0000
  C   C3679     1.0  0.98147  0.33921  0.99997  1.0000
  C   C3680     1.0  0.57541  0.36019  0.05571  1.0000
  C   C3681     1.0  0.68031  0.32844  0.20157  1.0000
  H   H2950     1.0  0.64321  0.43113  0.15014  1.0000
  C   C3682     1.0  0.61170  0.38092  0.10254  1.0000
  C   C3683     1.0  0.60830  0.39770  0.08771  1.0000
  C   C3684     1.0  0.61371  0.39508  0.06902  1.0000
  C   C3685     1.0  0.62256  0.37569  0.06497  1.0000
  C   C3686     1.0  0.62620  0.35892  0.07977  1.0000
  C   C3687     1.0  0.62103  0.36161  0.09845  1.0000
  H   H2951     1.0  0.60154  0.41270  0.09063  1.0000
  H   H2952     1.0  0.61101  0.40815  0.05761  1.0000
  H   H2953     1.0  0.63320  0.34395  0.07679  1.0000
  H   H2954     1.0  0.62425  0.34867  0.10978  1.0000
  S   S491      1.0  0.84779  0.56867  0.21575  1.0000
  C   C3688     1.0  0.93466  0.47199  0.22935  1.0000
  C   C3689     1.0  0.57518  0.43202  0.21096  1.0000
  C   C3690     1.0  0.58975  0.44328  0.19951  1.0000
  C   C3691     1.0  0.50695  0.37001  0.19075  1.0000
  S   S492      1.0  0.81774  0.63989  0.02775  1.0000
  H   H2955     1.0  0.59128  0.44736  0.18438  1.0000
  C   C3692     1.0  0.70744  0.65355  0.14438  1.0000
  H   H2956     1.0  0.54481  0.33537  0.15802  1.0000
  H   H2957     1.0  0.52983  0.44564  0.09002  1.0000
  C   C3693     1.0  0.52519  0.59340  0.10837  1.0000
  H   H2958     1.0  0.55858  0.36711  0.12114  1.0000
  C   C3694     1.0  0.55679  0.39752  0.08738  1.0000
  H   H2959     1.0  0.94719  0.62295  0.12556  1.0000
  H   H2960     1.0  0.52044  0.41007  0.14049  1.0000
  S   S493      1.0  0.93413  0.52062  0.17967  1.0000
  C   C3695     1.0  0.60028  0.44448  0.22735  1.0000
  C   C3696     1.0  0.57409  0.54490  0.13918  1.0000
  C   C3697     1.0  0.59459  0.54056  0.12992  1.0000
  C   C3698     1.0  0.60310  0.52153  0.12486  1.0000
  C   C3699     1.0  0.59121  0.50673  0.12925  1.0000
  C   C3700     1.0  0.57078  0.51113  0.13865  1.0000
  C   C3701     1.0  0.56226  0.53013  0.14351  1.0000
  H   H2961     1.0  0.60376  0.55195  0.12640  1.0000
  H   H2962     1.0  0.61889  0.51827  0.11748  1.0000
  H   H2963     1.0  0.56133  0.50018  0.14169  1.0000
  H   H2964     1.0  0.54638  0.53344  0.15059  1.0000
  C   C3702     1.0  0.53563  0.57256  0.21105  1.0000
  H   H2965     1.0  0.90626  0.64624  0.17556  1.0000
  C   C3703     1.0  0.67395  0.63609  0.10664  1.0000
  C   C3704     1.0  0.54069  0.38803  0.08937  1.0000
  H   H2966     1.0  0.63719  0.37261  0.18620  1.0000
  H   H2967     1.0  0.55147  0.54223  0.10182  1.0000
  H   H2968     1.0  0.53169  0.60921  0.15744  1.0000
  Fe  Fe245     1.0  0.98726  0.53969  0.20372  1.0000
  H   H2969     1.0  0.80464  0.63476  0.99679  1.0000
  H   H2970     1.0  0.52496  0.36185  0.06017  1.0000
  H   H2971     1.0  0.78378  0.64459  0.18985  1.0000
  S   S494      1.0  0.84395  0.64219  0.10696  1.0000
  C   C3705     1.0  0.52071  0.39982  0.09060  1.0000
  C   C3706     1.0  0.63257  0.64834  0.17772  1.0000
  C   C3707     1.0  0.51195  0.36513  0.23309  1.0000
  H   H2972     1.0  0.49750  0.56114  0.14825  1.0000
  H   H2973     1.0  0.51457  0.48723  0.17681  1.0000
  C   C3708     1.0  0.72105  0.62583  0.07834  1.0000
  H   H2974     1.0  0.56600  0.59188  0.22699  1.0000
  C   C3709     1.0  0.56371  0.50674  0.19473  1.0000
  H   H2975     1.0  0.63834  0.39593  0.15494  1.0000
  C   C3710     1.0  0.65357  0.35135  0.21876  1.0000
  H   H2976     1.0  0.57911  0.63401  0.20000  1.0000
  H   H2977     1.0  0.53856  0.46751  0.21197  1.0000
  C   C3711     1.0  0.57313  0.42725  0.23057  1.0000
  C   C3712     1.0  0.77949  0.59790  0.21880  1.0000
  Fe  Fe246     1.0  0.66835  0.32706  0.99691  1.0000
  C   C3713     1.0  0.60078  0.61013  0.21340  1.0000
  H   H2978     1.0  0.51243  0.62293  0.09306  1.0000
  C   C3714     1.0  0.99320  0.36669  0.04463  1.0000
  P   P121      1.0  0.64180  0.37686  0.22234  1.0000
  H   H2979     1.0  0.52504  0.64217  0.12031  1.0000
  H   H2980     1.0  0.51500  0.49828  0.14291  1.0000
  C   C3715     1.0  0.90913  0.54849  0.20053  1.0000
  H   H2981     1.0  0.97191  0.59974  0.23047  1.0000
  C   C3716     1.0  0.75331  0.52616  0.23534  1.0000
  C   C3717     1.0  0.52152  0.33323  0.09533  1.0000
  H   H2982     1.0  0.68312  0.62922  0.13301  1.0000
  C   C3718     1.0  0.94712  0.57249  0.10937  1.0000
  H   H2983     1.0  0.53601  0.59886  0.11268  1.0000
  H   H2984     1.0  0.54509  0.65088  0.08754  1.0000
  H   H2985     1.0  0.64605  0.42003  0.20809  1.0000
  H   H2986     1.0  0.61322  0.45855  0.19889  1.0000
  C   C3719     1.0  0.75726  0.56110  0.22192  1.0000
  P   P122      1.0  0.50817  0.53880  0.11772  1.0000
  C   C3720     1.0  0.55264  0.47862  0.22813  1.0000
  C   C3721     1.0  0.64766  0.65265  0.16147  1.0000
  H   H2987     1.0  0.98673  0.36772  0.00137  1.0000
  C   C3722     1.0  0.95472  0.55447  0.13982  1.0000
  C   C3723     1.0  0.94383  0.57124  0.12882  1.0000
  H   H2988     1.0  0.49773  0.54985  0.18196  1.0000
  P   P123      1.0  0.92430  0.58977  0.14004  1.0000
  C   C3724     1.0  0.90031  0.58144  0.14776  1.0000
  C   C3725     1.0  0.93246  0.59308  0.15962  1.0000
  C   C3726     1.0  0.91881  0.59401  0.17710  1.0000
  C   C3727     1.0  0.92551  0.59538  0.19241  1.0000
  C   C3728     1.0  0.94579  0.59617  0.19044  1.0000
  C   C3729     1.0  0.95956  0.59521  0.17316  1.0000
  C   C3730     1.0  0.95298  0.59357  0.15782  1.0000
  C   C3731     1.0  0.89898  0.56251  0.14555  1.0000
  C   C3732     1.0  0.87996  0.55720  0.14986  1.0000
  C   C3733     1.0  0.86223  0.57054  0.15673  1.0000
  C   C3734     1.0  0.86350  0.58924  0.15927  1.0000
  C   C3735     1.0  0.88242  0.59472  0.15470  1.0000
  C   C3736     1.0  0.92101  0.61369  0.12289  1.0000
  C   C3737     1.0  0.93463  0.62681  0.11856  1.0000
  H   H2989     1.0  0.95056  0.46547  0.22976  1.0000
  S   S495      1.0  0.51446  0.45447  0.12827  1.0000
  H   H2990     1.0  0.53237  0.32726  0.08377  1.0000
  C   C3738     1.0  0.90521  0.61896  0.11307  1.0000
  H   H2991     1.0  0.93770  0.46748  0.20155  1.0000
  C   C3739     1.0  0.65550  0.38399  0.23587  1.0000
  C   C3740     1.0  0.78665  0.62813  0.19480  1.0000
  H   H2992     1.0  0.95197  0.55290  0.15493  1.0000
  S   S496      1.0  0.90462  0.62899  0.22252  1.0000
  H   H2993     1.0  0.90315  0.59290  0.17939  1.0000
  H   H2994     1.0  0.91504  0.59531  0.20601  1.0000
  H   H2995     1.0  0.95091  0.59701  0.20248  1.0000
  C   C3741     1.0  0.58024  0.37853  0.23537  1.0000
  C   C3742     1.0  0.99043  0.56956  0.23097  1.0000
  H   H2996     1.0  0.91253  0.55174  0.14061  1.0000
  H   H2997     1.0  0.87906  0.54250  0.14826  1.0000
  H   H2998     1.0  0.84759  0.56623  0.16034  1.0000
  H   H2999     1.0  0.84988  0.59959  0.16477  1.0000
  H   H3000     1.0  0.88312  0.60938  0.15652  1.0000
  C   C3743     1.0  0.51564  0.61533  0.15817  1.0000
  C   C3744     1.0  0.57791  0.32850  0.09740  1.0000
  H   H3001     1.0  0.93846  0.58495  0.10068  1.0000
  C   C3745     1.0  0.83655  0.64977  0.12861  1.0000
  H   H3002     1.0  0.89474  0.60898  0.11561  1.0000
  C   C3746     1.0  0.50497  0.34988  0.19295  1.0000
  C   C3747     1.0  0.49819  0.43724  0.13296  1.0000
  C   C3748     1.0  0.58489  0.62741  0.21273  1.0000
  C   C3749     1.0  0.85054  0.64380  0.14027  1.0000
  C   C3750     1.0  0.74910  0.64242  0.01237  1.0000
  C   C3751     1.0  0.87345  0.54004  0.19708  1.0000
  H   H3003     1.0  0.56840  0.38093  0.22774  1.0000
  H   H3004     1.0  0.49936  0.52894  0.08563  1.0000
  H   H3005     1.0  0.98342  0.52894  0.10572  1.0000
  C   C3752     1.0  0.91047  0.53371  0.19065  1.0000
  C   C3753     1.0  0.73092  0.63563  0.16514  1.0000
  C   C3754     1.0  0.61115  0.51109  0.17860  1.0000
  H   H3006     1.0  0.94265  0.65522  0.10178  1.0000
  C   C3755     1.0  0.53290  0.42969  0.08945  1.0000
  H   H3007     1.0  0.92289  0.55183  0.20182  1.0000
  C   C3756     1.0  0.63973  0.38778  0.18433  1.0000
  H   H3008     1.0  0.88887  0.57105  0.21569  1.0000
  C   C3757     1.0  0.66861  0.65132  0.09131  1.0000
  H   H3009     1.0  0.76248  0.62672  0.15139  1.0000
  Fe  Fe247     1.0  0.96110  0.51900  0.19137  1.0000
  C   C3758     1.0  0.54177  0.58615  0.21788  1.0000
  C   C3759     1.0  0.50691  0.53064  0.14282  1.0000
  C   C3760     1.0  0.51090  0.50336  0.17052  1.0000
  H   H3010     1.0  0.98927  0.38912  0.08069  1.0000
  H   H3011     1.0  0.73526  0.61976  0.10185  1.0000
  S   S497      1.0  0.81860  0.62044  0.22764  1.0000
  C   C3761     1.0  0.91605  0.65046  0.09572  1.0000
  C   C3762     1.0  0.74814  0.64147  0.07822  1.0000
  C   C3763     1.0  0.73482  0.62822  0.08754  1.0000
  H   H3012     1.0  0.98405  0.36010  0.03941  1.0000
  H   H3013     1.0  0.50804  0.39313  0.09151  1.0000
  H   H3014     1.0  0.53754  0.36013  0.02651  1.0000
  C   C3764     1.0  0.56786  0.35305  0.11734  1.0000
  C   C3765     1.0  0.84521  0.64913  0.15783  1.0000
  H   H3015     1.0  0.51657  0.41341  0.20068  1.0000
  H   H3016     1.0  0.56444  0.64975  0.22781  1.0000
  C   C3766     1.0  0.58229  0.35959  0.03662  1.0000
  S   S498      1.0  0.67355  0.32623  0.02528  1.0000
  H   H3017     1.0  0.73371  0.62948  0.17924  1.0000
  C   C3767     1.0  0.60217  0.44964  0.20773  1.0000
  C   C3768     1.0  0.54679  0.47875  0.21181  1.0000
  C   C3769     1.0  0.96899  0.53934  0.13148  1.0000
  H   H3018     1.0  0.92254  0.65618  0.14169  1.0000
  H   H3019     1.0  0.60361  0.38183  0.21016  1.0000
  H   H3020     1.0  0.53393  0.56274  0.12358  1.0000
  C   C3770     1.0  0.56099  0.58112  0.22221  1.0000
  C   C3771     1.0  0.99234  0.35131  0.00372  1.0000
  H   H3021     1.0  0.59821  0.35947  0.02988  1.0000
  H   H3022     1.0  0.89026  0.64119  0.09243  1.0000
  H   H3023     1.0  0.56781  0.51761  0.18168  1.0000
  C   C3772     1.0  0.56448  0.49218  0.22767  1.0000
  C   C3773     1.0  0.51683  0.42051  0.09090  1.0000
  C   C3774     1.0  0.97244  0.54080  0.11208  1.0000
  H   H3024     1.0  0.75721  0.57409  0.21005  1.0000
  H   H3025     1.0  0.75083  0.54210  0.20697  1.0000
  C   C3775     1.0  0.50400  0.42205  0.19401  1.0000
  C   C3776     1.0  0.54107  0.36077  0.05386  1.0000
  C   C3777     1.0  0.55483  0.36025  0.06460  1.0000
  C   C3778     1.0  0.96150  0.55737  0.10103  1.0000
  C   C3779     1.0  0.54610  0.49028  0.09660  1.0000
  C   C3780     1.0  0.56507  0.49586  0.09071  1.0000
  C   C3781     1.0  0.56673  0.51473  0.09249  1.0000
  C   C3782     1.0  0.63195  0.65445  0.19402  1.0000
  C   C3783     1.0  0.53029  0.52261  0.10609  1.0000
  C   C3784     1.0  0.52888  0.50342  0.10451  1.0000
  H   H3026     1.0  0.79948  0.56943  0.21317  1.0000
  C   C3785     1.0  0.80683  0.59480  0.19095  1.0000
  H   H3027     1.0  0.75610  0.64093  0.11912  1.0000
  C   C3786     1.0  0.50142  0.53858  0.17346  1.0000
  C   C3787     1.0  0.77158  0.60920  0.01054  1.0000
  C   C3788     1.0  0.79541  0.58581  0.20807  1.0000
  C   C3789     1.0  0.52285  0.37734  0.17679  1.0000
  C   C3790     1.0  0.53429  0.34497  0.16717  1.0000
  H   H3028     1.0  0.51224  0.59125  0.14745  1.0000
  H   H3029     1.0  0.97710  0.52629  0.14020  1.0000
  H   H3030     1.0  0.67707  0.36103  0.19480  1.0000
  H   H3031     1.0  0.54480  0.47546  0.09565  1.0000
  H   H3032     1.0  0.57862  0.48533  0.08532  1.0000
  H   H3033     1.0  0.58161  0.51866  0.08866  1.0000
  C   C3791     1.0  0.50453  0.60507  0.15246  1.0000
  H   H3034     1.0  0.51456  0.49831  0.10979  1.0000
  C   C3792     1.0  0.77516  0.61919  0.21199  1.0000
  C   C3793     1.0  0.72375  0.65135  0.12874  1.0000
  C   C3794     1.0  0.56560  0.34679  0.10202  1.0000
  H   H3035     1.0  0.50131  0.42938  0.09264  1.0000
  C   C3795     1.0  0.90267  0.63730  0.09970  1.0000
  H   H3036     1.0  0.52461  0.39274  0.17479  1.0000
  C   C3796     1.0  0.75357  0.54302  0.22014  1.0000
  H   H3037     1.0  0.49696  0.61283  0.21529  1.0000
  H   H3038     1.0  0.85971  0.53670  0.19571  1.0000
  S   S499      1.0  0.98981  0.56982  0.20771  1.0000
  H   H3039     1.0  0.52105  0.57673  0.20704  1.0000
  Fe  Fe248     1.0  0.87242  0.62687  0.22496  1.0000
  H   H3040     1.0  0.57431  0.35836  0.01147  1.0000
  H   H3041     1.0  0.90140  0.48263  0.20077  1.0000
  C   C3797     1.0  0.57654  0.63626  0.22854  1.0000
  P   P124      1.0  0.54610  0.36124  0.08921  1.0000
  C   C3798     1.0  0.87206  0.55532  0.20636  1.0000
  S   S500      1.0  0.86437  0.62088  0.20046  1.0000
  S   S501      1.0  0.63694  0.34656  0.00181  1.0000
  H   H3042     1.0  0.96399  0.55835  0.08603  1.0000
  C   C3799     1.0  0.50986  0.56544  0.10943  1.0000
  C   C3800     1.0  0.92736  0.47295  0.21360  1.0000
  C   C3801     1.0  0.54869  0.55391  0.20859  1.0000
  C   C3802     1.0  0.67088  0.34819  0.20417  1.0000
  C   C3803     1.0  0.50613  0.63332  0.16450  1.0000
  H   H3043     1.0  0.67377  0.62038  0.10739  1.0000
  S   S502      1.0  0.52098  0.64725  0.16938  1.0000
  Fe  Fe249     1.0  0.84825  0.59810  0.22223  1.0000
  H   H3044     1.0  0.81949  0.58536  0.18316  1.0000
  H   H3045     1.0  0.81166  0.62291  0.17120  1.0000
  H   H3046     1.0  0.89355  0.51825  0.18122  1.0000
  C   C3804     1.0  0.89258  0.52955  0.18896  1.0000
  H   H3047     1.0  0.94650  0.63585  0.21149  1.0000
  H   H3048     1.0  0.57237  0.38886  0.08580  1.0000
  C   C3805     1.0  0.64624  0.33441  0.23107  1.0000
  H   H3049     1.0  0.69900  0.64658  0.17499  1.0000
  C   C3806     1.0  0.53650  0.36488  0.16508  1.0000
  C   C3807     1.0  0.61562  0.37711  0.23503  1.0000
  H   H3050     1.0  0.58475  0.34670  0.13900  1.0000
  C   C3808     1.0  0.82317  0.65098  0.00341  1.0000
  H   H3051     1.0  0.56538  0.42539  0.08620  1.0000
  C   C3809     1.0  0.55289  0.41825  0.08750  1.0000
  C   C3810     1.0  0.90687  0.48157  0.21316  1.0000
  H   H3052     1.0  0.54878  0.37077  0.15439  1.0000
  C   C3811     1.0  0.61848  0.50247  0.22581  1.0000
  H   H3053     1.0  0.51643  0.44916  0.18434  1.0000
  C   C3812     1.0  0.62581  0.51311  0.16169  1.0000
  C   C3813     1.0  0.49710  0.38222  0.22742  1.0000
  C   C3814     1.0  0.74711  0.63399  0.14948  1.0000
  C   C3815     1.0  0.80248  0.61594  0.18429  1.0000
  C   C3816     1.0  0.60030  0.37923  0.22539  1.0000
  H   H3054     1.0  0.71010  0.63441  0.05276  1.0000
  C   C3817     1.0  0.97097  0.64640  0.21569  1.0000
  C   C3818     1.0  0.57010  0.50635  0.21094  1.0000
  H   H3055     1.0  0.50661  0.51275  0.19640  1.0000
  P   P125      1.0  0.58487  0.52440  0.21022  1.0000
  C   C3819     1.0  0.60340  0.52728  0.18807  1.0000
  C   C3820     1.0  0.63320  0.53111  0.15430  1.0000
  C   C3821     1.0  0.62596  0.54708  0.16386  1.0000
  C   C3822     1.0  0.61102  0.54526  0.18061  1.0000
  C   C3823     1.0  0.56807  0.54872  0.21291  1.0000
  H   H3056     1.0  0.96756  0.34627  0.99486  1.0000
  H   H3057     1.0  0.96404  0.59213  0.14475  1.0000
  C   C3824     1.0  0.52403  0.57280  0.11451  1.0000
  C   C3825     1.0  0.54806  0.36004  0.03475  1.0000
  C   C3826     1.0  0.57422  0.56265  0.21948  1.0000
  H   H3058     1.0  0.63123  0.50078  0.15420  1.0000
  S   S503      1.0  0.60864  0.65201  0.10314  1.0000
  H   H3059     1.0  0.72137  0.65761  0.11449  1.0000
  C   C3827     1.0  0.52884  0.65730  0.09088  1.0000
  C   C3828     1.0  0.51765  0.65252  0.10937  1.0000
  H   H3060     1.0  0.64444  0.53273  0.14111  1.0000
  H   H3061     1.0  0.63188  0.56093  0.15829  1.0000
  H   H3062     1.0  0.60561  0.55789  0.18770  1.0000
  C   C3829     1.0  0.51123  0.50973  0.15121  1.0000
  H   H3063     1.0  0.75037  0.51219  0.23395  1.0000
  S   S504      1.0  0.58238  0.64307  0.15785  1.0000
  C   C3830     1.0  0.50492  0.41614  0.13877  1.0000
  C   C3831     1.0  0.73398  0.65006  0.05040  1.0000
  C   C3832     1.0  0.49762  0.59984  0.09244  1.0000
  H   H3064     1.0  0.75771  0.61909  0.03636  1.0000
  C   C3833     1.0  0.52416  0.34988  0.10083  1.0000
  H   H3065     1.0  0.75894  0.64325  0.08525  1.0000
  H   H3066     1.0  0.77942  0.59459  0.01748  1.0000
  S   S505      1.0  0.84491  0.65188  0.23011  1.0000
  C   C3834     1.0  0.51082  0.35612  0.11687  1.0000
  C   C3835     1.0  0.64207  0.39427  0.19953  1.0000
  S   S506      1.0  0.98820  0.53316  0.17587  1.0000
  C   C3836     1.0  0.58249  0.34135  0.12768  1.0000
  H   H3067     1.0  0.68201  0.35926  0.23271  1.0000
  S   S507      1.0  0.80217  0.64765  0.07861  1.0000
  C   C3837     1.0  0.93213  0.64513  0.10504  1.0000
  C   C3838     1.0  0.51191  0.60692  0.09742  1.0000
  C   C3839     1.0  0.64473  0.41429  0.19667  1.0000
  C   C3840     1.0  0.64529  0.42744  0.17888  1.0000
  C   C3841     1.0  0.55251  0.49269  0.19507  1.0000
  H   H3068     1.0  0.96892  0.37356  0.06832  1.0000
  C   C3842     1.0  0.64318  0.42077  0.16383  1.0000
  C   C3843     1.0  0.74351  0.64183  0.13130  1.0000
  H   H3069     1.0  0.54373  0.54383  0.20296  1.0000
  C   C3844     1.0  0.75903  0.62321  0.02125  1.0000
  C   C3845     1.0  0.72057  0.63673  0.05986  1.0000
  H   H3070     1.0  0.54877  0.49233  0.18219  1.0000
  C   C3846     1.0  0.50628  0.51776  0.18158  1.0000
  H   H3071     1.0  0.62516  0.49762  0.21261  1.0000
  H   H3072     1.0  0.86568  0.63531  0.13551  1.0000
  H   H3073     1.0  0.76329  0.62902  0.21998  1.0000
  H   H3074     1.0  0.58622  0.36073  0.06342  1.0000
  C   C3847     1.0  0.54947  0.52806  0.10013  1.0000
  C   C3848     1.0  0.71117  0.64542  0.16263  1.0000
  H   H3075     1.0  0.62026  0.58818  0.23068  1.0000
  C   C3849     1.0  0.74768  0.65249  0.05976  1.0000
  C   C3850     1.0  0.67909  0.64117  0.12117  1.0000
  H   H3076     1.0  0.97547  0.59506  0.17193  1.0000
  S   S508      1.0  0.97967  0.48775  0.20039  1.0000
  H   H3077     1.0  0.87806  0.49655  0.22747  1.0000
  H   H3078     1.0  0.85631  0.64474  0.16645  1.0000
  C   C3851     1.0  0.60805  0.60161  0.23005  1.0000
  H   H3079     1.0  0.97347  0.63398  0.22769  1.0000
  C   C3852     1.0  0.89371  0.48958  0.22832  1.0000
  H   H3080     1.0  0.58937  0.55942  0.22224  1.0000
  H   H3081     1.0  0.50194  0.44383  0.22618  1.0000
  C   C3853     1.0  0.59886  0.51490  0.22886  1.0000
  H   H3082     1.0  0.62137  0.64011  0.17772  1.0000
  C   C3854     1.0  0.50149  0.54498  0.15420  1.0000
  H   H3083     1.0  0.62033  0.65083  0.20665  1.0000
  H   H3084     1.0  0.66424  0.64747  0.08022  1.0000
  C   C3855     1.0  0.49664  0.57918  0.09832  1.0000
  C   C3856     1.0  0.95545  0.64758  0.20676  1.0000
  H   H3085     1.0  0.49687  0.38660  0.14661  1.0000
  H   H3086     1.0  0.51324  0.36811  0.12206  1.0000
  Fe  Fe250     1.0  0.89253  0.53293  0.33012  1.0000
  S   S509      1.0  0.70810  0.35160  0.45337  1.0000
  C   C3857     1.0  0.90107  0.48893  0.24404  1.0000
  H   H3087     1.0  0.67765  0.38594  0.34052  1.0000
  C   C3858     1.0  0.51812  0.43389  0.24861  1.0000
  C   C3859     1.0  0.53274  0.44633  0.35669  1.0000
  H   H3088     1.0  0.87974  0.34312  0.36789  1.0000
  C   C3860     1.0  0.83548  0.57554  0.47144  1.0000
  C   C3861     1.0  0.90412  0.55439  0.38795  1.0000
  Fe  Fe251     1.0  0.60627  0.62581  0.32080  1.0000
  S   S510      1.0  0.61652  0.61279  0.29458  1.0000
  C   C3862     1.0  0.74053  0.61929  0.25557  1.0000
  Fe  Fe252     1.0  0.56727  0.60794  0.33372  1.0000
  S   S511      1.0  0.57427  0.59379  0.30881  1.0000
  S   S512      1.0  0.54004  0.60628  0.35832  1.0000
  Fe  Fe253     1.0  0.60622  0.58451  0.31361  1.0000
  S   S513      1.0  0.62496  0.55313  0.31081  1.0000
  Fe  Fe254     1.0  0.58388  0.62288  0.29173  1.0000
  S   S514      1.0  0.57285  0.63910  0.26483  1.0000
  S   S515      1.0  0.59869  0.59650  0.34006  1.0000
  S   S516      1.0  0.57411  0.63808  0.31632  1.0000
  H   H3089     1.0  0.96830  0.52401  0.25177  1.0000
  S   S517      1.0  0.86864  0.36144  0.42562  1.0000
  H   H3090     1.0  0.52081  0.44104  0.38670  1.0000
  H   H3091     1.0  0.75630  0.51436  0.26418  1.0000
  S   S518      1.0  0.83694  0.39401  0.45074  1.0000
  C   C3863     1.0  0.63721  0.64834  0.34049  1.0000
  Fe  Fe255     1.0  0.83480  0.37164  0.43546  1.0000
  S   S519      1.0  0.81559  0.37892  0.41413  1.0000
  Fe  Fe256     1.0  0.87066  0.38199  0.44295  1.0000
  S   S520      1.0  0.89051  0.40521  0.43336  1.0000
  S   S521      1.0  0.83209  0.34626  0.46114  1.0000
  S   S522      1.0  0.87164  0.35728  0.46926  1.0000
  Fe  Fe257     1.0  0.70378  0.38395  0.43674  1.0000
  H   H3092     1.0  0.50294  0.61431  0.38444  1.0000
  S   S523      1.0  0.72015  0.40614  0.44001  1.0000
  Fe  Fe258     1.0  0.67011  0.37978  0.42004  1.0000
  S   S524      1.0  0.64493  0.39779  0.40460  1.0000
  C   C3864     1.0  0.82985  0.46950  0.41608  1.0000
  S   S525      1.0  0.66974  0.39052  0.44561  1.0000
  S   S526      1.0  0.70411  0.37619  0.40970  1.0000
  Fe  Fe259     1.0  0.58691  0.46033  0.30485  1.0000
  S   S527      1.0  0.61950  0.45292  0.28947  1.0000
  S   S528      1.0  0.57281  0.48897  0.31625  1.0000
  Fe  Fe260     1.0  0.57714  0.42196  0.30026  1.0000
  S   S529      1.0  0.60931  0.41152  0.28527  1.0000
  S   S530      1.0  0.55650  0.40220  0.29961  1.0000
  Fe  Fe261     1.0  0.61873  0.42120  0.30708  1.0000
  H   H3093     1.0  0.77626  0.39714  0.36501  1.0000
  Fe  Fe262     1.0  0.60673  0.44400  0.26937  1.0000
  C   C3865     1.0  0.76888  0.65648  0.25570  1.0000
  S   S531      1.0  0.58656  0.42895  0.32369  1.0000
  S   S532      1.0  0.57407  0.45414  0.28322  1.0000
  S   S533      1.0  0.85252  0.51744  0.37540  1.0000
  S   S534      1.0  0.86645  0.52038  0.32931  1.0000
  Fe  Fe263     1.0  0.84751  0.54050  0.34896  1.0000
  S   S535      1.0  0.81550  0.55668  0.34707  1.0000
  Fe  Fe264     1.0  0.87335  0.49815  0.35567  1.0000
  S   S536      1.0  0.86998  0.46618  0.35895  1.0000
  C   C3866     1.0  0.94469  0.45042  0.33404  1.0000
  H   H3094     1.0  0.58424  0.42899  0.25385  1.0000
  H   H3095     1.0  0.79485  0.60356  0.38009  1.0000
  C   C3867     1.0  0.64579  0.39812  0.38091  1.0000
  C   C3868     1.0  0.66372  0.39048  0.36882  1.0000
  C   C3869     1.0  0.64588  0.40072  0.34287  1.0000
  C   C3870     1.0  0.62797  0.40816  0.35504  1.0000
  C   C3871     1.0  0.62796  0.40685  0.37394  1.0000
  H   H3096     1.0  0.61412  0.41501  0.34993  1.0000
  H   H3097     1.0  0.61400  0.41245  0.38327  1.0000
  C   C3872     1.0  0.88526  0.42216  0.41252  1.0000
  C   C3873     1.0  0.87721  0.41603  0.40046  1.0000
  C   C3874     1.0  0.87280  0.42961  0.38390  1.0000
  C   C3875     1.0  0.87589  0.44954  0.37962  1.0000
  C   C3876     1.0  0.88376  0.45585  0.39173  1.0000
  C   C3877     1.0  0.88870  0.44204  0.40810  1.0000
  H   H3098     1.0  0.87450  0.40077  0.40377  1.0000
  H   H3099     1.0  0.86664  0.42474  0.37460  1.0000
  H   H3100     1.0  0.88606  0.47131  0.38846  1.0000
  H   H3101     1.0  0.89489  0.44680  0.41746  1.0000
  C   C3878     1.0  0.78923  0.38561  0.42275  1.0000
  C   C3879     1.0  0.77632  0.37613  0.41840  1.0000
  C   C3880     1.0  0.75509  0.38208  0.42404  1.0000
  C   C3881     1.0  0.74671  0.39792  0.43371  1.0000
  C   C3882     1.0  0.75962  0.40751  0.43803  1.0000
  C   C3883     1.0  0.78092  0.40122  0.43270  1.0000
  H   H3102     1.0  0.78280  0.36406  0.41076  1.0000
  H   H3103     1.0  0.74523  0.37462  0.42065  1.0000
  H   H3104     1.0  0.75314  0.41980  0.44546  1.0000
  H   H3105     1.0  0.79093  0.40876  0.43580  1.0000
  C   C3884     1.0  0.66375  0.39180  0.34984  1.0000
  H   H3106     1.0  0.64232  0.44334  0.34046  1.0000
  C   C3885     1.0  0.77709  0.62959  0.41315  1.0000
  C   C3886     1.0  0.89580  0.65383  0.24759  1.0000
  H   H3107     1.0  0.97784  0.55504  0.38362  1.0000
  C   C3887     1.0  0.83062  0.59731  0.29821  1.0000
  C   C3888     1.0  0.51622  0.40121  0.30588  1.0000
  C   C3889     1.0  0.53072  0.40818  0.31079  1.0000
  C   C3890     1.0  0.52456  0.41957  0.32467  1.0000
  C   C3891     1.0  0.78151  0.57236  0.29222  1.0000
  H   H3108     1.0  0.52102  0.39241  0.29508  1.0000
  H   H3109     1.0  0.53590  0.42458  0.32849  1.0000
  C   C3892     1.0  0.51551  0.60324  0.35885  1.0000
  C   C3893     1.0  0.51141  0.59494  0.34567  1.0000
  C   C3894     1.0  0.51010  0.45651  0.27015  1.0000
  C   C3895     1.0  0.83077  0.64348  0.44802  1.0000
  C   C3896     1.0  0.50397  0.42367  0.33400  1.0000
  H   H3110     1.0  0.49919  0.56316  0.28434  1.0000
  H   H3111     1.0  0.52373  0.59024  0.33441  1.0000
  H   H3112     1.0  0.76102  0.64286  0.28519  1.0000
  C   C3897     1.0  0.65387  0.46148  0.39537  1.0000
  H   H3113     1.0  0.79220  0.46314  0.44736  1.0000
  C   C3898     1.0  0.61052  0.53506  0.31283  1.0000
  C   C3899     1.0  0.62006  0.51726  0.30601  1.0000
  C   C3900     1.0  0.60885  0.50263  0.30751  1.0000
  C   C3901     1.0  0.58792  0.50594  0.31550  1.0000
  C   C3902     1.0  0.57853  0.52343  0.32282  1.0000
  C   C3903     1.0  0.58973  0.53799  0.32144  1.0000
  H   H3114     1.0  0.63606  0.51501  0.29925  1.0000
  H   H3115     1.0  0.61637  0.48895  0.30230  1.0000
  H   H3116     1.0  0.56255  0.52568  0.32959  1.0000
  H   H3117     1.0  0.58232  0.55131  0.32728  1.0000
  C   C3904     1.0  0.58377  0.62770  0.24522  1.0000
  S   S537      1.0  0.97082  0.48088  0.25586  1.0000
  C   C3905     1.0  0.80137  0.57554  0.25430  1.0000
  H   H3118     1.0  0.49931  0.43215  0.34505  1.0000
  C   C3906     1.0  0.64651  0.62988  0.35083  1.0000
  C   C3907     1.0  0.65988  0.62978  0.36196  1.0000
  S   S538      1.0  0.94444  0.60170  0.36738  1.0000
  H   H3119     1.0  0.55957  0.37636  0.26269  1.0000
  H   H3120     1.0  0.64353  0.61568  0.35012  1.0000
  H   H3121     1.0  0.66701  0.61540  0.36983  1.0000
  C   C3908     1.0  0.88756  0.39879  0.48057  1.0000
  C   C3909     1.0  0.70732  0.63687  0.30821  1.0000
  H   H3122     1.0  0.76635  0.38155  0.47189  1.0000
  H   H3123     1.0  0.78229  0.58866  0.33741  1.0000
  C   C3910     1.0  0.90699  0.53043  0.24957  1.0000
  H   H3124     1.0  0.54883  0.46733  0.24092  1.0000
  H   H3125     1.0  0.87231  0.59589  0.36382  1.0000
  Fe  Fe265     1.0  0.70560  0.34399  0.42714  1.0000
  C   C3911     1.0  0.50621  0.52945  0.33345  1.0000
  C   C3912     1.0  0.51904  0.54324  0.32359  1.0000
  P   P126      1.0  0.50798  0.51454  0.35691  1.0000
  H   H3126     1.0  0.78891  0.64150  0.37147  1.0000
  C   C3913     1.0  0.51636  0.48779  0.35650  1.0000
  C   C3914     1.0  0.49866  0.60864  0.25255  1.0000
  H   H3127     1.0  0.59474  0.51734  0.27428  1.0000
  C   C3915     1.0  0.81638  0.64207  0.34979  1.0000
  C   C3916     1.0  0.53463  0.46092  0.33970  1.0000
  C   C3917     1.0  0.52638  0.48156  0.33957  1.0000
  H   H3128     1.0  0.82932  0.56617  0.26427  1.0000
  C   C3918     1.0  0.85436  0.61923  0.40104  1.0000
  C   C3919     1.0  0.61139  0.53360  0.36007  1.0000
  H   H3129     1.0  0.53063  0.54511  0.32958  1.0000
  H   H3130     1.0  0.88797  0.61105  0.33251  1.0000
  C   C3920     1.0  0.52622  0.52162  0.36586  1.0000
  C   C3921     1.0  0.52412  0.54189  0.36699  1.0000
  C   C3922     1.0  0.53854  0.54741  0.37330  1.0000
  C   C3923     1.0  0.55536  0.53280  0.37836  1.0000
  C   C3924     1.0  0.55790  0.51267  0.37694  1.0000
  C   C3925     1.0  0.54350  0.50711  0.37063  1.0000
  H   H3131     1.0  0.52682  0.56565  0.29825  1.0000
  C   C3926     1.0  0.82663  0.32868  0.38030  1.0000
  H   H3132     1.0  0.76280  0.54611  0.26754  1.0000
  C   C3927     1.0  0.91807  0.65123  0.26831  1.0000
  H   H3133     1.0  0.70385  0.40996  0.48046  1.0000
  Fe  Fe266     1.0  0.67381  0.35768  0.46039  1.0000
  C   C3928     1.0  0.76466  0.34317  0.37575  1.0000
  C   C3929     1.0  0.98075  0.58685  0.23855  1.0000
  H   H3134     1.0  0.54297  0.45643  0.32658  1.0000
  H   H3135     1.0  0.52858  0.49263  0.32631  1.0000
  H   H3136     1.0  0.75441  0.62178  0.25757  1.0000
  H   H3137     1.0  0.85448  0.35048  0.39685  1.0000
  C   C3930     1.0  0.79582  0.59110  0.32657  1.0000
  H   H3138     1.0  0.94373  0.47524  0.29264  1.0000
  H   H3139     1.0  0.50456  0.56156  0.24826  1.0000
  H   H3140     1.0  0.53946  0.43035  0.35678  1.0000
  C   C3931     1.0  0.51686  0.55507  0.30573  1.0000
  H   H3141     1.0  0.56656  0.53719  0.38312  1.0000
  H   H3142     1.0  0.57118  0.50138  0.38046  1.0000
  H   H3143     1.0  0.54634  0.49156  0.36912  1.0000
  H   H3144     1.0  0.62299  0.55743  0.36408  1.0000
  C   C3932     1.0  0.88634  0.62824  0.38200  1.0000
  C   C3933     1.0  0.60816  0.45447  0.38870  1.0000
  H   H3145     1.0  0.60509  0.60352  0.25880  1.0000
  C   C3934     1.0  0.94445  0.49121  0.28796  1.0000
  H   H3146     1.0  0.53913  0.54664  0.25500  1.0000
  C   C3935     1.0  0.63301  0.49960  0.36437  1.0000
  C   C3936     1.0  0.95792  0.51870  0.26465  1.0000
  C   C3937     1.0  0.85076  0.34329  0.38756  1.0000
  H   H3147     1.0  0.84407  0.59972  0.28732  1.0000
  C   C3938     1.0  0.78954  0.59304  0.42050  1.0000
  C   C3939     1.0  0.92595  0.62670  0.24866  1.0000
  C   C3940     1.0  0.79576  0.63264  0.41422  1.0000
  C   C3941     1.0  0.81125  0.61583  0.41913  1.0000
  C   C3942     1.0  0.80819  0.59600  0.42169  1.0000
  C   C3943     1.0  0.52098  0.50308  0.26595  1.0000
  C   C3944     1.0  0.87138  0.60581  0.37296  1.0000
  C   C3945     1.0  0.84322  0.59800  0.44058  1.0000
  C   C3946     1.0  0.76957  0.36669  0.48109  1.0000
  H   H3148     1.0  0.52603  0.48695  0.27104  1.0000
  Fe  Fe267     1.0  0.86619  0.33779  0.45266  1.0000
  C   C3947     1.0  0.97853  0.51009  0.33145  1.0000
  H   H3149     1.0  0.68350  0.39913  0.26641  1.0000
  C   C3948     1.0  0.96537  0.47143  0.33800  1.0000
  H   H3150     1.0  0.64987  0.41986  0.26089  1.0000
  H   H3151     1.0  0.82016  0.58276  0.42477  1.0000
  C   C3949     1.0  0.53436  0.51580  0.26369  1.0000
  C   C3950     1.0  0.78378  0.34521  0.37689  1.0000
  H   H3152     1.0  0.92773  0.47963  0.25633  1.0000
  H   H3153     1.0  0.66098  0.50030  0.33094  1.0000
  H   H3154     1.0  0.78722  0.57771  0.42265  1.0000
  H   H3155     1.0  0.67753  0.38366  0.37407  1.0000
  C   C3951     1.0  0.50148  0.51133  0.26197  1.0000
  H   H3156     1.0  0.80944  0.57665  0.23978  1.0000
  C   C3952     1.0  0.85998  0.32989  0.35934  1.0000
  C   C3953     1.0  0.80031  0.41993  0.48116  1.0000
  H   H3157     1.0  0.57558  0.46216  0.35215  1.0000
  H   H3158     1.0  0.77392  0.57135  0.30696  1.0000
  S   S539      1.0  0.91571  0.54413  0.30487  1.0000
  S   S540      1.0  0.94733  0.60661  0.31188  1.0000
  H   H3159     1.0  0.96073  0.56734  0.33360  1.0000
  C   C3954     1.0  0.49638  0.47059  0.25972  1.0000
  C   C3955     1.0  0.59040  0.37380  0.26469  1.0000
  H   H3160     1.0  0.88406  0.61063  0.26820  1.0000
  H   H3161     1.0  0.50619  0.64811  0.33636  1.0000
  S   S541      1.0  0.67148  0.34704  0.43563  1.0000
  H   H3162     1.0  0.91868  0.44507  0.35676  1.0000
  C   C3956     1.0  0.77390  0.60984  0.41646  1.0000
  H   H3163     1.0  0.90411  0.55655  0.41581  1.0000
  C   C3957     1.0  0.92932  0.58316  0.37498  1.0000
  P   P127      1.0  0.83481  0.61927  0.42242  1.0000
  C   C3958     1.0  0.80248  0.63241  0.36430  1.0000
  C   C3959     1.0  0.96547  0.55137  0.33321  1.0000
  C   C3960     1.0  0.65925  0.45408  0.31268  1.0000
  H   H3164     1.0  0.90757  0.55528  0.35853  1.0000
  H   H3165     1.0  0.51257  0.45937  0.28263  1.0000
  Fe  Fe268     1.0  0.95604  0.61265  0.33604  1.0000
  C   C3961     1.0  0.80590  0.61111  0.36930  1.0000
  C   C3962     1.0  0.83092  0.64313  0.42944  1.0000
  C   C3963     1.0  0.81174  0.61047  0.29669  1.0000
  C   C3964     1.0  0.79208  0.43389  0.46656  1.0000
  C   C3965     1.0  0.96135  0.59951  0.40987  1.0000
  C   C3966     1.0  0.77995  0.58011  0.25914  1.0000
  H   H3166     1.0  0.94159  0.44184  0.32553  1.0000
  P   P128      1.0  0.63856  0.47324  0.36252  1.0000
  H   H3167     1.0  0.81350  0.60043  0.45964  1.0000
  H   H3168     1.0  0.97546  0.60110  0.26200  1.0000
  C   C3967     1.0  0.49557  0.53262  0.25612  1.0000
  H   H3169     1.0  0.81706  0.64714  0.30842  1.0000
  S   S542      1.0  0.87269  0.55560  0.34722  1.0000
  C   C3968     1.0  0.94567  0.53265  0.27557  1.0000
  H   H3170     1.0  0.65871  0.44122  0.30751  1.0000
  H   H3171     1.0  0.67618  0.46844  0.28616  1.0000
  C   C3969     1.0  0.88683  0.61107  0.31858  1.0000
  C   C3970     1.0  0.91141  0.56119  0.36858  1.0000
  H   H3172     1.0  0.59784  0.54392  0.35606  1.0000
  H   H3173     1.0  0.94394  0.62605  0.26799  1.0000
  H   H3174     1.0  0.74238  0.39327  0.36321  1.0000
  C   C3971     1.0  0.65686  0.40661  0.25473  1.0000
  C   C3972     1.0  0.50420  0.44744  0.23844  1.0000
  C   C3973     1.0  0.64379  0.52827  0.36849  1.0000
  H   H3175     1.0  0.92631  0.58187  0.40443  1.0000
  C   C3974     1.0  0.58457  0.46017  0.36241  1.0000
  H   H3176     1.0  0.50668  0.47766  0.38674  1.0000
  C   C3975     1.0  0.95214  0.47345  0.35548  1.0000
  C   C3976     1.0  0.92230  0.57607  0.39437  1.0000
  C   C3977     1.0  0.87148  0.62515  0.31022  1.0000
  H   H3177     1.0  0.66530  0.45205  0.42094  1.0000
  H   H3178     1.0  0.96338  0.63105  0.40392  1.0000
  H   H3179     1.0  0.92290  0.49997  0.31259  1.0000
  C   C3978     1.0  0.67395  0.63825  0.30349  1.0000
  H   H3180     1.0  0.98624  0.51418  0.29342  1.0000
  C   C3979     1.0  0.66919  0.46936  0.30070  1.0000
  H   H3181     1.0  0.53683  0.56313  0.37401  1.0000
  H   H3182     1.0  0.86155  0.45433  0.44921  1.0000
  C   C3980     1.0  0.84458  0.49379  0.27906  1.0000
  H   H3183     1.0  0.52665  0.41989  0.24416  1.0000
  C   C3981     1.0  0.85568  0.56460  0.46873  1.0000
  P   P129      1.0  0.85302  0.64309  0.32311  1.0000
  C   C3982     1.0  0.86491  0.33923  0.37120  1.0000
  H   H3184     1.0  0.93658  0.54891  0.33003  1.0000
  H   H3185     1.0  0.98678  0.64290  0.34595  1.0000
  H   H3186     1.0  0.68953  0.63980  0.26226  1.0000
  C   C3983     1.0  0.86964  0.57021  0.45196  1.0000
  C   C3984     1.0  0.68314  0.42834  0.38409  1.0000
  C   C3985     1.0  0.96144  0.45990  0.32727  1.0000
  H   H3187     1.0  0.95453  0.48269  0.36380  1.0000
  H   H3188     1.0  0.87459  0.59075  0.42501  1.0000
  H   H3189     1.0  0.84355  0.59846  0.39118  1.0000
  H   H3190     1.0  0.58646  0.37221  0.27988  1.0000
  C   C3986     1.0  0.88468  0.61063  0.28236  1.0000
  C   C3987     1.0  0.90009  0.59695  0.29068  1.0000
  C   C3988     1.0  0.90096  0.59695  0.30890  1.0000
  C   C3989     1.0  0.66993  0.48584  0.30746  1.0000
  C   C3990     1.0  0.67019  0.44063  0.37224  1.0000
  C   C3991     1.0  0.87034  0.62462  0.29208  1.0000
  H   H3191     1.0  0.67133  0.43656  0.35912  1.0000
  C   C3992     1.0  0.92371  0.57580  0.36210  1.0000
  C   C3993     1.0  0.90968  0.56178  0.40084  1.0000
  H   H3192     1.0  0.92837  0.58170  0.34716  1.0000
  H   H3193     1.0  0.61724  0.45155  0.39905  1.0000
  C   C3994     1.0  0.82343  0.59949  0.36006  1.0000
  C   C3995     1.0  0.83750  0.60909  0.34570  1.0000
  S   S543      1.0  0.88764  0.53709  0.39625  1.0000
  H   H3194     1.0  0.69402  0.61057  0.31398  1.0000
  C   C3996     1.0  0.93558  0.46369  0.36232  1.0000
  H   H3195     1.0  0.91271  0.58598  0.31541  1.0000
  H   H3196     1.0  0.60769  0.47451  0.34220  1.0000
  H   H3197     1.0  0.85860  0.63501  0.28523  1.0000
  H   H3198     1.0  0.57515  0.52917  0.24943  1.0000
  C   C3997     1.0  0.93241  0.52601  0.29249  1.0000
  H   H3199     1.0  0.82605  0.58297  0.36388  1.0000
  H   H3200     1.0  0.85075  0.59970  0.33854  1.0000
  H   H3201     1.0  0.75938  0.60762  0.41558  1.0000
  C   C3998     1.0  0.82924  0.59213  0.45740  1.0000
  S   S544      1.0  0.64645  0.40275  0.31885  1.0000
  C   C3999     1.0  0.66055  0.48717  0.32615  1.0000
  H   H3202     1.0  0.83727  0.47236  0.42563  1.0000
  C   C4000     1.0  0.69205  0.62696  0.30889  1.0000
  H   H3203     1.0  0.51175  0.55362  0.36238  1.0000
  H   H3204     1.0  0.69394  0.41507  0.38000  1.0000
  C   C4001     1.0  0.66400  0.64808  0.36314  1.0000
  C   C4002     1.0  0.64756  0.50755  0.36827  1.0000
  H   H3205     1.0  0.76087  0.32823  0.37955  1.0000
  C   C4003     1.0  0.76041  0.54544  0.25419  1.0000
  H   H3206     1.0  0.52743  0.63508  0.30203  1.0000
  C   C4004     1.0  0.52498  0.63227  0.25341  1.0000
  C   C4005     1.0  0.77309  0.38209  0.36771  1.0000
  S   S545      1.0  0.90141  0.50880  0.35470  1.0000
  C   C4006     1.0  0.65042  0.47190  0.33825  1.0000
  H   H3207     1.0  0.94623  0.54869  0.27068  1.0000
  H   H3208     1.0  0.65507  0.53437  0.37140  1.0000
  H   H3209     1.0  0.62973  0.49604  0.26841  1.0000
  C   C4007     1.0  0.85792  0.50421  0.26431  1.0000
  C   C4008     1.0  0.82897  0.52477  0.25098  1.0000
  C   C4009     1.0  0.57799  0.45053  0.38116  1.0000
  C   C4010     1.0  0.60288  0.46708  0.35679  1.0000
  H   H3210     1.0  0.52426  0.60096  0.30142  1.0000
  H   H3211     1.0  0.84667  0.57084  0.31516  1.0000
  C   C4011     1.0  0.51277  0.63280  0.30157  1.0000
  C   C4012     1.0  0.52865  0.53683  0.25697  1.0000
  C   C4013     1.0  0.93179  0.45225  0.35158  1.0000
  H   H3212     1.0  0.69124  0.42277  0.41090  1.0000
  C   C4014     1.0  0.83236  0.39963  0.36532  1.0000
  C   C4015     1.0  0.84909  0.40290  0.35046  1.0000
  C   C4016     1.0  0.85173  0.42280  0.34181  1.0000
  C   C4017     1.0  0.83763  0.43943  0.34796  1.0000
  C   C4018     1.0  0.82058  0.43629  0.36270  1.0000
  C   C4019     1.0  0.81824  0.41621  0.37149  1.0000
  P   P130      1.0  0.80305  0.45756  0.37167  1.0000
  C   C4020     1.0  0.81277  0.46221  0.38961  1.0000
  C   C4021     1.0  0.80090  0.47991  0.35251  1.0000
  C   C4022     1.0  0.81612  0.49155  0.34603  1.0000
  C   C4023     1.0  0.81421  0.50915  0.33167  1.0000
  C   C4024     1.0  0.79725  0.51518  0.32348  1.0000
  C   C4025     1.0  0.78214  0.50362  0.32965  1.0000
  C   C4026     1.0  0.78391  0.48608  0.34412  1.0000
  C   C4027     1.0  0.82294  0.44582  0.40160  1.0000
  C   C4028     1.0  0.83145  0.44950  0.41477  1.0000
  H   H3213     1.0  0.91705  0.52141  0.23978  1.0000
  C   C4029     1.0  0.81883  0.48580  0.40493  1.0000
  C   C4030     1.0  0.81017  0.48220  0.39183  1.0000
  C   C4031     1.0  0.77827  0.45109  0.38199  1.0000
  C   C4032     1.0  0.77045  0.44061  0.37304  1.0000
  C   C4033     1.0  0.75131  0.43553  0.38101  1.0000
  C   C4034     1.0  0.73984  0.44094  0.39790  1.0000
  C   C4035     1.0  0.74744  0.45144  0.40685  1.0000
  C   C4036     1.0  0.76659  0.45652  0.39896  1.0000
  H   H3214     1.0  0.83059  0.38423  0.37249  1.0000
  H   H3215     1.0  0.86022  0.38998  0.34598  1.0000
  H   H3216     1.0  0.86498  0.42537  0.33067  1.0000
  H   H3217     1.0  0.84048  0.45460  0.34151  1.0000
  H   H3218     1.0  0.80581  0.41325  0.38350  1.0000
  H   H3219     1.0  0.82935  0.48724  0.35228  1.0000
  H   H3220     1.0  0.82568  0.51839  0.32714  1.0000
  H   H3221     1.0  0.79577  0.52894  0.31252  1.0000
  H   H3222     1.0  0.76888  0.50844  0.32344  1.0000
  H   H3223     1.0  0.77185  0.47760  0.34880  1.0000
  H   H3224     1.0  0.82481  0.43019  0.40053  1.0000
  H   H3225     1.0  0.83987  0.43683  0.42354  1.0000
  C   C4037     1.0  0.52114  0.43846  0.26438  1.0000
  C   C4038     1.0  0.93056  0.63382  0.26232  1.0000
  H   H3226     1.0  0.80186  0.49509  0.38321  1.0000
  H   H3227     1.0  0.77920  0.43632  0.35994  1.0000
  H   H3228     1.0  0.74540  0.42721  0.37426  1.0000
  H   H3229     1.0  0.72517  0.43669  0.40426  1.0000
  H   H3230     1.0  0.73861  0.45522  0.42014  1.0000
  H   H3231     1.0  0.77226  0.46451  0.40621  1.0000
  C   C4039     1.0  0.77007  0.57842  0.27828  1.0000
  H   H3232     1.0  0.54503  0.60382  0.26221  1.0000
  Fe  Fe269     1.0  0.83771  0.36762  0.47576  1.0000
  S   S546      1.0  0.68118  0.64689  0.37734  1.0000
  C   C4040     1.0  0.82359  0.49880  0.27965  1.0000
  C   C4041     1.0  0.53056  0.61102  0.25810  1.0000
  H   H3233     1.0  0.81339  0.49079  0.29113  1.0000
  C   C4042     1.0  0.86025  0.46810  0.45393  1.0000
  C   C4043     1.0  0.72199  0.63269  0.26051  1.0000
  C   C4044     1.0  0.50896  0.37667  0.26144  1.0000
  C   C4045     1.0  0.68151  0.43259  0.40154  1.0000
  H   H3234     1.0  0.92340  0.55492  0.23824  1.0000
  H   H3235     1.0  0.63321  0.33639  0.24269  1.0000
  H   H3236     1.0  0.76333  0.63067  0.36251  1.0000
  C   C4046     1.0  0.75705  0.65584  0.27407  1.0000
  H   H3237     1.0  0.75356  0.58161  0.28247  1.0000
  H   H3238     1.0  0.77387  0.35032  0.45946  1.0000
  C   C4047     1.0  0.81579  0.51426  0.26558  1.0000
  H   H3239     1.0  0.72159  0.64549  0.26619  1.0000
  H   H3240     1.0  0.66182  0.63065  0.30457  1.0000
  H   H3241     1.0  0.90092  0.57643  0.25990  1.0000
  H   H3242     1.0  0.54916  0.50923  0.26726  1.0000
  H   H3243     1.0  0.97092  0.45852  0.31349  1.0000
  C   C4048     1.0  0.75405  0.37992  0.36673  1.0000
  H   H3244     1.0  0.89229  0.38761  0.47186  1.0000
  H   H3245     1.0  0.67735  0.49789  0.29813  1.0000
  C   C4049     1.0  0.89564  0.44480  0.30146  1.0000
  C   C4050     1.0  0.89907  0.45051  0.31648  1.0000
  C   C4051     1.0  0.89848  0.47099  0.31540  1.0000
  C   C4052     1.0  0.89407  0.48586  0.29954  1.0000
  C   C4053     1.0  0.89051  0.48030  0.28449  1.0000
  C   C4054     1.0  0.89131  0.45966  0.28552  1.0000
  P   P131      1.0  0.88483  0.49921  0.26387  1.0000
  C   C4055     1.0  0.84989  0.51991  0.25049  1.0000
  H   H3246     1.0  0.73491  0.35867  0.37058  1.0000
  C   C4056     1.0  0.61507  0.51288  0.35990  1.0000
  C   C4057     1.0  0.95847  0.52039  0.33019  1.0000
  C   C4058     1.0  0.87022  0.62957  0.39773  1.0000
  Fe  Fe270     1.0  0.87977  0.53053  0.37191  1.0000
  C   C4059     1.0  0.79444  0.60746  0.31098  1.0000
  C   C4060     1.0  0.73525  0.63991  0.35309  1.0000
  Fe  Fe271     1.0  0.94905  0.63929  0.29828  1.0000
  C   C4061     1.0  0.75669  0.52739  0.25236  1.0000
  C   C4062     1.0  0.89046  0.52340  0.26293  1.0000
  C   C4063     1.0  0.87758  0.53588  0.27513  1.0000
  C   C4064     1.0  0.88141  0.55490  0.27415  1.0000
  C   C4065     1.0  0.89789  0.56173  0.26078  1.0000
  C   C4066     1.0  0.59031  0.51993  0.24656  1.0000
  C   C4067     1.0  0.50925  0.54523  0.25315  1.0000
  H   H3247     1.0  0.89638  0.42890  0.30214  1.0000
  H   H3248     1.0  0.90206  0.43917  0.32905  1.0000
  H   H3249     1.0  0.90130  0.47543  0.32696  1.0000
  H   H3250     1.0  0.89377  0.50160  0.29896  1.0000
  H   H3251     1.0  0.88871  0.45508  0.27393  1.0000
  H   H3252     1.0  0.53497  0.64140  0.25420  1.0000
  H   H3253     1.0  0.79956  0.51822  0.26605  1.0000
  C   C4068     1.0  0.70439  0.61305  0.25086  1.0000
  H   H3254     1.0  0.89947  0.61556  0.35745  1.0000
  H   H3255     1.0  0.85020  0.48206  0.29030  1.0000
  H   H3256     1.0  0.86469  0.53085  0.28549  1.0000
  H   H3257     1.0  0.87178  0.56430  0.28384  1.0000
  C   C4069     1.0  0.78790  0.36482  0.37281  1.0000
  H   H3258     1.0  0.77981  0.61743  0.30977  1.0000
  H   H3259     1.0  0.92541  0.46531  0.37581  1.0000
  C   C4070     1.0  0.91062  0.54954  0.24852  1.0000
  C   C4071     1.0  0.57525  0.37602  0.25500  1.0000
  C   C4072     1.0  0.83210  0.58105  0.31402  1.0000
  H   H3260     1.0  0.53225  0.42806  0.27204  1.0000
  C   C4073     1.0  0.64991  0.45533  0.33136  1.0000
  H   H3261     1.0  0.78055  0.43045  0.46146  1.0000
  H   H3262     1.0  0.60421  0.50749  0.35564  1.0000
  C   C4074     1.0  0.60143  0.51324  0.26073  1.0000
  C   C4075     1.0  0.74118  0.60282  0.24797  1.0000
  C   C4076     1.0  0.61491  0.46420  0.36985  1.0000
  H   H3263     1.0  0.98882  0.64540  0.37730  1.0000
  H   H3264     1.0  0.58495  0.43981  0.40877  1.0000
  H   H3265     1.0  0.56964  0.49115  0.24022  1.0000
  C   C4077     1.0  0.70393  0.62953  0.25822  1.0000
  H   H3266     1.0  0.56396  0.44493  0.38540  1.0000
  C   C4078     1.0  0.73719  0.65765  0.32028  1.0000
  C   C4079     1.0  0.75614  0.63834  0.35073  1.0000
  C   C4080     1.0  0.58974  0.44776  0.39431  1.0000
  H   H3267     1.0  0.80220  0.36691  0.37422  1.0000
  C   C4081     1.0  0.81275  0.56947  0.26823  1.0000
  C   C4082     1.0  0.85512  0.60721  0.38860  1.0000
  C   C4083     1.0  0.93244  0.50518  0.29909  1.0000
  C   C4084     1.0  0.62570  0.54127  0.36441  1.0000
  C   C4085     1.0  0.74986  0.36045  0.37074  1.0000
  C   C4086     1.0  0.83179  0.33787  0.39220  1.0000
  C   C4087     1.0  0.49553  0.40575  0.31480  1.0000
  C   C4088     1.0  0.99184  0.61076  0.40833  1.0000
  C   C4089     1.0  0.51725  0.59921  0.25800  1.0000
  C   C4090     1.0  0.82265  0.44220  0.47932  1.0000
  C   C4091     1.0  0.95687  0.49804  0.27048  1.0000
  H   H3268     1.0  0.72624  0.63383  0.36672  1.0000
  H   H3269     1.0  0.98693  0.45546  0.36710  1.0000
  C   C4092     1.0  0.62111  0.50126  0.25743  1.0000
  C   C4093     1.0  0.72577  0.64965  0.33798  1.0000
  H   H3270     1.0  0.91146  0.58634  0.28305  1.0000
  C   C4094     1.0  0.97159  0.57918  0.41432  1.0000
  Fe  Fe272     1.0  0.83070  0.62630  0.24979  1.0000
  H   H3271     1.0  0.94564  0.60315  0.40845  1.0000
  H   H3272     1.0  0.52954  0.34937  0.25427  1.0000
  H   H3273     1.0  0.81170  0.56291  0.29796  1.0000
  C   C4095     1.0  0.99448  0.57101  0.26670  1.0000
  H   H3274     1.0  0.81744  0.50131  0.40607  1.0000
  C   C4096     1.0  0.83428  0.63048  0.34070  1.0000
  H   H3275     1.0  0.56189  0.41873  0.23956  1.0000
  C   C4097     1.0  0.86662  0.50222  0.44687  1.0000
  C   C4098     1.0  0.86348  0.58684  0.43792  1.0000
  H   H3276     1.0  0.64228  0.47394  0.40018  1.0000
  C   C4099     1.0  0.81458  0.57780  0.32805  1.0000
  C   C4100     1.0  0.52232  0.45238  0.37357  1.0000
  C   C4101     1.0  0.95198  0.54093  0.33120  1.0000
  C   C4102     1.0  0.85805  0.50346  0.46570  1.0000
  C   C4103     1.0  0.66685  0.44912  0.40719  1.0000
  H   H3277     1.0  0.93578  0.61334  0.24390  1.0000
  H   H3278     1.0  0.94787  0.51278  0.32810  1.0000
  H   H3279     1.0  0.72126  0.62787  0.31244  1.0000
  C   C4104     1.0  0.80283  0.56771  0.28719  1.0000
  C   C4105     1.0  0.65557  0.45745  0.37769  1.0000
  C   C4106     1.0  0.81374  0.45653  0.46510  1.0000
  S   S547      1.0  0.80912  0.63093  0.27726  1.0000
  H   H3280     1.0  0.66201  0.49790  0.37074  1.0000
  P   P132      1.0  0.76530  0.58591  0.24122  1.0000
  C   C4107     1.0  0.86928  0.41327  0.47980  1.0000
  C   C4108     1.0  0.51421  0.47306  0.37351  1.0000
  H   H3281     1.0  0.83240  0.62958  0.45875  1.0000
  S   S548      1.0  0.95487  0.64605  0.32350  1.0000
  H   H3282     1.0  0.66928  0.40330  0.48604  1.0000
  C   C4109     1.0  0.97138  0.61527  0.40716  1.0000
  H   H3283     1.0  0.88526  0.56163  0.44974  1.0000
  S   S549      1.0  0.61603  0.45213  0.23762  1.0000
  C   C4110     1.0  0.88679  0.61658  0.36952  1.0000
  C   C4111     1.0  0.79871  0.45224  0.45859  1.0000
  S   S550      1.0  0.85891  0.60171  0.24630  1.0000
  H   H3284     1.0  0.81815  0.47112  0.45913  1.0000
  C   C4112     1.0  0.49985  0.60819  0.37405  1.0000
  S   S551      1.0  0.62107  0.64946  0.32530  1.0000
  H   H3285     1.0  0.89873  0.63599  0.37953  1.0000
  C   C4113     1.0  0.50167  0.55345  0.29773  1.0000
  H   H3286     1.0  0.87046  0.63830  0.40749  1.0000
  C   C4114     1.0  0.86784  0.48448  0.44103  1.0000
  H   H3287     1.0  0.85744  0.51712  0.47022  1.0000
  H   H3288     1.0  0.69032  0.61052  0.24925  1.0000
  H   H3289     1.0  0.69959  0.36896  0.25206  1.0000
  P   P133      1.0  0.98705  0.48370  0.32960  1.0000
  C   C4115     1.0  0.99305  0.55476  0.37472  1.0000
  H   H3290     1.0  0.87476  0.48343  0.42648  1.0000
  C   C4116     1.0  0.92162  0.48001  0.24446  1.0000
  H   H3291     1.0  0.86054  0.55177  0.47961  1.0000
  C   C4117     1.0  0.77370  0.34905  0.47415  1.0000
  C   C4118     1.0  0.51793  0.36246  0.25001  1.0000
  H   H3292     1.0  0.76505  0.64257  0.40963  1.0000
  C   C4119     1.0  0.85100  0.46949  0.47273  1.0000
  H   H3293     1.0  0.87251  0.51490  0.43677  1.0000
  C   C4120     1.0  0.98268  0.58757  0.25641  1.0000
  H   H3294     1.0  0.78195  0.64428  0.25285  1.0000
  C   C4121     1.0  0.61053  0.37414  0.25481  1.0000
  H   H3295     1.0  0.86013  0.41316  0.47034  1.0000
  C   C4122     1.0  0.90875  0.63685  0.24108  1.0000
  C   C4123     1.0  0.51105  0.61342  0.30111  1.0000
  C   C4124     1.0  0.67588  0.39501  0.25771  1.0000
  C   C4125     1.0  0.75808  0.65665  0.31815  1.0000
  H   H3296     1.0  0.79783  0.64814  0.41128  1.0000
  H   H3297     1.0  0.96362  0.56703  0.41663  1.0000
  H   H3298     1.0  0.70942  0.65110  0.34026  1.0000
  C   C4126     1.0  0.85043  0.48709  0.47867  1.0000
  H   H3299     1.0  0.52155  0.58276  0.26190  1.0000
  H   H3300     1.0  0.82112  0.34086  0.40509  1.0000
  C   C4127     1.0  0.72295  0.59977  0.24565  1.0000
  H   H3301     1.0  0.78374  0.64558  0.33153  1.0000
  C   C4128     1.0  0.59947  0.61028  0.24598  1.0000
  C   C4129     1.0  0.50658  0.64174  0.24779  1.0000
  C   C4130     1.0  0.76754  0.64681  0.33332  1.0000
  H   H3302     1.0  0.51350  0.37455  0.27458  1.0000
  Fe  Fe273     1.0  0.98789  0.63671  0.31019  1.0000
  C   C4131     1.0  0.70436  0.65825  0.30248  1.0000
  S   S552      1.0  0.98963  0.60385  0.32467  1.0000
  H   H3303     1.0  0.62198  0.37223  0.26270  1.0000
  H   H3304     1.0  0.91242  0.33642  0.48407  1.0000
  C   C4132     1.0  0.98540  0.54138  0.33428  1.0000
  C   C4133     1.0  0.77817  0.32983  0.48598  1.0000
  H   H3305     1.0  0.76324  0.33602  0.41271  1.0000
  H   H3306     1.0  0.85990  0.52854  0.23943  1.0000
  Fe  Fe274     1.0  0.98108  0.60020  0.29946  1.0000
  C   C4134     1.0  0.49576  0.64905  0.30119  1.0000
  H   H3307     1.0  0.52764  0.64904  0.35703  1.0000
  H   H3308     1.0  0.82307  0.53693  0.24011  1.0000
  S   S553      1.0  0.98214  0.63244  0.28382  1.0000
  H   H3309     1.0  0.82462  0.57117  0.48441  1.0000
  H   H3310     1.0  0.50263  0.65820  0.24419  1.0000
  H   H3311     1.0  0.72290  0.58716  0.23993  1.0000
  H   H3312     1.0  0.89429  0.65020  0.31374  1.0000
  C   C4135     1.0  0.88610  0.65634  0.32603  1.0000
  C   C4136     1.0  0.86579  0.65461  0.33410  1.0000
  H   H3313     1.0  0.63163  0.40980  0.24231  1.0000
  C   C4137     1.0  0.62955  0.49571  0.24005  1.0000
  C   C4138     1.0  0.58579  0.43319  0.23872  1.0000
  C   C4139     1.0  0.76085  0.56240  0.23893  1.0000
  C   C4140     1.0  0.68487  0.37799  0.24967  1.0000
  C   C4141     1.0  0.64662  0.40099  0.24406  1.0000
  H   H3314     1.0  0.87102  0.32653  0.34675  1.0000
  C   C4142     1.0  0.99201  0.52079  0.33342  1.0000
  H   H3315     1.0  0.64449  0.48578  0.23770  1.0000
  H   H3316     1.0  0.98970  0.58740  0.36893  1.0000
  H   H3317     1.0  0.81314  0.65858  0.34570  1.0000
  C   C4143     1.0  0.99209  0.57462  0.41557  1.0000
  C   C4144     1.0  0.67478  0.37252  0.23871  1.0000
  Fe  Fe275     1.0  0.83918  0.43029  0.72375  1.0000
  S   S554      1.0  0.83267  0.46114  0.70487  1.0000
  S   S555      1.0  0.83359  0.40149  0.71959  1.0000
  H   H3318     1.0  0.55886  0.40809  0.56433  1.0000
  C   C4145     1.0  0.58975  0.35551  0.58548  1.0000
  C   C4146     1.0  0.92783  0.43551  0.69388  1.0000
  H   H3319     1.0  0.90544  0.35228  0.51150  1.0000
  C   C4147     1.0  0.75782  0.56073  0.73655  1.0000
  Fe  Fe276     1.0  0.86324  0.46392  0.70707  1.0000
  S   S556      1.0  0.88452  0.47297  0.67935  1.0000
  C   C4148     1.0  0.94052  0.46143  0.72389  1.0000
  S   S557      1.0  0.87082  0.43202  0.72406  1.0000
  S   S558      1.0  0.55450  0.65173  0.67776  1.0000
  C   C4149     1.0  0.88186  0.38524  0.65962  1.0000
  S   S559      1.0  0.92477  0.55015  0.64869  1.0000
  C   C4150     1.0  0.83066  0.37413  0.52129  1.0000
  H   H3320     1.0  0.52243  0.36510  0.68190  1.0000
  C   C4151     1.0  0.90045  0.33832  0.51323  1.0000
  P   P134      1.0  0.95599  0.44839  0.70539  1.0000
  H   H3321     1.0  0.57169  0.39243  0.73171  1.0000
  H   H3322     1.0  0.56268  0.54375  0.69264  1.0000
  C   C4152     1.0  0.84609  0.46228  0.63996  1.0000
  H   H3323     1.0  0.96555  0.44326  0.66653  1.0000
  H   H3324     1.0  0.77013  0.37305  0.55571  1.0000
  H   H3325     1.0  0.82596  0.45233  0.62849  1.0000
  Fe  Fe277     1.0  0.54341  0.62839  0.66983  1.0000
  S   S560      1.0  0.65399  0.34987  0.48945  1.0000
  C   C4153     1.0  0.82922  0.43577  0.52795  1.0000
  H   H3326     1.0  0.91888  0.52294  0.68652  1.0000
  H   H3327     1.0  0.77098  0.64386  0.69071  1.0000
  S   S561      1.0  0.60147  0.62604  0.66441  1.0000
  S   S562      1.0  0.51018  0.62546  0.67807  1.0000
  S   S563      1.0  0.56386  0.60252  0.68523  1.0000
  Fe  Fe278     1.0  0.57685  0.62574  0.69089  1.0000
  Fe  Fe279     1.0  0.58667  0.60445  0.65792  1.0000
  S   S564      1.0  0.60385  0.57333  0.65254  1.0000
  S   S565      1.0  0.56546  0.62904  0.64178  1.0000
  Fe  Fe280     1.0  0.81125  0.38929  0.63040  1.0000
  S   S566      1.0  0.84325  0.37127  0.62330  1.0000
  S   S567      1.0  0.80219  0.41567  0.64488  1.0000
  Fe  Fe281     1.0  0.79465  0.36738  0.61015  1.0000
  S   S568      1.0  0.82492  0.34705  0.60210  1.0000
  S   S569      1.0  0.76974  0.36821  0.59634  1.0000
  P   P135      1.0  0.84100  0.44812  0.48878  1.0000
  Fe  Fe282     1.0  0.83719  0.37544  0.59459  1.0000
  S   S570      1.0  0.85864  0.38216  0.56631  1.0000
  S   S571      1.0  0.79614  0.36231  0.64052  1.0000
  S   S572      1.0  0.80669  0.39607  0.60089  1.0000
  S   S573      1.0  0.65884  0.34991  0.61129  1.0000
  H   H3328     1.0  0.84509  0.42080  0.62365  1.0000
  H   H3329     1.0  0.96895  0.46784  0.63574  1.0000
  H   H3330     1.0  0.68975  0.48809  0.56042  1.0000
  Fe  Fe283     1.0  0.56936  0.44553  0.64180  1.0000
  S   S574      1.0  0.55662  0.42836  0.67053  1.0000
  S   S575      1.0  0.58822  0.43214  0.61698  1.0000
  Fe  Fe284     1.0  0.55391  0.48635  0.65278  1.0000
  H   H3331     1.0  0.59684  0.39769  0.66614  1.0000
  S   S576      1.0  0.55016  0.51999  0.63969  1.0000
  Fe  Fe285     1.0  0.56879  0.44865  0.68116  1.0000
  S   S577      1.0  0.58516  0.43224  0.70471  1.0000
  Fe  Fe286     1.0  0.52881  0.45348  0.66986  1.0000
  S   S578      1.0  0.58377  0.46400  0.65244  1.0000
  S   S579      1.0  0.54039  0.46897  0.63996  1.0000
  H   H3332     1.0  0.84434  0.48816  0.49324  1.0000
  H   H3333     1.0  0.52644  0.40078  0.66744  1.0000
  C   C4154     1.0  0.60040  0.46253  0.70953  1.0000
  H   H3334     1.0  0.56581  0.35544  0.61026  1.0000
  H   H3335     1.0  0.60740  0.46478  0.69462  1.0000
  C   C4155     1.0  0.98242  0.42588  0.72882  1.0000
  H   H3336     1.0  0.90095  0.62168  0.69337  1.0000
  H   H3337     1.0  0.79501  0.45813  0.56202  1.0000
  C   C4156     1.0  0.68278  0.58285  0.72380  1.0000
  C   C4157     1.0  0.69333  0.41085  0.49396  1.0000
  H   H3338     1.0  0.78994  0.48611  0.53397  1.0000
  H   H3339     1.0  0.90774  0.43327  0.64517  1.0000
  C   C4158     1.0  0.59905  0.36293  0.62626  1.0000
  C   C4159     1.0  0.58383  0.37298  0.63905  1.0000
  C   C4160     1.0  0.58022  0.39431  0.63620  1.0000
  C   C4161     1.0  0.59139  0.40561  0.62033  1.0000
  C   C4162     1.0  0.60545  0.39561  0.60686  1.0000
  C   C4163     1.0  0.60957  0.37430  0.60999  1.0000
  H   H3340     1.0  0.57530  0.36425  0.65142  1.0000
  H   H3341     1.0  0.56884  0.40195  0.64628  1.0000
  H   H3342     1.0  0.61342  0.40427  0.59409  1.0000
  H   H3343     1.0  0.62071  0.36670  0.59963  1.0000
  H   H3344     1.0  0.84284  0.60440  0.70199  1.0000
  C   C4164     1.0  0.71611  0.35028  0.61503  1.0000
  C   C4165     1.0  0.73275  0.35854  0.60357  1.0000
  C   C4166     1.0  0.74980  0.35665  0.61075  1.0000
  C   C4167     1.0  0.75040  0.34617  0.62933  1.0000
  C   C4168     1.0  0.95879  0.46625  0.68295  1.0000
  H   H3345     1.0  0.69614  0.49119  0.50153  1.0000
  H   H3346     1.0  0.73227  0.36661  0.58920  1.0000
  H   H3347     1.0  0.76372  0.34438  0.63481  1.0000
  C   C4169     1.0  0.81857  0.37682  0.53894  1.0000
  C   C4170     1.0  0.82716  0.37907  0.55277  1.0000
  C   C4171     1.0  0.84789  0.37937  0.54885  1.0000
  C   C4172     1.0  0.85995  0.37745  0.53094  1.0000
  S   S580      1.0  0.58352  0.61616  0.72025  1.0000
  H   H3348     1.0  0.80254  0.37673  0.54209  1.0000
  H   H3349     1.0  0.81762  0.38057  0.56646  1.0000
  H   H3350     1.0  0.87598  0.37775  0.52783  1.0000
  C   C4173     1.0  0.58891  0.55843  0.64913  1.0000
  C   C4174     1.0  0.59475  0.53701  0.65343  1.0000
  C   C4175     1.0  0.58297  0.52494  0.65069  1.0000
  C   C4176     1.0  0.56561  0.53432  0.64318  1.0000
  C   C4177     1.0  0.56011  0.55567  0.63852  1.0000
  C   C4178     1.0  0.57145  0.56770  0.64183  1.0000
  H   H3351     1.0  0.60826  0.52980  0.65907  1.0000
  H   H3352     1.0  0.58733  0.50847  0.65431  1.0000
  H   H3353     1.0  0.54700  0.56294  0.63233  1.0000
  H   H3354     1.0  0.56695  0.58418  0.63832  1.0000
  C   C4179     1.0  0.81785  0.43815  0.54589  1.0000
  C   C4180     1.0  0.75153  0.40337  0.55379  1.0000
  C   C4181     1.0  0.54434  0.45111  0.59456  1.0000
  H   H3355     1.0  0.64037  0.40563  0.61600  1.0000
  C   C4182     1.0  0.52505  0.46344  0.59348  1.0000
  H   H3356     1.0  0.93252  0.48718  0.62180  1.0000
  H   H3357     1.0  0.86089  0.47563  0.65392  1.0000
  C   C4183     1.0  0.94493  0.65381  0.61727  1.0000
  H   H3358     1.0  0.51983  0.51685  0.68167  1.0000
  C   C4184     1.0  0.84671  0.47559  0.65071  1.0000
  C   C4185     1.0  0.82739  0.54212  0.69410  1.0000
  H   H3359     1.0  0.89130  0.44457  0.56299  1.0000
  H   H3360     1.0  0.93413  0.45213  0.64171  1.0000
  C   C4186     1.0  0.89993  0.39887  0.49226  1.0000
  H   H3361     1.0  0.51553  0.57755  0.64940  1.0000
  C   C4187     1.0  0.63092  0.36530  0.73033  1.0000
  C   C4188     1.0  0.82895  0.48878  0.65774  1.0000
  H   H3362     1.0  0.86593  0.43864  0.67194  1.0000
  H   H3363     1.0  0.82964  0.49863  0.66635  1.0000
  H   H3364     1.0  0.59220  0.39343  0.54589  1.0000
  C   C4189     1.0  0.87411  0.40634  0.68230  1.0000
  C   C4190     1.0  0.67820  0.35180  0.53926  1.0000
  C   C4191     1.0  0.75662  0.56268  0.67288  1.0000
  C   C4192     1.0  0.91954  0.58855  0.71731  1.0000
  H   H3365     1.0  0.95662  0.51674  0.66411  1.0000
  H   H3366     1.0  0.77202  0.51218  0.69186  1.0000
  C   C4193     1.0  0.94903  0.40876  0.71254  1.0000
  C   C4194     1.0  0.89237  0.57489  0.71433  1.0000
  C   C4195     1.0  0.91185  0.57919  0.70741  1.0000
  C   C4196     1.0  0.63273  0.54506  0.73162  1.0000
  H   H3367     1.0  0.88693  0.56697  0.70689  1.0000
  H   H3368     1.0  0.92071  0.57552  0.69419  1.0000
  C   C4197     1.0  0.82431  0.40516  0.69915  1.0000
  C   C4198     1.0  0.82830  0.38898  0.69007  1.0000
  C   C4199     1.0  0.82173  0.39204  0.67329  1.0000
  C   C4200     1.0  0.81069  0.41117  0.66583  1.0000
  C   C4201     1.0  0.80612  0.42708  0.67528  1.0000
  C   C4202     1.0  0.81305  0.42415  0.69178  1.0000
  H   H3369     1.0  0.83687  0.37420  0.69578  1.0000
  H   H3370     1.0  0.82517  0.37961  0.66616  1.0000
  H   H3371     1.0  0.79715  0.44172  0.66987  1.0000
  H   H3372     1.0  0.80929  0.43650  0.69900  1.0000
  C   C4203     1.0  0.89322  0.49590  0.67295  1.0000
  C   C4204     1.0  0.89271  0.50772  0.65479  1.0000
  C   C4205     1.0  0.90194  0.52461  0.64788  1.0000
  C   C4206     1.0  0.91195  0.52980  0.65903  1.0000
  C   C4207     1.0  0.91156  0.51871  0.67767  1.0000
  C   C4208     1.0  0.90230  0.50159  0.68461  1.0000
  H   H3373     1.0  0.88542  0.50356  0.64590  1.0000
  H   H3374     1.0  0.90186  0.53333  0.63361  1.0000
  H   H3375     1.0  0.81970  0.42565  0.55802  1.0000
  H   H3376     1.0  0.90282  0.49246  0.69866  1.0000
  C   C4209     1.0  0.52550  0.37034  0.66669  1.0000
  H   H3377     1.0  0.50470  0.57326  0.73145  1.0000
  C   C4210     1.0  0.67380  0.40717  0.49706  1.0000
  C   C4211     1.0  0.68848  0.35873  0.52072  1.0000
  H   H3378     1.0  0.93304  0.63363  0.68590  1.0000
  Fe  Fe287     1.0  0.82795  0.34452  0.63140  1.0000
  H   H3379     1.0  0.53730  0.57658  0.69222  1.0000
  C   C4212     1.0  0.77822  0.32807  0.50494  1.0000
  C   C4213     1.0  0.92853  0.62588  0.62055  1.0000
  C   C4214     1.0  0.58342  0.35903  0.69499  1.0000
  C   C4215     1.0  0.76509  0.35552  0.70243  1.0000
  H   H3380     1.0  0.49856  0.49117  0.65012  1.0000
  C   C4216     1.0  0.87956  0.38704  0.67809  1.0000
  H   H3381     1.0  0.90367  0.41356  0.51233  1.0000
  H   H3382     1.0  0.76480  0.58737  0.67900  1.0000
  C   C4217     1.0  0.87034  0.42386  0.66825  1.0000
  C   C4218     1.0  0.70706  0.42158  0.60701  1.0000
  C   C4219     1.0  0.72246  0.40680  0.61448  1.0000
  C   C4220     1.0  0.71888  0.39758  0.63368  1.0000
  C   C4221     1.0  0.69995  0.40327  0.64549  1.0000
  C   C4222     1.0  0.68446  0.41842  0.63817  1.0000
  C   C4223     1.0  0.68810  0.42733  0.61875  1.0000
  P   P136      1.0  0.65940  0.42449  0.65312  1.0000
  P   P137      1.0  0.86040  0.64143  0.68630  1.0000
  C   C4224     1.0  0.85494  0.42658  0.61043  1.0000
  H   H3383     1.0  0.61361  0.48487  0.71435  1.0000
  C   C4225     1.0  0.64599  0.44934  0.64261  1.0000
  C   C4226     1.0  0.63526  0.45129  0.62875  1.0000
  C   C4227     1.0  0.62543  0.47052  0.62018  1.0000
  C   C4228     1.0  0.62584  0.48797  0.62567  1.0000
  C   C4229     1.0  0.63638  0.48621  0.63951  1.0000
  C   C4230     1.0  0.64655  0.46701  0.64787  1.0000
  H   H3384     1.0  0.70980  0.42832  0.59204  1.0000
  H   H3385     1.0  0.88661  0.33691  0.54243  1.0000
  C   C4231     1.0  0.64407  0.42403  0.69150  1.0000
  C   C4232     1.0  0.77887  0.55802  0.69416  1.0000
  H   H3386     1.0  0.67629  0.43849  0.61254  1.0000
  H   H3387     1.0  0.63006  0.42163  0.68975  1.0000
  S   S581      1.0  0.49753  0.44658  0.68359  1.0000
  H   H3388     1.0  0.79654  0.49892  0.65973  1.0000
  H   H3389     1.0  0.63414  0.43796  0.62475  1.0000
  H   H3390     1.0  0.61679  0.47180  0.60981  1.0000
  H   H3391     1.0  0.61763  0.50283  0.61948  1.0000
  H   H3392     1.0  0.63649  0.49978  0.64385  1.0000
  H   H3393     1.0  0.65468  0.46607  0.65849  1.0000
  C   C4233     1.0  0.84677  0.53000  0.69524  1.0000
  C   C4234     1.0  0.85481  0.52786  0.71085  1.0000
  H   H3394     1.0  0.73445  0.32931  0.65495  1.0000
  C   C4235     1.0  0.86838  0.43874  0.60985  1.0000
  H   H3395     1.0  0.85560  0.52223  0.68404  1.0000
  H   H3396     1.0  0.86985  0.51853  0.71177  1.0000
  H   H3397     1.0  0.72385  0.36303  0.68345  1.0000
  H   H3398     1.0  0.95580  0.63551  0.65182  1.0000
  C   C4236     1.0  0.85443  0.42131  0.59402  1.0000
  H   H3399     1.0  0.79128  0.58914  0.73552  1.0000
  C   C4237     1.0  0.56698  0.37575  0.69524  1.0000
  C   C4238     1.0  0.57908  0.63261  0.73575  1.0000
  C   C4239     1.0  0.66059  0.34426  0.54237  1.0000
  H   H3400     1.0  0.87224  0.40773  0.69663  1.0000
  C   C4240     1.0  0.90987  0.63962  0.61986  1.0000
  H   H3401     1.0  0.77550  0.34514  0.52581  1.0000
  C   C4241     1.0  0.90494  0.48792  0.61371  1.0000
  S   S582      1.0  0.95400  0.54341  0.69024  1.0000
  C   C4242     1.0  0.62048  0.56315  0.72351  1.0000
  H   H3402     1.0  0.53056  0.35392  0.62693  1.0000
  C   C4243     1.0  0.82741  0.63784  0.71715  1.0000
  C   C4244     1.0  0.53161  0.42118  0.59643  1.0000
  H   H3403     1.0  0.50865  0.52007  0.65548  1.0000
  C   C4245     1.0  0.51924  0.52593  0.58808  1.0000
  C   C4246     1.0  0.94984  0.46975  0.73348  1.0000
  H   H3404     1.0  0.65322  0.35592  0.65092  1.0000
  H   H3405     1.0  0.70213  0.36457  0.51820  1.0000
  H   H3406     1.0  0.88118  0.40088  0.63112  1.0000
  C   C4247     1.0  0.75621  0.38302  0.55226  1.0000
  C   C4248     1.0  0.54254  0.52830  0.68728  1.0000
  H   H3407     1.0  0.76767  0.37882  0.50499  1.0000
  C   C4249     1.0  0.74203  0.38507  0.67870  1.0000
  H   H3408     1.0  0.68477  0.37864  0.71074  1.0000
  Fe  Fe288     1.0  0.63910  0.32684  0.61929  1.0000
  H   H3409     1.0  0.64564  0.40378  0.51723  1.0000
  H   H3410     1.0  0.97167  0.64037  0.58554  1.0000
  C   C4250     1.0  0.80390  0.45640  0.54809  1.0000
  C   C4251     1.0  0.80954  0.47585  0.64328  1.0000
  C   C4252     1.0  0.96550  0.47317  0.64866  1.0000
  H   H3411     1.0  0.69262  0.50820  0.52745  1.0000
  H   H3412     1.0  0.86718  0.42334  0.56436  1.0000
  H   H3413     1.0  0.71569  0.57557  0.71648  1.0000
  H   H3414     1.0  0.66290  0.43128  0.72568  1.0000
  H   H3415     1.0  0.60838  0.34110  0.70774  1.0000
  C   C4253     1.0  0.56737  0.39343  0.57044  1.0000
  C   C4254     1.0  0.85941  0.63677  0.72462  1.0000
  C   C4255     1.0  0.63864  0.52828  0.72298  1.0000
  C   C4256     1.0  0.54935  0.50724  0.72968  1.0000
  H   H3416     1.0  0.53491  0.52153  0.58070  1.0000
  H   H3417     1.0  0.53778  0.58213  0.73070  1.0000
  H   H3418     1.0  0.77469  0.34412  0.71107  1.0000
  C   C4257     1.0  0.81035  0.48891  0.65405  1.0000
  C   C4258     1.0  0.88947  0.47753  0.61607  1.0000
  C   C4259     1.0  0.93871  0.39452  0.71151  1.0000
  H   H3419     1.0  0.96031  0.62207  0.61967  1.0000
  C   C4260     1.0  0.65327  0.34370  0.52698  1.0000
  C   C4261     1.0  0.86325  0.42790  0.49090  1.0000
  C   C4262     1.0  0.85140  0.37455  0.51725  1.0000
  C   C4263     1.0  0.57100  0.36382  0.59613  1.0000
  H   H3420     1.0  0.52239  0.47959  0.59306  1.0000
  H   H3421     1.0  0.87668  0.48508  0.60939  1.0000
  C   C4264     1.0  0.53269  0.38426  0.62726  1.0000
  H   H3422     1.0  0.53315  0.37911  0.56935  1.0000
  C   C4265     1.0  0.88014  0.58038  0.73094  1.0000
  H   H3423     1.0  0.56241  0.42062  0.59766  1.0000
  H   H3424     1.0  0.74584  0.35944  0.54646  1.0000
  H   H3425     1.0  0.76600  0.60952  0.70855  1.0000
  C   C4266     1.0  0.59573  0.35415  0.70810  1.0000
  H   H3426     1.0  0.89245  0.62370  0.65743  1.0000
  H   H3427     1.0  0.88595  0.37026  0.65636  1.0000
  C   C4267     1.0  0.96348  0.45933  0.66612  1.0000
  H   H3428     1.0  0.92317  0.45142  0.68726  1.0000
  C   C4268     1.0  0.64510  0.37079  0.65370  1.0000
  C   C4269     1.0  0.98207  0.65073  0.58028  1.0000
  C   C4270     1.0  0.69492  0.48238  0.51593  1.0000
  C   C4271     1.0  0.51247  0.43378  0.59463  1.0000
  H   H3429     1.0  0.51604  0.59947  0.61795  1.0000
  C   C4272     1.0  0.69160  0.45973  0.55309  1.0000
  C   C4273     1.0  0.69336  0.45000  0.53853  1.0000
  C   C4274     1.0  0.69518  0.46148  0.51987  1.0000
  P   P138      1.0  0.69372  0.42293  0.54397  1.0000
  C   C4275     1.0  0.71903  0.40820  0.54544  1.0000
  C   C4276     1.0  0.67678  0.41707  0.56676  1.0000
  C   C4277     1.0  0.68329  0.40091  0.58116  1.0000
  C   C4278     1.0  0.67037  0.39719  0.59897  1.0000
  C   C4279     1.0  0.65071  0.40915  0.60244  1.0000
  C   C4280     1.0  0.64422  0.42542  0.58830  1.0000
  C   C4281     1.0  0.65720  0.42943  0.57055  1.0000
  C   C4282     1.0  0.73295  0.41598  0.55044  1.0000
  H   H3430     1.0  0.70294  0.35197  0.60939  1.0000
  H   H3431     1.0  0.76214  0.40908  0.55815  1.0000
  H   H3432     1.0  0.65250  0.33903  0.55658  1.0000
  C   C4283     1.0  0.72407  0.38785  0.54357  1.0000
  C   C4284     1.0  0.68579  0.41640  0.52585  1.0000
  C   C4285     1.0  0.69936  0.41533  0.50831  1.0000
  H   H3433     1.0  0.91490  0.38982  0.70098  1.0000
  H   H3434     1.0  0.49975  0.42740  0.59506  1.0000
  H   H3435     1.0  0.99295  0.64180  0.55348  1.0000
  C   C4286     1.0  0.66638  0.41209  0.52902  1.0000
  H   H3436     1.0  0.50534  0.36948  0.56164  1.0000
  C   C4287     1.0  0.96299  0.49394  0.64793  1.0000
  C   C4288     1.0  0.50978  0.54905  0.68193  1.0000
  H   H3437     1.0  0.69030  0.45121  0.56756  1.0000
  H   H3438     1.0  0.69661  0.45451  0.50832  1.0000
  H   H3439     1.0  0.69824  0.39103  0.57882  1.0000
  H   H3440     1.0  0.67553  0.38477  0.61001  1.0000
  H   H3441     1.0  0.66490  0.37697  0.68877  1.0000
  H   H3442     1.0  0.65191  0.44205  0.55970  1.0000
  H   H3443     1.0  0.72935  0.43152  0.55222  1.0000
  C   C4289     1.0  0.77475  0.57011  0.72966  1.0000
  C   C4290     1.0  0.67856  0.42968  0.67908  1.0000
  C   C4291     1.0  0.69133  0.48063  0.54909  1.0000
  H   H3444     1.0  0.71337  0.38139  0.54016  1.0000
  H   H3445     1.0  0.71809  0.53848  0.73021  1.0000
  H   H3446     1.0  0.67241  0.38175  0.64791  1.0000
  H   H3447     1.0  0.58663  0.34989  0.68456  1.0000
  C   C4292     1.0  0.95888  0.50070  0.66460  1.0000
  H   H3448     1.0  0.65591  0.41184  0.54259  1.0000
  C   C4293     1.0  0.82710  0.45180  0.51205  1.0000
  C   C4294     1.0  0.52778  0.62931  0.72478  1.0000
  C   C4295     1.0  0.94356  0.42941  0.70381  1.0000
  C   C4296     1.0  0.53153  0.39732  0.63894  1.0000
  C   C4297     1.0  0.86744  0.42784  0.57693  1.0000
  C   C4298     1.0  0.94595  0.63293  0.61926  1.0000
  H   H3449     1.0  0.69288  0.43462  0.69893  1.0000
  C   C4299     1.0  0.88972  0.32947  0.53086  1.0000
  C   C4300     1.0  0.92105  0.47876  0.62294  1.0000
  C   C4301     1.0  0.64553  0.40506  0.65539  1.0000
  C   C4302     1.0  0.68136  0.35784  0.50534  1.0000
  H   H3450     1.0  0.82181  0.41307  0.49884  1.0000
  H   H3451     1.0  0.60462  0.57836  0.70101  1.0000
  C   C4303     1.0  0.54760  0.43007  0.59607  1.0000
  H   H3452     1.0  0.89644  0.63413  0.62063  1.0000
  C   C4304     1.0  0.52345  0.53011  0.68362  1.0000
  H   H3453     1.0  0.69724  0.39551  0.66022  1.0000
  C   C4305     1.0  0.59153  0.36587  0.72172  1.0000
  S   S583      1.0  0.60550  0.33620  0.63093  1.0000
  H   H3454     1.0  0.52769  0.53533  0.60932  1.0000
  H   H3455     1.0  0.56280  0.51382  0.72373  1.0000
  C   C4306     1.0  0.66366  0.35047  0.50844  1.0000
  H   H3456     1.0  0.96417  0.50488  0.63453  1.0000
  H   H3457     1.0  0.96102  0.40358  0.72034  1.0000
  H   H3458     1.0  0.80970  0.48184  0.50212  1.0000
  H   H3459     1.0  0.55365  0.51409  0.68706  1.0000
  C   C4307     1.0  0.50313  0.52374  0.58160  1.0000
  C   C4308     1.0  0.66100  0.42567  0.67630  1.0000
  C   C4309     1.0  0.61335  0.39428  0.66228  1.0000
  H   H3460     1.0  0.51596  0.63884  0.63690  1.0000
  H   H3461     1.0  0.91161  0.45646  0.72236  1.0000
  H   H3462     1.0  0.55666  0.45768  0.59491  1.0000
  H   H3463     1.0  0.79508  0.47560  0.64068  1.0000
  C   C4310     1.0  0.53019  0.36414  0.63559  1.0000
  H   H3464     1.0  0.97501  0.61366  0.67556  1.0000
  H   H3465     1.0  0.91408  0.38765  0.49270  1.0000
  H   H3466     1.0  0.63570  0.51615  0.70070  1.0000
  C   C4311     1.0  0.54786  0.49039  0.72394  1.0000
  C   C4312     1.0  0.50915  0.45479  0.59342  1.0000
  C   C4313     1.0  0.86666  0.61690  0.68007  1.0000
  C   C4314     1.0  0.85514  0.60199  0.68993  1.0000
  C   C4315     1.0  0.85991  0.58323  0.68473  1.0000
  C   C4316     1.0  0.87613  0.57917  0.66967  1.0000
  C   C4317     1.0  0.88771  0.59390  0.65981  1.0000
  C   C4318     1.0  0.88306  0.61266  0.66501  1.0000
  C   C4319     1.0  0.68591  0.32757  0.70113  1.0000
  H   H3467     1.0  0.85159  0.57150  0.69298  1.0000
  H   H3468     1.0  0.88012  0.56439  0.66601  1.0000
  H   H3469     1.0  0.90065  0.59052  0.64846  1.0000
  C   C4320     1.0  0.87872  0.40274  0.64537  1.0000
  C   C4321     1.0  0.53355  0.56353  0.68992  1.0000
  C   C4322     1.0  0.54765  0.54501  0.69035  1.0000
  C   C4323     1.0  0.88101  0.43974  0.57621  1.0000
  H   H3470     1.0  0.64879  0.51448  0.72843  1.0000
  H   H3471     1.0  0.78380  0.37766  0.69668  1.0000
  C   C4324     1.0  0.66976  0.37498  0.71620  1.0000
  C   C4325     1.0  0.84817  0.63888  0.71109  1.0000
  C   C4326     1.0  0.70326  0.54878  0.73099  1.0000
  H   H3472     1.0  0.62893  0.43470  0.59106  1.0000
  H   H3473     1.0  0.86087  0.37246  0.50370  1.0000
  H   H3474     1.0  0.61216  0.35991  0.55935  1.0000
  H   H3475     1.0  0.76362  0.40369  0.67544  1.0000
  C   C4327     1.0  0.74813  0.35109  0.69886  1.0000
  H   H3476     1.0  0.87526  0.34065  0.59720  1.0000
  P   P139      1.0  0.53508  0.39366  0.60203  1.0000
  H   H3477     1.0  0.97796  0.58766  0.72962  1.0000
  C   C4328     1.0  0.82728  0.46253  0.63633  1.0000
  C   C4329     1.0  0.98280  0.62265  0.66279  1.0000
  C   C4330     1.0  0.84338  0.53761  0.72543  1.0000
  C   C4331     1.0  0.52680  0.35718  0.65520  1.0000
  C   C4332     1.0  0.77045  0.37450  0.69418  1.0000
  S   S584      1.0  0.94431  0.59330  0.70843  1.0000
  C   C4333     1.0  0.62383  0.37515  0.65865  1.0000
  H   H3478     1.0  0.51306  0.64921  0.70325  1.0000
  H   H3479     1.0  0.78979  0.52665  0.70739  1.0000
  P   P140      1.0  0.79100  0.56836  0.70663  1.0000
  H   H3480     1.0  0.92962  0.60969  0.62198  1.0000
  H   H3481     1.0  0.53324  0.61708  0.71725  1.0000
  C   C4334     1.0  0.80112  0.47217  0.53229  1.0000
  C   C4335     1.0  0.65855  0.37405  0.70382  1.0000
  C   C4336     1.0  0.55964  0.38288  0.58871  1.0000
  H   H3482     1.0  0.95377  0.49271  0.69474  1.0000
  C   C4337     1.0  0.51506  0.38644  0.59594  1.0000
  H   H3483     1.0  0.88163  0.37351  0.68923  1.0000
  S   S585      1.0  0.81910  0.37026  0.50488  1.0000
  C   C4338     1.0  0.65595  0.38564  0.65202  1.0000
  C   C4339     1.0  0.98203  0.64626  0.63237  1.0000
  H   H3484     1.0  0.94276  0.37868  0.71856  1.0000
  C   C4340     1.0  0.88153  0.44515  0.59258  1.0000
  H   H3485     1.0  0.69150  0.43196  0.66745  1.0000
  H   H3486     1.0  0.90541  0.42633  0.68519  1.0000
  P   P141      1.0  0.86934  0.44509  0.63128  1.0000
  H   H3487     1.0  0.82759  0.61746  0.65731  1.0000
  C   C4341     1.0  0.75901  0.38922  0.68223  1.0000
  S   S586      1.0  0.53994  0.47276  0.68275  1.0000
  C   C4342     1.0  0.90131  0.63737  0.68614  1.0000
  H   H3488     1.0  0.63956  0.33801  0.52943  1.0000
  H   H3489     1.0  0.61561  0.42399  0.66334  1.0000
  S   S587      1.0  0.99344  0.56668  0.67534  1.0000
  H   H3490     1.0  0.83933  0.42118  0.52657  1.0000
  C   C4343     1.0  0.78241  0.63054  0.68748  1.0000
  C   C4344     1.0  0.81251  0.46980  0.51429  1.0000
  C   C4345     1.0  0.79972  0.63289  0.67305  1.0000
  C   C4346     1.0  0.77970  0.61101  0.69765  1.0000
  S   S588      1.0  0.95217  0.58595  0.65778  1.0000
  H   H3491     1.0  0.53004  0.46838  0.72735  1.0000
  Fe  Fe289     1.0  0.98563  0.57522  0.64676  1.0000
  H   H3492     1.0  0.73343  0.39646  0.66919  1.0000
  C   C4347     1.0  0.75856  0.54152  0.67643  1.0000
  H   H3493     1.0  0.86295  0.33533  0.57175  1.0000
  H   H3494     1.0  0.63077  0.36891  0.70085  1.0000
  C   C4348     1.0  0.73370  0.33788  0.64082  1.0000
  H   H3495     1.0  0.61379  0.54808  0.68682  1.0000
  H   H3496     1.0  0.68166  0.59898  0.71743  1.0000
  H   H3497     1.0  0.57171  0.56337  0.71798  1.0000
  S   S589      1.0  0.98263  0.54386  0.64731  1.0000
  H   H3498     1.0  0.80594  0.33862  0.53392  1.0000
  C   C4349     1.0  0.90675  0.44843  0.63623  1.0000
  C   C4350     1.0  0.89023  0.45770  0.62736  1.0000
  C   C4351     1.0  0.91771  0.42126  0.69269  1.0000
  C   C4352     1.0  0.87971  0.32577  0.59367  1.0000
  H   H3499     1.0  0.55759  0.37968  0.68495  1.0000
  C   C4353     1.0  0.74252  0.37531  0.54710  1.0000
  H   H3500     1.0  0.73709  0.40224  0.60532  1.0000
  C   C4354     1.0  0.98094  0.43749  0.71070  1.0000
  C   C4355     1.0  0.79452  0.59365  0.69365  1.0000
  H   H3501     1.0  0.89245  0.45404  0.59165  1.0000
  C   C4356     1.0  0.51843  0.37999  0.57907  1.0000
  H   H3502     1.0  0.82156  0.54373  0.68177  1.0000
  H   H3503     1.0  0.61550  0.36375  0.65944  1.0000
  C   C4357     1.0  0.92195  0.45903  0.63417  1.0000
  Fe  Fe290     1.0  0.94957  0.55388  0.66057  1.0000
  C   C4358     1.0  0.73662  0.36608  0.68691  1.0000
  H   H3504     1.0  0.74721  0.57269  0.66331  1.0000
  C   C4359     1.0  0.81423  0.61569  0.66861  1.0000
  C   C4360     1.0  0.67934  0.43142  0.69689  1.0000
  C   C4361     1.0  0.87599  0.42814  0.50235  1.0000
  H   H3505     1.0  0.87191  0.43966  0.51064  1.0000
  C   C4362     1.0  0.91931  0.46270  0.72939  1.0000
  H   H3506     1.0  0.90406  0.50337  0.60531  1.0000
  C   C4363     1.0  0.62410  0.40920  0.66062  1.0000
  C   C4364     1.0  0.64486  0.42588  0.70925  1.0000
  H   H3507     1.0  0.59864  0.34103  0.59154  1.0000
  H   H3508     1.0  0.55989  0.48423  0.71320  1.0000
  C   C4365     1.0  0.87257  0.42222  0.64963  1.0000
  H   H3509     1.0  0.78414  0.33683  0.56628  1.0000
  C   C4366     1.0  0.92304  0.40077  0.70161  1.0000
  C   C4367     1.0  0.81153  0.59614  0.67873  1.0000
  C   C4368     1.0  0.81577  0.55212  0.70867  1.0000
  C   C4369     1.0  0.82399  0.54978  0.72435  1.0000
  H   H3510     1.0  0.55025  0.40074  0.70870  1.0000
  C   C4370     1.0  0.56285  0.38760  0.70860  1.0000
  Fe  Fe291     1.0  0.95951  0.57476  0.68633  1.0000
  C   C4371     1.0  0.78071  0.53682  0.69764  1.0000
  C   C4372     1.0  0.95691  0.48699  0.68205  1.0000
  C   C4373     1.0  0.61908  0.54721  0.69930  1.0000
  C   C4374     1.0  0.66044  0.40754  0.51464  1.0000
  C   C4375     1.0  0.76668  0.57094  0.68175  1.0000
  H   H3511     1.0  0.82278  0.58302  0.67487  1.0000
  C   C4376     1.0  0.51522  0.53373  0.60419  1.0000
  C   C4377     1.0  0.81246  0.33074  0.54600  1.0000
  H   H3512     1.0  0.84415  0.41185  0.59457  1.0000
  C   C4378     1.0  0.66248  0.42954  0.71197  1.0000
  C   C4379     1.0  0.69295  0.49197  0.53053  1.0000
  C   C4380     1.0  0.56430  0.55830  0.73256  1.0000
  H   H3513     1.0  0.75490  0.55119  0.72888  1.0000
  S   S590      1.0  0.68815  0.35212  0.55819  1.0000
  C   C4381     1.0  0.59742  0.36620  0.56742  1.0000
  H   H3514     1.0  0.75066  0.53514  0.66963  1.0000
  C   C4382     1.0  0.77060  0.52860  0.68883  1.0000
  Fe  Fe292     1.0  0.67479  0.33480  0.58693  1.0000
  C   C4383     1.0  0.57511  0.38278  0.72172  1.0000
  C   C4384     1.0  0.52784  0.39040  0.65856  1.0000
  C   C4385     1.0  0.71646  0.34013  0.63371  1.0000
  C   C4386     1.0  0.51480  0.56560  0.68559  1.0000
  C   C4387     1.0  0.88367  0.65073  0.68113  1.0000
  H   H3515     1.0  0.61623  0.57661  0.72945  1.0000
  C   C4388     1.0  0.58621  0.38514  0.55989  1.0000
  H   H3516     1.0  0.71463  0.41798  0.50570  1.0000
  C   C4389     1.0  0.97196  0.63502  0.64921  1.0000
  C   C4390     1.0  0.61382  0.56423  0.70735  1.0000
  H   H3517     1.0  0.73075  0.38572  0.63923  1.0000
  C   C4391     1.0  0.77014  0.36514  0.49978  1.0000
  C   C4392     1.0  0.77456  0.34594  0.51160  1.0000
  C   C4393     1.0  0.80024  0.32978  0.56419  1.0000
  C   C4394     1.0  0.91957  0.64411  0.68182  1.0000
  H   H3518     1.0  0.50669  0.51754  0.56916  1.0000
  H   H3519     1.0  0.50456  0.58044  0.68426  1.0000
  H   H3520     1.0  0.53318  0.41295  0.63309  1.0000
  C   C4395     1.0  0.63917  0.36934  0.71079  1.0000
  C   C4396     1.0  0.58823  0.44795  0.71783  1.0000
  C   C4397     1.0  0.60395  0.47383  0.72070  1.0000
  H   H3521     1.0  0.96608  0.46925  0.72942  1.0000
  H   H3522     1.0  0.52485  0.34166  0.66151  1.0000
  C   C4398     1.0  0.51630  0.64773  0.71681  1.0000
  H   H3523     1.0  0.81858  0.63875  0.70707  1.0000
  H   H3524     1.0  0.80173  0.64803  0.66516  1.0000
  C   C4399     1.0  0.89411  0.41351  0.50322  1.0000
  S   S591      1.0  0.85076  0.47857  0.73205  1.0000
  H   H3525     1.0  0.62239  0.65483  0.62356  1.0000
  H   H3526     1.0  0.68944  0.36312  0.49109  1.0000
  H   H3527     1.0  0.63159  0.42481  0.72080  1.0000
  H   H3528     1.0  0.85588  0.64507  0.64785  1.0000
  H   H3529     1.0  0.50641  0.44231  0.64467  1.0000
  H   H3530     1.0  0.87554  0.63676  0.72058  1.0000
  Fe  Fe293     1.0  0.57833  0.65069  0.65062  1.0000
  Fe  Fe294     1.0  0.98729  0.53600  0.67699  1.0000
  C   C4400     1.0  0.70192  0.56966  0.72321  1.0000
  C   C4401     1.0  0.63146  0.52924  0.70712  1.0000
  C   C4402     1.0  0.53087  0.48146  0.73201  1.0000
  Fe  Fe295     1.0  0.82067  0.47286  0.73151  1.0000
  H   H3531     1.0  0.73043  0.32771  0.57169  1.0000
  H   H3532     1.0  0.73204  0.32654  0.50214  1.0000
  H   H3533     1.0  0.99486  0.53461  0.71310  1.0000
  C   C4403     1.0  0.50059  0.63628  0.64277  1.0000
  C   C4404     1.0  0.57558  0.65389  0.72975  1.0000
  C   C4405     1.0  0.50305  0.59243  0.62519  1.0000
  C   C4406     1.0  0.50266  0.37451  0.57463  1.0000
  S   S592      1.0  0.69534  0.33016  0.64789  1.0000
  C   C4407     1.0  0.50254  0.58010  0.64329  1.0000
  H   H3534     1.0  0.81565  0.55715  0.73587  1.0000
  H   H3535     1.0  0.65024  0.58561  0.73241  1.0000
  C   C4408     1.0  0.66498  0.57523  0.73239  1.0000
  H   H3536     1.0  0.71427  0.33335  0.68311  1.0000
  C   C4409     1.0  0.90438  0.32941  0.49780  1.0000
  H   H3537     1.0  0.94074  0.52389  0.73254  1.0000
  C   C4410     1.0  0.90731  0.59422  0.73396  1.0000
  C   C4411     1.0  0.66156  0.37128  0.73562  1.0000
  C   C4412     1.0  0.49574  0.38733  0.60823  1.0000
  C   C4413     1.0  0.84502  0.65740  0.65355  1.0000
  C   C4414     1.0  0.70617  0.32942  0.69759  1.0000
  H   H3538     1.0  0.67865  0.33035  0.68940  1.0000
  C   C4415     1.0  0.49692  0.58826  0.73405  1.0000
  H   H3539     1.0  0.79504  0.40577  0.48742  1.0000
  H   H3540     1.0  0.72842  0.45768  0.73636  1.0000
  C   C4416     1.0  0.81559  0.42402  0.48749  1.0000
  C   C4417     1.0  0.99421  0.65141  0.56202  1.0000
  C   C4418     1.0  0.81802  0.63509  0.73635  1.0000
  C   C4419     1.0  0.49509  0.53943  0.61377  1.0000
  P   P142      1.0  0.74304  0.32555  0.70765  1.0000
  H   H3541     1.0  0.78295  0.32577  0.68117  1.0000
  Fe  Fe296     1.0  0.81562  0.59634  0.79866  1.0000
  S   S593      1.0  0.84919  0.58430  0.79023  1.0000
  S   S594      1.0  0.80388  0.62729  0.80582  1.0000
  Fe  Fe297     1.0  0.80473  0.55764  0.79582  1.0000
  S   S595      1.0  0.83753  0.54208  0.78785  1.0000
  S   S596      1.0  0.77799  0.54373  0.79871  1.0000
  Fe  Fe298     1.0  0.84244  0.55502  0.80990  1.0000
  S   S597      1.0  0.85790  0.54054  0.83414  1.0000
  Fe  Fe299     1.0  0.84097  0.57277  0.76900  1.0000
  C   C4420     1.0  0.76526  0.32701  0.90885  1.0000
  S   S598      1.0  0.80918  0.56799  0.81971  1.0000
  S   S599      1.0  0.80783  0.58749  0.77555  1.0000
  H   H3542     1.0  0.52726  0.39319  0.84177  1.0000
  C   C4421     1.0  0.86633  0.63826  0.91538  1.0000
  Fe  Fe300     1.0  0.57462  0.61545  0.83625  1.0000
  S   S600      1.0  0.58865  0.58185  0.83814  1.0000
  H   H3543     1.0  0.86041  0.41248  0.81437  1.0000
  Fe  Fe301     1.0  0.69895  0.34320  0.86629  1.0000
  S   S601      1.0  0.70967  0.37257  0.85922  1.0000
  H   H3544     1.0  0.92356  0.64703  0.81805  1.0000
  H   H3545     1.0  0.89095  0.34364  0.84426  1.0000
  S   S602      1.0  0.73879  0.35856  0.82045  1.0000
  C   C4422     1.0  0.91935  0.57505  0.89593  1.0000
  Fe  Fe302     1.0  0.74076  0.35335  0.85055  1.0000
  S   S603      1.0  0.76861  0.35645  0.85816  1.0000
  Fe  Fe303     1.0  0.70663  0.37496  0.82978  1.0000
  S   S604      1.0  0.69374  0.40297  0.80975  1.0000
  H   H3546     1.0  0.86991  0.62292  0.80874  1.0000
  S   S605      1.0  0.69319  0.34708  0.83748  1.0000
  C   C4423     1.0  0.57063  0.39036  0.78864  1.0000
  H   H3547     1.0  0.51283  0.33720  0.93232  1.0000
  H   H3548     1.0  0.51743  0.39135  0.76080  1.0000
  S   S606      1.0  0.69277  0.33341  0.97059  1.0000
  Fe  Fe304     1.0  0.58258  0.47719  0.78414  1.0000
  S   S607      1.0  0.58218  0.44521  0.80064  1.0000
  S   S608      1.0  0.60010  0.48443  0.75409  1.0000
  Fe  Fe305     1.0  0.55381  0.49578  0.81617  1.0000
  S   S609      1.0  0.54993  0.46516  0.83511  1.0000
  S   S610      1.0  0.53759  0.52559  0.82504  1.0000
  Fe  Fe306     1.0  0.58386  0.45657  0.82495  1.0000
  S   S611      1.0  0.60246  0.43850  0.84621  1.0000
  Fe  Fe307     1.0  0.54837  0.45634  0.80920  1.0000
  S   S612      1.0  0.58790  0.48757  0.80767  1.0000
  S   S613      1.0  0.54868  0.48792  0.79106  1.0000
  C   C4424     1.0  0.49553  0.58513  0.86475  1.0000
  H   H3549     1.0  0.79878  0.38332  0.84634  1.0000
  C   C4425     1.0  0.75201  0.43745  0.78078  1.0000
  H   H3550     1.0  0.78316  0.33682  0.92230  1.0000
  H   H3551     1.0  0.79465  0.35323  0.81668  1.0000
  C   C4426     1.0  0.73495  0.45206  0.74875  1.0000
  H   H3552     1.0  0.80805  0.34680  0.86627  1.0000
  C   C4427     1.0  0.88341  0.33444  0.84010  1.0000
  C   C4428     1.0  0.69803  0.33938  0.91469  1.0000
  C   C4429     1.0  0.70175  0.33903  0.93215  1.0000
  C   C4430     1.0  0.68764  0.33363  0.94899  1.0000
  H   H3553     1.0  0.68684  0.52482  0.74492  1.0000
  H   H3554     1.0  0.50468  0.53663  0.89074  1.0000
  H   H3555     1.0  0.70898  0.34356  0.90177  1.0000
  H   H3556     1.0  0.71552  0.34305  0.93264  1.0000
  C   C4431     1.0  0.59508  0.47078  0.74006  1.0000
  C   C4432     1.0  0.53496  0.56233  0.75866  1.0000
  C   C4433     1.0  0.66875  0.41402  0.81980  1.0000
  C   C4434     1.0  0.66205  0.41091  0.83939  1.0000
  C   C4435     1.0  0.64181  0.41911  0.84738  1.0000
  C   C4436     1.0  0.62809  0.42993  0.83583  1.0000
  C   C4437     1.0  0.63489  0.43352  0.81620  1.0000
  C   C4438     1.0  0.65531  0.42579  0.80819  1.0000
  H   H3557     1.0  0.67245  0.40214  0.84840  1.0000
  H   H3558     1.0  0.63664  0.41666  0.86256  1.0000
  H   H3559     1.0  0.62441  0.44209  0.80720  1.0000
  H   H3560     1.0  0.66058  0.42855  0.79303  1.0000
  C   C4439     1.0  0.52519  0.33853  0.91994  1.0000
  C   C4440     1.0  0.94724  0.56859  0.91178  1.0000
  C   C4441     1.0  0.95764  0.57501  0.75464  1.0000
  H   H3561     1.0  0.84913  0.40076  0.75295  1.0000
  H   H3562     1.0  0.57503  0.45465  0.76293  1.0000
  Fe  Fe308     1.0  0.96693  0.42837  0.79577  1.0000
  C   C4442     1.0  0.57436  0.56623  0.83461  1.0000
  C   C4443     1.0  0.58382  0.54632  0.83233  1.0000
  C   C4444     1.0  0.57288  0.53387  0.82898  1.0000
  C   C4445     1.0  0.55221  0.54102  0.82838  1.0000
  C   C4446     1.0  0.54271  0.56081  0.83098  1.0000
  C   C4447     1.0  0.55382  0.57347  0.83377  1.0000
  H   H3563     1.0  0.59975  0.54058  0.83288  1.0000
  H   H3564     1.0  0.58038  0.51859  0.82732  1.0000
  H   H3565     1.0  0.52671  0.56640  0.83072  1.0000
  H   H3566     1.0  0.54645  0.58878  0.83541  1.0000
  H   H3567     1.0  0.91332  0.36558  0.79015  1.0000
  C   C4448     1.0  0.81310  0.62830  0.82492  1.0000
  C   C4449     1.0  0.80747  0.64623  0.83178  1.0000
  H   H3568     1.0  0.58334  0.59187  0.79942  1.0000
  C   C4450     1.0  0.82814  0.63020  0.85525  1.0000
  C   C4451     1.0  0.83387  0.61238  0.84825  1.0000
  C   C4452     1.0  0.82621  0.61134  0.83327  1.0000
  C   C4453     1.0  0.51630  0.50692  0.75100  1.0000
  H   H3569     1.0  0.67023  0.37202  0.74525  1.0000
  H   H3570     1.0  0.84407  0.59927  0.85456  1.0000
  H   H3571     1.0  0.83050  0.59739  0.82817  1.0000
  C   C4454     1.0  0.87470  0.51663  0.83746  1.0000
  C   C4455     1.0  0.88479  0.50634  0.82283  1.0000
  C   C4456     1.0  0.89884  0.48763  0.82646  1.0000
  C   C4457     1.0  0.90246  0.47924  0.84473  1.0000
  C   C4458     1.0  0.89199  0.48945  0.85924  1.0000
  C   C4459     1.0  0.87846  0.50815  0.85556  1.0000
  H   H3572     1.0  0.88205  0.51287  0.80877  1.0000
  H   H3573     1.0  0.90682  0.47972  0.81520  1.0000
  H   H3574     1.0  0.89476  0.48308  0.87331  1.0000
  H   H3575     1.0  0.87092  0.51607  0.86687  1.0000
  C   C4460     1.0  0.51050  0.54154  0.92982  1.0000
  H   H3576     1.0  0.82206  0.63092  0.76458  1.0000
  C   C4461     1.0  0.62084  0.33399  0.81759  1.0000
  C   C4462     1.0  0.80068  0.52432  0.76999  1.0000
  C   C4463     1.0  0.78154  0.52937  0.78175  1.0000
  C   C4464     1.0  0.76492  0.52283  0.78003  1.0000
  H   H3577     1.0  0.50798  0.44228  0.84258  1.0000
  H   H3578     1.0  0.75441  0.50693  0.76492  1.0000
  H   H3579     1.0  0.81357  0.52930  0.77109  1.0000
  H   H3580     1.0  0.75010  0.52660  0.78913  1.0000
  H   H3581     1.0  0.53539  0.52172  0.87023  1.0000
  P   P143      1.0  0.87139  0.36911  0.81316  1.0000
  C   C4465     1.0  0.85881  0.38808  0.76039  1.0000
  H   H3582     1.0  0.53822  0.54057  0.78496  1.0000
  C   C4466     1.0  0.52427  0.55812  0.88474  1.0000
  H   H3583     1.0  0.63617  0.36358  0.75779  1.0000
  C   C4467     1.0  0.78095  0.40363  0.79626  1.0000
  C   C4468     1.0  0.85929  0.35312  0.88286  1.0000
  C   C4469     1.0  0.52673  0.35769  0.90811  1.0000
  H   H3584     1.0  0.54390  0.58789  0.77505  1.0000
  H   H3585     1.0  0.55809  0.36341  0.80104  1.0000
  H   H3586     1.0  0.69316  0.43237  0.84006  1.0000
  H   H3587     1.0  0.57657  0.62888  0.78236  1.0000
  C   C4470     1.0  0.51539  0.48917  0.74619  1.0000
  C   C4471     1.0  0.99308  0.51713  0.74171  1.0000
  C   C4472     1.0  0.54526  0.54563  0.77029  1.0000
  C   C4473     1.0  0.97315  0.55508  0.78080  1.0000
  H   H3588     1.0  0.84957  0.53582  0.73762  1.0000
  C   C4474     1.0  0.80760  0.36736  0.78819  1.0000
  H   H3589     1.0  0.77091  0.38466  0.82355  1.0000
  C   C4475     1.0  0.64285  0.63892  0.89784  1.0000
  C   C4476     1.0  0.53014  0.59248  0.78516  1.0000
  H   H3590     1.0  0.50521  0.54995  0.80661  1.0000
  C   C4477     1.0  0.59264  0.37063  0.75913  1.0000
  C   C4478     1.0  0.78126  0.38532  0.80996  1.0000
  C   C4479     1.0  0.52140  0.43910  0.76055  1.0000
  H   H3591     1.0  0.54549  0.60645  0.79764  1.0000
  S   S614      1.0  0.54987  0.63132  0.82058  1.0000
  C   C4480     1.0  0.74782  0.46259  0.75180  1.0000
  H   H3592     1.0  0.73633  0.41258  0.78706  1.0000
  C   C4481     1.0  0.73653  0.41346  0.85701  1.0000
  C   C4482     1.0  0.71570  0.41963  0.85708  1.0000
  C   C4483     1.0  0.70931  0.42787  0.84007  1.0000
  C   C4484     1.0  0.72371  0.42993  0.82296  1.0000
  C   C4485     1.0  0.74470  0.42352  0.82272  1.0000
  C   C4486     1.0  0.75095  0.41566  0.83993  1.0000
  P   P144      1.0  0.76373  0.42716  0.80090  1.0000
  H   H3593     1.0  0.62757  0.63772  0.92703  1.0000
  C   C4487     1.0  0.79372  0.40342  0.77826  1.0000
  H   H3594     1.0  0.49577  0.63137  0.92181  1.0000
  H   H3595     1.0  0.59394  0.58856  0.90431  1.0000
  C   C4488     1.0  0.77709  0.44527  0.80261  1.0000
  C   C4489     1.0  0.76585  0.46295  0.80912  1.0000
  C   C4490     1.0  0.77580  0.47768  0.80969  1.0000
  C   C4491     1.0  0.79697  0.47505  0.80345  1.0000
  C   C4492     1.0  0.80825  0.45747  0.79707  1.0000
  C   C4493     1.0  0.79843  0.44248  0.79686  1.0000
  H   H3596     1.0  0.74151  0.40664  0.87016  1.0000
  H   H3597     1.0  0.70450  0.41764  0.87029  1.0000
  C   C4494     1.0  0.61480  0.58583  0.78487  1.0000
  H   H3598     1.0  0.76701  0.41094  0.84013  1.0000
  H   H3599     1.0  0.79780  0.41989  0.84411  1.0000
  H   H3600     1.0  0.81659  0.38535  0.76027  1.0000
  C   C4495     1.0  0.93800  0.51688  0.80768  1.0000
  H   H3601     1.0  0.74937  0.46551  0.81346  1.0000
  H   H3602     1.0  0.76710  0.49143  0.81447  1.0000
  H   H3603     1.0  0.80462  0.48678  0.80332  1.0000
  H   H3604     1.0  0.82465  0.45557  0.79210  1.0000
  H   H3605     1.0  0.80758  0.42894  0.79200  1.0000
  S   S615      1.0  0.83711  0.63055  0.87477  1.0000
  S   S616      1.0  0.95046  0.46052  0.79700  1.0000
  H   H3606     1.0  0.51363  0.47879  0.78636  1.0000
  C   C4496     1.0  0.89794  0.61424  0.78888  1.0000
  C   C4497     1.0  0.88353  0.35505  0.77967  1.0000
  H   H3607     1.0  0.53997  0.58344  0.87590  1.0000
  S   S617      1.0  0.95938  0.41196  0.77760  1.0000
  C   C4498     1.0  0.53539  0.50960  0.93014  1.0000
  C   C4499     1.0  0.89514  0.53809  0.76166  1.0000
  H   H3608     1.0  0.99018  0.53039  0.74760  1.0000
  C   C4500     1.0  0.81180  0.41012  0.83842  1.0000
  C   C4501     1.0  0.57610  0.63595  0.76780  1.0000
  C   C4502     1.0  0.49736  0.59385  0.75042  1.0000
  S   S618      1.0  0.55908  0.62874  0.86176  1.0000
  H   H3609     1.0  0.56484  0.58071  0.93081  1.0000
  H   H3610     1.0  0.54916  0.50016  0.92367  1.0000
  H   H3611     1.0  0.75308  0.34047  0.90940  1.0000
  C   C4503     1.0  0.54257  0.35941  0.89207  1.0000
  C   C4504     1.0  0.83046  0.37703  0.83219  1.0000
  C   C4505     1.0  0.74824  0.57483  0.76445  1.0000
  H   H3612     1.0  0.89318  0.34211  0.78696  1.0000
  C   C4506     1.0  0.84993  0.63410  0.74380  1.0000
  C   C4507     1.0  0.81238  0.38957  0.83969  1.0000
  C   C4508     1.0  0.84724  0.40577  0.82177  1.0000
  C   C4509     1.0  0.87231  0.34288  0.82580  1.0000
  H   H3613     1.0  0.81808  0.50869  0.74780  1.0000
  H   H3614     1.0  0.88555  0.57958  0.92820  1.0000
  H   H3615     1.0  0.57750  0.34580  0.77537  1.0000
  Fe  Fe309     1.0  0.94874  0.44972  0.82806  1.0000
  C   C4510     1.0  0.80608  0.33363  0.86262  1.0000
  H   H3616     1.0  0.50494  0.55717  0.92304  1.0000
  C   C4511     1.0  0.93661  0.53726  0.75619  1.0000
  C   C4512     1.0  0.91733  0.47912  0.75445  1.0000
  C   C4513     1.0  0.94024  0.50262  0.82441  1.0000
  H   H3617     1.0  0.59061  0.33179  0.90155  1.0000
  H   H3618     1.0  0.89420  0.55866  0.81525  1.0000
  H   H3619     1.0  0.56193  0.39816  0.79986  1.0000
  H   H3620     1.0  0.65804  0.37332  0.87259  1.0000
  C   C4514     1.0  0.51372  0.60859  0.81164  1.0000
  C   C4515     1.0  0.57923  0.62378  0.75479  1.0000
  H   H3621     1.0  0.92464  0.43226  0.80172  1.0000
  P   P145      1.0  0.89782  0.59258  0.88733  1.0000
  H   H3622     1.0  0.82877  0.43420  0.82813  1.0000
  C   C4516     1.0  0.55687  0.34198  0.88790  1.0000
  H   H3623     1.0  0.85004  0.39988  0.78542  1.0000
  H   H3624     1.0  0.85515  0.63596  0.94531  1.0000
  C   C4517     1.0  0.86252  0.33047  0.82096  1.0000
  H   H3625     1.0  0.61877  0.59693  0.79012  1.0000
  C   C4518     1.0  0.83826  0.35707  0.88417  1.0000
  H   H3626     1.0  0.75153  0.47625  0.74170  1.0000
  H   H3627     1.0  0.94448  0.37242  0.79426  1.0000
  C   C4519     1.0  0.62225  0.34004  0.83340  1.0000
  C   C4520     1.0  0.99214  0.55907  0.77021  1.0000
  P   P146      1.0  0.61338  0.36653  0.83472  1.0000
  C   C4521     1.0  0.58614  0.37482  0.83627  1.0000
  C   C4522     1.0  0.61864  0.37042  0.85553  1.0000
  C   C4523     1.0  0.60307  0.37189  0.87188  1.0000
  C   C4524     1.0  0.60726  0.37422  0.88817  1.0000
  C   C4525     1.0  0.62710  0.37463  0.88844  1.0000
  C   C4526     1.0  0.64266  0.37293  0.87238  1.0000
  C   C4527     1.0  0.63847  0.37101  0.85597  1.0000
  C   C4528     1.0  0.57657  0.39486  0.83826  1.0000
  C   C4529     1.0  0.55543  0.40136  0.84028  1.0000
  C   C4530     1.0  0.54362  0.38789  0.84057  1.0000
  C   C4531     1.0  0.55293  0.36777  0.83911  1.0000
  C   C4532     1.0  0.57413  0.36122  0.83693  1.0000
  C   C4533     1.0  0.62787  0.37988  0.81322  1.0000
  C   C4534     1.0  0.61816  0.39661  0.80119  1.0000
  C   C4535     1.0  0.62941  0.40612  0.78417  1.0000
  C   C4536     1.0  0.65046  0.39892  0.77894  1.0000
  C   C4537     1.0  0.66023  0.38210  0.79065  1.0000
  C   C4538     1.0  0.64898  0.37245  0.80756  1.0000
  S   S619      1.0  0.82477  0.44173  0.75028  1.0000
  H   H3628     1.0  0.61358  0.34490  0.80683  1.0000
  H   H3629     1.0  0.58766  0.37129  0.87219  1.0000
  H   H3630     1.0  0.59518  0.37560  0.90063  1.0000
  H   H3631     1.0  0.63054  0.37615  0.90108  1.0000
  C   C4539     1.0  0.78815  0.33444  0.85734  1.0000
  H   H3632     1.0  0.65077  0.37014  0.84372  1.0000
  H   H3633     1.0  0.58548  0.40548  0.83827  1.0000
  H   H3634     1.0  0.54821  0.41700  0.84132  1.0000
  H   H3635     1.0  0.54369  0.35730  0.83957  1.0000
  H   H3636     1.0  0.58094  0.34551  0.83608  1.0000
  H   H3637     1.0  0.60192  0.40235  0.80478  1.0000
  H   H3638     1.0  0.62185  0.41936  0.77521  1.0000
  H   H3639     1.0  0.65927  0.40666  0.76606  1.0000
  H   H3640     1.0  0.67665  0.37677  0.78692  1.0000
  H   H3641     1.0  0.65684  0.35917  0.81620  1.0000
  H   H3642     1.0  0.89997  0.41826  0.75180  1.0000
  C   C4540     1.0  0.59446  0.39045  0.75844  1.0000
  C   C4541     1.0  0.57419  0.54136  0.74407  1.0000
  H   H3643     1.0  0.94080  0.49752  0.85364  1.0000
  C   C4542     1.0  0.86872  0.33527  0.89378  1.0000
  C   C4543     1.0  0.80325  0.51260  0.75675  1.0000
  P   P147      1.0  0.64309  0.54463  0.75119  1.0000
  C   C4544     1.0  0.64740  0.51982  0.76683  1.0000
  C   C4545     1.0  0.97662  0.57897  0.74407  1.0000
  H   H3644     1.0  0.62519  0.33240  0.90325  1.0000
  H   H3645     1.0  0.76811  0.59271  0.76629  1.0000
  H   H3646     1.0  0.94463  0.58048  0.74811  1.0000
  H   H3647     1.0  0.91299  0.60184  0.74149  1.0000
  C   C4546     1.0  0.49742  0.48082  0.79226  1.0000
  C   C4547     1.0  0.66044  0.51579  0.77926  1.0000
  C   C4548     1.0  0.66330  0.49692  0.79197  1.0000
  C   C4549     1.0  0.65286  0.48211  0.79263  1.0000
  C   C4550     1.0  0.63939  0.48623  0.78070  1.0000
  C   C4551     1.0  0.63640  0.50513  0.76807  1.0000
  C   C4552     1.0  0.62432  0.56015  0.76609  1.0000
  C   C4553     1.0  0.60425  0.55697  0.77195  1.0000
  C   C4554     1.0  0.58954  0.56826  0.78404  1.0000
  C   C4555     1.0  0.63250  0.32586  0.84677  1.0000
  C   C4556     1.0  0.88308  0.35589  0.76105  1.0000
  C   C4557     1.0  0.75634  0.45534  0.76774  1.0000
  C   C4558     1.0  0.65432  0.64967  0.88179  1.0000
  H   H3648     1.0  0.85871  0.63215  0.75422  1.0000
  C   C4559     1.0  0.54487  0.56888  0.73984  1.0000
  H   H3649     1.0  0.52996  0.64112  0.76484  1.0000
  C   C4560     1.0  0.90537  0.42144  0.76259  1.0000
  C   C4561     1.0  0.87061  0.37237  0.75145  1.0000
  C   C4562     1.0  0.76505  0.63342  0.98195  1.0000
  H   H3650     1.0  0.88873  0.63974  0.82667  1.0000
  H   H3651     1.0  0.96532  0.53791  0.91547  1.0000
  H   H3652     1.0  0.87828  0.59414  0.75380  1.0000
  H   H3653     1.0  0.66819  0.52732  0.77932  1.0000
  H   H3654     1.0  0.67339  0.49385  0.80152  1.0000
  H   H3655     1.0  0.65492  0.46761  0.80264  1.0000
  H   H3656     1.0  0.63094  0.47492  0.78144  1.0000
  H   H3657     1.0  0.62522  0.50832  0.75959  1.0000
  H   H3658     1.0  0.60006  0.54559  0.76732  1.0000
  H   H3659     1.0  0.57413  0.56557  0.78872  1.0000
  H   H3660     1.0  0.93684  0.40762  0.75259  1.0000
  H   H3661     1.0  0.94203  0.48666  0.82485  1.0000
  C   C4563     1.0  0.86995  0.60658  0.93876  1.0000
  Fe  Fe310     1.0  0.72561  0.33051  0.83035  1.0000
  C   C4564     1.0  0.66621  0.55437  0.74072  1.0000
  H   H3662     1.0  0.54263  0.41016  0.76189  1.0000
  C   C4565     1.0  0.74820  0.57513  0.82952  1.0000
  C   C4566     1.0  0.75266  0.59385  0.81880  1.0000
  C   C4567     1.0  0.76014  0.60564  0.82654  1.0000
  C   C4568     1.0  0.76359  0.59857  0.84485  1.0000
  C   C4569     1.0  0.75893  0.57984  0.85580  1.0000
  C   C4570     1.0  0.75127  0.56815  0.84794  1.0000
  P   P148      1.0  0.76320  0.57026  0.87953  1.0000
  C   C4571     1.0  0.78665  0.55118  0.87971  1.0000
  C   C4572     1.0  0.76481  0.59082  0.88900  1.0000
  C   C4573     1.0  0.78275  0.59857  0.88314  1.0000
  C   C4574     1.0  0.78429  0.61424  0.89058  1.0000
  C   C4575     1.0  0.76803  0.62236  0.90380  1.0000
  C   C4576     1.0  0.75014  0.61478  0.90975  1.0000
  C   C4577     1.0  0.74851  0.59901  0.90245  1.0000
  C   C4578     1.0  0.79671  0.54693  0.89457  1.0000
  C   C4579     1.0  0.81454  0.53177  0.89510  1.0000
  C   C4580     1.0  0.82255  0.52090  0.88073  1.0000
  C   C4581     1.0  0.81273  0.52514  0.86587  1.0000
  C   C4582     1.0  0.79473  0.54004  0.86544  1.0000
  C   C4583     1.0  0.74184  0.55906  0.89392  1.0000
  C   C4584     1.0  0.72198  0.56848  0.89130  1.0000
  C   C4585     1.0  0.70534  0.55993  0.90235  1.0000
  C   C4586     1.0  0.70840  0.54197  0.91612  1.0000
  C   C4587     1.0  0.72809  0.53255  0.91886  1.0000
  C   C4588     1.0  0.74477  0.54104  0.90782  1.0000
  H   H3663     1.0  0.74292  0.56572  0.82333  1.0000
  H   H3664     1.0  0.75076  0.59899  0.80437  1.0000
  H   H3665     1.0  0.76383  0.62005  0.81812  1.0000
  H   H3666     1.0  0.77014  0.60769  0.85013  1.0000
  H   H3667     1.0  0.74809  0.55339  0.85587  1.0000
  H   H3668     1.0  0.79559  0.59253  0.87281  1.0000
  H   H3669     1.0  0.79818  0.62005  0.88623  1.0000
  S   S620      1.0  0.86535  0.43881  0.77657  1.0000
  H   H3670     1.0  0.73768  0.62107  0.92022  1.0000
  H   H3671     1.0  0.73457  0.59327  0.90746  1.0000
  H   H3672     1.0  0.79071  0.55521  0.90581  1.0000
  H   H3673     1.0  0.82229  0.52854  0.90654  1.0000
  H   H3674     1.0  0.83651  0.50934  0.88093  1.0000
  H   H3675     1.0  0.81929  0.51707  0.85447  1.0000
  H   H3676     1.0  0.78738  0.54283  0.85384  1.0000
  H   H3677     1.0  0.71936  0.58243  0.88070  1.0000
  H   H3678     1.0  0.69007  0.56721  0.90022  1.0000
  H   H3679     1.0  0.69551  0.53531  0.92467  1.0000
  H   H3680     1.0  0.73045  0.51860  0.92952  1.0000
  H   H3681     1.0  0.75987  0.53344  0.91018  1.0000
  C   C4589     1.0  0.58812  0.49375  0.88170  1.0000
  C   C4590     1.0  0.58037  0.48748  0.86952  1.0000
  C   C4591     1.0  0.56124  0.49754  0.86573  1.0000
  C   C4592     1.0  0.54988  0.51399  0.87391  1.0000
  C   C4593     1.0  0.55754  0.52048  0.88613  1.0000
  C   C4594     1.0  0.57672  0.51008  0.89007  1.0000
  P   P149      1.0  0.54242  0.54071  0.89803  1.0000
  C   C4595     1.0  0.55929  0.55487  0.90075  1.0000
  C   C4596     1.0  0.93472  0.53771  0.80716  1.0000
  P   P150      1.0  0.60626  0.35830  0.73977  1.0000
  H   H3682     1.0  0.87771  0.61622  0.85648  1.0000
  C   C4597     1.0  0.51240  0.59154  0.86590  1.0000
  S   S621      1.0  0.96295  0.41700  0.82706  1.0000
  H   H3683     1.0  0.94722  0.63071  0.83978  1.0000
  C   C4598     1.0  0.55536  0.56267  0.91698  1.0000
  C   C4599     1.0  0.56794  0.57464  0.91832  1.0000
  C   C4600     1.0  0.58439  0.57900  0.90345  1.0000
  C   C4601     1.0  0.58843  0.57118  0.88734  1.0000
  C   C4602     1.0  0.57600  0.55910  0.88603  1.0000
  H   H3684     1.0  0.93274  0.56004  0.82304  1.0000
  C   C4603     1.0  0.89376  0.37647  0.81473  1.0000
  H   H3685     1.0  0.53242  0.44692  0.76160  1.0000
  H   H3686     1.0  0.53404  0.52931  0.74664  1.0000
  C   C4604     1.0  0.91103  0.38898  0.83187  1.0000
  H   H3687     1.0  0.95278  0.53639  0.75401  1.0000
  H   H3688     1.0  0.60298  0.48591  0.88461  1.0000
  H   H3689     1.0  0.58923  0.47490  0.86291  1.0000
  H   H3690     1.0  0.55538  0.49294  0.85602  1.0000
  Fe  Fe311     1.0  0.98124  0.46573  0.79561  1.0000
  H   H3691     1.0  0.58290  0.51454  0.89965  1.0000
  H   H3692     1.0  0.51447  0.61649  0.82182  1.0000
  C   C4605     1.0  0.64223  0.36649  0.74267  1.0000
  H   H3693     1.0  0.54230  0.61286  0.74769  1.0000
  H   H3694     1.0  0.58179  0.60738  0.75938  1.0000
  C   C4606     1.0  0.92951  0.38412  0.81923  1.0000
  H   H3695     1.0  0.60393  0.39860  0.74631  1.0000
  S   S622      1.0  0.85534  0.57573  0.73827  1.0000
  H   H3696     1.0  0.64515  0.57654  0.76932  1.0000
  H   H3697     1.0  0.60098  0.57476  0.87562  1.0000
  H   H3698     1.0  0.57919  0.55341  0.87332  1.0000
  C   C4607     1.0  0.93832  0.47838  0.74878  1.0000
  C   C4608     1.0  0.52719  0.41816  0.76092  1.0000
  C   C4609     1.0  0.93333  0.41975  0.77688  1.0000
  C   C4610     1.0  0.91944  0.42949  0.79062  1.0000
  C   C4611     1.0  0.84910  0.56931  0.88864  1.0000
  C   C4612     1.0  0.85671  0.55904  0.87384  1.0000
  C   C4613     1.0  0.87668  0.55892  0.86334  1.0000
  C   C4614     1.0  0.88898  0.56918  0.86747  1.0000
  C   C4615     1.0  0.88163  0.57916  0.88256  1.0000
  C   C4616     1.0  0.86151  0.57935  0.89303  1.0000
  C   C4617     1.0  0.82664  0.34317  0.89636  1.0000
  C   C4618     1.0  0.78657  0.50649  0.75475  1.0000
  H   H3699     1.0  0.87905  0.53855  0.76359  1.0000
  C   C4619     1.0  0.62964  0.57437  0.77295  1.0000
  C   C4620     1.0  0.81496  0.64717  0.84694  1.0000
  H   H3700     1.0  0.80212  0.63399  0.74102  1.0000
  H   H3701     1.0  0.73354  0.62504  0.87010  1.0000
  H   H3702     1.0  0.86825  0.36393  0.87342  1.0000
  H   H3703     1.0  0.85342  0.33671  0.81034  1.0000
  C   C4621     1.0  0.92623  0.41549  0.76301  1.0000
  C   C4622     1.0  0.88083  0.59036  0.81392  1.0000
  C   C4623     1.0  0.52590  0.64294  0.75153  1.0000
  H   H3704     1.0  0.71821  0.43647  0.81009  1.0000
  S   S623      1.0  0.67553  0.33367  0.89250  1.0000
  H   H3705     1.0  0.91051  0.39611  0.84311  1.0000
  C   C4624     1.0  0.88377  0.60651  0.90547  1.0000
  C   C4625     1.0  0.95567  0.56316  0.77311  1.0000
  H   H3706     1.0  0.83341  0.57000  0.89636  1.0000
  H   H3707     1.0  0.84700  0.55167  0.87011  1.0000
  H   H3708     1.0  0.88257  0.55113  0.85176  1.0000
  H   H3709     1.0  0.90420  0.56940  0.85881  1.0000
  H   H3710     1.0  0.85507  0.58776  0.90414  1.0000
  H   H3711     1.0  0.76778  0.63756  0.96669  1.0000
  H   H3712     1.0  0.58921  0.53304  0.73841  1.0000
  H   H3713     1.0  0.93868  0.51153  0.79529  1.0000
  C   C4626     1.0  0.86307  0.62772  0.93423  1.0000
  H   H3714     1.0  0.81779  0.35335  0.78506  1.0000
  C   C4627     1.0  0.93019  0.37553  0.80436  1.0000
  H   H3715     1.0  0.90378  0.52521  0.73702  1.0000
  C   C4628     1.0  0.90183  0.54564  0.77374  1.0000
  H   H3716     1.0  0.65888  0.64408  0.86889  1.0000
  H   H3717     1.0  0.89071  0.55155  0.78515  1.0000
  C   C4629     1.0  0.76735  0.51171  0.76635  1.0000
  H   H3718     1.0  0.87843  0.63619  0.88648  1.0000
  C   C4630     1.0  0.82926  0.63329  0.74966  1.0000
  H   H3719     1.0  0.94577  0.48425  0.75640  1.0000
  H   H3720     1.0  0.89227  0.34371  0.75412  1.0000
  H   H3721     1.0  0.74789  0.33806  0.95175  1.0000
  S   S624      1.0  0.53138  0.43473  0.80556  1.0000
  C   C4631     1.0  0.89156  0.43127  0.77634  1.0000
  H   H3722     1.0  0.95588  0.57400  0.91864  1.0000
  H   H3723     1.0  0.91598  0.54848  0.88821  1.0000
  C   C4632     1.0  0.91875  0.63667  0.83123  1.0000
  H   H3724     1.0  0.93640  0.53445  0.85268  1.0000
  C   C4633     1.0  0.81888  0.32598  0.95112  1.0000
  C   C4634     1.0  0.93684  0.52960  0.84012  1.0000
  C   C4635     1.0  0.50624  0.43320  0.81811  1.0000
  C   C4636     1.0  0.80698  0.38538  0.77427  1.0000
  H   H3725     1.0  0.93637  0.60726  0.86982  1.0000
  C   C4637     1.0  0.58362  0.40015  0.77327  1.0000
  H   H3726     1.0  0.54374  0.37425  0.88285  1.0000
  C   C4638     1.0  0.79465  0.36731  0.80600  1.0000
  C   C4639     1.0  0.57952  0.36088  0.77464  1.0000
  Fe  Fe312     1.0  0.81874  0.65489  0.89070  1.0000
  H   H3727     1.0  0.76941  0.63442  0.90958  1.0000
  H   H3728     1.0  0.94326  0.38757  0.82055  1.0000
  H   H3729     1.0  0.76660  0.46358  0.76953  1.0000
  C   C4640     1.0  0.84811  0.38500  0.82337  1.0000
  C   C4641     1.0  0.90778  0.47160  0.74456  1.0000
  C   C4642     1.0  0.92262  0.54569  0.77085  1.0000
  H   H3730     1.0  0.86825  0.58723  0.82571  1.0000
  Fe  Fe313     1.0  0.85579  0.44629  0.74897  1.0000
  C   C4643     1.0  0.56851  0.37078  0.78929  1.0000
  H   H3731     1.0  0.81044  0.34664  0.89702  1.0000
  H   H3732     1.0  0.73847  0.57605  0.77818  1.0000
  C   C4644     1.0  0.51155  0.58813  0.78536  1.0000
  C   C4645     1.0  0.92465  0.55451  0.89445  1.0000
  C   C4646     1.0  0.73948  0.42668  0.77738  1.0000
  C   C4647     1.0  0.89294  0.61921  0.85304  1.0000
  H   H3733     1.0  0.70161  0.32989  0.79695  1.0000
  S   S625      1.0  0.80874  0.64716  0.92234  1.0000
  C   C4648     1.0  0.82923  0.41819  0.82946  1.0000
  H   H3734     1.0  0.57256  0.52215  0.77193  1.0000
  C   C4649     1.0  0.50700  0.55194  0.88386  1.0000
  C   C4650     1.0  0.93468  0.54400  0.82335  1.0000
  C   C4651     1.0  0.58245  0.45662  0.74816  1.0000
  S   S626      1.0  0.59328  0.63962  0.82262  1.0000
  C   C4652     1.0  0.93946  0.50886  0.84067  1.0000
  C   C4653     1.0  0.76507  0.58412  0.75778  1.0000
  H   H3735     1.0  0.49994  0.42279  0.79643  1.0000
  C   C4654     1.0  0.90907  0.53056  0.74664  1.0000
  C   C4655     1.0  0.56476  0.53517  0.76298  1.0000
  H   H3736     1.0  0.82924  0.33499  0.94103  1.0000
  C   C4656     1.0  0.91239  0.37190  0.80198  1.0000
  C   C4657     1.0  0.93206  0.62748  0.84350  1.0000
  H   H3737     1.0  0.72086  0.42583  0.75927  1.0000
  H   H3738     1.0  0.83093  0.37089  0.87566  1.0000
  C   C4658     1.0  0.88029  0.59598  0.92446  1.0000
  C   C4659     1.0  0.60969  0.33086  0.74817  1.0000
  H   H3739     1.0  0.50050  0.48299  0.81918  1.0000
  H   H3740     1.0  0.89151  0.47199  0.74911  1.0000
  H   H3741     1.0  0.97241  0.54503  0.79463  1.0000
  C   C4660     1.0  0.51297  0.40757  0.76041  1.0000
  H   H3742     1.0  0.88796  0.44244  0.80124  1.0000
  P   P151      1.0  0.50966  0.57550  0.76826  1.0000
  H   H3743     1.0  0.83045  0.36125  0.83312  1.0000
  C   C4661     1.0  0.53113  0.60296  0.79807  1.0000
  C   C4662     1.0  0.93070  0.58191  0.90482  1.0000
  S   S627      1.0  0.92023  0.45638  0.85023  1.0000
  S   S628      1.0  0.97829  0.45781  0.82706  1.0000
  C   C4663     1.0  0.89860  0.43501  0.79047  1.0000
  C   C4664     1.0  0.52840  0.52975  0.92090  1.0000
  C   C4665     1.0  0.85928  0.38739  0.77893  1.0000
  C   C4666     1.0  0.68027  0.33410  0.91405  1.0000
  H   H3744     1.0  0.63850  0.62536  0.89718  1.0000
  C   C4667     1.0  0.89324  0.38493  0.82980  1.0000
  C   C4668     1.0  0.87142  0.37069  0.78884  1.0000
  H   H3745     1.0  0.87919  0.38834  0.84001  1.0000
  H   H3746     1.0  0.50410  0.51369  0.76129  1.0000
  C   C4669     1.0  0.89565  0.57413  0.80792  1.0000
  H   H3747     1.0  0.89864  0.62978  0.78133  1.0000
  C   C4670     1.0  0.95254  0.54827  0.91002  1.0000
  H   H3748     1.0  0.90849  0.48536  0.76661  1.0000
  H   H3749     1.0  0.63446  0.33019  0.85876  1.0000
  C   C4671     1.0  0.94123  0.54124  0.90139  1.0000
  H   H3750     1.0  0.58494  0.41546  0.77273  1.0000
  C   C4672     1.0  0.89918  0.63255  0.83603  1.0000
  H   H3751     1.0  0.92668  0.59759  0.90643  1.0000
  H   H3752     1.0  0.88503  0.33225  0.89281  1.0000
  H   H3753     1.0  0.86726  0.59846  0.95340  1.0000
  H   H3754     1.0  0.69677  0.63996  0.87346  1.0000
  H   H3755     1.0  0.92543  0.60127  0.77116  1.0000
  H   H3756     1.0  0.54257  0.55971  0.92853  1.0000
  S   S629      1.0  0.50205  0.64904  0.85668  1.0000
  C   C4673     1.0  0.90618  0.60992  0.86548  1.0000
  C   C4674     1.0  0.72847  0.64119  0.86464  1.0000
  C   C4675     1.0  0.57279  0.65720  0.76187  1.0000
  C   C4676     1.0  0.91308  0.59798  0.78306  1.0000
  H   H3757     1.0  0.94521  0.52541  0.90021  1.0000
  H   H3758     1.0  0.81140  0.65057  0.96247  1.0000
  H   H3759     1.0  0.86089  0.65466  0.91199  1.0000
  H   H3760     1.0  0.73176  0.55565  0.75919  1.0000
  H   H3761     1.0  0.58085  0.32924  0.74345  1.0000
  C   C4677     1.0  0.88182  0.61042  0.80432  1.0000
  C   C4678     1.0  0.91202  0.57776  0.79255  1.0000
  P   P152      1.0  0.93145  0.55635  0.78573  1.0000
  C   C4679     1.0  0.52677  0.57814  0.87577  1.0000
  C   C4680     1.0  0.87647  0.62772  0.90099  1.0000
  H   H3762     1.0  0.79326  0.41718  0.76721  1.0000
  H   H3763     1.0  0.81658  0.34088  0.97338  1.0000
  C   C4681     1.0  0.49973  0.53326  0.94768  1.0000
  C   C4682     1.0  0.88764  0.58993  0.74091  1.0000
  H   H3764     1.0  0.71296  0.64856  0.96529  1.0000
  C   C4683     1.0  0.50145  0.44968  0.75919  1.0000
  Fe  Fe314     1.0  0.53569  0.64669  0.84485  1.0000
  C   C4684     1.0  0.50678  0.51318  0.95676  1.0000
  C   C4685     1.0  0.74452  0.56329  0.75377  1.0000
  C   C4686     1.0  0.73914  0.32691  0.98176  1.0000
  C   C4687     1.0  0.59478  0.58286  0.79030  1.0000
  C   C4688     1.0  0.52459  0.50137  0.94799  1.0000
  C   C4689     1.0  0.92582  0.61417  0.86058  1.0000
  C   C4690     1.0  0.66989  0.32833  0.94834  1.0000
  H   H3765     1.0  0.56909  0.34345  0.87544  1.0000
  C   C4691     1.0  0.92984  0.52997  0.74403  1.0000
  H   H3766     1.0  0.51474  0.60676  0.85865  1.0000
  H   H3767     1.0  0.49627  0.65687  0.95658  1.0000
  H   H3768     1.0  0.53009  0.48581  0.95503  1.0000
  C   C4692     1.0  0.81837  0.65453  0.97175  1.0000
  C   C4693     1.0  0.73076  0.43412  0.76156  1.0000
  S   S630      1.0  0.99002  0.49524  0.77816  1.0000
  H   H3769     1.0  0.75906  0.64680  0.85434  1.0000
  C   C4694     1.0  0.70758  0.64976  0.86651  1.0000
  H   H3770     1.0  0.96874  0.42303  0.73921  1.0000
  C   C4695     1.0  0.74285  0.65342  0.85570  1.0000
  C   C4696     1.0  0.49841  0.43786  0.83596  1.0000
  C   C4697     1.0  0.63663  0.64590  0.91460  1.0000
  H   H3771     1.0  0.51560  0.37120  0.91132  1.0000
  H   H3772     1.0  0.73617  0.34180  0.98497  1.0000
  Fe  Fe315     1.0  0.99271  0.42593  0.82338  1.0000
  C   C4698     1.0  0.68548  0.54111  0.73952  1.0000
  C   C4699     1.0  0.53264  0.62691  0.74207  1.0000
  H   H3773     1.0  0.56960  0.43403  0.74344  1.0000
  H   H3774     1.0  0.78460  0.60362  0.98255  1.0000
  C   C4700     1.0  0.53328  0.51584  0.74277  1.0000
  Fe  Fe316     1.0  0.57563  0.65447  0.84703  1.0000
  C   C4701     1.0  0.49527  0.60400  0.81210  1.0000
  H   H3775     1.0  0.63835  0.32676  0.75622  1.0000
  C   C4702     1.0  0.81175  0.32936  0.96947  1.0000
  C   C4703     1.0  0.66624  0.32852  0.93088  1.0000
  H   H3776     1.0  0.73829  0.34052  0.74151  1.0000
  H   H3777     1.0  0.71944  0.65873  0.89788  1.0000
  C   C4704     1.0  0.99377  0.49772  0.75367  1.0000
  S   S631      1.0  0.78936  0.49287  0.73747  1.0000
  C   C4705     1.0  0.99388  0.57103  0.75185  1.0000
  H   H3778     1.0  0.49848  0.50677  0.97061  1.0000
  Fe  Fe317     1.0  0.56699  0.65656  0.80880  1.0000
  C   C4706     1.0  0.77827  0.58184  0.74044  1.0000
  C   C4707     1.0  0.57928  0.44504  0.73712  1.0000
  H   H3779     1.0  0.86996  0.37305  0.73710  1.0000
  H   H3780     1.0  0.85402  0.85418  0.99015  1.0000
  C   C4708     1.0  0.70041  0.70223  0.12347  1.0000
  Fe  Fe318     1.0  0.82541  0.65982  0.08528  1.0000
  Fe  Fe319     1.0  0.81990  0.69860  0.05582  1.0000
  S   S632      1.0  0.80547  0.69078  0.08661  1.0000
  S   S633      1.0  0.82872  0.72881  0.04153  1.0000
  C   C4709     1.0  0.53559  0.94701  0.16980  1.0000
  C   C4710     1.0  0.56942  0.95914  0.17340  1.0000
  H   H3781     1.0  0.75820  0.66265  0.05292  1.0000
  H   H3782     1.0  0.66403  0.68350  0.07880  1.0000
  H   H3783     1.0  0.87525  0.78944  0.03058  1.0000
  S   S634      1.0  0.79636  0.68993  0.04618  1.0000
  Fe  Fe320     1.0  0.67402  0.76213  0.04539  1.0000
  S   S635      1.0  0.67343  0.76298  0.07498  1.0000
  S   S636      1.0  0.70395  0.74836  0.02922  1.0000
  Fe  Fe321     1.0  0.63011  0.78321  0.04695  1.0000
  S   S637      1.0  0.62632  0.78638  0.07654  1.0000
  S   S638      1.0  0.60071  0.79574  0.03662  1.0000
  Fe  Fe322     1.0  0.65687  0.79528  0.06696  1.0000
  S   S639      1.0  0.65961  0.82251  0.07633  1.0000
  Fe  Fe323     1.0  0.64322  0.75386  0.08153  1.0000
  S   S640      1.0  0.63257  0.73163  0.10829  1.0000
  S   S641      1.0  0.65914  0.79505  0.03683  1.0000
  S   S642      1.0  0.64543  0.75009  0.05247  1.0000
  Fe  Fe324     1.0  0.80773  0.82240  0.07893  1.0000
  S   S643      1.0  0.78710  0.84316  0.09763  1.0000
  S   S644      1.0  0.82207  0.79031  0.09185  1.0000
  Fe  Fe325     1.0  0.80111  0.85336  0.04325  1.0000
  S   S645      1.0  0.77988  0.87656  0.05908  1.0000
  S   S646      1.0  0.80996  0.85891  0.01139  1.0000
  Fe  Fe326     1.0  0.80279  0.86768  0.07767  1.0000
  S   S647      1.0  0.81008  0.89358  0.08645  1.0000
  Fe  Fe327     1.0  0.76621  0.84998  0.07762  1.0000
  S   S648      1.0  0.73223  0.85221  0.08988  1.0000
  S   S649      1.0  0.82508  0.84624  0.06026  1.0000
  S   S650      1.0  0.78574  0.82752  0.06043  1.0000
  Fe  Fe328     1.0  0.88339  0.93200  0.17552  1.0000
  S   S651      1.0  0.90244  0.90616  0.16226  1.0000
  S   S652      1.0  0.87168  0.92254  0.20696  1.0000
  Fe  Fe329     1.0  0.92423  0.92688  0.14695  1.0000
  S   S653      1.0  0.95839  0.91527  0.14539  1.0000
  Fe  Fe330     1.0  0.88528  0.91936  0.13896  1.0000
  S   S654      1.0  0.87629  0.89405  0.13087  1.0000
  H   H3784     1.0  0.62433  0.78019  0.00272  1.0000
  S   S655      1.0  0.86458  0.94422  0.15339  1.0000
  S   S656      1.0  0.90897  0.93810  0.12221  1.0000
  C   C4711     1.0  0.59430  0.78545  0.02070  1.0000
  C   C4712     1.0  0.90754  0.66453  0.14717  1.0000
  C   C4713     1.0  0.51893  0.66990  0.07671  1.0000
  H   H3785     1.0  0.77828  0.66205  0.01801  1.0000
  H   H3786     1.0  0.78030  0.73092  0.16037  1.0000
  C   C4714     1.0  0.55542  0.68259  0.11014  1.0000
  C   C4715     1.0  0.97318  0.92956  0.15027  1.0000
  C   C4716     1.0  0.96440  0.94825  0.15562  1.0000
  C   C4717     1.0  0.97667  0.95946  0.15887  1.0000
  H   H3787     1.0  0.61006  0.86471  0.13713  1.0000
  C   C4718     1.0  0.51303  0.75466  0.01384  1.0000
  C   C4719     1.0  0.52814  0.90917  0.13158  1.0000
  H   H3788     1.0  0.96974  0.97406  0.16266  1.0000
  C   C4720     1.0  0.85479  0.77304  0.00273  1.0000
  C   C4721     1.0  0.67267  0.67690  0.10539  1.0000
  C   C4722     1.0  0.82868  0.89330  0.09878  1.0000
  C   C4723     1.0  0.84193  0.87532  0.10544  1.0000
  C   C4724     1.0  0.85634  0.87591  0.11518  1.0000
  C   C4725     1.0  0.85779  0.89441  0.11839  1.0000
  C   C4726     1.0  0.84455  0.91239  0.11175  1.0000
  C   C4727     1.0  0.83011  0.91180  0.10203  1.0000
  H   H3789     1.0  0.84105  0.86099  0.10307  1.0000
  H   H3790     1.0  0.86649  0.86190  0.12023  1.0000
  H   H3791     1.0  0.84542  0.92673  0.11409  1.0000
  H   H3792     1.0  0.81995  0.92579  0.09697  1.0000
  H   H3793     1.0  0.76726  0.85857  0.02733  1.0000
  C   C4728     1.0  0.68132  0.82892  0.07938  1.0000
  C   C4729     1.0  0.70153  0.82251  0.06980  1.0000
  C   C4730     1.0  0.71776  0.82928  0.07267  1.0000
  C   C4731     1.0  0.71365  0.84234  0.08518  1.0000
  C   C4732     1.0  0.69353  0.84832  0.09471  1.0000
  C   C4733     1.0  0.67760  0.84181  0.09178  1.0000
  H   H3794     1.0  0.70463  0.81267  0.06005  1.0000
  H   H3795     1.0  0.73329  0.82452  0.06523  1.0000
  H   H3796     1.0  0.69018  0.85826  0.10444  1.0000
  H   H3797     1.0  0.66224  0.84658  0.09952  1.0000
  C   C4734     1.0  0.62512  0.71001  0.10670  1.0000
  C   C4735     1.0  0.62117  0.69481  0.12304  1.0000
  C   C4736     1.0  0.61590  0.67706  0.12213  1.0000
  C   C4737     1.0  0.61452  0.67441  0.10486  1.0000
  C   C4738     1.0  0.61819  0.68973  0.08856  1.0000
  C   C4739     1.0  0.62330  0.70756  0.08951  1.0000
  H   H3798     1.0  0.62257  0.69657  0.13639  1.0000
  H   H3799     1.0  0.61712  0.68778  0.07516  1.0000
  H   H3800     1.0  0.62600  0.71924  0.07692  1.0000
  C   C4740     1.0  0.60850  0.77940  0.00498  1.0000
  C   C4741     1.0  0.58083  0.94991  0.11172  1.0000
  H   H3801     1.0  0.63543  0.89341  0.99143  1.0000
  H   H3802     1.0  0.54855  0.84891  0.07882  1.0000
  H   H3803     1.0  0.80480  0.74163  0.17197  1.0000
  H   H3804     1.0  0.55160  0.77764  0.01277  1.0000
  C   C4742     1.0  0.60530  0.86161  0.16692  1.0000
  H   H3805     1.0  0.90781  0.96595  0.19372  1.0000
  C   C4743     1.0  0.56041  0.96872  0.15796  1.0000
  H   H3806     1.0  0.51522  0.90880  0.14353  1.0000
  H   H3807     1.0  0.59421  0.88740  0.01379  1.0000
  C   C4744     1.0  0.66137  0.66959  0.17773  1.0000
  C   C4745     1.0  0.73680  0.70303  0.07304  1.0000
  C   C4746     1.0  0.74689  0.71686  0.05884  1.0000
  C   C4747     1.0  0.73690  0.73041  0.04512  1.0000
  C   C4748     1.0  0.71649  0.73085  0.04609  1.0000
  C   C4749     1.0  0.70600  0.71774  0.06086  1.0000
  C   C4750     1.0  0.71628  0.70358  0.07417  1.0000
  H   H3808     1.0  0.76228  0.71743  0.05857  1.0000
  H   H3809     1.0  0.74490  0.74086  0.03399  1.0000
  H   H3810     1.0  0.69009  0.71825  0.06181  1.0000
  H   H3811     1.0  0.70844  0.69293  0.08518  1.0000
  C   C4751     1.0  0.82497  0.74573  0.05629  1.0000
  C   C4752     1.0  0.82453  0.73876  0.07562  1.0000
  C   C4753     1.0  0.82341  0.75255  0.08658  1.0000
  C   C4754     1.0  0.82248  0.77332  0.07830  1.0000
  C   C4755     1.0  0.82229  0.78033  0.05913  1.0000
  C   C4756     1.0  0.82345  0.76657  0.04823  1.0000
  H   H3812     1.0  0.82601  0.72269  0.08196  1.0000
  H   H3813     1.0  0.82349  0.74714  0.10140  1.0000
  H   H3814     1.0  0.82183  0.79629  0.05255  1.0000
  H   H3815     1.0  0.82318  0.77208  0.03348  1.0000
  H   H3816     1.0  0.93227  0.98459  0.19588  1.0000
  C   C4757     1.0  0.85356  0.80843  0.01412  1.0000
  C   C4758     1.0  0.56114  0.91229  0.10063  1.0000
  H   H3817     1.0  0.87671  0.75812  0.02012  1.0000
  H   H3818     1.0  0.90223  0.72009  0.13469  1.0000
  C   C4759     1.0  0.62086  0.86809  0.08732  1.0000
  H   H3819     1.0  0.57751  0.83691  0.02385  1.0000
  C   C4760     1.0  0.98319  0.66107  0.20909  1.0000
  C   C4761     1.0  0.84144  0.80911  0.00189  1.0000
  H   H3820     1.0  0.72203  0.70669  0.01540  1.0000
  H   H3821     1.0  0.94822  0.95430  0.15688  1.0000
  C   C4762     1.0  0.66498  0.70945  0.13980  1.0000
  C   C4763     1.0  0.66452  0.73037  0.13330  1.0000
  C   C4764     1.0  0.68169  0.73718  0.12129  1.0000
  C   C4765     1.0  0.58413  0.85809  0.98726  1.0000
  C   C4766     1.0  0.77003  0.67769  0.01469  1.0000
  C   C4767     1.0  0.91386  0.88333  0.21901  1.0000
  S   S657      1.0  0.59176  0.96560  0.17432  1.0000
  C   C4768     1.0  0.77025  0.85883  0.01244  1.0000
  S   S658      1.0  0.61652  0.97490  0.21115  1.0000
  H   H3822     1.0  0.73952  0.85741  0.01328  1.0000
  H   H3823     1.0  0.57359  0.91423  0.08845  1.0000
  H   H3824     1.0  0.82916  0.70475  0.11968  1.0000
  H   H3825     1.0  0.86518  0.67746  0.11451  1.0000
  H   H3826     1.0  0.65098  0.70456  0.14779  1.0000
  H   H3827     1.0  0.65038  0.74129  0.13648  1.0000
  H   H3828     1.0  0.68085  0.75333  0.11534  1.0000
  H   H3829     1.0  0.49885  0.88946  0.23348  1.0000
  H   H3830     1.0  0.70011  0.68470  0.04802  1.0000
  S   S659      1.0  0.51529  0.93867  0.16677  1.0000
  C   C4769     1.0  0.98107  0.86416  0.21656  1.0000
  H   H3831     1.0  0.65439  0.89968  0.07426  1.0000
  C   C4770     1.0  0.55171  0.85414  0.06359  1.0000
  H   H3832     1.0  0.74067  0.81451  0.01721  1.0000
  C   C4771     1.0  0.78090  0.69341  0.00763  1.0000
  H   H3833     1.0  0.52632  0.74240  0.01185  1.0000
  Fe  Fe331     1.0  0.78365  0.67955  0.07697  1.0000
  H   H3834     1.0  0.67640  0.67645  0.99490  1.0000
  C   C4772     1.0  0.81715  0.66142  0.13448  1.0000
  H   H3835     1.0  0.56771  0.93674  0.19965  1.0000
  C   C4773     1.0  0.85666  0.86935  0.18839  1.0000
  H   H3836     1.0  0.86635  0.67207  0.08322  1.0000
  H   H3837     1.0  0.87201  0.66535  0.18828  1.0000
  C   C4774     1.0  0.54366  0.96258  0.15606  1.0000
  P   P153      1.0  0.58947  0.90719  0.12232  1.0000
  S   S660      1.0  0.90620  0.95188  0.16170  1.0000
  C   C4775     1.0  0.52338  0.69512  0.23644  1.0000
  C   C4776     1.0  0.95735  0.96068  0.10853  1.0000
  C   C4777     1.0  0.62603  0.90321  0.09499  1.0000
  C   C4778     1.0  0.74941  0.71820  0.00554  1.0000
  C   C4779     1.0  0.70597  0.80341  0.00783  1.0000
  H   H3838     1.0  0.97051  0.85577  0.22720  1.0000
  H   H3839     1.0  0.76741  0.81374  0.03334  1.0000
  H   H3840     1.0  0.84156  0.73417  0.15756  1.0000
  C   C4780     1.0  0.60816  0.93457  0.12857  1.0000
  C   C4781     1.0  0.61057  0.95396  0.12814  1.0000
  H   H3841     1.0  0.98772  0.68938  0.18904  1.0000
  C   C4782     1.0  0.58335  0.96932  0.11124  1.0000
  H   H3842     1.0  0.61766  0.92130  0.13566  1.0000
  H   H3843     1.0  0.56284  0.83887  0.99104  1.0000
  H   H3844     1.0  0.56626  0.66814  0.11075  1.0000
  H   H3845     1.0  0.64215  0.83341  0.01344  1.0000
  C   C4783     1.0  0.57434  0.90005  0.99405  1.0000
  H   H3846     1.0  0.50957  0.68654  0.18554  1.0000
  C   C4784     1.0  0.59198  0.89260  0.14573  1.0000
  C   C4785     1.0  0.69676  0.82338  0.01001  1.0000
  H   H3847     1.0  0.56626  0.98104  0.14748  1.0000
  C   C4786     1.0  0.85351  0.85430  0.20491  1.0000
  C   C4787     1.0  0.58849  0.90079  0.00385  1.0000
  H   H3848     1.0  0.52442  0.76929  0.10282  1.0000
  C   C4788     1.0  0.58122  0.77306  0.99422  1.0000
  C   C4789     1.0  0.92183  0.95747  0.19804  1.0000
  C   C4790     1.0  0.95377  0.95732  0.20478  1.0000
  C   C4791     1.0  0.95793  0.93598  0.20929  1.0000
  C   C4792     1.0  0.94436  0.92515  0.20783  1.0000
  C   C4793     1.0  0.92612  0.93605  0.20228  1.0000
  P   P154      1.0  0.94863  0.89786  0.21696  1.0000
  C   C4794     1.0  0.93345  0.88613  0.20874  1.0000
  H   H3849     1.0  0.53891  0.91777  0.08374  1.0000
  C   C4795     1.0  0.58574  0.89127  0.17933  1.0000
  H   H3850     1.0  0.53561  0.81296  0.00935  1.0000
  Fe  Fe332     1.0  0.88940  0.96200  0.13829  1.0000
  C   C4796     1.0  0.97703  0.96113  0.10924  1.0000
  H   H3851     1.0  0.91398  0.66469  0.08533  1.0000
  H   H3852     1.0  0.81730  0.75393  0.00685  1.0000
  H   H3853     1.0  0.81816  0.72052  0.00105  1.0000
  C   C4797     1.0  0.91165  0.86549  0.19648  1.0000
  C   C4798     1.0  0.93105  0.86831  0.18612  1.0000
  C   C4799     1.0  0.94171  0.87892  0.19198  1.0000
  C   C4800     1.0  0.81181  0.66679  0.15212  1.0000
  S   S661      1.0  0.58157  0.94690  0.23047  1.0000
  H   H3854     1.0  0.85186  0.90154  0.17616  1.0000
  H   H3855     1.0  0.61346  0.66521  0.13469  1.0000
  H   H3856     1.0  0.50986  0.91467  0.11117  1.0000
  C   C4801     1.0  0.49735  0.79078  0.00674  1.0000
  C   C4802     1.0  0.52301  0.82221  0.01736  1.0000
  H   H3857     1.0  0.91509  0.92810  0.20146  1.0000
  C   C4803     1.0  0.70197  0.79587  0.99418  1.0000
  C   C4804     1.0  0.55984  0.86770  0.02414  1.0000
  H   H3858     1.0  0.84833  0.75702  0.11510  1.0000
  H   H3859     1.0  0.97163  0.92774  0.21414  1.0000
  C   C4805     1.0  0.51436  0.77472  0.00429  1.0000
  C   C4806     1.0  0.77170  0.80956  0.01976  1.0000
  H   H3860     1.0  0.53771  0.92600  0.19647  1.0000
  H   H3861     1.0  0.90301  0.85814  0.19140  1.0000
  H   H3862     1.0  0.93746  0.86313  0.17301  1.0000
  H   H3863     1.0  0.95635  0.88164  0.18323  1.0000
  S   S662      1.0  0.74987  0.68483  0.08919  1.0000
  H   H3864     1.0  0.74139  0.73393  0.00200  1.0000
  H   H3865     1.0  0.76203  0.67857  0.15302  1.0000
  C   C4807     1.0  0.86708  0.77244  0.01482  1.0000
  H   H3866     1.0  0.51672  0.73432  0.10891  1.0000
  C   C4808     1.0  0.93564  0.96807  0.19926  1.0000
  H   H3867     1.0  0.79273  0.71280  0.13381  1.0000
  H   H3868     1.0  0.61929  0.85413  0.08462  1.0000
  H   H3869     1.0  0.64556  0.67018  0.20658  1.0000
  C   C4809     1.0  0.56795  0.84753  0.03243  1.0000
  H   H3870     1.0  0.89338  0.78549  0.12018  1.0000
  C   C4810     1.0  0.87109  0.70208  0.06837  1.0000
  P   P155      1.0  0.68258  0.66827  0.14066  1.0000
  H   H3871     1.0  0.91412  0.75144  0.13157  1.0000
  P   P156      1.0  0.73488  0.66167  0.02576  1.0000
  C   C4811     1.0  0.49790  0.67795  0.08112  1.0000
  C   C4812     1.0  0.60473  0.73488  0.03729  1.0000
  C   C4813     1.0  0.59898  0.72410  0.02719  1.0000
  C   C4814     1.0  0.58013  0.71827  0.03367  1.0000
  C   C4815     1.0  0.56694  0.72338  0.05015  1.0000
  C   C4816     1.0  0.57239  0.73467  0.06012  1.0000
  C   C4817     1.0  0.59148  0.74025  0.05365  1.0000
  P   P157      1.0  0.55487  0.74161  0.08110  1.0000
  C   C4818     1.0  0.54697  0.71891  0.09661  1.0000
  C   C4819     1.0  0.56721  0.75204  0.09329  1.0000
  C   C4820     1.0  0.57401  0.74032  0.10962  1.0000
  C   C4821     1.0  0.58253  0.74903  0.11941  1.0000
  C   C4822     1.0  0.58457  0.76936  0.11289  1.0000
  C   C4823     1.0  0.57796  0.78107  0.09657  1.0000
  C   C4824     1.0  0.56948  0.77241  0.08669  1.0000
  C   C4825     1.0  0.78990  0.85919  0.00128  1.0000
  C   C4826     1.0  0.69969  0.72312  0.11654  1.0000
  C   C4827     1.0  0.60192  0.77327  0.99167  1.0000
  C   C4828     1.0  0.77058  0.71368  0.00323  1.0000
  C   C4829     1.0  0.56078  0.70001  0.09727  1.0000
  C   C4830     1.0  0.53299  0.76113  0.07557  1.0000
  C   C4831     1.0  0.51139  0.78112  0.05378  1.0000
  C   C4832     1.0  0.64073  0.89372  0.08149  1.0000
  S   S663      1.0  0.84166  0.66836  0.05492  1.0000
  H   H3872     1.0  0.54185  0.89692  0.02973  1.0000
  C   C4833     1.0  0.75660  0.80982  0.01074  1.0000
  H   H3873     1.0  0.61928  0.73951  0.03219  1.0000
  H   H3874     1.0  0.60909  0.72041  0.01427  1.0000
  H   H3875     1.0  0.57579  0.70982  0.02584  1.0000
  H   H3876     1.0  0.55244  0.71862  0.05509  1.0000
  H   H3877     1.0  0.59624  0.74888  0.06100  1.0000
  H   H3878     1.0  0.57317  0.72437  0.11471  1.0000
  H   H3879     1.0  0.58842  0.73973  0.13163  1.0000
  H   H3880     1.0  0.59193  0.77578  0.12013  1.0000
  H   H3881     1.0  0.58001  0.79666  0.09125  1.0000
  H   H3882     1.0  0.56496  0.78152  0.07377  1.0000
  H   H3883     1.0  0.67144  0.69290  0.10477  1.0000
  C   C4834     1.0  0.52081  0.77233  0.08910  1.0000
  H   H3884     1.0  0.57593  0.69872  0.08821  1.0000
  H   H3885     1.0  0.54931  0.90548  0.14862  1.0000
  H   H3886     1.0  0.66465  0.70008  0.04456  1.0000
  H   H3887     1.0  0.62143  0.95557  0.13524  1.0000
  C   C4835     1.0  0.52512  0.91252  0.11336  1.0000
  H   H3888     1.0  0.90373  0.98829  0.07016  1.0000
  C   C4836     1.0  0.74867  0.68217  0.01761  1.0000
  H   H3889     1.0  0.51419  0.95993  0.21165  1.0000
  C   C4837     1.0  0.56380  0.84077  0.05208  1.0000
  C   C4838     1.0  0.86628  0.79006  0.02070  1.0000
  H   H3890     1.0  0.77898  0.72587  0.99780  1.0000
  C   C4839     1.0  0.75447  0.85844  0.00442  1.0000
  H   H3891     1.0  0.86048  0.78803  0.11194  1.0000
  H   H3892     1.0  0.57316  0.98281  0.10520  1.0000
  C   C4840     1.0  0.54159  0.91419  0.09788  1.0000
  C   C4841     1.0  0.60852  0.89525  0.10468  1.0000
  H   H3893     1.0  0.50770  0.70336  0.13164  1.0000
  C   C4842     1.0  0.68749  0.73264  0.99436  1.0000
  H   H3894     1.0  0.86481  0.86522  0.17502  1.0000
  H   H3895     1.0  0.64971  0.86861  0.06746  1.0000
  C   C4843     1.0  0.70864  0.88854  0.02628  1.0000
  C   C4844     1.0  0.69719  0.87434  0.03805  1.0000
  C   C4845     1.0  0.68584  0.86600  0.03057  1.0000
  C   C4846     1.0  0.68564  0.87202  0.01124  1.0000
  C   C4847     1.0  0.69730  0.88617  0.99948  1.0000
  C   C4848     1.0  0.70172  0.66920  0.00847  1.0000
  H   H3896     1.0  0.57918  0.89877  0.19111  1.0000
  C   C4849     1.0  0.64631  0.86100  0.01850  1.0000
  C   C4850     1.0  0.63596  0.84534  0.02135  1.0000
  C   C4851     1.0  0.61765  0.84469  0.03481  1.0000
  C   C4852     1.0  0.60915  0.86005  0.04502  1.0000
  C   C4853     1.0  0.61886  0.87625  0.04160  1.0000
  C   C4854     1.0  0.63747  0.87665  0.02852  1.0000
  H   H3897     1.0  0.84065  0.84797  0.23469  1.0000
  H   H3898     1.0  0.99160  0.95233  0.22298  1.0000
  H   H3899     1.0  0.53245  0.67035  0.13270  1.0000
  H   H3900     1.0  0.71607  0.79361  0.01684  1.0000
  C   C4855     1.0  0.99437  0.92219  0.14833  1.0000
  C   C4856     1.0  0.54799  0.88116  0.03581  1.0000
  C   C4857     1.0  0.67493  0.69130  0.03458  1.0000
  H   H3901     1.0  0.59271  0.87116  0.10810  1.0000
  C   C4858     1.0  0.50568  0.88784  0.99366  1.0000
  C   C4859     1.0  0.56437  0.90857  0.11896  1.0000
  H   H3902     1.0  0.71802  0.89441  0.03198  1.0000
  H   H3903     1.0  0.69755  0.86945  0.05290  1.0000
  H   H3904     1.0  0.67739  0.85469  0.03986  1.0000
  H   H3905     1.0  0.52753  0.67314  0.06229  1.0000
  S   S664      1.0  0.81865  0.66668  0.18623  1.0000
  H   H3906     1.0  0.61026  0.83205  0.03750  1.0000
  H   H3907     1.0  0.59509  0.85938  0.05558  1.0000
  H   H3908     1.0  0.61221  0.88826  0.04939  1.0000
  H   H3909     1.0  0.64502  0.88911  0.02629  1.0000
  C   C4860     1.0  0.83869  0.89551  0.20608  1.0000
  C   C4861     1.0  0.58341  0.90198  0.16120  1.0000
  C   C4862     1.0  0.54763  0.90733  0.13440  1.0000
  C   C4863     1.0  0.49677  0.66082  0.11384  1.0000
  H   H3910     1.0  0.70016  0.82885  0.02063  1.0000
  H   H3911     1.0  0.65652  0.74905  0.00169  1.0000
  C   C4864     1.0  0.50745  0.97572  0.21217  1.0000
  C   C4865     1.0  0.59314  0.93240  0.12052  1.0000
  C   C4866     1.0  0.76558  0.76948  0.06226  1.0000
  C   C4867     1.0  0.75021  0.77057  0.05323  1.0000
  C   C4868     1.0  0.73052  0.76921  0.06378  1.0000
  C   C4869     1.0  0.72622  0.76656  0.08340  1.0000
  C   C4870     1.0  0.74148  0.76584  0.09260  1.0000
  C   C4871     1.0  0.76129  0.76712  0.08185  1.0000
  P   P158      1.0  0.73622  0.76206  0.11804  1.0000
  C   C4872     1.0  0.74507  0.73557  0.12877  1.0000
  C   C4873     1.0  0.75046  0.77729  0.12318  1.0000
  C   C4874     1.0  0.74209  0.79780  0.12418  1.0000
  C   C4875     1.0  0.75353  0.80943  0.12780  1.0000
  C   C4876     1.0  0.77338  0.80071  0.13042  1.0000
  C   C4877     1.0  0.78196  0.78048  0.12905  1.0000
  C   C4878     1.0  0.77064  0.76889  0.12525  1.0000
  C   C4879     1.0  0.74571  0.73007  0.14800  1.0000
  C   C4880     1.0  0.75151  0.70957  0.15680  1.0000
  C   C4881     1.0  0.75738  0.69447  0.14633  1.0000
  C   C4882     1.0  0.75772  0.69989  0.12705  1.0000
  C   C4883     1.0  0.75148  0.72033  0.11824  1.0000
  C   C4884     1.0  0.70919  0.77039  0.12772  1.0000
  C   C4885     1.0  0.69911  0.75912  0.14460  1.0000
  C   C4886     1.0  0.67826  0.76563  0.15180  1.0000
  C   C4887     1.0  0.66716  0.78326  0.14213  1.0000
  C   C4888     1.0  0.67695  0.79451  0.12536  1.0000
  C   C4889     1.0  0.69788  0.78826  0.11828  1.0000
  H   H3912     1.0  0.78089  0.77034  0.05406  1.0000
  H   H3913     1.0  0.75365  0.77211  0.03808  1.0000
  H   H3914     1.0  0.71867  0.76982  0.05675  1.0000
  H   H3915     1.0  0.71097  0.76513  0.09123  1.0000
  H   H3916     1.0  0.77354  0.76626  0.08845  1.0000
  H   H3917     1.0  0.72703  0.80517  0.12166  1.0000
  H   H3918     1.0  0.74723  0.82546  0.12789  1.0000
  H   H3919     1.0  0.78243  0.80987  0.13274  1.0000
  H   H3920     1.0  0.79773  0.77410  0.13005  1.0000
  H   H3921     1.0  0.77794  0.75362  0.12323  1.0000
  H   H3922     1.0  0.74143  0.74168  0.15622  1.0000
  H   H3923     1.0  0.75175  0.70540  0.17167  1.0000
  C   C4890     1.0  0.52239  0.70251  0.12185  1.0000
  H   H3924     1.0  0.76292  0.68817  0.11892  1.0000
  H   H3925     1.0  0.75167  0.72404  0.10328  1.0000
  H   H3926     1.0  0.70695  0.74505  0.15212  1.0000
  H   H3927     1.0  0.67062  0.75674  0.16470  1.0000
  H   H3928     1.0  0.65094  0.78815  0.14751  1.0000
  H   H3929     1.0  0.66823  0.80802  0.11777  1.0000
  H   H3930     1.0  0.70522  0.79730  0.10533  1.0000
  C   C4891     1.0  0.95132  0.66392  0.19182  1.0000
  H   H3931     1.0  0.56891  0.94872  0.10568  1.0000
  C   C4892     1.0  0.52764  0.72002  0.10893  1.0000
  H   H3932     1.0  0.52937  0.69927  0.22136  1.0000
  H   H3933     1.0  0.96459  0.96552  0.20552  1.0000
  H   H3934     1.0  0.70917  0.78041  0.99252  1.0000
  H   H3935     1.0  0.64277  0.98034  0.16693  1.0000
  C   C4893     1.0  0.87914  0.66974  0.17348  1.0000
  C   C4894     1.0  0.70875  0.89438  0.00699  1.0000
  H   H3936     1.0  0.98893  0.94742  0.10891  1.0000
  C   C4895     1.0  0.60300  0.87230  0.14873  1.0000
  Fe  Fe333     1.0  0.59014  0.96908  0.20330  1.0000
  C   C4896     1.0  0.52823  0.76577  0.05778  1.0000
  P   P159      1.0  0.67051  0.86146  0.00185  1.0000
  C   C4897     1.0  0.53634  0.68386  0.12252  1.0000
  C   C4898     1.0  0.90295  0.87328  0.21273  1.0000
  H   H3937     1.0  0.79735  0.68987  0.00561  1.0000
  C   C4899     1.0  0.84926  0.88991  0.18900  1.0000
  H   H3938     1.0  0.92649  0.97762  0.10928  1.0000
  C   C4900     1.0  0.83599  0.66500  0.99607  1.0000
  C   C4901     1.0  0.98115  0.97885  0.11134  1.0000
  C   C4902     1.0  0.66253  0.66292  0.16144  1.0000
  H   H3939     1.0  0.81439  0.96248  0.22735  1.0000
  C   C4903     1.0  0.98833  0.89520  0.19441  1.0000
  H   H3940     1.0  0.54127  0.82445  0.03512  1.0000
  H   H3941     1.0  0.61394  0.84603  0.16913  1.0000
  H   H3942     1.0  0.80352  0.80487  0.01834  1.0000
  C   C4904     1.0  0.87098  0.93842  0.22168  1.0000
  H   H3943     1.0  0.98358  0.91095  0.18757  1.0000
  H   H3944     1.0  0.52078  0.88098  0.01640  1.0000
  C   C4905     1.0  0.79231  0.80472  0.01100  1.0000
  H   H3945     1.0  0.53721  0.96979  0.14379  1.0000
  C   C4906     1.0  0.63811  0.87622  0.07763  1.0000
  H   H3946     1.0  0.87077  0.96602  0.20004  1.0000
  C   C4907     1.0  0.87039  0.95931  0.21485  1.0000
  H   H3947     1.0  0.56286  0.78912  0.03556  1.0000
  H   H3948     1.0  0.53759  0.75789  0.04685  1.0000
  C   C4908     1.0  0.66824  0.68908  0.01959  1.0000
  C   C4909     1.0  0.86912  0.97160  0.22728  1.0000
  C   C4910     1.0  0.59668  0.87110  0.18220  1.0000
  C   C4911     1.0  0.69502  0.68255  0.03650  1.0000
  H   H3949     1.0  0.71292  0.72827  0.10688  1.0000
  H   H3950     1.0  0.57018  0.82513  0.05833  1.0000
  C   C4912     1.0  0.87312  0.72089  0.06995  1.0000
  H   H3951     1.0  0.71161  0.66067  0.99824  1.0000
  C   C4913     1.0  0.66836  0.67165  0.09054  1.0000
  C   C4914     1.0  0.86778  0.68959  0.10214  1.0000
  C   C4915     1.0  0.86932  0.70862  0.10394  1.0000
  C   C4916     1.0  0.87209  0.72424  0.08764  1.0000
  P   P160      1.0  0.86516  0.71354  0.12717  1.0000
  C   C4917     1.0  0.83818  0.71890  0.13753  1.0000
  C   C4918     1.0  0.87792  0.69182  0.14241  1.0000
  C   C4919     1.0  0.86885  0.68600  0.16163  1.0000
  C   C4920     1.0  0.56742  0.77828  0.01037  1.0000
  H   H3952     1.0  0.85260  0.82207  0.01887  1.0000
  H   H3953     1.0  0.85921  0.83834  0.20436  1.0000
  C   C4921     1.0  0.89733  0.68086  0.13524  1.0000
  C   C4922     1.0  0.83101  0.72942  0.15228  1.0000
  C   C4923     1.0  0.81020  0.73366  0.16050  1.0000
  C   C4924     1.0  0.79639  0.72758  0.15396  1.0000
  C   C4925     1.0  0.80336  0.71738  0.13910  1.0000
  C   C4926     1.0  0.82419  0.71286  0.13102  1.0000
  C   C4927     1.0  0.87438  0.73615  0.12512  1.0000
  C   C4928     1.0  0.86270  0.75552  0.11885  1.0000
  C   C4929     1.0  0.86957  0.77320  0.11703  1.0000
  C   C4930     1.0  0.88810  0.77173  0.12161  1.0000
  C   C4931     1.0  0.89977  0.75253  0.12799  1.0000
  C   C4932     1.0  0.89298  0.73477  0.12973  1.0000
  H   H3954     1.0  0.87432  0.73327  0.05757  1.0000
  H   H3955     1.0  0.88747  0.87217  0.22010  1.0000
  C   C4933     1.0  0.86850  0.68643  0.08444  1.0000
  H   H3956     1.0  0.87081  0.69987  0.05478  1.0000
  H   H3957     1.0  0.87275  0.73929  0.08844  1.0000
  H   H3958     1.0  0.85375  0.69371  0.16763  1.0000
  C   C4934     1.0  0.73845  0.70259  0.01307  1.0000
  C   C4935     1.0  0.54405  0.93791  0.18572  1.0000
  C   C4936     1.0  0.56092  0.94407  0.18757  1.0000
  H   H3959     1.0  0.90459  0.68503  0.12047  1.0000
  C   C4937     1.0  0.60599  0.87767  0.10066  1.0000
  H   H3960     1.0  0.57504  0.91769  0.15919  1.0000
  C   C4938     1.0  0.57382  0.78474  0.02334  1.0000
  C   C4939     1.0  0.54385  0.87436  0.05545  1.0000
  H   H3961     1.0  0.53453  0.88482  0.06435  1.0000
  H   H3962     1.0  0.71439  0.69179  0.11910  1.0000
  H   H3963     1.0  0.62851  0.91664  0.09784  1.0000
  C   C4940     1.0  0.52631  0.82891  0.03186  1.0000
  C   C4941     1.0  0.67795  0.66169  0.12090  1.0000
  C   C4942     1.0  0.68293  0.69517  0.13486  1.0000
  C   C4943     1.0  0.94178  0.97806  0.10966  1.0000
  C   C4944     1.0  0.49509  0.68584  0.19558  1.0000
  H   H3964     1.0  0.68934  0.72790  0.00880  1.0000
  C   C4945     1.0  0.51028  0.84097  0.04233  1.0000
  P   P161      1.0  0.49930  0.81689  0.99562  1.0000
  H   H3965     1.0  0.87741  0.99116  0.16418  1.0000
  H   H3966     1.0  0.59861  0.86289  0.19626  1.0000
  H   H3967     1.0  0.86874  0.98777  0.22196  1.0000
  C   C4946     1.0  0.83558  0.88054  0.22283  1.0000
  H   H3968     1.0  0.90664  0.88918  0.23158  1.0000
  H   H3969     1.0  0.60609  0.91929  0.00866  1.0000
  C   C4947     1.0  0.50354  0.82723  0.01335  1.0000
  H   H3970     1.0  0.52874  0.77762  0.99520  1.0000
  C   C4948     1.0  0.82580  0.66054  0.16388  1.0000
  H   H3971     1.0  0.95960  0.69178  0.17409  1.0000
  C   C4949     1.0  0.59531  0.91879  0.00091  1.0000
  C   C4950     1.0  0.68322  0.83588  0.99866  1.0000
  H   H3972     1.0  0.71837  0.90465  0.99771  1.0000
  H   H3973     1.0  0.85538  0.75910  0.99873  1.0000
  C   C4951     1.0  0.64623  0.66525  0.19398  1.0000
  S   S665      1.0  0.52266  0.96319  0.11191  1.0000
  P   P162      1.0  0.56515  0.87680  0.99880  1.0000
  C   C4952     1.0  0.66896  0.74458  0.99035  1.0000
  C   C4953     1.0  0.52295  0.88324  0.00130  1.0000
  H   H3974     1.0  0.83331  0.91159  0.20601  1.0000
  H   H3975     1.0  0.59935  0.98620  0.12024  1.0000
  C   C4954     1.0  0.80629  0.95003  0.23207  1.0000
  C   C4955     1.0  0.97481  0.88512  0.20921  1.0000
  H   H3976     1.0  0.65274  0.69601  0.01797  1.0000
  C   C4956     1.0  0.79801  0.79996  0.99308  1.0000
  C   C4957     1.0  0.54254  0.88191  0.98945  1.0000
  C   C4958     1.0  0.81724  0.92990  0.23555  1.0000
  C   C4959     1.0  0.49919  0.79198  0.06736  1.0000
  H   H3977     1.0  0.67226  0.67809  0.17787  1.0000
  S   S666      1.0  0.49720  0.94876  0.08011  1.0000
  H   H3978     1.0  0.77665  0.96965  0.23153  1.0000
  C   C4960     1.0  0.78508  0.95402  0.23445  1.0000
  C   C4961     1.0  0.50394  0.78763  0.08502  1.0000
  H   H3979     1.0  0.79789  0.86706  0.23263  1.0000
  C   C4962     1.0  0.70865  0.67156  0.02338  1.0000
  C   C4963     1.0  0.84141  0.79130  0.99664  1.0000
  H   H3980     1.0  0.95407  0.94667  0.10760  1.0000
  H   H3981     1.0  0.77344  0.67328  0.22684  1.0000
  C   C4964     1.0  0.96295  0.67900  0.18557  1.0000
  H   H3982     1.0  0.74309  0.70102  0.23312  1.0000
  C   C4965     1.0  0.84299  0.85984  0.22205  1.0000
  H   H3983     1.0  0.99146  0.98971  0.19043  1.0000
  H   H3984     1.0  0.83150  0.82340  0.99701  1.0000
  C   C4966     1.0  0.82142  0.75184  0.99247  1.0000
  Fe  Fe334     1.0  0.50408  0.95985  0.14156  1.0000
  H   H3985     1.0  0.93896  0.66489  0.18526  1.0000
  H   H3986     1.0  0.50799  0.78484  0.04001  1.0000
  C   C4967     1.0  0.68161  0.67804  0.00656  1.0000
  H   H3987     1.0  0.83362  0.92702  0.23358  1.0000
  C   C4968     1.0  0.59817  0.97129  0.11952  1.0000
  H   H3988     1.0  0.53617  0.98477  0.20003  1.0000
  H   H3989     1.0  0.84281  0.66909  0.00540  1.0000
  H   H3990     1.0  0.51289  0.84631  0.05349  1.0000
  H   H3991     1.0  0.79682  0.67563  0.15678  1.0000
  C   C4969     1.0  0.58815  0.93619  0.98807  1.0000
  C   C4970     1.0  0.76209  0.80472  0.99313  1.0000
  C   C4971     1.0  0.51998  0.98994  0.20521  1.0000
  C   C4972     1.0  0.82167  0.73296  0.98920  1.0000
  H   H3992     1.0  0.80621  0.66604  0.12558  1.0000
  C   C4973     1.0  0.97888  0.67759  0.19413  1.0000
  C   C4974     1.0  0.89844  0.65895  0.16628  1.0000
  Fe  Fe335     1.0  0.81654  0.65886  0.04817  1.0000
  Fe  Fe336     1.0  0.63543  0.84925  0.37617  1.0000
  S   S667      1.0  0.64878  0.86605  0.34735  1.0000
  S   S668      1.0  0.62262  0.82101  0.38370  1.0000
  Fe  Fe337     1.0  0.64138  0.87893  0.39612  1.0000
  S   S669      1.0  0.65526  0.89863  0.36925  1.0000
  S   S670      1.0  0.63629  0.88081  0.42630  1.0000
  Fe  Fe338     1.0  0.63055  0.89426  0.35777  1.0000
  S   S671      1.0  0.61123  0.92187  0.34272  1.0000
  Fe  Fe339     1.0  0.67234  0.86898  0.36108  1.0000
  S   S672      1.0  0.70594  0.86245  0.34793  1.0000
  S   S673      1.0  0.61518  0.87715  0.38538  1.0000
  S   S674      1.0  0.66054  0.84972  0.38896  1.0000
  Fe  Fe340     1.0  0.69270  0.71703  0.37749  1.0000
  S   S675      1.0  0.68926  0.74727  0.35699  1.0000
  H   H3993     1.0  0.65226  0.91614  0.40212  1.0000
  Fe  Fe341     1.0  0.82578  0.80531  0.38755  1.0000
  S   S676      1.0  0.80674  0.81675  0.41323  1.0000
  S   S677      1.0  0.84797  0.82206  0.36467  1.0000
  Fe  Fe342     1.0  0.81157  0.76465  0.40029  1.0000
  S   S678      1.0  0.79187  0.77228  0.42745  1.0000
  S   S679      1.0  0.81808  0.73524  0.38999  1.0000
  Fe  Fe343     1.0  0.78253  0.80330  0.40946  1.0000
  S   S680      1.0  0.74954  0.81937  0.41601  1.0000
  Fe  Fe344     1.0  0.81744  0.78521  0.42954  1.0000
  S   S681      1.0  0.82772  0.77880  0.45719  1.0000
  S   S682      1.0  0.80052  0.79494  0.38203  1.0000
  S   S683      1.0  0.83830  0.77448  0.40398  1.0000
  Fe  Fe345     1.0  0.84495  0.93661  0.32784  1.0000
  S   S684      1.0  0.87286  0.93051  0.30514  1.0000
  S   S685      1.0  0.82060  0.91790  0.33973  1.0000
  S   S686      1.0  0.71232  0.69129  0.36411  1.0000
  Fe  Fe346     1.0  0.86478  0.96415  0.29282  1.0000
  C   C4975     1.0  0.52681  0.94742  0.31301  1.0000
  Fe  Fe347     1.0  0.88897  0.93985  0.32243  1.0000
  S   S687      1.0  0.91926  0.92132  0.32860  1.0000
  S   S688      1.0  0.83563  0.96972  0.31444  1.0000
  S   S689      1.0  0.86168  0.94276  0.34634  1.0000
  C   C4976     1.0  0.53917  0.68922  0.32147  1.0000
  H   H3994     1.0  0.82638  0.69416  0.41036  1.0000
  C   C4977     1.0  0.86997  0.92992  0.24092  1.0000
  C   C4978     1.0  0.68154  0.70270  0.47911  1.0000
  H   H3995     1.0  0.80164  0.67313  0.28392  1.0000
  S   S690      1.0  0.62818  0.93101  0.25451  1.0000
  C   C4979     1.0  0.77507  0.93991  0.32313  1.0000
  H   H3996     1.0  0.91188  0.91572  0.24151  1.0000
  H   H3997     1.0  0.87040  0.91377  0.24618  1.0000
  C   C4980     1.0  0.73837  0.76873  0.45323  1.0000
  S   S691      1.0  0.58508  0.98149  0.25119  1.0000
  C   C4981     1.0  0.63129  0.98082  0.35280  1.0000
  C   C4982     1.0  0.81928  0.79178  0.33157  1.0000
  S   S692      1.0  0.71136  0.71225  0.39879  1.0000
  C   C4983     1.0  0.55080  0.92340  0.46824  1.0000
  C   C4984     1.0  0.74535  0.73708  0.47628  1.0000
  C   C4985     1.0  0.93680  0.93551  0.32844  1.0000
  C   C4986     1.0  0.93175  0.95679  0.32544  1.0000
  C   C4987     1.0  0.94636  0.96769  0.32460  1.0000
  C   C4988     1.0  0.96611  0.95741  0.32673  1.0000
  C   C4989     1.0  0.72666  0.96588  0.30986  1.0000
  C   C4990     1.0  0.95626  0.92521  0.33132  1.0000
  H   H3998     1.0  0.91663  0.96494  0.32386  1.0000
  H   H3999     1.0  0.71627  0.91336  0.33338  1.0000
  C   C4991     1.0  0.58389  0.84156  0.43174  1.0000
  C   C4992     1.0  0.84915  0.68019  0.29679  1.0000
  C   C4993     1.0  0.93037  0.89459  0.28123  1.0000
  H   H4000     1.0  0.66078  0.94470  0.41034  1.0000
  C   C4994     1.0  0.82041  0.95151  0.38260  1.0000
  C   C4995     1.0  0.56342  0.93522  0.28817  1.0000
  H   H4001     1.0  0.60701  0.94556  0.42974  1.0000
  C   C4996     1.0  0.80278  0.80438  0.32406  1.0000
  H   H4002     1.0  0.86737  0.93553  0.26818  1.0000
  C   C4997     1.0  0.84091  0.84887  0.35909  1.0000
  C   C4998     1.0  0.82129  0.85888  0.36650  1.0000
  C   C4999     1.0  0.81532  0.88017  0.36078  1.0000
  C   C5000     1.0  0.82904  0.89154  0.34780  1.0000
  C   C5001     1.0  0.84887  0.88161  0.34071  1.0000
  C   C5002     1.0  0.85473  0.86026  0.34622  1.0000
  H   H4003     1.0  0.81045  0.85006  0.37596  1.0000
  H   H4004     1.0  0.79996  0.88775  0.36620  1.0000
  H   H4005     1.0  0.85953  0.89028  0.33066  1.0000
  H   H4006     1.0  0.86992  0.85252  0.34042  1.0000
  H   H4007     1.0  0.74578  0.93243  0.28916  1.0000
  C   C5003     1.0  0.81356  0.83357  0.47274  1.0000
  C   C5004     1.0  0.81630  0.81858  0.46246  1.0000
  C   C5005     1.0  0.82249  0.79791  0.47044  1.0000
  C   C5006     1.0  0.98117  0.88974  0.30657  1.0000
  H   H4008     1.0  0.68872  0.72904  0.43343  1.0000
  H   H4009     1.0  0.80912  0.84949  0.46625  1.0000
  H   H4010     1.0  0.81391  0.82296  0.44827  1.0000
  H   H4011     1.0  0.78565  0.93620  0.46628  1.0000
  C   C5007     1.0  0.77761  0.69620  0.38333  1.0000
  C   C5008     1.0  0.76910  0.71021  0.39513  1.0000
  C   C5009     1.0  0.78126  0.72220  0.39765  1.0000
  C   C5010     1.0  0.80159  0.72101  0.38763  1.0000
  C   C5011     1.0  0.80983  0.70724  0.37567  1.0000
  C   C5012     1.0  0.79804  0.69481  0.37371  1.0000
  H   H4012     1.0  0.75338  0.71141  0.40275  1.0000
  H   H4013     1.0  0.77509  0.73195  0.40765  1.0000
  H   H4014     1.0  0.82550  0.70613  0.36789  1.0000
  H   H4015     1.0  0.80476  0.68417  0.36455  1.0000
  C   C5013     1.0  0.61500  0.92380  0.31839  1.0000
  C   C5014     1.0  0.60809  0.94260  0.30699  1.0000
  C   C5015     1.0  0.61187  0.94484  0.28738  1.0000
  C   C5016     1.0  0.62237  0.92825  0.27911  1.0000
  C   C5017     1.0  0.62898  0.90936  0.29056  1.0000
  C   C5018     1.0  0.62531  0.90714  0.31017  1.0000
  H   H4016     1.0  0.60023  0.95552  0.31333  1.0000
  H   H4017     1.0  0.60729  0.95957  0.27863  1.0000
  H   H4018     1.0  0.63702  0.89642  0.28425  1.0000
  H   H4019     1.0  0.63036  0.89251  0.31885  1.0000
  C   C5019     1.0  0.64116  0.80043  0.37646  1.0000
  C   C5020     1.0  0.63830  0.78041  0.38433  1.0000
  C   C5021     1.0  0.65339  0.76383  0.37899  1.0000
  C   C5022     1.0  0.67092  0.76738  0.36522  1.0000
  C   C5023     1.0  0.67363  0.78740  0.35719  1.0000
  C   C5024     1.0  0.65893  0.80390  0.36301  1.0000
  H   H4020     1.0  0.62443  0.77774  0.39453  1.0000
  H   H4021     1.0  0.65119  0.74837  0.38509  1.0000
  H   H4022     1.0  0.68714  0.79008  0.34648  1.0000
  H   H4023     1.0  0.66121  0.81931  0.35690  1.0000
  C   C5025     1.0  0.71888  0.85123  0.36637  1.0000
  C   C5026     1.0  0.71065  0.85640  0.38394  1.0000
  C   C5027     1.0  0.72045  0.84684  0.39895  1.0000
  C   C5028     1.0  0.73841  0.83192  0.39655  1.0000
  C   C5029     1.0  0.74674  0.82682  0.37893  1.0000
  C   C5030     1.0  0.73710  0.83664  0.36377  1.0000
  H   H4024     1.0  0.69669  0.86780  0.38600  1.0000
  H   H4025     1.0  0.71396  0.85094  0.41247  1.0000
  H   H4026     1.0  0.76025  0.81494  0.37712  1.0000
  H   H4027     1.0  0.74355  0.83264  0.35019  1.0000
  C   C5031     1.0  0.64459  0.90008  0.43103  1.0000
  C   C5032     1.0  0.65139  0.91594  0.41666  1.0000
  S   S693      1.0  0.76419  0.67896  0.38100  1.0000
  H   H4028     1.0  0.69366  0.74982  0.31786  1.0000
  C   C5033     1.0  0.75038  0.90687  0.36052  1.0000
  C   C5034     1.0  0.78059  0.88310  0.32789  1.0000
  H   H4029     1.0  0.56939  0.93718  0.36585  1.0000
  H   H4030     1.0  0.76814  0.93746  0.33801  1.0000
  H   H4031     1.0  0.98638  0.96335  0.37125  1.0000
  C   C5035     1.0  0.80478  0.87048  0.25775  1.0000
  H   H4032     1.0  0.51919  0.91974  0.31207  1.0000
  H   H4033     1.0  0.57113  0.96259  0.28909  1.0000
  H   H4034     1.0  0.80426  0.81926  0.31524  1.0000
  P   P163      1.0  0.67320  0.96608  0.29706  1.0000
  C   C5036     1.0  0.73918  0.70345  0.45626  1.0000
  H   H4035     1.0  0.66264  0.85623  0.45502  1.0000
  C   C5037     1.0  0.50806  0.68382  0.27549  1.0000
  H   H4036     1.0  0.94981  0.77360  0.43495  1.0000
  C   C5038     1.0  0.72220  0.91233  0.34551  1.0000
  C   C5039     1.0  0.82128  0.88861  0.44896  1.0000
  H   H4037     1.0  0.50554  0.98732  0.29426  1.0000
  C   C5040     1.0  0.74273  0.91747  0.29135  1.0000
  C   C5041     1.0  0.88999  0.92688  0.37995  1.0000
  H   H4038     1.0  0.75846  0.94092  0.24189  1.0000
  C   C5042     1.0  0.82717  0.68025  0.43934  1.0000
  H   H4039     1.0  0.59634  0.79084  0.45070  1.0000
  C   C5043     1.0  0.61649  0.81196  0.44413  1.0000
  H   H4040     1.0  0.62593  0.98957  0.25336  1.0000
  H   H4041     1.0  0.54229  0.94435  0.44319  1.0000
  H   H4042     1.0  0.75372  0.97516  0.29119  1.0000
  C   C5044     1.0  0.76400  0.67281  0.24099  1.0000
  H   H4043     1.0  0.92644  0.98413  0.28403  1.0000
  H   H4044     1.0  0.91146  0.66792  0.32678  1.0000
  C   C5045     1.0  0.97213  0.81465  0.41422  1.0000
  C   C5046     1.0  0.69546  0.70027  0.31871  1.0000
  H   H4045     1.0  0.84736  0.70776  0.27511  1.0000
  H   H4046     1.0  0.92487  0.94686  0.24792  1.0000
  C   C5047     1.0  0.58378  0.91458  0.40864  1.0000
  H   H4047     1.0  0.50447  0.95100  0.25102  1.0000
  H   H4048     1.0  0.50595  0.94199  0.45340  1.0000
  H   H4049     1.0  0.74031  0.98255  0.26227  1.0000
  H   H4050     1.0  0.88067  0.93477  0.44043  1.0000
  C   C5048     1.0  0.98183  0.84987  0.37294  1.0000
  C   C5049     1.0  0.59808  0.92602  0.39708  1.0000
  C   C5050     1.0  0.67262  0.85939  0.47853  1.0000
  H   H4051     1.0  0.85729  0.67931  0.36975  1.0000
  C   C5051     1.0  0.53049  0.92917  0.30705  1.0000
  C   C5052     1.0  0.99070  0.80496  0.40419  1.0000
  H   H4052     1.0  0.57939  0.98824  0.30485  1.0000
  H   H4053     1.0  0.82093  0.83277  0.33752  1.0000
  C   C5053     1.0  0.78396  0.93056  0.29285  1.0000
  C   C5054     1.0  0.99452  0.88215  0.37862  1.0000
  H   H4054     1.0  0.98286  0.75622  0.41769  1.0000
  C   C5055     1.0  0.85819  0.87082  0.25828  1.0000
  H   H4055     1.0  0.83125  0.87505  0.44478  1.0000
  C   C5056     1.0  0.59189  0.90325  0.47397  1.0000
  C   C5057     1.0  0.63150  0.74400  0.43704  1.0000
  H   H4056     1.0  0.60320  0.92579  0.38220  1.0000
  C   C5058     1.0  0.85155  0.95584  0.44578  1.0000
  H   H4057     1.0  0.83162  0.86341  0.31530  1.0000
  C   C5059     1.0  0.75660  0.69826  0.46388  1.0000
  C   C5060     1.0  0.68702  0.72577  0.44855  1.0000
  C   C5061     1.0  0.80123  0.88217  0.31879  1.0000
  H   H4058     1.0  0.65361  0.82054  0.46632  1.0000
  C   C5062     1.0  0.83455  0.95280  0.47893  1.0000
  C   C5063     1.0  0.97865  0.88621  0.36930  1.0000
  C   C5064     1.0  0.84038  0.69485  0.28281  1.0000
  H   H4059     1.0  0.68856  0.75605  0.44891  1.0000
  C   C5065     1.0  0.51646  0.91909  0.25187  1.0000
  H   H4060     1.0  0.96019  0.87554  0.28231  1.0000
  C   C5066     1.0  0.69936  0.73490  0.31442  1.0000
  C   C5067     1.0  0.57777  0.91420  0.42797  1.0000
  C   C5068     1.0  0.97858  0.90684  0.29182  1.0000
  H   H4061     1.0  0.72616  0.71491  0.46092  1.0000
  H   H4062     1.0  0.72027  0.79464  0.46458  1.0000
  C   C5069     1.0  0.77693  0.78178  0.47624  1.0000
  S   S694      1.0  0.71025  0.66366  0.40644  1.0000
  C   C5070     1.0  0.80805  0.90213  0.43776  1.0000
  C   C5071     1.0  0.92234  0.90631  0.25031  1.0000
  H   H4063     1.0  0.97536  0.69445  0.28466  1.0000
  H   H4064     1.0  0.96911  0.83084  0.41378  1.0000
  C   C5072     1.0  0.78586  0.91763  0.24360  1.0000
  H   H4065     1.0  0.75564  0.74042  0.44594  1.0000
  H   H4066     1.0  0.61277  0.94017  0.46110  1.0000
  C   C5073     1.0  0.81079  0.96766  0.42721  1.0000
  H   H4067     1.0  0.55313  0.68199  0.24292  1.0000
  C   C5074     1.0  0.87652  0.96059  0.38670  1.0000
  H   H4068     1.0  0.54862  0.70046  0.31736  1.0000
  H   H4069     1.0  0.94308  0.81091  0.43290  1.0000
  H   H4070     1.0  0.95978  0.87331  0.35942  1.0000
  C   C5075     1.0  0.67688  0.91385  0.28002  1.0000
  C   C5076     1.0  0.81563  0.86395  0.32196  1.0000
  C   C5077     1.0  0.95508  0.96471  0.27430  1.0000
  C   C5078     1.0  0.60673  0.86680  0.47971  1.0000
  H   H4071     1.0  0.64754  0.91535  0.46908  1.0000
  H   H4072     1.0  0.97657  0.83750  0.37087  1.0000
  H   H4073     1.0  0.82353  0.97589  0.45647  1.0000
  H   H4074     1.0  0.69804  0.95767  0.32503  1.0000
  S   S695      1.0  0.86618  0.97875  0.26192  1.0000
  C   C5079     1.0  0.64888  0.91551  0.45444  1.0000
  H   H4075     1.0  0.78486  0.83440  0.35439  1.0000
  H   H4076     1.0  0.89312  0.68253  0.35488  1.0000
  C   C5080     1.0  0.97969  0.77259  0.41663  1.0000
  C   C5081     1.0  0.64090  0.96157  0.32832  1.0000
  H   H4077     1.0  0.52662  0.70043  0.29673  1.0000
  C   C5082     1.0  0.95738  0.80339  0.42519  1.0000
  C   C5083     1.0  0.56355  0.95290  0.35942  1.0000
  C   C5084     1.0  0.73508  0.68784  0.26289  1.0000
  C   C5085     1.0  0.68396  0.70659  0.45941  1.0000
  C   C5086     1.0  0.97352  0.67601  0.24793  1.0000
  H   H4078     1.0  0.67725  0.92827  0.32598  1.0000
  C   C5087     1.0  0.86804  0.93082  0.41036  1.0000
  C   C5088     1.0  0.63598  0.73226  0.46917  1.0000
  C   C5089     1.0  0.80961  0.84665  0.33450  1.0000
  C   C5090     1.0  0.66189  0.80042  0.41715  1.0000
  C   C5091     1.0  0.54736  0.97742  0.33519  1.0000
  C   C5092     1.0  0.86691  0.95202  0.40508  1.0000
  C   C5093     1.0  0.72743  0.77870  0.46777  1.0000
  H   H4079     1.0  0.63043  0.77581  0.42500  1.0000
  C   C5094     1.0  0.67723  0.92449  0.31301  1.0000
  C   C5095     1.0  0.83546  0.96280  0.45999  1.0000
  H   H4080     1.0  0.62990  0.74082  0.42432  1.0000
  C   C5096     1.0  0.52691  0.68893  0.30970  1.0000
  C   C5097     1.0  0.56569  0.96886  0.36609  1.0000
  C   C5098     1.0  0.72582  0.71127  0.29811  1.0000
  C   C5099     1.0  0.59819  0.80646  0.44508  1.0000
  H   H4081     1.0  0.70491  0.91233  0.39234  1.0000
  C   C5100     1.0  0.71416  0.69612  0.30592  1.0000
  H   H4082     1.0  0.68088  0.80494  0.38914  1.0000
  H   H4083     1.0  0.64868  0.80091  0.41205  1.0000
  C   C5101     1.0  0.84834  0.84389  0.41079  1.0000
  C   C5102     1.0  0.86303  0.84967  0.39470  1.0000
  C   C5103     1.0  0.86108  0.87012  0.38511  1.0000
  C   C5104     1.0  0.84424  0.88478  0.39136  1.0000
  C   C5105     1.0  0.82934  0.87907  0.40751  1.0000
  C   C5106     1.0  0.83164  0.85853  0.41718  1.0000
  P   P164      1.0  0.80694  0.89748  0.41563  1.0000
  C   C5107     1.0  0.80608  0.92143  0.39847  1.0000
  C   C5108     1.0  0.80705  0.95746  0.37036  1.0000
  C   C5109     1.0  0.79312  0.94549  0.37218  1.0000
  C   C5110     1.0  0.79278  0.92738  0.38602  1.0000
  C   C5111     1.0  0.78411  0.88822  0.41828  1.0000
  C   C5112     1.0  0.76504  0.89745  0.42794  1.0000
  C   C5113     1.0  0.74743  0.89048  0.42944  1.0000
  C   C5114     1.0  0.74872  0.87421  0.42144  1.0000
  C   C5115     1.0  0.76749  0.86540  0.41134  1.0000
  C   C5116     1.0  0.78503  0.87237  0.40974  1.0000
  H   H4084     1.0  0.84967  0.82796  0.41809  1.0000
  H   H4085     1.0  0.87560  0.83817  0.38939  1.0000
  H   H4086     1.0  0.87221  0.87449  0.37236  1.0000
  H   H4087     1.0  0.84273  0.90028  0.38312  1.0000
  H   H4088     1.0  0.82019  0.85381  0.42947  1.0000
  H   H4089     1.0  0.80795  0.97106  0.35916  1.0000
  H   H4090     1.0  0.78330  0.94970  0.36226  1.0000
  H   H4091     1.0  0.78260  0.91783  0.38654  1.0000
  H   H4092     1.0  0.76364  0.91001  0.43428  1.0000
  H   H4093     1.0  0.73273  0.89765  0.43685  1.0000
  H   H4094     1.0  0.73519  0.86853  0.42286  1.0000
  H   H4095     1.0  0.76850  0.85308  0.40475  1.0000
  H   H4096     1.0  0.79928  0.86527  0.40182  1.0000
  C   C5117     1.0  0.82310  0.69246  0.27833  1.0000
  C   C5118     1.0  0.65620  0.93203  0.42132  1.0000
  H   H4097     1.0  0.98610  0.92797  0.33192  1.0000
  H   H4098     1.0  0.96136  0.93106  0.24689  1.0000
  C   C5119     1.0  0.77295  0.68289  0.45802  1.0000
  C   C5120     1.0  0.79623  0.95845  0.29630  1.0000
  H   H4099     1.0  0.72808  0.86518  0.30020  1.0000
  C   C5121     1.0  0.96116  0.78237  0.42638  1.0000
  C   C5122     1.0  0.97024  0.96780  0.37146  1.0000
  C   C5123     1.0  0.67616  0.93416  0.27986  1.0000
  H   H4100     1.0  0.65753  0.68075  0.35366  1.0000
  H   H4101     1.0  0.95046  0.68943  0.26927  1.0000
  C   C5124     1.0  0.74716  0.74792  0.45740  1.0000
  H   H4102     1.0  0.83030  0.92922  0.40602  1.0000
  H   H4103     1.0  0.87486  0.97700  0.38177  1.0000
  C   C5125     1.0  0.60166  0.96969  0.46773  1.0000
  C   C5126     1.0  0.59695  0.88438  0.46866  1.0000
  Fe  Fe348     1.0  0.69080  0.67239  0.38471  1.0000
  C   C5127     1.0  0.64654  0.97942  0.27240  1.0000
  C   C5128     1.0  0.79585  0.92309  0.46126  1.0000
  C   C5129     1.0  0.74282  0.88290  0.30950  1.0000
  C   C5130     1.0  0.81972  0.93376  0.39679  1.0000
  H   H4104     1.0  0.74083  0.70804  0.28910  1.0000
  C   C5131     1.0  0.55969  0.95347  0.29407  1.0000
  H   H4105     1.0  0.83168  0.96044  0.38069  1.0000
  Fe  Fe349     1.0  0.69076  0.69135  0.41712  1.0000
  C   C5132     1.0  0.51530  0.67382  0.31464  1.0000
  H   H4106     1.0  0.67932  0.89252  0.32581  1.0000
  C   C5133     1.0  0.53677  0.68550  0.24854  1.0000
  C   C5134     1.0  0.56270  0.96389  0.47035  1.0000
  H   H4107     1.0  0.63447  0.68100  0.33358  1.0000
  H   H4108     1.0  0.83022  0.76267  0.34889  1.0000
  C   C5135     1.0  0.63207  0.76381  0.43741  1.0000
  H   H4109     1.0  0.76661  0.90381  0.35997  1.0000
  C   C5136     1.0  0.71835  0.73065  0.30225  1.0000
  S   S696      1.0  0.66982  0.69874  0.39687  1.0000
  H   H4110     1.0  0.68387  0.68588  0.29177  1.0000
  C   C5137     1.0  0.85547  0.66291  0.35003  1.0000
  H   H4111     1.0  0.74213  0.90675  0.39020  1.0000
  C   C5138     1.0  0.75592  0.89488  0.47647  1.0000
  H   H4112     1.0  0.82147  0.73606  0.46359  1.0000
  H   H4113     1.0  0.72740  0.74227  0.29638  1.0000
  H   H4114     1.0  0.63818  0.95016  0.32259  1.0000
  C   C5139     1.0  0.82889  0.66198  0.45290  1.0000
  C   C5140     1.0  0.71028  0.83640  0.46366  1.0000
  H   H4115     1.0  0.70563  0.97802  0.26457  1.0000
  C   C5141     1.0  0.69396  0.84104  0.45474  1.0000
  C   C5142     1.0  0.79554  0.91956  0.44396  1.0000
  C   C5143     1.0  0.61805  0.83250  0.43753  1.0000
  C   C5144     1.0  0.72800  0.89508  0.28195  1.0000
  P   P165      1.0  0.72431  0.67087  0.30130  1.0000
  C   C5145     1.0  0.55445  0.95712  0.34404  1.0000
  H   H4116     1.0  0.56826  0.81673  0.43882  1.0000
  P   P166      1.0  0.99202  0.93817  0.26303  1.0000
  C   C5146     1.0  0.99455  0.67020  0.24059  1.0000
  H   H4117     1.0  0.67607  0.90985  0.26739  1.0000
  Fe  Fe350     1.0  0.72957  0.68536  0.38690  1.0000
  C   C5147     1.0  0.96668  0.68514  0.26353  1.0000
  C   C5148     1.0  0.54132  0.95987  0.30630  1.0000
  C   C5149     1.0  0.64439  0.81221  0.47839  1.0000
  H   H4118     1.0  0.67558  0.94541  0.26678  1.0000
  H   H4119     1.0  0.64209  0.96485  0.27815  1.0000
  C   C5150     1.0  0.95970  0.95280  0.37278  1.0000
  H   H4120     1.0  0.52852  0.91852  0.25864  1.0000
  H   H4121     1.0  0.82573  0.69464  0.44305  1.0000
  H   H4122     1.0  0.78531  0.93027  0.43555  1.0000
  H   H4123     1.0  0.55168  0.90903  0.28991  1.0000
  H   H4124     1.0  0.67792  0.88321  0.29692  1.0000
  H   H4125     1.0  0.80645  0.89548  0.30953  1.0000
  C   C5151     1.0  0.82740  0.68001  0.42087  1.0000
  H   H4126     1.0  0.87865  0.91702  0.47381  1.0000
  H   H4127     1.0  0.69223  0.91567  0.36383  1.0000
  C   C5152     1.0  0.53706  0.93462  0.45666  1.0000
  C   C5153     1.0  0.67838  0.90416  0.31300  1.0000
  H   H4128     1.0  0.71088  0.80647  0.39975  1.0000
  H   H4129     1.0  0.89887  0.91724  0.37015  1.0000
  H   H4130     1.0  0.96479  0.91094  0.28648  1.0000
  C   C5154     1.0  0.82425  0.70673  0.48298  1.0000
  S   S697      1.0  0.68204  0.68758  0.44894  1.0000
  H   H4131     1.0  0.54746  0.96204  0.47151  1.0000
  H   H4132     1.0  0.77765  0.90536  0.24786  1.0000
  H   H4133     1.0  0.74011  0.77729  0.43881  1.0000
  C   C5155     1.0  0.65472  0.93186  0.44025  1.0000
  H   H4134     1.0  0.95996  0.90876  0.33431  1.0000
  P   P167      1.0  0.49828  0.67437  0.30025  1.0000
  C   C5156     1.0  0.63349  0.72822  0.45292  1.0000
  C   C5157     1.0  0.80873  0.90931  0.47245  1.0000
  H   H4135     1.0  0.89437  0.97480  0.40852  1.0000
  H   H4136     1.0  0.72484  0.69768  0.43688  1.0000
  C   C5158     1.0  0.77385  0.92730  0.31198  1.0000
  C   C5159     1.0  0.50230  0.69897  0.24377  1.0000
  C   C5160     1.0  0.86810  0.96305  0.24658  1.0000
  C   C5161     1.0  0.58208  0.82118  0.43861  1.0000
  C   C5162     1.0  0.78928  0.84763  0.34413  1.0000
  C   C5163     1.0  0.88551  0.67469  0.34918  1.0000
  H   H4137     1.0  0.90217  0.91438  0.27552  1.0000
  C   C5164     1.0  0.77484  0.86578  0.34091  1.0000
  S   S698      1.0  0.88322  0.97308  0.30823  1.0000
  C   C5165     1.0  0.74842  0.90169  0.30635  1.0000
  C   C5166     1.0  0.51533  0.65967  0.33197  1.0000
  Fe  Fe351     1.0  0.85488  0.97549  0.33108  1.0000
  H   H4138     1.0  0.57765  0.93055  0.27854  1.0000
  H   H4139     1.0  0.63822  0.88773  0.46091  1.0000
  C   C5167     1.0  0.97226  0.87009  0.36649  1.0000
  H   H4140     1.0  0.98283  0.97219  0.39998  1.0000
  H   H4141     1.0  0.81290  0.95547  0.43938  1.0000
  H   H4142     1.0  0.70944  0.80109  0.43380  1.0000
  C   C5168     1.0  0.60621  0.93726  0.40482  1.0000
  H   H4143     1.0  0.63815  0.71989  0.48128  1.0000
  H   H4144     1.0  0.81663  0.70353  0.26716  1.0000
  H   H4145     1.0  0.76149  0.90858  0.47415  1.0000
  C   C5169     1.0  0.68010  0.80298  0.40403  1.0000
  C   C5170     1.0  0.74331  0.90898  0.34424  1.0000
  H   H4146     1.0  0.67379  0.72276  0.33299  1.0000
  C   C5171     1.0  0.71560  0.91165  0.37889  1.0000
  C   C5172     1.0  0.81759  0.77242  0.34276  1.0000
  C   C5173     1.0  0.88831  0.94802  0.37434  1.0000
  C   C5174     1.0  0.67552  0.93975  0.29656  1.0000
  C   C5175     1.0  0.54878  0.92311  0.29459  1.0000
  C   C5176     1.0  0.70844  0.91362  0.36279  1.0000
  S   S699      1.0  0.53011  0.97359  0.25820  1.0000
  H   H4147     1.0  0.57291  0.96549  0.37791  1.0000
  C   C5177     1.0  0.67782  0.89888  0.29664  1.0000
  H   H4148     1.0  0.57154  0.85291  0.42653  1.0000
  C   C5178     1.0  0.73656  0.90840  0.37772  1.0000
  H   H4149     1.0  0.78385  0.92065  0.28409  1.0000
  C   C5179     1.0  0.68804  0.71966  0.32282  1.0000
  H   H4150     1.0  0.88043  0.90196  0.40194  1.0000
  H   H4151     1.0  0.72488  0.82811  0.45725  1.0000
  C   C5180     1.0  0.82719  0.97653  0.41587  1.0000
  H   H4152     1.0  0.92616  0.89454  0.29621  1.0000
  H   H4153     1.0  0.86297  0.68193  0.29957  1.0000
  C   C5181     1.0  0.69699  0.80386  0.41001  1.0000
  H   H4154     1.0  0.78771  0.96456  0.32414  1.0000
  C   C5182     1.0  0.51499  0.90172  0.24691  1.0000
  C   C5183     1.0  0.86532  0.67290  0.35751  1.0000
  C   C5184     1.0  0.67514  0.85250  0.46216  1.0000
  C   C5185     1.0  0.50939  0.92112  0.47987  1.0000
  H   H4155     1.0  0.80328  0.94821  0.27048  1.0000
  H   H4156     1.0  0.51270  0.95177  0.32284  1.0000
  H   H4157     1.0  0.74574  0.87084  0.32158  1.0000
  C   C5186     1.0  0.86843  0.94219  0.25336  1.0000
  C   C5187     1.0  0.73269  0.87962  0.29735  1.0000
  S   S700      1.0  0.65881  0.95264  0.44639  1.0000
  C   C5188     1.0  0.68339  0.73762  0.47713  1.0000
  C   C5189     1.0  0.95518  0.88465  0.25399  1.0000
  H   H4158     1.0  0.77878  0.96775  0.43165  1.0000
  H   H4159     1.0  0.63373  0.71271  0.45249  1.0000
  C   C5190     1.0  0.77592  0.84626  0.27757  1.0000
  C   C5191     1.0  0.78550  0.85381  0.28741  1.0000
  C   C5192     1.0  0.79985  0.86587  0.27754  1.0000
  C   C5193     1.0  0.76767  0.87576  0.48273  1.0000
  C   C5194     1.0  0.95416  0.94317  0.25442  1.0000
  C   C5195     1.0  0.67830  0.79708  0.44251  1.0000
  C   C5196     1.0  0.73657  0.89650  0.47366  1.0000
  C   C5197     1.0  0.83983  0.88549  0.25936  1.0000
  C   C5198     1.0  0.83506  0.89808  0.27233  1.0000
  C   C5199     1.0  0.84833  0.89608  0.28396  1.0000
  C   C5200     1.0  0.86661  0.88155  0.28267  1.0000
  C   C5201     1.0  0.87156  0.86896  0.26980  1.0000
  C   C5202     1.0  0.49976  0.90281  0.23766  1.0000
  C   C5203     1.0  0.91681  0.90574  0.26965  1.0000
  C   C5204     1.0  0.69615  0.80079  0.42923  1.0000
  C   C5205     1.0  0.93337  0.95171  0.25535  1.0000
  H   H4160     1.0  0.94225  0.98409  0.32252  1.0000
  C   C5206     1.0  0.72869  0.87902  0.47746  1.0000
  H   H4161     1.0  0.54920  0.67480  0.34749  1.0000
  C   C5207     1.0  0.82153  0.89218  0.46622  1.0000
  C   C5208     1.0  0.87961  0.91831  0.39785  1.0000
  C   C5209     1.0  0.97101  0.93610  0.33018  1.0000
  H   H4162     1.0  0.97046  0.87712  0.24827  1.0000
  H   H4163     1.0  0.76477  0.83693  0.28524  1.0000
  H   H4164     1.0  0.78165  0.85052  0.30271  1.0000
  H   H4165     1.0  0.80701  0.87166  0.28536  1.0000
  C   C5210     1.0  0.60008  0.93707  0.42413  1.0000
  H   H4166     1.0  0.82106  0.90943  0.27353  1.0000
  H   H4167     1.0  0.84446  0.90584  0.29398  1.0000
  H   H4168     1.0  0.87690  0.88004  0.29167  1.0000
  C   C5211     1.0  0.63440  0.79822  0.47622  1.0000
  H   H4169     1.0  0.96284  0.96980  0.28212  1.0000
  C   C5212     1.0  0.65466  0.66654  0.35285  1.0000
  C   C5213     1.0  0.53942  0.67484  0.33852  1.0000
  C   C5214     1.0  0.75482  0.67867  0.43667  1.0000
  C   C5215     1.0  0.73833  0.69367  0.44271  1.0000
  H   H4170     1.0  0.80534  0.97007  0.29039  1.0000
  C   C5216     1.0  0.86748  0.93971  0.45096  1.0000
  C   C5217     1.0  0.71461  0.81646  0.32708  1.0000
  C   C5218     1.0  0.71415  0.81376  0.30955  1.0000
  C   C5219     1.0  0.72765  0.79748  0.30229  1.0000
  C   C5220     1.0  0.74152  0.78380  0.31260  1.0000
  C   C5221     1.0  0.74180  0.78622  0.33037  1.0000
  C   C5222     1.0  0.72837  0.80276  0.33745  1.0000
  P   P168      1.0  0.75967  0.76880  0.34381  1.0000
  C   C5223     1.0  0.76691  0.74444  0.33684  1.0000
  C   C5224     1.0  0.78266  0.77834  0.33926  1.0000
  C   C5225     1.0  0.79945  0.76566  0.34643  1.0000
  H   H4171     1.0  0.61773  0.94565  0.39598  1.0000
  C   C5226     1.0  0.78441  0.79782  0.32804  1.0000
  C   C5227     1.0  0.78517  0.73991  0.32349  1.0000
  C   C5228     1.0  0.79113  0.72108  0.31821  1.0000
  C   C5229     1.0  0.77871  0.70676  0.32582  1.0000
  C   C5230     1.0  0.76028  0.71135  0.33858  1.0000
  C   C5231     1.0  0.75438  0.73002  0.34419  1.0000
  C   C5232     1.0  0.74708  0.76600  0.36853  1.0000
  C   C5233     1.0  0.72702  0.76278  0.37453  1.0000
  C   C5234     1.0  0.71718  0.76045  0.39359  1.0000
  C   C5235     1.0  0.72721  0.76158  0.40681  1.0000
  C   C5236     1.0  0.74665  0.76609  0.40079  1.0000
  C   C5237     1.0  0.75659  0.76819  0.38179  1.0000
  H   H4172     1.0  0.70392  0.82884  0.33292  1.0000
  H   H4173     1.0  0.70309  0.82411  0.30180  1.0000
  H   H4174     1.0  0.72711  0.79527  0.28880  1.0000
  H   H4175     1.0  0.75174  0.77118  0.30685  1.0000
  H   H4176     1.0  0.72814  0.80485  0.35121  1.0000
  H   H4177     1.0  0.79842  0.75055  0.35502  1.0000
  H   H4178     1.0  0.77173  0.80788  0.32231  1.0000
  H   H4179     1.0  0.79499  0.75080  0.31721  1.0000
  H   H4180     1.0  0.80548  0.71750  0.30838  1.0000
  H   H4181     1.0  0.78339  0.69202  0.32201  1.0000
  H   H4182     1.0  0.75084  0.70011  0.34460  1.0000
  H   H4183     1.0  0.74017  0.73290  0.35435  1.0000
  H   H4184     1.0  0.71892  0.76212  0.36447  1.0000
  H   H4185     1.0  0.70174  0.75778  0.39808  1.0000
  H   H4186     1.0  0.71968  0.75947  0.42163  1.0000
  H   H4187     1.0  0.75438  0.76751  0.41082  1.0000
  H   H4188     1.0  0.77176  0.77127  0.37776  1.0000
  H   H4189     1.0  0.75413  0.67141  0.42595  1.0000
  S   S701      1.0  0.98417  0.97158  0.32527  1.0000
  C   C5238     1.0  0.62821  0.96600  0.34523  1.0000
  H   H4190     1.0  0.75919  0.86636  0.34870  1.0000
  H   H4191     1.0  0.61683  0.97192  0.46660  1.0000
  C   C5239     1.0  0.79505  0.94609  0.28507  1.0000
  H   H4192     1.0  0.89575  0.95469  0.36017  1.0000
  P   P169      1.0  0.76137  0.90579  0.32235  1.0000
  C   C5240     1.0  0.77550  0.80056  0.46335  1.0000
  Fe  Fe352     1.0  0.60592  0.95528  0.23935  1.0000
  H   H4193     1.0  0.57774  0.90561  0.40266  1.0000
  C   C5241     1.0  0.81394  0.72358  0.47172  1.0000
  Fe  Fe353     1.0  0.56151  0.97466  0.24025  1.0000
  C   C5242     1.0  0.76105  0.81759  0.46809  1.0000
  H   H4194     1.0  0.82887  0.66218  0.46719  1.0000
  H   H4195     1.0  0.96930  0.88098  0.31264  1.0000
  C   C5243     1.0  0.77213  0.67326  0.44435  1.0000
  H   H4196     1.0  0.72824  0.92635  0.26766  1.0000
  H   H4197     1.0  0.93130  0.94671  0.37197  1.0000
  H   H4198     1.0  0.83126  0.88125  0.47509  1.0000
  C   C5244     1.0  0.93916  0.95828  0.37172  1.0000
  H   H4199     1.0  0.68680  0.68845  0.32585  1.0000
  H   H4200     1.0  0.83989  0.66187  0.35675  1.0000
  H   H4201     1.0  0.78614  0.73785  0.46243  1.0000
  C   C5245     1.0  0.96533  0.94988  0.26358  1.0000
  C   C5246     1.0  0.73271  0.91411  0.27913  1.0000
  H   H4202     1.0  0.72739  0.91142  0.46906  1.0000
  H   H4203     1.0  0.72010  0.89250  0.27258  1.0000
  H   H4204     1.0  0.78841  0.76871  0.47261  1.0000
  C   C5247     1.0  0.68684  0.74114  0.45739  1.0000
  H   H4205     1.0  0.61597  0.95786  0.35241  1.0000
  H   H4206     1.0  0.78596  0.80203  0.44984  1.0000
  H   H4207     1.0  0.53979  0.67165  0.27701  1.0000
  H   H4208     1.0  0.52585  0.88751  0.24997  1.0000
  H   H4209     1.0  0.56705  0.90483  0.43674  1.0000
  H   H4210     1.0  0.76035  0.83205  0.45793  1.0000
  H   H4211     1.0  0.88576  0.85770  0.26881  1.0000
  H   H4212     1.0  0.83336  0.79701  0.32889  1.0000
  C   C5248     1.0  0.69891  0.96851  0.29506  1.0000
  C   C5249     1.0  0.64351  0.89988  0.44982  1.0000
  H   H4213     1.0  0.63189  0.83714  0.43702  1.0000
  H   H4214     1.0  0.85982  0.92391  0.42404  1.0000
  C   C5250     1.0  0.74700  0.68844  0.24456  1.0000
  C   C5251     1.0  0.78616  0.95543  0.31528  1.0000
  H   H4215     1.0  0.55347  0.94442  0.33891  1.0000
  C   C5252     1.0  0.86653  0.92974  0.46990  1.0000
  H   H4216     1.0  0.60312  0.86304  0.42641  1.0000
  C   C5253     1.0  0.66160  0.98408  0.27865  1.0000
  C   C5254     1.0  0.93422  0.97284  0.27557  1.0000
  C   C5255     1.0  0.89588  0.66638  0.33346  1.0000
  C   C5256     1.0  0.79152  0.97439  0.42272  1.0000
  C   C5257     1.0  0.58452  0.98467  0.47254  1.0000
  C   C5258     1.0  0.71126  0.97483  0.27732  1.0000
  H   H4217     1.0  0.69593  0.83595  0.44193  1.0000
  C   C5259     1.0  0.92337  0.96634  0.26611  1.0000
  P   P170      1.0  0.63707  0.79348  0.45317  1.0000
  C   C5260     1.0  0.84056  0.66309  0.30649  1.0000
  C   C5261     1.0  0.73096  0.97727  0.27595  1.0000
  H   H4218     1.0  0.78633  0.67833  0.46396  1.0000
  H   H4219     1.0  0.67848  0.79351  0.45733  1.0000
  C   C5262     1.0  0.92917  0.97881  0.36926  1.0000
  C   C5263     1.0  0.63710  0.75194  0.46939  1.0000
  C   C5264     1.0  0.58574  0.92558  0.43590  1.0000
  C   C5265     1.0  0.94953  0.88399  0.27339  1.0000
  H   H4220     1.0  0.89086  0.67455  0.26580  1.0000
  C   C5266     1.0  0.66075  0.79751  0.43654  1.0000
  C   C5267     1.0  0.90058  0.66113  0.26109  1.0000
  H   H4221     1.0  0.96229  0.67327  0.24196  1.0000
  C   C5268     1.0  0.63495  0.76798  0.45357  1.0000
  C   C5269     1.0  0.60175  0.84724  0.43149  1.0000
  S   S702      1.0  0.92461  0.66120  0.28426  1.0000
  C   C5270     1.0  0.73854  0.97307  0.29224  1.0000
  C   C5271     1.0  0.81454  0.67544  0.28787  1.0000
  H   H4222     1.0  0.59357  0.88314  0.45592  1.0000
  P   P171      1.0  0.85222  0.96830  0.42125  1.0000
  C   C5272     1.0  0.65694  0.97177  0.31895  1.0000
  P   P172      1.0  0.57728  0.92548  0.46087  1.0000
  H   H4223     1.0  0.72177  0.69991  0.26536  1.0000
  C   C5273     1.0  0.50271  0.93752  0.24760  1.0000
  C   C5274     1.0  0.79378  0.72460  0.47119  1.0000
  H   H4224     1.0  0.96777  0.93704  0.37375  1.0000
  C   C5275     1.0  0.64148  0.66663  0.34153  1.0000
  C   C5276     1.0  0.52916  0.67976  0.26796  1.0000
  H   H4225     1.0  0.90721  0.97271  0.26706  1.0000
  C   C5277     1.0  0.51646  0.93339  0.46244  1.0000
  P   P173      1.0  0.53705  0.98313  0.31437  1.0000
  H   H4226     1.0  0.61077  0.85235  0.47540  1.0000
  H   H4227     1.0  0.97123  0.90186  0.36441  1.0000
  C   C5278     1.0  0.56503  0.98176  0.47388  1.0000
  C   C5279     1.0  0.59935  0.95171  0.46450  1.0000
  C   C5280     1.0  0.70698  0.96341  0.31127  1.0000
  C   C5281     1.0  0.57991  0.94870  0.46557  1.0000
  C   C5282     1.0  0.74030  0.67177  0.27788  1.0000
  C   C5283     1.0  0.82920  0.66160  0.41590  1.0000
  Fe  Fe354     1.0  0.65896  0.94534  0.47731  1.0000
  H   H4228     1.0  0.71350  0.88090  0.47546  1.0000
  H   H4229     1.0  0.73266  0.96225  0.32247  1.0000
  H   H4230     1.0  0.83977  0.70620  0.48356  1.0000
  C   C5284     1.0  0.78367  0.70883  0.48205  1.0000
  C   C5285     1.0  0.64692  0.99144  0.34329  1.0000
  C   C5286     1.0  0.99438  0.78381  0.40558  1.0000
  C   C5287     1.0  0.70768  0.84274  0.48043  1.0000
  C   C5288     1.0  0.55880  0.98911  0.35732  1.0000
  C   C5289     1.0  0.77487  0.93783  0.24029  1.0000
  C   C5290     1.0  0.65960  0.98708  0.32633  1.0000
  H   H4231     1.0  0.64056  0.75424  0.48166  1.0000
  H   H4232     1.0  0.99320  0.96055  0.29013  1.0000
  P   P174      1.0  0.75738  0.71043  0.48183  1.0000
  H   H4233     1.0  0.86227  0.86075  0.24862  1.0000
  H   H4234     1.0  0.62151  0.98415  0.36596  1.0000
  C   C5291     1.0  0.98069  0.68813  0.27213  1.0000
  C   C5292     1.0  0.99372  0.91847  0.28408  1.0000
  C   C5293     1.0  0.74768  0.81582  0.48584  1.0000
  H   H4235     1.0  0.82949  0.66182  0.40142  1.0000
  C   C5294     1.0  0.82326  0.66076  0.30186  1.0000
  C   C5295     1.0  0.68637  0.66944  0.29654  1.0000
  C   C5296     1.0  0.73999  0.85977  0.48456  1.0000
  C   C5297     1.0  0.78055  0.85098  0.25783  1.0000
  H   H4236     1.0  0.78489  0.66164  0.43972  1.0000
  H   H4237     1.0  0.78266  0.87456  0.48505  1.0000
  H   H4238     1.0  0.76710  0.66335  0.30486  1.0000
  C   C5298     1.0  0.78869  0.98957  0.40657  1.0000
  C   C5299     1.0  0.79480  0.86318  0.24793  1.0000
  H   H4239     1.0  0.77298  0.84531  0.25017  1.0000
  C   C5300     1.0  0.99409  0.98148  0.39638  1.0000
  C   C5301     1.0  0.96016  0.98837  0.36968  1.0000
  H   H4240     1.0  0.91349  0.98321  0.36769  1.0000
  H   H4241     1.0  0.88250  0.66169  0.24180  1.0000
  H   H4242     1.0  0.65678  0.66813  0.29361  1.0000
  H   H4243     1.0  0.80855  0.91160  0.48614  1.0000
  H   H4244     1.0  0.65817  0.86865  0.48412  1.0000
  C   C5302     1.0  0.67114  0.65945  0.29725  1.0000
  C   C5303     1.0  0.84997  0.93613  0.48386  1.0000
  C   C5304     1.0  0.52735  0.66023  0.34383  1.0000
  P   P175      1.0  0.82192  0.88760  0.24509  1.0000
  C   C5305     1.0  0.80721  0.91352  0.24116  1.0000
  C   C5306     1.0  0.94141  0.89545  0.24230  1.0000
  C   C5307     1.0  0.82425  0.99154  0.39958  1.0000
  C   C5308     1.0  0.86298  0.99051  0.41674  1.0000
  C   C5309     1.0  0.88415  0.98919  0.41048  1.0000
  C   C5310     1.0  0.54351  0.91137  0.48588  1.0000
  C   C5311     1.0  0.72580  0.76810  0.48649  1.0000
  C   C5312     1.0  0.59134  0.95633  0.59276  1.0000
  C   C5313     1.0  0.84489  0.96186  0.70242  1.0000
  C   C5314     1.0  0.64258  0.81551  0.49626  1.0000
  C   C5315     1.0  0.60268  0.95818  0.57405  1.0000
  C   C5316     1.0  0.64305  0.97955  0.62237  1.0000
  H   H4245     1.0  0.58451  0.90771  0.60021  1.0000
  Fe  Fe355     1.0  0.64584  0.96235  0.51288  1.0000
  H   H4246     1.0  0.71770  0.77595  0.49774  1.0000
  H   H4247     1.0  0.84920  0.92829  0.49854  1.0000
  Fe  Fe356     1.0  0.65104  0.91697  0.51629  1.0000
  C   C5317     1.0  0.73433  0.97568  0.52336  1.0000
  S   S703      1.0  0.63220  0.89563  0.53771  1.0000
  Fe  Fe357     1.0  0.68821  0.93678  0.50251  1.0000
  H   H4248     1.0  0.52774  0.73514  0.65594  1.0000
  C   C5318     1.0  0.84352  0.65921  0.67199  1.0000
  C   C5319     1.0  0.83260  0.67174  0.64216  1.0000
  S   S704      1.0  0.66384  0.93490  0.52918  1.0000
  S   S705      1.0  0.63163  0.94453  0.50138  1.0000
  S   S706      1.0  0.63341  0.80079  0.56354  1.0000
  Fe  Fe358     1.0  0.78178  0.86852  0.56461  1.0000
  S   S707      1.0  0.79179  0.84447  0.58870  1.0000
  S   S708      1.0  0.75784  0.89614  0.57100  1.0000
  Fe  Fe359     1.0  0.80857  0.84453  0.53495  1.0000
  S   S709      1.0  0.82124  0.81883  0.55708  1.0000
  C   C5320     1.0  0.96187  0.69240  0.63564  1.0000
  Fe  Fe360     1.0  0.78849  0.82238  0.57339  1.0000
  S   S710      1.0  0.76975  0.79829  0.58922  1.0000
  Fe  Fe361     1.0  0.82331  0.84366  0.57042  1.0000
  S   S711      1.0  0.85048  0.84331  0.58240  1.0000
  S   S712      1.0  0.77589  0.84675  0.55075  1.0000
  S   S713      1.0  0.81332  0.86904  0.54680  1.0000
  Fe  Fe362     1.0  0.87930  0.90927  0.64464  1.0000
  S   S714      1.0  0.89198  0.88696  0.66879  1.0000
  S   S715      1.0  0.85654  0.90445  0.62991  1.0000
  Fe  Fe363     1.0  0.89398  0.94462  0.65140  1.0000
  S   S716      1.0  0.90705  0.92499  0.67581  1.0000
  C   C5321     1.0  0.51859  0.70086  0.69786  1.0000
  Fe  Fe364     1.0  0.91932  0.90183  0.65790  1.0000
  Fe  Fe365     1.0  0.87879  0.91227  0.68450  1.0000
  S   S717      1.0  0.86067  0.90959  0.71441  1.0000
  S   S718      1.0  0.90788  0.92230  0.63241  1.0000
  S   S719      1.0  0.86448  0.93382  0.66142  1.0000
  C   C5322     1.0  0.93956  0.99010  0.60473  1.0000
  H   H4249     1.0  0.83385  0.67036  0.62791  1.0000
  C   C5323     1.0  0.95523  0.89736  0.68745  1.0000
  H   H4250     1.0  0.76567  0.98641  0.59126  1.0000
  C   C5324     1.0  0.95340  0.95195  0.67409  1.0000
  C   C5325     1.0  0.96517  0.89370  0.66950  1.0000
  C   C5326     1.0  0.96356  0.95698  0.65524  1.0000
  C   C5327     1.0  0.92044  0.66422  0.67227  1.0000
  C   C5328     1.0  0.96112  0.68846  0.61861  1.0000
  C   C5329     1.0  0.74395  0.69841  0.50463  1.0000
  C   C5330     1.0  0.81446  0.69078  0.49359  1.0000
  C   C5331     1.0  0.53235  0.96951  0.65674  1.0000
  C   C5332     1.0  0.60656  0.88663  0.50150  1.0000
  P   P176      1.0  0.96789  0.66267  0.61504  1.0000
  C   C5333     1.0  0.81864  0.68800  0.64906  1.0000
  C   C5334     1.0  0.94994  0.72489  0.60678  1.0000
  H   H4251     1.0  0.89870  0.96506  0.68160  1.0000
  H   H4252     1.0  0.82243  0.67780  0.50243  1.0000
  C   C5335     1.0  0.87688  0.90097  0.73027  1.0000
  C   C5336     1.0  0.89715  0.89138  0.72438  1.0000
  Fe  Fe366     1.0  0.65749  0.77560  0.55214  1.0000
  H   H4253     1.0  0.90308  0.89003  0.70985  1.0000
  H   H4254     1.0  0.82417  0.80286  0.51393  1.0000
  C   C5337     1.0  0.85181  0.86020  0.59592  1.0000
  C   C5338     1.0  0.87023  0.85833  0.60124  1.0000
  C   C5339     1.0  0.87199  0.87149  0.61179  1.0000
  C   C5340     1.0  0.85529  0.88674  0.61720  1.0000
  C   C5341     1.0  0.83680  0.88837  0.61214  1.0000
  C   C5342     1.0  0.83506  0.87529  0.60154  1.0000
  H   H4255     1.0  0.88328  0.84672  0.59703  1.0000
  H   H4256     1.0  0.88632  0.86997  0.61553  1.0000
  H   H4257     1.0  0.82367  0.89980  0.61651  1.0000
  H   H4258     1.0  0.82076  0.87683  0.59774  1.0000
  C   C5343     1.0  0.74238  0.77951  0.58380  1.0000
  C   C5344     1.0  0.75992  0.78784  0.57560  1.0000
  C   C5345     1.0  0.76948  0.78748  0.55676  1.0000
  C   C5346     1.0  0.76184  0.77846  0.54636  1.0000
  H   H4259     1.0  0.78302  0.79379  0.55030  1.0000
  H   H4260     1.0  0.76969  0.77784  0.53196  1.0000
  C   C5347     1.0  0.63408  0.86899  0.54403  1.0000
  C   C5348     1.0  0.62113  0.86126  0.56073  1.0000
  C   C5349     1.0  0.62129  0.84036  0.56640  1.0000
  C   C5350     1.0  0.63445  0.82684  0.55550  1.0000
  C   C5351     1.0  0.64749  0.83446  0.53869  1.0000
  C   C5352     1.0  0.64726  0.85561  0.53295  1.0000
  H   H4261     1.0  0.61079  0.87149  0.56933  1.0000
  H   H4262     1.0  0.61111  0.83461  0.57934  1.0000
  H   H4263     1.0  0.65743  0.82411  0.53007  1.0000
  H   H4264     1.0  0.65684  0.86165  0.51990  1.0000
  C   C5353     1.0  0.73154  0.92489  0.51867  1.0000
  C   C5354     1.0  0.75218  0.91535  0.51702  1.0000
  C   C5355     1.0  0.76018  0.90643  0.53316  1.0000
  C   C5356     1.0  0.74774  0.90773  0.55097  1.0000
  C   C5357     1.0  0.72725  0.91791  0.55269  1.0000
  C   C5358     1.0  0.71906  0.92630  0.53651  1.0000
  H   H4265     1.0  0.76196  0.91442  0.50331  1.0000
  H   H4266     1.0  0.77600  0.89855  0.53183  1.0000
  H   H4267     1.0  0.71765  0.91882  0.56650  1.0000
  H   H4268     1.0  0.70320  0.93393  0.53782  1.0000
  C   C5359     1.0  0.51371  0.98684  0.70477  1.0000
  H   H4269     1.0  0.97724  0.97467  0.69381  1.0000
  C   C5360     1.0  0.98088  0.97295  0.59329  1.0000
  C   C5361     1.0  0.73438  0.77100  0.57319  1.0000
  C   C5362     1.0  0.65651  0.98547  0.54298  1.0000
  C   C5363     1.0  0.90299  0.67765  0.66711  1.0000
  H   H4270     1.0  0.60778  0.97219  0.56637  1.0000
  H   H4271     1.0  0.68440  0.81054  0.55226  1.0000
  H   H4272     1.0  0.87131  0.68168  0.66749  1.0000
  H   H4273     1.0  0.67854  0.71529  0.50319  1.0000
  H   H4274     1.0  0.97262  0.96966  0.56897  1.0000
  C   C5364     1.0  0.72825  0.82552  0.54820  1.0000
  H   H4275     1.0  0.65504  0.66159  0.60174  1.0000
  H   H4276     1.0  0.73369  0.73974  0.50546  1.0000
  C   C5365     1.0  0.98351  0.97497  0.66418  1.0000
  H   H4277     1.0  0.74764  0.83720  0.52241  1.0000
  S   S720      1.0  0.67748  0.75334  0.57098  1.0000
  H   H4278     1.0  0.52576  0.71892  0.73499  1.0000
  Fe  Fe367     1.0  0.70275  0.75646  0.54508  1.0000
  H   H4279     1.0  0.57572  0.66076  0.71503  1.0000
  H   H4280     1.0  0.95787  0.90583  0.71195  1.0000
  H   H4281     1.0  0.93838  0.85263  0.68591  1.0000
  H   H4282     1.0  0.59488  0.71842  0.60862  1.0000
  H   H4283     1.0  0.57587  0.93605  0.61646  1.0000
  C   C5366     1.0  0.68897  0.93575  0.60364  1.0000
  C   C5367     1.0  0.69099  0.92543  0.62194  1.0000
  C   C5368     1.0  0.70650  0.92772  0.62913  1.0000
  C   C5369     1.0  0.71991  0.94040  0.61805  1.0000
  C   C5370     1.0  0.71793  0.95083  0.59964  1.0000
  C   C5371     1.0  0.70229  0.94849  0.59255  1.0000
  P   P177      1.0  0.73413  0.96855  0.58606  1.0000
  P   P178      1.0  0.99124  0.97590  0.62557  1.0000
  C   C5372     1.0  0.75959  0.95783  0.59027  1.0000
  H   H4284     1.0  0.76006  0.70764  0.52065  1.0000
  C   C5373     1.0  0.79133  0.96175  0.59508  1.0000
  C   C5374     1.0  0.79936  0.94089  0.59616  1.0000
  C   C5375     1.0  0.78755  0.92844  0.59441  1.0000
  C   C5376     1.0  0.76773  0.93683  0.59158  1.0000
  C   C5377     1.0  0.91844  0.93287  0.72992  1.0000
  C   C5378     1.0  0.95518  0.70487  0.60416  1.0000
  C   C5379     1.0  0.89577  0.76847  0.72944  1.0000
  H   H4285     1.0  0.93584  0.98459  0.57933  1.0000
  C   C5380     1.0  0.87755  0.80391  0.72533  1.0000
  C   C5381     1.0  0.73497  0.97189  0.56124  1.0000
  H   H4286     1.0  0.73890  0.79490  0.51246  1.0000
  S   S721      1.0  0.69777  0.73090  0.53531  1.0000
  H   H4287     1.0  0.94542  0.73750  0.59555  1.0000
  C   C5382     1.0  0.79429  0.69175  0.49305  1.0000
  C   C5383     1.0  0.74944  0.95880  0.55045  1.0000
  H   H4288     1.0  0.67705  0.93398  0.59800  1.0000
  H   H4289     1.0  0.68063  0.91555  0.63046  1.0000
  H   H4290     1.0  0.70818  0.91963  0.64328  1.0000
  H   H4291     1.0  0.73173  0.94221  0.62389  1.0000
  H   H4292     1.0  0.70028  0.95647  0.57849  1.0000
  H   H4293     1.0  0.85033  0.77375  0.71811  1.0000
  H   H4294     1.0  0.71282  0.67559  0.55383  1.0000
  H   H4295     1.0  0.81478  0.93437  0.59829  1.0000
  H   H4296     1.0  0.79381  0.91226  0.59509  1.0000
  H   H4297     1.0  0.75887  0.92693  0.59012  1.0000
  C   C5384     1.0  0.74860  0.69946  0.52126  1.0000
  C   C5385     1.0  0.90365  0.97935  0.67562  1.0000
  S   S722      1.0  0.95267  0.88623  0.65585  1.0000
  P   P179      1.0  0.58547  0.97722  0.60459  1.0000
  H   H4298     1.0  0.76903  0.84349  0.49181  1.0000
  C   C5386     1.0  0.89461  0.78881  0.72955  1.0000
  H   H4299     1.0  0.68708  0.86059  0.49982  1.0000
  H   H4300     1.0  0.76017  0.95047  0.52346  1.0000
  H   H4301     1.0  0.76057  0.94656  0.55659  1.0000
  C   C5387     1.0  0.55478  0.70123  0.68678  1.0000
  C   C5388     1.0  0.55079  0.71606  0.67075  1.0000
  C   C5389     1.0  0.86271  0.77794  0.72128  1.0000
  H   H4302     1.0  0.57042  0.69493  0.68827  1.0000
  H   H4303     1.0  0.56337  0.72111  0.65982  1.0000
  S   S723      1.0  0.89629  0.97786  0.64178  1.0000
  S   S724      1.0  0.67735  0.91604  0.49095  1.0000
  H   H4304     1.0  0.80053  0.97132  0.59649  1.0000
  H   H4305     1.0  0.82855  0.67777  0.69272  1.0000
  C   C5390     1.0  0.86150  0.79828  0.72141  1.0000
  C   C5391     1.0  0.71051  0.81796  0.55671  1.0000
  H   H4306     1.0  0.88077  0.74729  0.72517  1.0000
  H   H4307     1.0  0.85409  0.98891  0.63646  1.0000
  C   C5392     1.0  0.88462  0.67099  0.67158  1.0000
  H   H4308     1.0  0.90369  0.69325  0.65968  1.0000
  C   C5393     1.0  0.97337  0.96980  0.68303  1.0000
  H   H4309     1.0  0.65651  0.98074  0.62619  1.0000
  C   C5394     1.0  0.61890  0.79281  0.50980  1.0000
  C   C5395     1.0  0.62997  0.80568  0.51198  1.0000
  H   H4310     1.0  0.60906  0.78528  0.52203  1.0000
  C   C5396     1.0  0.73773  0.69082  0.53892  1.0000
  C   C5397     1.0  0.62648  0.70984  0.59480  1.0000
  H   H4311     1.0  0.52397  0.97304  0.70127  1.0000
  C   C5398     1.0  0.56459  0.97405  0.62494  1.0000
  C   C5399     1.0  0.68886  0.85460  0.48756  1.0000
  H   H4312     1.0  0.83979  0.94933  0.70050  1.0000
  C   C5400     1.0  0.72798  0.68893  0.50599  1.0000
  S   S725      1.0  0.66709  0.69804  0.57738  1.0000
  H   H4313     1.0  0.78688  0.67930  0.50137  1.0000
  H   H4314     1.0  0.65954  0.97303  0.59540  1.0000
  C   C5401     1.0  0.60638  0.68614  0.61762  1.0000
  C   C5402     1.0  0.96722  0.97497  0.58203  1.0000
  C   C5403     1.0  0.73337  0.83223  0.52861  1.0000
  C   C5404     1.0  0.81646  0.82809  0.49134  1.0000
  H   H4315     1.0  0.62868  0.80804  0.52587  1.0000
  C   C5405     1.0  0.58954  0.92185  0.59297  1.0000
  H   H4316     1.0  0.66148  0.97487  0.70977  1.0000
  C   C5406     1.0  0.73932  0.84154  0.61111  1.0000
  H   H4317     1.0  0.93966  0.89548  0.69326  1.0000
  C   C5407     1.0  0.64193  0.67403  0.60324  1.0000
  C   C5408     1.0  0.53069  0.72385  0.66854  1.0000
  C   C5409     1.0  0.60641  0.98299  0.62884  1.0000
  H   H4318     1.0  0.89406  0.67105  0.61780  1.0000
  C   C5410     1.0  0.95825  0.95840  0.68796  1.0000
  C   C5411     1.0  0.74923  0.96089  0.53155  1.0000
  H   H4319     1.0  0.80646  0.70273  0.67259  1.0000
  C   C5412     1.0  0.72793  0.87719  0.61255  1.0000
  H   H4320     1.0  0.82190  0.95796  0.48982  1.0000
  C   C5413     1.0  0.64354  0.69386  0.59277  1.0000
  S   S726      1.0  0.72187  0.93484  0.49819  1.0000
  C   C5414     1.0  0.61148  0.86793  0.49616  1.0000
  C   C5415     1.0  0.52873  0.98320  0.64000  1.0000
  C   C5416     1.0  0.62085  0.78934  0.49195  1.0000
  C   C5417     1.0  0.50980  0.66409  0.72593  1.0000
  H   H4321     1.0  0.61021  0.88747  0.51428  1.0000
  C   C5418     1.0  0.60807  0.97786  0.61166  1.0000
  C   C5419     1.0  0.69778  0.81714  0.54567  1.0000
  C   C5420     1.0  0.66549  0.99164  0.55439  1.0000
  C   C5421     1.0  0.54475  0.98541  0.62413  1.0000
  H   H4322     1.0  0.84800  0.80961  0.71847  1.0000
  C   C5422     1.0  0.98560  0.89554  0.66248  1.0000
  C   C5423     1.0  0.68123  0.71817  0.48797  1.0000
  C   C5424     1.0  0.92600  0.66749  0.61695  1.0000
  S   S727      1.0  0.81444  0.84777  0.50303  1.0000
  C   C5425     1.0  0.52290  0.91016  0.49159  1.0000
  H   H4323     1.0  0.95462  0.70217  0.59086  1.0000
  C   C5426     1.0  0.77153  0.97023  0.59212  1.0000
  C   C5427     1.0  0.90093  0.83484  0.72177  1.0000
  C   C5428     1.0  0.53875  0.69372  0.70034  1.0000
  H   H4324     1.0  0.95739  0.71545  0.65130  1.0000
  H   H4325     1.0  0.90886  0.98144  0.70182  1.0000
  H   H4326     1.0  0.69337  0.82213  0.51768  1.0000
  C   C5429     1.0  0.90856  0.66039  0.61824  1.0000
  H   H4327     1.0  0.76494  0.76544  0.50405  1.0000
  H   H4328     1.0  0.62753  0.72516  0.58681  1.0000
  C   C5430     1.0  0.60800  0.70598  0.60717  1.0000
  C   C5431     1.0  0.82189  0.80734  0.49963  1.0000
  S   S728      1.0  0.58281  0.68204  0.63303  1.0000
  C   C5432     1.0  0.67279  0.80951  0.62399  1.0000
  C   C5433     1.0  0.66414  0.80278  0.61279  1.0000
  C   C5434     1.0  0.66193  0.81463  0.59500  1.0000
  C   C5435     1.0  0.66860  0.83309  0.58820  1.0000
  C   C5436     1.0  0.67798  0.83968  0.59907  1.0000
  C   C5437     1.0  0.67948  0.82796  0.61727  1.0000
  P   P180      1.0  0.68720  0.86331  0.59045  1.0000
  C   C5438     1.0  0.66683  0.88412  0.59707  1.0000
  C   C5439     1.0  0.70827  0.86129  0.60087  1.0000
  C   C5440     1.0  0.71122  0.87853  0.60511  1.0000
  C   C5441     1.0  0.72274  0.84287  0.60349  1.0000
  C   C5442     1.0  0.66434  0.90341  0.58469  1.0000
  C   C5443     1.0  0.64862  0.91946  0.58998  1.0000
  C   C5444     1.0  0.63575  0.91662  0.60788  1.0000
  C   C5445     1.0  0.63824  0.89759  0.62036  1.0000
  C   C5446     1.0  0.65369  0.88136  0.61497  1.0000
  C   C5447     1.0  0.69607  0.86905  0.56512  1.0000
  C   C5448     1.0  0.71657  0.87026  0.55689  1.0000
  C   C5449     1.0  0.72277  0.87672  0.53737  1.0000
  C   C5450     1.0  0.70861  0.88229  0.52599  1.0000
  C   C5451     1.0  0.68835  0.88073  0.53398  1.0000
  C   C5452     1.0  0.68202  0.87444  0.55347  1.0000
  H   H4329     1.0  0.67446  0.80031  0.63783  1.0000
  H   H4330     1.0  0.65914  0.78837  0.61782  1.0000
  H   H4331     1.0  0.65518  0.80936  0.58637  1.0000
  H   H4332     1.0  0.66674  0.84170  0.57432  1.0000
  H   H4333     1.0  0.68605  0.83289  0.62624  1.0000
  H   H4334     1.0  0.70110  0.89317  0.60197  1.0000
  H   H4335     1.0  0.72156  0.82963  0.59926  1.0000
  H   H4336     1.0  0.67451  0.90624  0.57096  1.0000
  H   H4337     1.0  0.64662  0.93415  0.58018  1.0000
  H   H4338     1.0  0.62385  0.92919  0.61207  1.0000
  H   H4339     1.0  0.62817  0.89535  0.63420  1.0000
  H   H4340     1.0  0.65542  0.86671  0.62479  1.0000
  H   H4341     1.0  0.72788  0.86660  0.56532  1.0000
  H   H4342     1.0  0.73857  0.87764  0.53109  1.0000
  H   H4343     1.0  0.71330  0.88820  0.51106  1.0000
  H   H4344     1.0  0.67735  0.88489  0.52521  1.0000
  H   H4345     1.0  0.66596  0.87465  0.55945  1.0000
  C   C5453     1.0  0.81714  0.68997  0.66735  1.0000
  C   C5454     1.0  0.55200  0.95798  0.65762  1.0000
  C   C5455     1.0  0.74190  0.85868  0.61567  1.0000
  C   C5456     1.0  0.56804  0.96015  0.64177  1.0000
  H   H4346     1.0  0.97895  0.88312  0.73283  1.0000
  C   C5457     1.0  0.62742  0.97425  0.59964  1.0000
  C   C5458     1.0  0.95663  0.71246  0.63820  1.0000
  C   C5459     1.0  0.95065  0.72869  0.62379  1.0000
  H   H4347     1.0  0.65109  0.82555  0.49797  1.0000
  P   P181      1.0  0.72868  0.83760  0.49190  1.0000
  H   H4348     1.0  0.94670  0.74425  0.62573  1.0000
  H   H4349     1.0  0.55485  0.94745  0.67063  1.0000
  C   C5460     1.0  0.72193  0.68136  0.54014  1.0000
  C   C5461     1.0  0.71705  0.68046  0.52368  1.0000
  H   H4350     1.0  0.54232  0.68174  0.71228  1.0000
  C   C5462     1.0  0.97843  0.96892  0.65005  1.0000
  H   H4351     1.0  0.55367  0.90285  0.49525  1.0000
  H   H4352     1.0  0.61895  0.85437  0.50483  1.0000
  C   C5463     1.0  0.74909  0.79686  0.49871  1.0000
  C   C5464     1.0  0.98368  0.66309  0.59148  1.0000
  H   H4353     1.0  0.95534  0.84554  0.71251  1.0000
  C   C5465     1.0  0.62344  0.67016  0.61562  1.0000
  H   H4354     1.0  0.83110  0.89330  0.69841  1.0000
  C   C5466     1.0  0.89868  0.94469  0.73059  1.0000
  C   C5467     1.0  0.70280  0.82395  0.52606  1.0000
  H   H4355     1.0  0.73493  0.77970  0.59837  1.0000
  H   H4356     1.0  0.60450  0.91136  0.56732  1.0000
  C   C5468     1.0  0.94654  0.98344  0.58780  1.0000
  C   C5469     1.0  0.65736  0.99083  0.70307  1.0000
  S   S729      1.0  0.67128  0.96594  0.48736  1.0000
  C   C5470     1.0  0.51461  0.71638  0.68209  1.0000
  C   C5471     1.0  0.74419  0.77033  0.55444  1.0000
  C   C5472     1.0  0.97390  0.97932  0.61050  1.0000
  H   H4357     1.0  0.95037  0.95448  0.70254  1.0000
  P   P182      1.0  0.87553  0.83009  0.72611  1.0000
  C   C5473     1.0  0.93080  0.84617  0.70009  1.0000
  C   C5474     1.0  0.91123  0.84243  0.70337  1.0000
  C   C5475     1.0  0.86293  0.84685  0.70778  1.0000
  C   C5476     1.0  0.86647  0.84159  0.69028  1.0000
  C   C5477     1.0  0.85703  0.85474  0.67598  1.0000
  C   C5478     1.0  0.84409  0.87325  0.67899  1.0000
  C   C5479     1.0  0.84058  0.87863  0.69628  1.0000
  C   C5480     1.0  0.84990  0.86549  0.71064  1.0000
  C   C5481     1.0  0.85732  0.97646  0.72179  1.0000
  H   H4358     1.0  0.73837  0.82569  0.55675  1.0000
  C   C5482     1.0  0.85032  0.96047  0.71929  1.0000
  C   C5483     1.0  0.82509  0.79236  0.48915  1.0000
  H   H4359     1.0  0.90419  0.84573  0.69150  1.0000
  H   H4360     1.0  0.87684  0.82756  0.68750  1.0000
  H   H4361     1.0  0.86009  0.85092  0.66233  1.0000
  H   H4362     1.0  0.83721  0.88365  0.66772  1.0000
  H   H4363     1.0  0.94176  0.94299  0.67797  1.0000
  S   S730      1.0  0.64887  0.75167  0.54267  1.0000
  C   C5484     1.0  0.58471  0.93802  0.60212  1.0000
  H   H4364     1.0  0.56816  0.98844  0.57067  1.0000
  H   H4365     1.0  0.72091  0.76458  0.57961  1.0000
  H   H4366     1.0  0.73068  0.89073  0.61499  1.0000
  H   H4367     1.0  0.70707  0.81203  0.57182  1.0000
  H   H4368     1.0  0.61187  0.77959  0.49051  1.0000
  C   C5485     1.0  0.96559  0.90310  0.69810  1.0000
  H   H4369     1.0  0.75520  0.85780  0.62088  1.0000
  H   H4370     1.0  0.58320  0.95112  0.64269  1.0000
  C   C5486     1.0  0.95316  0.98809  0.61603  1.0000
  H   H4371     1.0  0.82972  0.77640  0.49554  1.0000
  C   C5487     1.0  0.98586  0.90545  0.69085  1.0000
  S   S731      1.0  0.62542  0.98805  0.52607  1.0000
  H   H4372     1.0  0.80910  0.69919  0.64018  1.0000
  H   H4373     1.0  0.61610  0.94361  0.55044  1.0000
  H   H4374     1.0  0.75057  0.82737  0.61289  1.0000
  H   H4375     1.0  0.74086  0.69237  0.55169  1.0000
  C   C5488     1.0  0.60739  0.94203  0.56493  1.0000
  S   S732      1.0  0.67976  0.75842  0.48766  1.0000
  C   C5489     1.0  0.82959  0.67572  0.67875  1.0000
  H   H4376     1.0  0.51992  0.96786  0.66902  1.0000
  H   H4377     1.0  0.92456  0.68364  0.61559  1.0000
  H   H4378     1.0  0.84726  0.87027  0.72373  1.0000
  C   C5490     1.0  0.73486  0.74743  0.49079  1.0000
  H   H4379     1.0  0.96669  0.68008  0.64689  1.0000
  H   H4380     1.0  0.70429  0.67382  0.52465  1.0000
  C   C5491     1.0  0.62383  0.98365  0.63423  1.0000
  H   H4381     1.0  0.90706  0.79267  0.73289  1.0000
  S   S733      1.0  0.68316  0.78058  0.52721  1.0000
  H   H4382     1.0  0.84953  0.94665  0.73019  1.0000
  Fe  Fe368     1.0  0.67067  0.72963  0.55979  1.0000
  H   H4383     1.0  0.59274  0.91838  0.49526  1.0000
  S   S734      1.0  0.73575  0.75832  0.54102  1.0000
  Fe  Fe369     1.0  0.67666  0.75463  0.51907  1.0000
  C   C5492     1.0  0.64479  0.97501  0.60505  1.0000
  C   C5493     1.0  0.72050  0.83183  0.51736  1.0000
  C   C5494     1.0  0.60086  0.92387  0.57440  1.0000
  C   C5495     1.0  0.94041  0.84205  0.71508  1.0000
  H   H4384     1.0  0.95965  0.95161  0.64479  1.0000
  H   H4385     1.0  0.93463  0.66936  0.66895  1.0000
  H   H4386     1.0  0.88931  0.94195  0.72264  1.0000
  H   H4387     1.0  0.59165  0.98716  0.63791  1.0000
  C   C5496     1.0  0.76383  0.77997  0.49397  1.0000
  H   H4388     1.0  0.92516  0.87502  0.73297  1.0000
  H   H4389     1.0  0.62923  0.97153  0.58581  1.0000
  C   C5497     1.0  0.84674  0.97900  0.68776  1.0000
  H   H4390     1.0  0.49920  0.72204  0.67984  1.0000
  H   H4391     1.0  0.51743  0.90071  0.50516  1.0000
  C   C5498     1.0  0.90387  0.98877  0.65665  1.0000
  H   H4392     1.0  0.84336  0.97954  0.67448  1.0000
  H   H4393     1.0  0.92387  0.92140  0.72150  1.0000
  C   C5499     1.0  0.90920  0.98878  0.68716  1.0000
  C   C5500     1.0  0.59674  0.90420  0.49055  1.0000
  H   H4394     1.0  0.73361  0.97657  0.50898  1.0000
  H   H4395     1.0  0.70360  0.98133  0.61899  1.0000
  H   H4396     1.0  0.66476  0.97290  0.53631  1.0000
  H   H4397     1.0  0.68037  0.98341  0.55677  1.0000
  C   C5501     1.0  0.93044  0.83416  0.73342  1.0000
  C   C5502     1.0  0.75981  0.85819  0.48667  1.0000
  H   H4398     1.0  0.62225  0.98814  0.64731  1.0000
  C   C5503     1.0  0.87985  0.76304  0.72527  1.0000
  H   H4399     1.0  0.50703  0.68240  0.67508  1.0000
  H   H4400     1.0  0.72347  0.68854  0.49351  1.0000
  H   H4401     1.0  0.90902  0.75691  0.73259  1.0000
  H   H4402     1.0  0.66583  0.98534  0.67492  1.0000
  H   H4403     1.0  0.99339  0.89271  0.64870  1.0000
  C   C5504     1.0  0.50235  0.98659  0.72323  1.0000
  H   H4404     1.0  0.50369  0.97261  0.73402  1.0000
  C   C5505     1.0  0.72032  0.98703  0.55275  1.0000
  H   H4405     1.0  0.67919  0.68789  0.48760  1.0000
  P   P183      1.0  0.49834  0.68881  0.71367  1.0000
  C   C5506     1.0  0.71997  0.98885  0.53393  1.0000
  C   C5507     1.0  0.61274  0.82911  0.96860  1.0000
  H   H4406     1.0  0.51224  0.80754  0.90756  1.0000
  C   C5508     1.0  0.98318  0.87688  0.74633  1.0000
  Fe  Fe370     1.0  0.79909  0.69933  0.88792  1.0000
  S   S735      1.0  0.78790  0.69561  0.91909  1.0000
  S   S736      1.0  0.78990  0.73080  0.87114  1.0000
  H   H4407     1.0  0.92146  0.89756  0.90000  1.0000
  H   H4408     1.0  0.98538  0.93646  0.94310  1.0000
  H   H4409     1.0  0.82230  0.97061  0.75164  1.0000
  C   C5509     1.0  0.50196  0.85863  0.92301  1.0000
  C   C5510     1.0  0.89247  0.98250  0.82364  1.0000
  H   H4410     1.0  0.90320  0.82482  0.75110  1.0000
  Fe  Fe371     1.0  0.62427  0.72267  0.93856  1.0000
  S   S737      1.0  0.62685  0.73707  0.90776  1.0000
  S   S738      1.0  0.64093  0.69205  0.95164  1.0000
  Fe  Fe372     1.0  0.59261  0.75778  0.95137  1.0000
  S   S739      1.0  0.59190  0.77548  0.92165  1.0000
  C   C5511     1.0  0.49753  0.82392  0.92950  1.0000
  Fe  Fe373     1.0  0.59265  0.74558  0.91505  1.0000
  S   S740      1.0  0.57241  0.74397  0.89651  1.0000
  Fe  Fe374     1.0  0.62614  0.76571  0.91655  1.0000
  S   S741      1.0  0.64677  0.78700  0.89787  1.0000
  S   S742      1.0  0.59007  0.72886  0.94535  1.0000
  S   S743      1.0  0.62669  0.75033  0.94673  1.0000
  Fe  Fe375     1.0  0.76261  0.81289  0.92749  1.0000
  S   S744      1.0  0.74793  0.82963  0.90296  1.0000
  S   S745      1.0  0.78440  0.78240  0.92971  1.0000
  Fe  Fe376     1.0  0.74475  0.84755  0.94843  1.0000
  S   S746      1.0  0.72951  0.86714  0.92510  1.0000
  S   S747      1.0  0.73792  0.85739  0.97595  1.0000
  Fe  Fe377     1.0  0.72003  0.83863  0.92513  1.0000
  S   S748      1.0  0.68615  0.83848  0.93071  1.0000
  Fe  Fe378     1.0  0.75890  0.85613  0.90548  1.0000
  S   S749      1.0  0.77504  0.87604  0.87947  1.0000
  S   S750      1.0  0.73415  0.81960  0.94937  1.0000
  S   S751      1.0  0.77474  0.83892  0.92908  1.0000
  Fe  Fe379     1.0  0.89984  0.91532  0.81865  1.0000
  S   S752      1.0  0.90778  0.89531  0.84570  1.0000
  S   S753      1.0  0.88777  0.94921  0.81406  1.0000
  Fe  Fe380     1.0  0.91126  0.88041  0.79891  1.0000
  S   S754      1.0  0.92022  0.85768  0.82415  1.0000
  S   S755      1.0  0.91621  0.86832  0.77303  1.0000
  Fe  Fe381     1.0  0.89158  0.87402  0.84065  1.0000
  S   S756      1.0  0.87196  0.85458  0.86368  1.0000
  Fe  Fe382     1.0  0.93567  0.88098  0.82657  1.0000
  P   P184      1.0  0.86524  0.97400  0.74341  1.0000
  S   S757      1.0  0.88145  0.89510  0.81510  1.0000
  S   S758      1.0  0.92882  0.90261  0.79987  1.0000
  C   C5512     1.0  0.91972  0.95978  0.84666  1.0000
  C   C5513     1.0  0.52799  0.86123  0.85967  1.0000
  C   C5514     1.0  0.64563  0.68011  0.84199  1.0000
  S   S759      1.0  0.56939  0.67269  0.77804  1.0000
  C   C5515     1.0  0.50822  0.76618  0.92524  1.0000
  C   C5516     1.0  0.70376  0.72716  0.97975  1.0000
  S   S760      1.0  0.55075  0.67353  0.83207  1.0000
  C   C5517     1.0  0.98867  0.95969  0.76331  1.0000
  C   C5518     1.0  0.64246  0.90267  0.96136  1.0000
  H   H4411     1.0  0.69462  0.86484  0.96298  1.0000
  C   C5519     1.0  0.89835  0.96130  0.82553  1.0000
  C   C5520     1.0  0.91226  0.95001  0.83681  1.0000
  C   C5521     1.0  0.88076  0.80893  0.79798  1.0000
  H   H4412     1.0  0.91730  0.93376  0.83799  1.0000
  H   H4413     1.0  0.51998  0.86962  0.89592  1.0000
  H   H4414     1.0  0.62383  0.67795  0.82758  1.0000
  C   C5522     1.0  0.77769  0.85921  0.97394  1.0000
  P   P185      1.0  0.53128  0.83633  0.87548  1.0000
  H   H4415     1.0  0.53320  0.75219  0.83068  1.0000
  H   H4416     1.0  0.82365  0.79366  0.91783  1.0000
  C   C5523     1.0  0.49640  0.67853  0.91983  1.0000
  H   H4417     1.0  0.78048  0.85970  0.95904  1.0000
  H   H4418     1.0  0.80872  0.85999  0.97325  1.0000
  C   C5524     1.0  0.57780  0.71463  0.80623  1.0000
  C   C5525     1.0  0.80205  0.86923  0.87400  1.0000
  C   C5526     1.0  0.81248  0.85228  0.88507  1.0000
  C   C5527     1.0  0.83386  0.84800  0.88153  1.0000
  C   C5528     1.0  0.84514  0.86026  0.86665  1.0000
  C   C5529     1.0  0.83488  0.87650  0.85473  1.0000
  C   C5530     1.0  0.81334  0.88108  0.85851  1.0000
  H   H4419     1.0  0.80415  0.84241  0.89640  1.0000
  H   H4420     1.0  0.84170  0.83517  0.89047  1.0000
  H   H4421     1.0  0.84344  0.88587  0.84299  1.0000
  H   H4422     1.0  0.80542  0.89405  0.84967  1.0000
  C   C5531     1.0  0.65845  0.80021  0.90751  1.0000
  C   C5532     1.0  0.67090  0.81338  0.89519  1.0000
  C   C5533     1.0  0.67996  0.82467  0.90223  1.0000
  C   C5534     1.0  0.67679  0.82276  0.92168  1.0000
  C   C5535     1.0  0.66431  0.80959  0.93405  1.0000
  C   C5536     1.0  0.65524  0.79827  0.92701  1.0000
  H   H4423     1.0  0.67339  0.81505  0.88011  1.0000
  H   H4424     1.0  0.68916  0.83511  0.89258  1.0000
  H   H4425     1.0  0.66164  0.80819  0.94911  1.0000
  H   H4426     1.0  0.64563  0.78823  0.93663  1.0000
  H   H4427     1.0  0.58790  0.81389  0.97410  1.0000
  H   H4428     1.0  0.77649  0.67758  0.97086  1.0000
  C   C5537     1.0  0.88122  0.93568  0.89546  1.0000
  H   H4429     1.0  0.98405  0.96392  0.86994  1.0000
  H   H4430     1.0  0.84507  0.80973  0.75576  1.0000
  H   H4431     1.0  0.87429  0.93426  0.88488  1.0000
  C   C5538     1.0  0.57815  0.72183  0.88723  1.0000
  C   C5539     1.0  0.59443  0.70577  0.89127  1.0000
  C   C5540     1.0  0.59861  0.68824  0.88394  1.0000
  C   C5541     1.0  0.58668  0.68653  0.87240  1.0000
  C   C5542     1.0  0.57030  0.70255  0.86837  1.0000
  C   C5543     1.0  0.56605  0.72014  0.87579  1.0000
  H   H4432     1.0  0.60381  0.70679  0.90013  1.0000
  C   C5544     1.0  0.93252  0.85790  0.87851  1.0000
  H   H4433     1.0  0.56095  0.70135  0.85958  1.0000
  H   H4434     1.0  0.55330  0.73241  0.87275  1.0000
  C   C5545     1.0  0.81614  0.95219  0.77965  1.0000
  C   C5546     1.0  0.55277  0.82194  0.94360  1.0000
  H   H4435     1.0  0.98820  0.96100  0.79179  1.0000
  C   C5547     1.0  0.66743  0.68844  0.94382  1.0000
  C   C5548     1.0  0.67656  0.70380  0.92314  1.0000
  C   C5549     1.0  0.70217  0.70147  0.91364  1.0000
  C   C5550     1.0  0.49745  0.81308  0.85296  1.0000
  C   C5551     1.0  0.50643  0.79926  0.80037  1.0000
  H   H4436     1.0  0.66593  0.71536  0.91584  1.0000
  H   H4437     1.0  0.70685  0.71189  0.90028  1.0000
  C   C5552     1.0  0.78978  0.74660  0.88566  1.0000
  C   C5553     1.0  0.77495  0.76456  0.88655  1.0000
  C   C5554     1.0  0.77349  0.77591  0.89979  1.0000
  C   C5555     1.0  0.78696  0.76942  0.91200  1.0000
  C   C5556     1.0  0.80227  0.75185  0.91058  1.0000
  C   C5557     1.0  0.80361  0.74040  0.89752  1.0000
  H   H4438     1.0  0.76423  0.76934  0.87743  1.0000
  H   H4439     1.0  0.76159  0.78927  0.90090  1.0000
  H   H4440     1.0  0.81276  0.74672  0.91993  1.0000
  H   H4441     1.0  0.81515  0.72653  0.89690  1.0000
  H   H4442     1.0  0.82540  0.81635  0.78680  1.0000
  C   C5558     1.0  0.98216  0.91166  0.84912  1.0000
  H   H4443     1.0  0.87743  0.83472  0.96677  1.0000
  S   S761      1.0  0.57135  0.76779  0.97726  1.0000
  H   H4444     1.0  0.62373  0.81794  0.96133  1.0000
  H   H4445     1.0  0.87837  0.79760  0.85955  1.0000
  H   H4446     1.0  0.98670  0.92475  0.80522  1.0000
  C   C5559     1.0  0.58101  0.72409  0.81893  1.0000
  H   H4447     1.0  0.85940  0.79132  0.91949  1.0000
  H   H4448     1.0  0.90834  0.94196  0.93137  1.0000
  H   H4449     1.0  0.67195  0.66123  0.97052  1.0000
  H   H4450     1.0  0.94516  0.84968  0.86952  1.0000
  H   H4451     1.0  0.87567  0.89444  0.77697  1.0000
  C   C5560     1.0  0.88177  0.89382  0.76229  1.0000
  H   H4452     1.0  0.55949  0.88384  0.96048  1.0000
  H   H4453     1.0  0.79744  0.65944  0.82529  1.0000
  C   C5561     1.0  0.54438  0.86736  0.84538  1.0000
  C   C5562     1.0  0.51553  0.77908  0.79883  1.0000
  H   H4454     1.0  0.71805  0.71816  0.98309  1.0000
  C   C5563     1.0  0.52110  0.78445  0.86706  1.0000
  C   C5564     1.0  0.52901  0.79783  0.87254  1.0000
  C   C5565     1.0  0.88695  0.82633  0.79824  1.0000
  C   C5566     1.0  0.55812  0.82675  0.87548  1.0000
  C   C5567     1.0  0.56661  0.83060  0.88868  1.0000
  C   C5568     1.0  0.58741  0.82324  0.88859  1.0000
  C   C5569     1.0  0.59985  0.81200  0.87536  1.0000
  C   C5570     1.0  0.59158  0.80830  0.86204  1.0000
  C   C5571     1.0  0.57084  0.81579  0.86197  1.0000
  C   C5572     1.0  0.70087  0.67072  0.85948  1.0000
  H   H4455     1.0  0.52715  0.76814  0.87056  1.0000
  H   H4456     1.0  0.54097  0.79155  0.88045  1.0000
  C   C5573     1.0  0.87260  0.85114  0.96258  1.0000
  H   H4457     1.0  0.88184  0.99133  0.81482  1.0000
  H   H4458     1.0  0.61593  0.80616  0.87544  1.0000
  H   H4459     1.0  0.60130  0.79961  0.85179  1.0000
  H   H4460     1.0  0.56479  0.81304  0.85135  1.0000
  H   H4461     1.0  0.88383  0.84883  0.81404  1.0000
  H   H4462     1.0  0.88646  0.79403  0.89016  1.0000
  C   C5574     1.0  0.52551  0.76148  0.93288  1.0000
  H   H4463     1.0  0.55725  0.83937  0.89897  1.0000
  P   P186      1.0  0.98638  0.98679  0.75429  1.0000
  C   C5575     1.0  0.56495  0.73787  0.82743  1.0000
  H   H4464     1.0  0.52879  0.69104  0.76340  1.0000
  H   H4465     1.0  0.55438  0.89154  0.82252  1.0000
  H   H4466     1.0  0.68537  0.67594  0.79505  1.0000
  C   C5576     1.0  0.52508  0.70686  0.76457  1.0000
  C   C5577     1.0  0.84412  0.94048  0.79573  1.0000
  H   H4467     1.0  0.51019  0.76889  0.91009  1.0000
  H   H4468     1.0  0.71079  0.69885  0.84387  1.0000
  H   H4469     1.0  0.59016  0.70379  0.79969  1.0000
  C   C5578     1.0  0.51897  0.73180  0.78366  1.0000
  P   P187      1.0  0.51688  0.73725  0.80629  1.0000
  C   C5579     1.0  0.98163  0.88404  0.83556  1.0000
  C   C5580     1.0  0.50067  0.66014  0.81931  1.0000
  H   H4470     1.0  0.51479  0.66510  0.81689  1.0000
  C   C5581     1.0  0.52270  0.71142  0.78204  1.0000
  C   C5582     1.0  0.54555  0.74184  0.82359  1.0000
  H   H4471     1.0  0.59589  0.72057  0.82233  1.0000
  C   C5583     1.0  0.67429  0.67709  0.80818  1.0000
  C   C5584     1.0  0.50892  0.87482  0.86169  1.0000
  C   C5585     1.0  0.51721  0.74756  0.76756  1.0000
  S   S762      1.0  0.51422  0.97308  0.81034  1.0000
  H   H4472     1.0  0.93025  0.95094  0.85558  1.0000
  C   C5586     1.0  0.54216  0.73235  0.81086  1.0000
  C   C5587     1.0  0.85295  0.88319  0.97045  1.0000
  C   C5588     1.0  0.85943  0.89344  0.95184  1.0000
  C   C5589     1.0  0.87241  0.88255  0.93837  1.0000
  C   C5590     1.0  0.82386  0.94147  0.79566  1.0000
  P   P188      1.0  0.87770  0.89543  0.91375  1.0000
  C   C5591     1.0  0.85549  0.89871  0.90430  1.0000
  C   C5592     1.0  0.88400  0.91978  0.91131  1.0000
  H   H4473     1.0  0.87357  0.86045  0.74703  1.0000
  C   C5593     1.0  0.86929  0.90264  0.74914  1.0000
  C   C5594     1.0  0.67961  0.71449  0.87245  1.0000
  S   S763      1.0  0.59313  0.66415  0.86337  1.0000
  C   C5595     1.0  0.50548  0.82652  0.85822  1.0000
  C   C5596     1.0  0.85693  0.90451  0.88472  1.0000
  C   C5597     1.0  0.83971  0.90794  0.87732  1.0000
  C   C5598     1.0  0.82105  0.90479  0.88933  1.0000
  C   C5599     1.0  0.81961  0.89825  0.90876  1.0000
  C   C5600     1.0  0.83668  0.89531  0.91627  1.0000
  C   C5601     1.0  0.89938  0.88043  0.90042  1.0000
  C   C5602     1.0  0.89677  0.86424  0.89424  1.0000
  C   C5603     1.0  0.91328  0.85300  0.88338  1.0000
  C   C5604     1.0  0.92365  0.95031  0.75130  1.0000
  C   C5605     1.0  0.91888  0.88509  0.89566  1.0000
  C   C5606     1.0  0.98703  0.92660  0.75965  1.0000
  H   H4474     1.0  0.82273  0.78274  0.82655  1.0000
  C   C5607     1.0  0.84033  0.67340  0.97658  1.0000
  H   H4475     1.0  0.85367  0.90973  0.94779  1.0000
  H   H4476     1.0  0.55924  0.85728  0.84337  1.0000
  C   C5608     1.0  0.98931  0.97634  0.84022  1.0000
  H   H4477     1.0  0.55659  0.71115  0.79226  1.0000
  C   C5609     1.0  0.51989  0.81928  0.97497  1.0000
  H   H4478     1.0  0.89658  0.91008  0.93638  1.0000
  H   H4479     1.0  0.87136  0.90643  0.87511  1.0000
  H   H4480     1.0  0.84095  0.91267  0.86219  1.0000
  H   H4481     1.0  0.80777  0.90708  0.88356  1.0000
  H   H4482     1.0  0.80520  0.89542  0.91801  1.0000
  H   H4483     1.0  0.83498  0.89022  0.93137  1.0000
  H   H4484     1.0  0.88186  0.86060  0.89736  1.0000
  H   H4485     1.0  0.91094  0.84097  0.87815  1.0000
  H   H4486     1.0  0.54521  0.79650  0.93802  1.0000
  H   H4487     1.0  0.85924  0.83396  0.84129  1.0000
  H   H4488     1.0  0.56752  0.74519  0.83726  1.0000
  H   H4489     1.0  0.68579  0.80250  0.97196  1.0000
  H   H4490     1.0  0.85067  0.68384  0.97094  1.0000
  H   H4491     1.0  0.53694  0.75431  0.95822  1.0000
  H   H4492     1.0  0.69623  0.67884  0.82247  1.0000
  H   H4493     1.0  0.65682  0.76489  0.86704  1.0000
  H   H4494     1.0  0.61116  0.67588  0.88729  1.0000
  P   P189      1.0  0.67386  0.68173  0.86131  1.0000
  C   C5610     1.0  0.50622  0.71252  0.84207  1.0000
  C   C5611     1.0  0.51956  0.69635  0.92459  1.0000
  C   C5612     1.0  0.83132  0.66845  0.96441  1.0000
  H   H4495     1.0  0.65231  0.76033  0.96854  1.0000
  C   C5613     1.0  0.73634  0.67420  0.84835  1.0000
  C   C5614     1.0  0.86319  0.85066  0.75559  1.0000
  C   C5615     1.0  0.50032  0.69145  0.92919  1.0000
  C   C5616     1.0  0.51167  0.67151  0.90507  1.0000
  H   H4496     1.0  0.62793  0.91323  0.96080  1.0000
  C   C5617     1.0  0.65332  0.67445  0.89930  1.0000
  P   P190      1.0  0.82458  0.79259  0.98176  1.0000
  C   C5618     1.0  0.54754  0.83583  0.95528  1.0000
  C   C5619     1.0  0.66845  0.70816  0.86300  1.0000
  C   C5620     1.0  0.65274  0.72249  0.85531  1.0000
  H   H4497     1.0  0.52446  0.69891  0.79416  1.0000
  H   H4498     1.0  0.74754  0.68364  0.84126  1.0000
  C   C5621     1.0  0.98790  0.94714  0.75190  1.0000
  H   H4499     1.0  0.80035  0.95315  0.77967  1.0000
  H   H4500     1.0  0.64923  0.67535  0.79748  1.0000
  H   H4501     1.0  0.56589  0.82247  0.93188  1.0000
  H   H4502     1.0  0.65706  0.68818  0.90028  1.0000
  H   H4503     1.0  0.51577  0.79467  0.96517  1.0000
  C   C5622     1.0  0.93532  0.87389  0.88469  1.0000
  S   S764      1.0  0.96848  0.86908  0.82972  1.0000
  H   H4504     1.0  0.93760  0.83163  0.74516  1.0000
  H   H4505     1.0  0.95218  0.87996  0.76192  1.0000
  H   H4506     1.0  0.63638  0.75385  0.85093  1.0000
  H   H4507     1.0  0.64346  0.71800  0.84844  1.0000
  H   H4508     1.0  0.98644  0.91700  0.75077  1.0000
  H   H4509     1.0  0.89778  0.83296  0.78633  1.0000
  H   H4510     1.0  0.82612  0.71580  0.96807  1.0000
  S   S765      1.0  0.78793  0.67277  0.88620  1.0000
  C   C5623     1.0  0.84725  0.82217  0.76043  1.0000
  C   C5624     1.0  0.53491  0.68862  0.91046  1.0000
  C   C5625     1.0  0.79358  0.85956  0.98196  1.0000
  C   C5626     1.0  0.53089  0.67647  0.90051  1.0000
  C   C5627     1.0  0.52344  0.75808  0.95236  1.0000
  H   H4511     1.0  0.49894  0.84269  0.85483  1.0000
  C   C5628     1.0  0.88808  0.95363  0.89267  1.0000
  H   H4512     1.0  0.68653  0.66108  0.92757  1.0000
  H   H4513     1.0  0.51435  0.76337  0.76836  1.0000
  C   C5629     1.0  0.53107  0.83462  0.97085  1.0000
  C   C5630     1.0  0.71790  0.66893  0.90688  1.0000
  C   C5631     1.0  0.50639  0.89427  0.84988  1.0000
  C   C5632     1.0  0.67554  0.73492  0.87372  1.0000
  H   H4514     1.0  0.50092  0.72502  0.88577  1.0000
  H   H4515     1.0  0.85002  0.93272  0.80830  1.0000
  H   H4516     1.0  0.97555  0.97202  0.92610  1.0000
  C   C5633     1.0  0.72320  0.67192  0.93563  1.0000
  C   C5634     1.0  0.98657  0.91857  0.77886  1.0000
  H   H4517     1.0  0.88881  0.85252  0.93381  1.0000
  H   H4518     1.0  0.66887  0.83727  0.97607  1.0000
  H   H4519     1.0  0.85377  0.86681  0.77815  1.0000
  H   H4520     1.0  0.52723  0.84551  0.97974  1.0000
  C   C5635     1.0  0.90056  0.94027  0.92147  1.0000
  C   C5636     1.0  0.85946  0.86206  0.97579  1.0000
  H   H4521     1.0  0.52877  0.89199  0.94721  1.0000
  C   C5637     1.0  0.52466  0.80605  0.96265  1.0000
  C   C5638     1.0  0.51472  0.66160  0.74338  1.0000
  C   C5639     1.0  0.51729  0.83843  0.89913  1.0000
  H   H4522     1.0  0.96151  0.86584  0.79313  1.0000
  C   C5640     1.0  0.52154  0.81905  0.86783  1.0000
  C   C5641     1.0  0.54116  0.80723  0.94713  1.0000
  H   H4523     1.0  0.94619  0.92626  0.73988  1.0000
  H   H4524     1.0  0.54749  0.98995  0.84896  1.0000
  C   C5642     1.0  0.64189  0.66361  0.91532  1.0000
  H   H4525     1.0  0.52071  0.91539  0.82659  1.0000
  C   C5643     1.0  0.67551  0.88657  0.94536  1.0000
  C   C5644     1.0  0.65677  0.90015  0.94466  1.0000
  H   H4526     1.0  0.68641  0.88435  0.93238  1.0000
  H   H4527     1.0  0.81525  0.79725  0.88754  1.0000
  C   C5645     1.0  0.66016  0.74914  0.86573  1.0000
  C   C5646     1.0  0.63961  0.67835  0.82642  1.0000
  H   H4528     1.0  0.52275  0.70594  0.93212  1.0000
  C   C5647     1.0  0.73567  0.68318  0.90207  1.0000
  C   C5648     1.0  0.73674  0.70029  0.91409  1.0000
  C   C5649     1.0  0.71991  0.70734  0.93348  1.0000
  C   C5650     1.0  0.69889  0.69682  0.94376  1.0000
  P   P191      1.0  0.72287  0.72808  0.94179  1.0000
  C   C5651     1.0  0.70160  0.73366  0.96097  1.0000
  C   C5652     1.0  0.74647  0.72037  0.94987  1.0000
  C   C5653     1.0  0.75281  0.69992  0.95865  1.0000
  C   C5654     1.0  0.77131  0.69346  0.96456  1.0000
  C   C5655     1.0  0.78361  0.70737  0.96165  1.0000
  C   C5656     1.0  0.77716  0.72787  0.95344  1.0000
  C   C5657     1.0  0.75874  0.73437  0.94744  1.0000
  C   C5658     1.0  0.68280  0.74542  0.95705  1.0000
  C   C5659     1.0  0.66553  0.87747  0.97957  1.0000
  C   C5660     1.0  0.85683  0.94981  0.77971  1.0000
  H   H4529     1.0  0.90365  0.96963  0.90299  1.0000
  H   H4530     1.0  0.95488  0.90593  0.84491  1.0000
  C   C5661     1.0  0.72221  0.75164  0.92405  1.0000
  C   C5662     1.0  0.72247  0.75232  0.90522  1.0000
  C   C5663     1.0  0.72163  0.77086  0.89193  1.0000
  C   C5664     1.0  0.72055  0.78881  0.89731  1.0000
  C   C5665     1.0  0.71973  0.78834  0.91610  1.0000
  C   C5666     1.0  0.72036  0.76992  0.92944  1.0000
  H   H4531     1.0  0.49884  0.87291  0.92739  1.0000
  H   H4532     1.0  0.87241  0.94894  0.78026  1.0000
  H   H4533     1.0  0.74728  0.68174  0.88945  1.0000
  H   H4534     1.0  0.74930  0.70813  0.90820  1.0000
  H   H4535     1.0  0.68852  0.70204  0.95609  1.0000
  H   H4536     1.0  0.74373  0.68891  0.96031  1.0000
  C   C5667     1.0  0.66660  0.75093  0.97170  1.0000
  H   H4537     1.0  0.79815  0.70225  0.96578  1.0000
  H   H4538     1.0  0.78663  0.73870  0.95137  1.0000
  H   H4539     1.0  0.75455  0.75021  0.94062  1.0000
  H   H4540     1.0  0.68076  0.75060  0.94263  1.0000
  C   C5668     1.0  0.55853  0.71884  0.80208  1.0000
  H   H4541     1.0  0.93318  0.95226  0.75960  1.0000
  H   H4542     1.0  0.68398  0.73975  0.88123  1.0000
  Fe  Fe383     1.0  0.81856  0.67570  0.92119  1.0000
  H   H4543     1.0  0.72319  0.73879  0.90064  1.0000
  H   H4544     1.0  0.72199  0.77127  0.87741  1.0000
  H   H4545     1.0  0.72014  0.80314  0.88699  1.0000
  H   H4546     1.0  0.71850  0.80227  0.92042  1.0000
  H   H4547     1.0  0.71954  0.76996  0.94397  1.0000
  H   H4548     1.0  0.54059  0.76041  0.92370  1.0000
  C   C5669     1.0  0.54172  0.88681  0.83348  1.0000
  H   H4549     1.0  0.49931  0.78180  0.85283  1.0000
  C   C5670     1.0  0.50542  0.79209  0.85716  1.0000
  C   C5671     1.0  0.64867  0.74290  0.85666  1.0000
  C   C5672     1.0  0.65952  0.66763  0.88233  1.0000
  C   C5673     1.0  0.82870  0.96189  0.76371  1.0000
  H   H4550     1.0  0.54283  0.67068  0.88938  1.0000
  H   H4551     1.0  0.61271  0.76934  0.97923  1.0000
  H   H4552     1.0  0.95019  0.87791  0.88057  1.0000
  C   C5674     1.0  0.82627  0.73025  0.97071  1.0000
  H   H4553     1.0  0.53124  0.77561  0.79117  1.0000
  H   H4554     1.0  0.69130  0.70358  0.87904  1.0000
  S   S766      1.0  0.83085  0.68204  0.88973  1.0000
  C   C5675     1.0  0.54454  0.88480  0.96990  1.0000
  C   C5676     1.0  0.84930  0.96039  0.76346  1.0000
  H   H4555     1.0  0.55602  0.91775  0.97363  1.0000
  C   C5677     1.0  0.51388  0.85668  0.90514  1.0000
  C   C5678     1.0  0.68001  0.87542  0.96273  1.0000
  C   C5679     1.0  0.50197  0.72051  0.82402  1.0000
  C   C5680     1.0  0.97130  0.90117  0.84312  1.0000
  C   C5681     1.0  0.82636  0.76796  0.97729  1.0000
  C   C5682     1.0  0.68864  0.80822  0.98276  1.0000
  C   C5683     1.0  0.87902  0.86132  0.94391  1.0000
  C   C5684     1.0  0.98788  0.96168  0.91903  1.0000
  C   C5685     1.0  0.99344  0.94150  0.92874  1.0000
  C   C5686     1.0  0.51946  0.74293  0.75008  1.0000
  C   C5687     1.0  0.68097  0.66929  0.95805  1.0000
  C   C5688     1.0  0.83240  0.81039  0.96003  1.0000
  C   C5689     1.0  0.89372  0.92227  0.92432  1.0000
  C   C5690     1.0  0.83089  0.76512  0.95879  1.0000
  C   C5691     1.0  0.83087  0.74631  0.95553  1.0000
  C   C5692     1.0  0.97333  0.86717  0.78032  1.0000
  C   C5693     1.0  0.50951  0.82187  0.91166  1.0000
  H   H4556     1.0  0.98552  0.90278  0.78501  1.0000
  C   C5694     1.0  0.81804  0.82538  0.95115  1.0000
  C   C5695     1.0  0.82445  0.83942  0.93469  1.0000
  C   C5696     1.0  0.84524  0.83852  0.92690  1.0000
  C   C5697     1.0  0.85968  0.82351  0.93554  1.0000
  C   C5698     1.0  0.85331  0.80951  0.95206  1.0000
  C   C5699     1.0  0.83832  0.84199  0.78445  1.0000
  H   H4557     1.0  0.89832  0.97311  0.76102  1.0000
  H   H4558     1.0  0.59402  0.82609  0.89880  1.0000
  H   H4559     1.0  0.55645  0.84734  0.95240  1.0000
  H   H4560     1.0  0.88682  0.80206  0.78581  1.0000
  H   H4561     1.0  0.82968  0.84484  0.79813  1.0000
  C   C5700     1.0  0.52275  0.90027  0.83576  1.0000
  C   C5701     1.0  0.89787  0.95589  0.90557  1.0000
  H   H4562     1.0  0.98611  0.96333  0.83717  1.0000
  H   H4563     1.0  0.88626  0.96565  0.88020  1.0000
  H   H4564     1.0  0.83394  0.77749  0.94688  1.0000
  H   H4565     1.0  0.83414  0.74425  0.94121  1.0000
  H   H4566     1.0  0.86210  0.78709  0.81276  1.0000
  H   H4567     1.0  0.51037  0.67409  0.75054  1.0000
  H   H4568     1.0  0.97399  0.92442  0.85564  1.0000
  H   H4569     1.0  0.80189  0.82641  0.95695  1.0000
  H   H4570     1.0  0.81329  0.85103  0.92790  1.0000
  H   H4571     1.0  0.85006  0.84935  0.91406  1.0000
  H   H4572     1.0  0.87580  0.82269  0.92935  1.0000
  H   H4573     1.0  0.86467  0.79798  0.95865  1.0000
  H   H4574     1.0  0.54998  0.69197  0.90728  1.0000
  C   C5702     1.0  0.91363  0.98095  0.84493  1.0000
  C   C5703     1.0  0.64680  0.89138  0.97875  1.0000
  H   H4575     1.0  0.81411  0.93411  0.80809  1.0000
  H   H4576     1.0  0.78665  0.79554  0.97078  1.0000
  C   C5704     1.0  0.79219  0.84784  0.84357  1.0000
  C   C5705     1.0  0.77525  0.83876  0.85123  1.0000
  C   C5706     1.0  0.77803  0.81759  0.85758  1.0000
  C   C5707     1.0  0.79775  0.80553  0.85640  1.0000
  C   C5708     1.0  0.81490  0.81450  0.84869  1.0000
  C   C5709     1.0  0.81194  0.83583  0.84248  1.0000
  P   P192      1.0  0.84021  0.79892  0.84907  1.0000
  C   C5710     1.0  0.84613  0.79800  0.87113  1.0000
  C   C5711     1.0  0.84027  0.77319  0.84824  1.0000
  C   C5712     1.0  0.84957  0.75628  0.86045  1.0000
  C   C5713     1.0  0.84868  0.73649  0.86037  1.0000
  C   C5714     1.0  0.83860  0.73340  0.84809  1.0000
  C   C5715     1.0  0.82946  0.75010  0.83580  1.0000
  C   C5716     1.0  0.83031  0.76993  0.83582  1.0000
  C   C5717     1.0  0.86626  0.79688  0.87212  1.0000
  C   C5718     1.0  0.87097  0.79461  0.88952  1.0000
  C   C5719     1.0  0.85571  0.79319  0.90604  1.0000
  C   C5720     1.0  0.83565  0.79438  0.90514  1.0000
  C   C5721     1.0  0.83087  0.79667  0.88779  1.0000
  C   C5722     1.0  0.85858  0.80949  0.82910  1.0000
  C   C5723     1.0  0.86501  0.82690  0.82923  1.0000
  C   C5724     1.0  0.87904  0.83532  0.81384  1.0000
  C   C5725     1.0  0.86662  0.80053  0.81332  1.0000
  H   H4577     1.0  0.78996  0.86433  0.83936  1.0000
  H   H4578     1.0  0.76000  0.84822  0.85282  1.0000
  H   H4579     1.0  0.76492  0.81055  0.86398  1.0000
  H   H4580     1.0  0.79958  0.78925  0.86204  1.0000
  H   H4581     1.0  0.82468  0.84340  0.83738  1.0000
  H   H4582     1.0  0.85709  0.75827  0.87038  1.0000
  H   H4583     1.0  0.85520  0.72355  0.87029  1.0000
  H   H4584     1.0  0.83714  0.71813  0.84863  1.0000
  H   H4585     1.0  0.82098  0.74766  0.82684  1.0000
  H   H4586     1.0  0.65339  0.90861  0.93112  1.0000
  H   H4587     1.0  0.84241  0.89147  0.98072  1.0000
  C   C5726     1.0  0.66611  0.68009  0.84089  1.0000
  C   C5727     1.0  0.98830  0.95147  0.78258  1.0000
  C   C5728     1.0  0.96802  0.87492  0.76279  1.0000
  C   C5729     1.0  0.57243  0.66617  0.74280  1.0000
  H   H4588     1.0  0.63692  0.66907  0.92830  1.0000
  S   S767      1.0  0.83651  0.68001  0.94015  1.0000
  C   C5730     1.0  0.52352  0.72258  0.74857  1.0000
  C   C5731     1.0  0.90387  0.96220  0.75198  1.0000
  H   H4589     1.0  0.50897  0.66216  0.89705  1.0000
  H   H4590     1.0  0.51931  0.71516  0.84539  1.0000
  H   H4591     1.0  0.85362  0.91018  0.75370  1.0000
  C   C5732     1.0  0.71547  0.68279  0.85000  1.0000
  C   C5733     1.0  0.90168  0.88315  0.75655  1.0000
  C   C5734     1.0  0.89122  0.95950  0.74160  1.0000
  C   C5735     1.0  0.69752  0.67060  0.92541  1.0000
  C   C5736     1.0  0.85190  0.85436  0.77320  1.0000
  C   C5737     1.0  0.93094  0.93561  0.74029  1.0000
  C   C5738     1.0  0.83600  0.82589  0.77807  1.0000
  H   H4592     1.0  0.56839  0.94916  0.96839  1.0000
  C   C5739     1.0  0.98725  0.93098  0.79030  1.0000
  H   H4593     1.0  0.63426  0.68132  0.85493  1.0000
  C   C5740     1.0  0.65393  0.67682  0.80952  1.0000
  C   C5741     1.0  0.75816  0.85840  0.98523  1.0000
  C   C5742     1.0  0.68039  0.67872  0.82380  1.0000
  C   C5743     1.0  0.98831  0.97668  0.85885  1.0000
  C   C5744     1.0  0.50449  0.76349  0.80727  1.0000
  C   C5745     1.0  0.86101  0.83452  0.74905  1.0000
  C   C5746     1.0  0.99386  0.86180  0.78140  1.0000
  H   H4594     1.0  0.51504  0.81123  0.79386  1.0000
  C   C5747     1.0  0.61876  0.84576  0.97078  1.0000
  C   C5748     1.0  0.78270  0.79958  0.98441  1.0000
  Fe  Fe384     1.0  0.77869  0.66786  0.91771  1.0000
  C   C5749     1.0  0.50398  0.75998  0.96419  1.0000
  C   C5750     1.0  0.52722  0.88941  0.96232  1.0000
  H   H4595     1.0  0.63447  0.84751  0.96508  1.0000
  H   H4596     1.0  0.50231  0.75763  0.97926  1.0000
  C   C5751     1.0  0.70673  0.66109  0.95494  1.0000
  H   H4597     1.0  0.98747  0.95327  0.73714  1.0000
  H   H4598     1.0  0.49754  0.69362  0.86959  1.0000
  C   C5752     1.0  0.50780  0.89103  0.97419  1.0000
  H   H4599     1.0  0.50104  0.66607  0.78970  1.0000
  C   C5753     1.0  0.59253  0.82682  0.97581  1.0000
  H   H4600     1.0  0.74560  0.66229  0.98546  1.0000
  C   C5754     1.0  0.60453  0.86022  0.98010  1.0000
  C   C5755     1.0  0.67918  0.82806  0.98507  1.0000
  H   H4601     1.0  0.69816  0.89041  0.98442  1.0000
  H   H4602     1.0  0.81085  0.66115  0.85191  1.0000
  C   C5756     1.0  0.57410  0.93559  0.97821  1.0000
  H   H4603     1.0  0.60957  0.87302  0.98148  1.0000
  C   C5757     1.0  0.56715  0.91764  0.98121  1.0000
  H   H4604     1.0  0.75035  0.80520  0.98604  1.0000
  H   H4605     1.0  0.56998  0.68260  0.73805  1.0000
  H   H4606     1.0  0.49597  0.87050  0.87249  1.0000
  C   C5758     1.0  0.57835  0.84109  0.98529  1.0000
  H   H4607     1.0  0.59336  0.95018  0.98585  1.0000
  C   C5759     1.0  0.90953  0.88256  0.73752  1.0000
  H   H4608     1.0  0.51841  0.75508  0.73762  1.0000
  C   C5760     1.0  0.91078  0.83059  0.73677  1.0000
  S   S768      1.0  0.74940  0.65900  0.93617  1.0000
