data_image0
_chemical_formula_structural       C2SC3HFeS2FeS2FeSFeS3FeS2FeS2FeSFeS3FeS2FeS2FeSFeS3CHC6H5C4HCH2C3PH2C7H4C2H3CH2PHC6H2C5H2C6H5C6PC7HC10H7CHPH10CHC6PC18H20C2HCHC2HPCHCH3CHCHCH2C3H2C2HCHCHC2HC2H4C3H3C2H3C3HC6H2C2H4C2HC6PC4HC13H6CPH12C12HCH9CHCHC4PC8H2C5HC2H9C4HC2H2CH2C2H2CHC4H3CH2C3H3C2HC4HCFeHCH2CHC2HCSCHCH3C2HC4H2C3HC4H2C2HCHC4H2PC4H2C4H3C3H2C3H3CH3CHCHC2HC3HC2S3CFeS2FeS2FeSFeS3FeS2FeS2H2FeS3HCFeSC5HCH3C4H3C7H4C6H5C2H2C6H2C4H3CHC4PC18HC2H3FeH12C6PC18H2CH3CHCH11C2H2C5HPSH3CH5FeHFeH5FeSCSHCH2CHC2HC2HCHCH3C3H2C2HSCHSCH2SCHC3H3PC4SC2HCH9C4HCH3C2HFeHSCFeH3C3PH3CHCH2CH2C4HCHCH6CH3C2H2FeHSFeSHFeC3S2CSC3SHC6FeC3HC2SCPCHSCHC2H2SH3FeHCH7C2H3CH2CH3C2H2C5HCH5C3H5CFeC6HC2HCHCSC2HPHCH3SCFeSHCHCFeSHFeSFeSFeS3CHC2H2S2HC2HCHCH3C7H4PCH8C2HC2HC2HCHCH2C2H4CH2C4HCH2CHSH3CH2C2HC2H4CH3CH5C7PC21PHCSC2HC2HC4HC3HCH4C3SHCSFeSFeS2FeS2FeSFeS3C2H5CH2C2H2CHCHC2H2C3H4C2HC9H5C3H3CH2FeC6FeHC4H3CHCH2C3H3CH2C5HC3H2CH3C3HPC2HCHC3HPH2C4H4CH2C3H2CHCHCHCPC3PC2H3CH4SC2SHSC12H2SHC4HC8HCHCH2C3HCHC3H3C2FeS2FeS2FeS2FeS2FeSFeHS2FeS2HFeSFeS2FeS2FeS2FeSFeS3FeS2FeS2FeSFeS3C4HCH3C2HC6H4CHC2HCH3C6H4CH2C3H2C7H5CHC8H4C6H4C2HCPHC9HC3H3CHC4FeH5SH2C6PC13H2C2H18C2HC2HC2H2C3H5C3HC2HC6H3C5HC6H2CSCHC5H2C2P2CH2CH6C3H2C4PC18H18C4HCHCHCH4SHC2H2CFeH3C3H2C3H2CHSH2PH3C9PC5H2C11H3CHCH5CHCHC5SHPC3HPCHC2H5CFeH2C2HCH2C3SHCHCHCH2CH2CH3C2SC4HCH2CHC2H2C2H4C2H3C2H2CHCHC2H2C2HC2HCHCH3C2H2C4H2C4H2CHC2HSHFeS2FeS2FeSFeCS2FeS2FeS2FeSFeCS2FeS2FeS2FeSFeS3C5HCH2C6H4C2HCH2C6H4C3H2C3H2C5PH2C6H4CH2C7H5C4H4CSC2H4CH3C4HC2HC2H2C2H2C6PC9H2C7H11CHCH6C8HCH8CPC2HC4HC10PC18H18C6PC8H2C5HC2H11C3H4CH6C2HCHC2HC7HC2H2CH2C3H2C2HCH4PCHC2H5C2SC4H3C5HC2H2C2H4C4HC5SCPHC7H2CHC2HC2H2C2H2CPH4CHC2HC3HCHC2H3CHC3HCHCH2C2H3C2HC2H3CH4C3H4CFeH2C2H3C2H2C2H2CHCHS2FeS2FeS2FeSFeS3FeS2FeS2FeSH2SC2H2CFeSFeS2FeCFeSHS2H2C2H2C2HCHC7H4C2H2C2H3C6H5C4H2C8HCHSCHCHC3FeC2H2C2HSH2CHC5PC5HC9H2CHCH4CHCH2CH2C7PC18H20CH2CH3C2HCH2CHPH2C2H4CHSH3CHC3PHC4PC13HC4FeH3C2H5CHSCHCHC4PC12H10SCSCFeH2C2H2C3HSCFeHCFeCHSC2HC2HCH5C2H3CHCH2C3HSC10HC2H3CHC3H3SCHCSHC2HCHCH2CHCHC4H3CH2C2H2CH2C3PH2SFeHFeSHC4H3C4HC2H2C2SH2SHCHC2HC2H2CHC2H3CHC2SCH2C3H2CHCPC2HSH3CHCHCHCHC3SC2SFeH2CSFeCPC2HC2HCSC6H2CHC3H2C2HC2HC5HC2HCHPH2CH5C2HCH5C2H4CHCH2C2H2C4HC3H2CH2CFeHSCH5SC5HC2FeSH2FeS2FeS2FeHFeCS2FeS2FeS2FeSFeS3C4H3C2SCH3CHC4H4CHC4H3C7H6CHC3H3C2HC2HC3HCHC5HC2H2CHCH2CPHC2HCH2C2H3CH3C2H2PC4H2C3HCH4CPHCHCH2C9PC14H2C2HC2H13CH3C6PC2HCSC3HC9H5C3H3CHCH7CHCH4C6H2CHC3H2C3H3CHCH2C4HC2HCH2C3H3C8H3CH2C4HCHCHC2FeS2Fe2S2FeS2FeS2FeSFeS3FeS2HFeSFeS2FeS2FeS2FeSFeS3FeS2FeS2FeCFeS3CPHSC7HCHC6H4C4HC6H4C6H4C4H4CPCHC6H4C6H6C2HC7PC18H25C4H2C6H2CHC4H7C2H2CH5C6PC18H21C2PC13HCH14C3FeCH5C3H2C2HC2H3C10H2C3H3CH5C2HS2H5C2H5C4HC2HCHPC3HCH2C2H2CH2FeC3H2C2H3SH2SC5HCPHC2H2C7HC2HC3HC2HC3HCH2CHCSC3H3C2H2C5HC4H2C5H3C2HCHC3HC2HC3H2CHSH8CHPCHCHC5H2C2HC2HC2H
_chemical_formula_sum              "C1920 S256 H1536 Fe128 P64"
_cell_length_a       42.9811
_cell_length_b       42.3793
_cell_length_c       83.8079
_cell_angle_alpha    89.9646
_cell_angle_beta     90.2617
_cell_angle_gamma    87.0023

_space_group_name_H-M_alt    "P 1"
_space_group_IT_number       1

loop_
  _space_group_symop_operation_xyz
  'x, y, z'

loop_
  _atom_site_type_symbol
  _atom_site_label
  _atom_site_symmetry_multiplicity
  _atom_site_fract_x
  _atom_site_fract_y
  _atom_site_fract_z
  _atom_site_occupancy
  C   C1        1.0  0.12102  0.46661  0.23055  1.0000
  C   C2        1.0  0.48070  0.28903  0.28970  1.0000
  S   S1        1.0  0.40928  0.38287  0.30241  1.0000
  C   C3        1.0  0.10580  0.22469  0.27185  1.0000
  C   C4        1.0  0.27439  0.37044  0.32639  1.0000
  C   C5        1.0  0.47776  0.16404  0.31727  1.0000
  H   H1        1.0  0.12593  0.10671  0.01476  1.0000
  Fe  Fe1       1.0  0.12814  0.10531  0.23839  1.0000
  S   S2        1.0  0.12008  0.15712  0.23404  1.0000
  S   S3        1.0  0.14765  0.09143  0.26273  1.0000
  Fe  Fe2       1.0  0.09863  0.08715  0.20628  1.0000
  S   S4        1.0  0.08904  0.13838  0.20025  1.0000
  S   S5        1.0  0.07423  0.05683  0.18794  1.0000
  Fe  Fe3       1.0  0.13719  0.14565  0.20950  1.0000
  S   S6        1.0  0.16757  0.17935  0.19673  1.0000
  Fe  Fe4       1.0  0.07313  0.14486  0.22534  1.0000
  S   S7        1.0  0.03064  0.17321  0.23395  1.0000
  S   S8        1.0  0.14844  0.09401  0.21400  1.0000
  S   S9        1.0  0.07955  0.09343  0.23121  1.0000
  Fe  Fe5       1.0  0.11902  0.37384  0.11355  1.0000
  S   S10       1.0  0.16646  0.38409  0.10440  1.0000
  S   S11       1.0  0.08667  0.40673  0.12777  1.0000
  Fe  Fe6       1.0  0.11830  0.31035  0.09680  1.0000
  S   S12       1.0  0.16534  0.31627  0.08589  1.0000
  S   S13       1.0  0.09322  0.26625  0.09064  1.0000
  Fe  Fe7       1.0  0.17957  0.33310  0.11035  1.0000
  S   S14       1.0  0.22456  0.30850  0.12014  1.0000
  Fe  Fe8       1.0  0.14817  0.36628  0.08091  1.0000
  S   S15       1.0  0.15347  0.39792  0.05920  1.0000
  S   S16       1.0  0.13308  0.32414  0.12143  1.0000
  S   S17       1.0  0.10006  0.35886  0.08996  1.0000
  Fe  Fe9       1.0  0.37105  0.27040  0.22738  1.0000
  S   S18       1.0  0.38624  0.22199  0.21873  1.0000
  S   S19       1.0  0.38475  0.27218  0.25363  1.0000
  Fe  Fe10      1.0  0.33936  0.28653  0.19498  1.0000
  S   S20       1.0  0.35316  0.23898  0.18447  1.0000
  S   S21       1.0  0.30810  0.32495  0.18272  1.0000
  Fe  Fe11      1.0  0.33846  0.21995  0.20821  1.0000
  S   S22       1.0  0.31123  0.17729  0.21430  1.0000
  Fe  Fe12      1.0  0.40010  0.24553  0.19622  1.0000
  S   S23       1.0  0.44643  0.23055  0.18438  1.0000
  S   S24       1.0  0.32210  0.26669  0.21814  1.0000
  S   S25       1.0  0.38748  0.29459  0.20522  1.0000
  C   C6        1.0  0.13143  0.35561  0.01705  1.0000
  H   H2        1.0  0.08410  0.20628  0.11513  1.0000
  C   C7        1.0  0.24966  0.31535  0.13662  1.0000
  C   C8        1.0  0.24766  0.34326  0.14558  1.0000
  C   C9        1.0  0.26607  0.34604  0.15949  1.0000
  C   C10       1.0  0.28672  0.32106  0.16459  1.0000
  C   C11       1.0  0.28942  0.29364  0.15532  1.0000
  C   C12       1.0  0.27137  0.29107  0.14131  1.0000
  H   H3        1.0  0.23163  0.36244  0.14191  1.0000
  H   H4        1.0  0.26406  0.36753  0.16645  1.0000
  H   H5        1.0  0.30542  0.27439  0.15894  1.0000
  H   H6        1.0  0.27365  0.26969  0.13428  1.0000
  H   H7        1.0  0.09895  0.14926  0.04223  1.0000
  C   C13       1.0  0.08199  0.50202  0.02333  1.0000
  C   C14       1.0  0.03725  0.23855  0.08956  1.0000
  C   C15       1.0  0.05360  0.26377  0.09556  1.0000
  C   C16       1.0  0.03837  0.28589  0.10559  1.0000
  H   H8        1.0  0.10864  0.45259  0.05357  1.0000
  C   C17       1.0  0.29550  0.31998  0.28445  1.0000
  H   H9        1.0  0.04891  0.22182  0.08160  1.0000
  H   H10       1.0  0.05079  0.30558  0.11013  1.0000
  C   C18       1.0  0.06400  0.46785  0.13042  1.0000
  C   C19       1.0  0.08910  0.44788  0.12547  1.0000
  C   C20       1.0  0.11551  0.46103  0.11906  1.0000
  P   P1        1.0  0.02616  0.03884  0.03971  1.0000
  H   H11       1.0  0.04354  0.45800  0.13540  1.0000
  H   H12       1.0  0.13504  0.44584  0.11525  1.0000
  C   C21       1.0  0.30143  0.23201  0.32405  1.0000
  C   C22       1.0  0.20685  0.18021  0.20287  1.0000
  C   C23       1.0  0.21983  0.15795  0.21362  1.0000
  C   C24       1.0  0.25168  0.15808  0.21754  1.0000
  C   C25       1.0  0.27075  0.18017  0.21062  1.0000
  C   C26       1.0  0.25751  0.20316  0.20034  1.0000
  C   C27       1.0  0.22565  0.20312  0.19651  1.0000
  H   H13       1.0  0.20554  0.14021  0.21861  1.0000
  H   H14       1.0  0.26182  0.14042  0.22558  1.0000
  H   H15       1.0  0.27196  0.22040  0.19497  1.0000
  H   H16       1.0  0.21566  0.22058  0.18837  1.0000
  C   C28       1.0  0.47293  0.14659  0.25539  1.0000
  C   C29       1.0  0.02850  0.20757  0.20596  1.0000
  H   H17       1.0  0.00693  0.21008  0.26814  1.0000
  H   H18       1.0  0.14626  0.43948  0.03251  1.0000
  H   H19       1.0  0.02293  0.12846  0.11494  1.0000
  C   C30       1.0  0.01803  0.20513  0.22166  1.0000
  H   H20       1.0  0.04407  0.18940  0.20106  1.0000
  H   H21       1.0  0.07000  0.04858  0.13469  1.0000
  P   P2        1.0  0.28303  0.32012  0.30496  1.0000
  H   H22       1.0  0.07860  0.31238  0.06375  1.0000
  C   C31       1.0  0.32218  0.36939  0.31116  1.0000
  C   C32       1.0  0.48475  0.06695  0.29279  1.0000
  C   C33       1.0  0.30199  0.28646  0.31495  1.0000
  C   C34       1.0  0.14306  0.39063  0.03909  1.0000
  C   C35       1.0  0.13746  0.36034  0.03344  1.0000
  C   C36       1.0  0.24117  0.31784  0.30532  1.0000
  H   H23       1.0  0.13890  0.34047  0.04156  1.0000
  H   H24       1.0  0.18759  0.22244  0.15848  1.0000
  C   C37       1.0  0.15359  0.12023  0.29214  1.0000
  C   C38       1.0  0.15520  0.12355  0.27547  1.0000
  C   C39       1.0  0.16354  0.15237  0.26911  1.0000
  C   C40       1.0  0.16987  0.17767  0.27917  1.0000
  C   C41       1.0  0.01569  0.16415  0.32696  1.0000
  H   H25       1.0  0.14747  0.09792  0.29721  1.0000
  H   H26       1.0  0.16647  0.15488  0.25643  1.0000
  C   C42       1.0  0.40019  0.35255  0.28894  1.0000
  C   C43       1.0  0.39539  0.35956  0.27268  1.0000
  C   C44       1.0  0.38945  0.33543  0.26166  1.0000
  C   C45       1.0  0.38856  0.30415  0.26687  1.0000
  C   C46       1.0  0.39221  0.29744  0.28319  1.0000
  C   C47       1.0  0.39789  0.32148  0.29417  1.0000
  H   H27       1.0  0.39669  0.38366  0.26858  1.0000
  H   H28       1.0  0.38620  0.34086  0.24914  1.0000
  H   H29       1.0  0.39096  0.27345  0.28737  1.0000
  H   H30       1.0  0.40081  0.31585  0.30664  1.0000
  H   H31       1.0  0.46011  0.23468  0.24309  1.0000
  C   C48       1.0  0.20821  0.20706  0.15707  1.0000
  C   C49       1.0  0.23690  0.22020  0.15480  1.0000
  C   C50       1.0  0.26397  0.20066  0.15380  1.0000
  C   C51       1.0  0.26229  0.16789  0.15515  1.0000
  C   C52       1.0  0.23348  0.15441  0.15764  1.0000
  C   C53       1.0  0.20640  0.17439  0.15857  1.0000
  P   P3        1.0  0.23175  0.11198  0.15974  1.0000
  C   C54       1.0  0.25651  0.09307  0.14482  1.0000
  C   C55       1.0  0.24601  0.09929  0.17921  1.0000
  C   C56       1.0  0.27341  0.11115  0.18549  1.0000
  C   C57       1.0  0.28568  0.09982  0.20000  1.0000
  C   C58       1.0  0.27035  0.07713  0.20860  1.0000
  C   C59       1.0  0.24311  0.06511  0.20248  1.0000
  C   C60       1.0  0.23123  0.07574  0.18776  1.0000
  H   H32       1.0  0.01069  0.36601  0.11044  1.0000
  C   C61       1.0  0.28981  0.04829  0.13614  1.0000
  C   C62       1.0  0.07592  0.26209  0.00918  1.0000
  C   C63       1.0  0.27908  0.09246  0.11827  1.0000
  C   C64       1.0  0.26037  0.10746  0.12991  1.0000
  C   C65       1.0  0.19233  0.09987  0.15689  1.0000
  C   C66       1.0  0.16971  0.10711  0.16855  1.0000
  C   C67       1.0  0.13967  0.09643  0.16693  1.0000
  C   C68       1.0  0.13189  0.07853  0.15369  1.0000
  C   C69       1.0  0.15418  0.07105  0.14204  1.0000
  C   C70       1.0  0.18431  0.08174  0.14358  1.0000
  H   H33       1.0  0.03639  0.07231  0.26228  1.0000
  H   H34       1.0  0.28630  0.21102  0.15224  1.0000
  H   H35       1.0  0.28358  0.15317  0.15432  1.0000
  H   H36       1.0  0.18388  0.16526  0.16084  1.0000
  H   H37       1.0  0.28544  0.12930  0.17937  1.0000
  H   H38       1.0  0.30654  0.10962  0.20485  1.0000
  H   H39       1.0  0.27946  0.06915  0.22006  1.0000
  C   C71       1.0  0.03250  0.41226  0.32513  1.0000
  H   H40       1.0  0.21061  0.06531  0.18312  1.0000
  P   P4        1.0  0.01662  0.28867  0.01555  1.0000
  H   H41       1.0  0.00518  0.10590  0.23371  1.0000
  H   H42       1.0  0.45956  0.33887  0.21905  1.0000
  H   H43       1.0  0.28221  0.10379  0.10683  1.0000
  H   H44       1.0  0.24901  0.13028  0.12725  1.0000
  H   H45       1.0  0.17553  0.12046  0.17909  1.0000
  H   H46       1.0  0.12260  0.10122  0.17617  1.0000
  H   H47       1.0  0.10878  0.06972  0.15276  1.0000
  H   H48       1.0  0.14824  0.05633  0.13201  1.0000
  H   H49       1.0  0.20127  0.07519  0.13452  1.0000
  H   H50       1.0  0.03930  0.02782  0.07394  1.0000
  C   C72       1.0  0.31165  0.31955  0.25209  1.0000
  H   H51       1.0  0.22281  0.14213  0.32455  1.0000
  C   C73       1.0  0.05385  0.30883  0.14762  1.0000
  C   C74       1.0  0.06188  0.34028  0.14775  1.0000
  C   C75       1.0  0.08485  0.34992  0.15824  1.0000
  C   C76       1.0  0.10035  0.32807  0.16836  1.0000
  C   C77       1.0  0.09292  0.29626  0.16797  1.0000
  C   C78       1.0  0.06872  0.28704  0.15797  1.0000
  P   P5        1.0  0.11345  0.26726  0.18040  1.0000
  C   C79       1.0  0.15341  0.27780  0.18330  1.0000
  C   C80       1.0  0.09413  0.26533  0.19953  1.0000
  C   C81       1.0  0.10158  0.24071  0.21034  1.0000
  C   C82       1.0  0.08768  0.24050  0.22540  1.0000
  C   C83       1.0  0.06653  0.26496  0.22989  1.0000
  C   C84       1.0  0.05915  0.28967  0.21929  1.0000
  C   C85       1.0  0.07280  0.28984  0.20418  1.0000
  C   C86       1.0  0.16862  0.27315  0.19809  1.0000
  C   C87       1.0  0.19977  0.28056  0.20001  1.0000
  C   C88       1.0  0.21623  0.29209  0.18713  1.0000
  C   C89       1.0  0.20130  0.29671  0.17244  1.0000
  C   C90       1.0  0.17006  0.29007  0.17054  1.0000
  C   C91       1.0  0.11466  0.23152  0.16851  1.0000
  C   C92       1.0  0.12623  0.23245  0.15285  1.0000
  C   C93       1.0  0.12685  0.20560  0.14320  1.0000
  C   C94       1.0  0.11537  0.17763  0.14894  1.0000
  C   C95       1.0  0.10277  0.17677  0.16420  1.0000
  C   C96       1.0  0.10201  0.20365  0.17393  1.0000
  H   H52       1.0  0.03598  0.30130  0.13957  1.0000
  H   H53       1.0  0.05037  0.35727  0.13976  1.0000
  H   H54       1.0  0.09075  0.37437  0.15833  1.0000
  H   H55       1.0  0.11818  0.33593  0.17635  1.0000
  H   H56       1.0  0.06156  0.26293  0.15800  1.0000
  H   H57       1.0  0.11836  0.22182  0.20725  1.0000
  H   H58       1.0  0.09269  0.22098  0.23347  1.0000
  H   H59       1.0  0.05513  0.26423  0.24137  1.0000
  H   H60       1.0  0.04189  0.30809  0.22254  1.0000
  H   H61       1.0  0.06620  0.30892  0.19610  1.0000
  H   H62       1.0  0.15698  0.26324  0.20815  1.0000
  H   H63       1.0  0.21154  0.27620  0.21132  1.0000
  H   H64       1.0  0.24065  0.29704  0.18845  1.0000
  H   H65       1.0  0.21402  0.30513  0.16241  1.0000
  H   H66       1.0  0.15915  0.29451  0.15904  1.0000
  H   H67       1.0  0.13456  0.25401  0.14793  1.0000
  H   H68       1.0  0.13603  0.20675  0.13123  1.0000
  H   H69       1.0  0.11577  0.15672  0.14155  1.0000
  H   H70       1.0  0.09353  0.15516  0.16844  1.0000
  H   H71       1.0  0.09149  0.20250  0.18555  1.0000
  C   C97       1.0  0.13015  0.38120  0.00632  1.0000
  C   C98       1.0  0.00361  0.41084  0.33280  1.0000
  H   H72       1.0  0.09924  0.48245  0.02395  1.0000
  C   C99       1.0  0.09168  0.45027  0.20740  1.0000
  H   H73       1.0  0.08555  0.09119  0.27321  1.0000
  C   C100      1.0  0.05187  0.30198  0.04278  1.0000
  C   C101      1.0  0.19049  0.32513  0.29241  1.0000
  H   H74       1.0  0.04335  0.02670  0.16246  1.0000
  P   P6        1.0  0.49682  0.16099  0.28557  1.0000
  C   C102      1.0  0.07937  0.23261  0.30210  1.0000
  H   H75       1.0  0.43722  0.20023  0.28666  1.0000
  C   C103      1.0  0.24587  0.14473  0.31967  1.0000
  H   H76       1.0  0.23809  0.24559  0.15419  1.0000
  H   H77       1.0  0.07136  0.24522  0.01849  1.0000
  H   H78       1.0  0.35202  0.40775  0.31557  1.0000
  C   C104      1.0  0.47320  0.33568  0.22990  1.0000
  H   H79       1.0  0.08613  0.01011  0.11377  1.0000
  C   C105      1.0  0.04115  0.17379  0.31806  1.0000
  H   H80       1.0  0.08837  0.04976  0.05169  1.0000
  C   C106      1.0  0.22649  0.30746  0.31913  1.0000
  H   H81       1.0  0.46534  0.05180  0.29387  1.0000
  H   H82       1.0  0.04408  0.39107  0.32028  1.0000
  C   C107      1.0  0.05134  0.16124  0.04855  1.0000
  C   C108      1.0  0.03148  0.42677  0.02341  1.0000
  C   C109      1.0  0.01917  0.23397  0.19664  1.0000
  H   H83       1.0  0.44981  0.19234  0.22362  1.0000
  H   H84       1.0  0.29893  0.26889  0.28245  1.0000
  C   C110      1.0  0.27116  0.06325  0.14782  1.0000
  C   C111      1.0  0.01613  0.06622  0.08626  1.0000
  H   H85       1.0  0.30834  0.05130  0.11237  1.0000
  C   C112      1.0  0.30083  0.29122  0.27637  1.0000
  H   H86       1.0  0.07042  0.10567  0.12960  1.0000
  C   C113      1.0  0.03224  0.46863  0.32996  1.0000
  H   H87       1.0  0.46571  0.25342  0.21556  1.0000
  C   C114      1.0  0.00894  0.42093  0.04978  1.0000
  C   C115      1.0  0.48658  0.25408  0.31253  1.0000
  H   H88       1.0  0.01009  0.41187  0.12888  1.0000
  C   C116      1.0  0.06411  0.44964  0.08667  1.0000
  C   C117      1.0  0.47930  0.09927  0.28981  1.0000
  H   H89       1.0  0.40237  0.21582  0.30874  1.0000
  H   H90       1.0  0.44272  0.26736  0.30140  1.0000
  H   H91       1.0  0.13919  0.25759  0.27974  1.0000
  H   H92       1.0  0.43950  0.36107  0.24458  1.0000
  C   C118      1.0  0.46208  0.15455  0.24006  1.0000
  C   C119      1.0  0.00624  0.23452  0.09409  1.0000
  C   C120      1.0  0.47123  0.17426  0.30161  1.0000
  H   H93       1.0  0.46532  0.30134  0.28126  1.0000
  H   H94       1.0  0.04141  0.48963  0.09825  1.0000
  H   H95       1.0  0.03066  0.43740  0.01163  1.0000
  C   C121      1.0  0.08019  0.20751  0.27610  1.0000
  C   C122      1.0  0.44356  0.19260  0.29859  1.0000
  H   H96       1.0  0.02623  0.01180  0.00802  1.0000
  H   H97       1.0  0.47645  0.23970  0.32162  1.0000
  H   H98       1.0  0.17652  0.33196  0.28206  1.0000
  C   C123      1.0  0.10508  0.24959  0.29784  1.0000
  C   C124      1.0  0.05618  0.48181  0.08847  1.0000
  C   C125      1.0  0.11008  0.07863  0.03430  1.0000
  H   H99       1.0  0.04426  0.46173  0.23963  1.0000
  C   C126      1.0  0.47506  0.20225  0.26174  1.0000
  C   C127      1.0  0.15975  0.14578  0.30229  1.0000
  C   C128      1.0  0.43040  0.19136  0.32667  1.0000
  C   C129      1.0  0.47939  0.17043  0.26637  1.0000
  C   C130      1.0  0.09383  0.46763  0.23968  1.0000
  C   C131      1.0  0.08382  0.47854  0.17674  1.0000
  H   H100      1.0  0.24007  0.30069  0.32962  1.0000
  H   H101      1.0  0.09463  0.47437  0.25214  1.0000
  C   C132      1.0  0.13481  0.41154  0.01210  1.0000
  C   C133      1.0  0.03355  0.39926  0.05378  1.0000
  H   H102      1.0  0.14289  0.47267  0.23592  1.0000
  H   H103      1.0  0.02580  0.35060  0.19878  1.0000
  H   H104      1.0  0.46964  0.35303  0.26943  1.0000
  H   H105      1.0  0.03527  0.38860  0.06545  1.0000
  C   C134      1.0  0.00794  0.16931  0.12835  1.0000
  C   C135      1.0  0.16792  0.17461  0.29576  1.0000
  H   H106      1.0  0.03238  0.32623  0.08021  1.0000
  C   C136      1.0  0.22636  0.10800  0.25061  1.0000
  C   C137      1.0  0.24251  0.07862  0.25163  1.0000
  C   C138      1.0  0.27117  0.07581  0.25959  1.0000
  C   C139      1.0  0.28352  0.10237  0.26665  1.0000
  C   C140      1.0  0.26743  0.13199  0.26561  1.0000
  C   C141      1.0  0.23868  0.13460  0.25760  1.0000
  P   P7        1.0  0.28217  0.16525  0.27612  1.0000
  C   C142      1.0  0.26021  0.20112  0.27062  1.0000
  C   C143      1.0  0.27883  0.15605  0.29709  1.0000
  C   C144      1.0  0.24930  0.15135  0.30346  1.0000
  C   C145      1.0  0.11675  0.49407  0.11770  1.0000
  H   H107      1.0  0.05165  0.12127  0.16071  1.0000
  C   C146      1.0  0.46385  0.21008  0.24650  1.0000
  C   C147      1.0  0.30521  0.15183  0.30699  1.0000
  C   C148      1.0  0.26139  0.21199  0.25480  1.0000
  C   C149      1.0  0.24498  0.23994  0.25029  1.0000
  C   C150      1.0  0.22729  0.25728  0.26153  1.0000
  C   C151      1.0  0.22617  0.24668  0.27731  1.0000
  C   C152      1.0  0.24279  0.21891  0.28189  1.0000
  C   C153      1.0  0.32133  0.17265  0.27016  1.0000
  C   C154      1.0  0.33397  0.15925  0.25613  1.0000
  C   C155      1.0  0.36314  0.16768  0.25077  1.0000
  C   C156      1.0  0.37970  0.18971  0.25926  1.0000
  C   C157      1.0  0.36705  0.20349  0.27307  1.0000
  C   C158      1.0  0.33782  0.19532  0.27841  1.0000
  H   H108      1.0  0.20388  0.11004  0.24468  1.0000
  H   H109      1.0  0.23244  0.05803  0.24648  1.0000
  H   H110      1.0  0.28350  0.05294  0.26056  1.0000
  H   H111      1.0  0.30538  0.09979  0.27312  1.0000
  H   H112      1.0  0.22545  0.15698  0.25686  1.0000
  H   H113      1.0  0.22885  0.15319  0.29587  1.0000
  C   C159      1.0  0.33192  0.28846  0.32155  1.0000
  P   P8        1.0  0.08998  0.44068  0.18648  1.0000
  H   H114      1.0  0.02391  0.05779  0.09786  1.0000
  H   H115      1.0  0.32840  0.15374  0.30230  1.0000
  H   H116      1.0  0.27499  0.19882  0.24592  1.0000
  H   H117      1.0  0.24603  0.24798  0.23802  1.0000
  H   H118      1.0  0.21444  0.27883  0.25801  1.0000
  H   H119      1.0  0.21209  0.25960  0.28606  1.0000
  H   H120      1.0  0.24159  0.21147  0.29419  1.0000
  H   H121      1.0  0.32083  0.14353  0.24885  1.0000
  H   H122      1.0  0.37221  0.15827  0.23960  1.0000
  H   H123      1.0  0.40163  0.19730  0.25474  1.0000
  H   H124      1.0  0.37929  0.22169  0.27911  1.0000
  H   H125      1.0  0.32766  0.20742  0.28868  1.0000
  C   C160      1.0  0.46180  0.34795  0.24431  1.0000
  C   C161      1.0  0.08290  0.43941  0.07399  1.0000
  C   C162      1.0  0.45741  0.17251  0.32970  1.0000
  C   C163      1.0  0.05408  0.38974  0.19326  1.0000
  C   C164      1.0  0.05815  0.41548  0.18305  1.0000
  C   C165      1.0  0.03832  0.42016  0.16982  1.0000
  C   C166      1.0  0.12441  0.41838  0.17976  1.0000
  C   C167      1.0  0.14102  0.39769  0.19023  1.0000
  C   C168      1.0  0.16645  0.37885  0.18471  1.0000
  C   C169      1.0  0.17505  0.38008  0.16867  1.0000
  C   C170      1.0  0.15820  0.40004  0.15812  1.0000
  C   C171      1.0  0.13296  0.41907  0.16363  1.0000
  H   H126      1.0  0.04729  0.23635  0.13210  1.0000
  C   C172      1.0  0.06433  0.45204  0.21655  1.0000
  H   H127      1.0  0.15105  0.31313  0.30659  1.0000
  H   H128      1.0  0.15850  0.14306  0.31510  1.0000
  H   H129      1.0  0.33802  0.35841  0.30254  1.0000
  H   H130      1.0  0.06959  0.38518  0.20330  1.0000
  H   H131      1.0  0.13408  0.39569  0.20257  1.0000
  H   H132      1.0  0.17930  0.36291  0.19278  1.0000
  H   H133      1.0  0.19455  0.36531  0.16438  1.0000
  H   H134      1.0  0.16436  0.40047  0.14558  1.0000
  H   H135      1.0  0.11961  0.43367  0.15518  1.0000
  C   C173      1.0  0.00806  0.10494  0.16890  1.0000
  H   H136      1.0  0.23115  0.04752  0.20915  1.0000
  C   C174      1.0  0.05351  0.28621  0.00526  1.0000
  H   H137      1.0  0.17680  0.19961  0.27401  1.0000
  C   C175      1.0  0.02996  0.16488  0.06099  1.0000
  C   C176      1.0  0.03941  0.15874  0.07674  1.0000
  C   C177      1.0  0.07062  0.14974  0.08023  1.0000
  C   C178      1.0  0.09196  0.14607  0.06763  1.0000
  P   P9        1.0  0.08322  0.14252  0.10062  1.0000
  C   C179      1.0  0.08403  0.10051  0.10477  1.0000
  C   C180      1.0  0.12191  0.15674  0.10305  1.0000
  C   C181      1.0  0.12967  0.18516  0.09579  1.0000
  C   C182      1.0  0.15886  0.19733  0.09845  1.0000
  C   C183      1.0  0.18066  0.18112  0.10828  1.0000
  C   C184      1.0  0.17330  0.15262  0.11539  1.0000
  C   C185      1.0  0.14409  0.14037  0.11273  1.0000
  C   C186      1.0  0.09308  0.07852  0.09290  1.0000
  H   H138      1.0  0.10100  0.02912  0.08699  1.0000
  H   H139      1.0  0.45556  0.10896  0.28869  1.0000
  C   C187      1.0  0.02458  0.04915  0.07259  1.0000
  C   C188      1.0  0.07658  0.08943  0.12003  1.0000
  C   C189      1.0  0.05692  0.16450  0.11392  1.0000
  C   C190      1.0  0.02890  0.15179  0.11872  1.0000
  C   C191      1.0  0.42340  0.20128  0.31110  1.0000
  H   H140      1.0  0.07263  0.29672  0.03586  1.0000
  C   C192      1.0  0.06343  0.19509  0.11899  1.0000
  C   C193      1.0  0.06639  0.01547  0.16332  1.0000
  H   H141      1.0  0.02237  0.16160  0.08615  1.0000
  H   H142      1.0  0.11614  0.13905  0.06998  1.0000
  H   H143      1.0  0.11282  0.19850  0.08843  1.0000
  H   H144      1.0  0.16424  0.21978  0.09314  1.0000
  H   H145      1.0  0.20306  0.19097  0.11055  1.0000
  H   H146      1.0  0.19003  0.14032  0.12319  1.0000
  H   H147      1.0  0.13866  0.11856  0.11854  1.0000
  H   H148      1.0  0.09931  0.08627  0.08111  1.0000
  H   H149      1.0  0.09153  0.17654  0.31809  1.0000
  C   C194      1.0  0.05566  0.40498  0.02746  1.0000
  C   C195      1.0  0.09408  0.04605  0.09617  1.0000
  C   C196      1.0  0.08572  0.03528  0.11123  1.0000
  C   C197      1.0  0.14152  0.41612  0.02834  1.0000
  H   H150      1.0  0.49854  0.14932  0.31995  1.0000
  C   C198      1.0  0.00918  0.37554  0.17789  1.0000
  C   C199      1.0  0.22291  0.32691  0.29197  1.0000
  H   H151      1.0  0.13450  0.43131  0.00392  1.0000
  H   H152      1.0  0.11537  0.26503  0.30645  1.0000
  C   C200      1.0  0.06739  0.21069  0.29146  1.0000
  H   H153      1.0  0.48063  0.22104  0.26988  1.0000
  H   H154      1.0  0.02802  0.23620  0.18466  1.0000
  C   C201      1.0  0.04243  0.21248  0.12867  1.0000
  C   C202      1.0  0.48601  0.24284  0.20967  1.0000
  H   H155      1.0  0.04322  0.49097  0.32883  1.0000
  H   H156      1.0  0.01280  0.30188  0.27840  1.0000
  C   C203      1.0  0.31073  0.41167  0.33001  1.0000
  H   H157      1.0  0.04196  0.44730  0.21125  1.0000
  C   C204      1.0  0.08233  0.15182  0.05188  1.0000
  C   C205      1.0  0.05427  0.49436  0.17715  1.0000
  C   C206      1.0  0.00787  0.13978  0.28027  1.0000
  C   C207      1.0  0.02867  0.12821  0.16510  1.0000
  H   H158      1.0  0.03481  0.48367  0.18285  1.0000
  H   H159      1.0  0.12831  0.33200  0.01265  1.0000
  H   H160      1.0  0.07337  0.39856  0.01878  1.0000
  C   C208      1.0  0.07113  0.17104  0.32489  1.0000
  H   H161      1.0  0.28909  0.21057  0.32543  1.0000
  H   H162      1.0  0.06955  0.23577  0.31392  1.0000
  C   C209      1.0  0.30176  0.14475  0.32320  1.0000
  C   C210      1.0  0.05740  0.06088  0.03182  1.0000
  C   C211      1.0  0.34638  0.26245  0.32938  1.0000
  H   H163      1.0  0.00598  0.17249  0.05844  1.0000
  H   H164      1.0  0.06896  0.44204  0.31774  1.0000
  H   H165      1.0  0.07596  0.37486  0.04583  1.0000
  C   C212      1.0  0.28713  0.25778  0.31599  1.0000
  C   C213      1.0  0.33104  0.23431  0.33076  1.0000
  H   H166      1.0  0.03595  0.17819  0.16464  1.0000
  C   C214      1.0  0.30570  0.34823  0.25994  1.0000
  C   C215      1.0  0.01986  0.16013  0.16734  1.0000
  C   C216      1.0  0.01365  0.40050  0.16740  1.0000
  C   C217      1.0  0.19413  0.30594  0.31957  1.0000
  H   H167      1.0  0.04161  0.43911  0.16147  1.0000
  C   C218      1.0  0.11993  0.45819  0.21442  1.0000
  Fe  Fe13      1.0  0.41798  0.37121  0.32861  1.0000
  H   H168      1.0  0.34403  0.31017  0.32098  1.0000
  C   C219      1.0  0.07680  0.05698  0.12309  1.0000
  H   H169      1.0  0.08572  0.14104  0.28831  1.0000
  H   H170      1.0  0.08917  0.41463  0.07240  1.0000
  C   C220      1.0  0.00259  0.02049  0.01054  1.0000
  H   H171      1.0  0.29216  0.37098  0.28181  1.0000
  C   C221      1.0  0.29396  0.35585  0.31487  1.0000
  C   C222      1.0  0.29723  0.34850  0.27602  1.0000
  H   H172      1.0  0.18316  0.29818  0.33038  1.0000
  C   C223      1.0  0.09436  0.46121  0.06338  1.0000
  S   S26       1.0  0.17769  0.20708  0.30763  1.0000
  C   C224      1.0  0.27207  0.14162  0.32958  1.0000
  H   H173      1.0  0.01571  0.08035  0.16754  1.0000
  C   C225      1.0  0.10669  0.09442  0.01969  1.0000
  H   H174      1.0  0.25280  0.36035  0.32976  1.0000
  H   H175      1.0  0.13426  0.02063  0.18384  1.0000
  H   H176      1.0  0.00318  0.30600  0.32924  1.0000
  C   C226      1.0  0.04671  0.44107  0.32370  1.0000
  C   C227      1.0  0.05386  0.07757  0.01741  1.0000
  H   H177      1.0  0.13194  0.07885  0.04077  1.0000
  C   C228      1.0  0.06387  0.13318  0.28363  1.0000
  C   C229      1.0  0.46764  0.26969  0.30114  1.0000
  C   C230      1.0  0.06387  0.10485  0.27510  1.0000
  C   C231      1.0  0.33028  0.39737  0.31856  1.0000
  H   H178      1.0  0.11656  0.22103  0.26030  1.0000
  H   H179      1.0  0.45754  0.13618  0.23150  1.0000
  C   C232      1.0  0.02952  0.37000  0.19071  1.0000
  C   C233      1.0  0.08737  0.02612  0.17479  1.0000
  C   C234      1.0  0.02195  0.29990  0.03616  1.0000
  H   H180      1.0  0.07096  0.19131  0.26750  1.0000
  C   C235      1.0  0.08849  0.49367  0.06583  1.0000
  C   C236      1.0  0.02932  0.31911  0.06793  1.0000
  C   C237      1.0  0.30886  0.29106  0.26024  1.0000
  C   C238      1.0  0.48294  0.22980  0.19447  1.0000
  H   H181      1.0  0.12188  0.24149  0.00443  1.0000
  H   H182      1.0  0.03239  0.07745  0.01062  1.0000
  C   C239      1.0  0.01409  0.05973  0.05751  1.0000
  C   C240      1.0  0.08544  0.06209  0.04041  1.0000
  H   H183      1.0  0.31388  0.26878  0.25419  1.0000
  C   C241      1.0  0.06549  0.46046  0.23266  1.0000
  H   H184      1.0  0.26816  0.05145  0.15913  1.0000
  C   C242      1.0  0.07852  0.09407  0.01133  1.0000
  C   C243      1.0  0.03604  0.09414  0.26901  1.0000
  C   C244      1.0  0.29382  0.06291  0.12139  1.0000
  C   C245      1.0  0.45771  0.18624  0.23560  1.0000
  H   H185      1.0  0.05603  0.43269  0.09518  1.0000
  H   H186      1.0  0.23355  0.33526  0.28119  1.0000
  P   P10       1.0  0.03596  0.18690  0.29763  1.0000
  C   C246      1.0  0.17612  0.31456  0.30620  1.0000
  C   C247      1.0  0.47899  0.34322  0.25839  1.0000
  C   C248      1.0  0.03592  0.15117  0.28599  1.0000
  C   C249      1.0  0.00992  0.30088  0.30407  1.0000
  H   H187      1.0  0.31895  0.31949  0.23974  1.0000
  H   H188      1.0  0.30799  0.37025  0.25359  1.0000
  C   C250      1.0  0.11847  0.24543  0.28277  1.0000
  C   C251      1.0  0.00233  0.31811  0.31787  1.0000
  C   C252      1.0  0.05682  0.39138  0.04265  1.0000
  C   C253      1.0  0.05545  0.31137  0.05862  1.0000
  H   H189      1.0  0.14103  0.45816  0.20739  1.0000
  H   H190      1.0  0.26424  0.25536  0.31087  1.0000
  H   H191      1.0  0.04392  0.16585  0.03634  1.0000
  C   C254      1.0  0.00815  0.43465  0.03447  1.0000
  C   C255      1.0  0.00803  0.31552  0.28914  1.0000
  C   C256      1.0  0.11772  0.01248  0.17521  1.0000
  H   H192      1.0  0.30114  0.02531  0.13853  1.0000
  H   H193      1.0  0.32203  0.14192  0.33090  1.0000
  C   C257      1.0  0.19136  0.47474  0.05250  1.0000
  C   C258      1.0  0.00711  0.28229  0.10983  1.0000
  C   C259      1.0  0.20256  0.48110  0.03727  1.0000
  H   H194      1.0  0.01123  0.35734  0.01874  1.0000
  H   H195      1.0  0.00724  0.04498  0.13452  1.0000
  H   H196      1.0  0.01130  0.48690  0.06019  1.0000
  C   C260      1.0  0.01448  0.19979  0.13317  1.0000
  H   H197      1.0  0.20478  0.45907  0.06048  1.0000
  H   H198      1.0  0.13203  0.48259  0.16979  1.0000
  H   H199      1.0  0.01681  0.27604  0.30495  1.0000
  C   C261      1.0  0.00354  0.38941  0.10612  1.0000
  H   H200      1.0  0.47703  0.12191  0.25840  1.0000
  C   C262      1.0  0.00302  0.41514  0.11654  1.0000
  H   H201      1.0  0.22483  0.47056  0.03350  1.0000
  C   C263      1.0  0.00800  0.11152  0.27167  1.0000
  C   C264      1.0  0.18486  0.50074  0.02690  1.0000
  H   H202      1.0  0.15407  0.48224  0.06915  1.0000
  C   C265      1.0  0.16233  0.48768  0.05731  1.0000
  C   C266      1.0  0.06486  0.50068  0.12867  1.0000
  C   C267      1.0  0.10877  0.49361  0.16978  1.0000
  H   H203      1.0  0.06399  0.48716  0.00061  1.0000
  C   C268      1.0  0.10448  0.25982  0.00121  1.0000
  C   C269      1.0  0.48507  0.41002  0.41446  1.0000
  S   S27       1.0  0.43750  0.35337  0.37324  1.0000
  S   S28       1.0  0.44139  0.44895  0.37240  1.0000
  S   S29       1.0  0.46492  0.44984  0.61264  1.0000
  C   C270      1.0  0.42702  0.26694  0.48055  1.0000
  Fe  Fe14      1.0  0.43186  0.11492  0.45518  1.0000
  S   S30       1.0  0.38612  0.11858  0.46838  1.0000
  S   S31       1.0  0.45989  0.07302  0.44533  1.0000
  Fe  Fe15      1.0  0.43897  0.18539  0.45438  1.0000
  S   S32       1.0  0.39413  0.19470  0.46722  1.0000
  S   S33       1.0  0.46718  0.22530  0.44558  1.0000
  Fe  Fe16      1.0  0.41013  0.15455  0.48322  1.0000
  S   S34       1.0  0.40736  0.16699  0.50949  1.0000
  Fe  Fe17      1.0  0.37363  0.15858  0.45117  1.0000
  S   S35       1.0  0.32492  0.17377  0.44167  1.0000
  S   S36       1.0  0.45662  0.14775  0.47126  1.0000
  S   S37       1.0  0.41774  0.15230  0.43705  1.0000
  Fe  Fe18      1.0  0.14393  0.21232  0.36548  1.0000
  S   S38       1.0  0.16901  0.17097  0.35308  1.0000
  S   S39       1.0  0.09566  0.20955  0.37689  1.0000
  Fe  Fe19      1.0  0.19807  0.25540  0.35950  1.0000
  S   S40       1.0  0.22550  0.21801  0.34608  1.0000
  S   S41       1.0  0.21792  0.30362  0.36242  1.0000
  H   H204      1.0  0.41258  0.03903  0.43212  1.0000
  H   H205      1.0  0.31745  0.43301  0.33593  1.0000
  Fe  Fe20      1.0  0.21254  0.18576  0.36600  1.0000
  S   S42       1.0  0.25307  0.15358  0.37554  1.0000
  S   S43       1.0  0.15335  0.24749  0.34638  1.0000
  S   S44       1.0  0.18660  0.22386  0.37994  1.0000
  H   H206      1.0  0.49246  0.39944  0.45765  1.0000
  C   C271      1.0  0.47813  0.26803  0.49271  1.0000
  Fe  Fe21      1.0  0.46673  0.08074  0.62623  1.0000
  S   S45       1.0  0.44415  0.11762  0.60975  1.0000
  C   C272      1.0  0.46556  0.20926  0.56567  1.0000
  C   C273      1.0  0.04942  0.15338  0.34976  1.0000
  C   C274      1.0  0.15652  0.33522  0.38293  1.0000
  C   C275      1.0  0.00357  0.46739  0.33767  1.0000
  C   C276      1.0  0.45891  0.42953  0.48410  1.0000
  H   H207      1.0  0.11654  0.36638  0.44910  1.0000
  C   C277      1.0  0.48466  0.01315  0.44914  1.0000
  H   H208      1.0  0.31906  0.35311  0.36122  1.0000
  H   H209      1.0  0.41439  0.27278  0.56216  1.0000
  H   H210      1.0  0.39856  0.40400  0.53860  1.0000
  C   C278      1.0  0.03165  0.21944  0.37762  1.0000
  C   C279      1.0  0.05887  0.22255  0.36858  1.0000
  C   C280      1.0  0.05600  0.23517  0.35318  1.0000
  C   C281      1.0  0.02630  0.24401  0.34686  1.0000
  H   H211      1.0  0.39973  0.46904  0.42682  1.0000
  H   H212      1.0  0.03352  0.20964  0.38953  1.0000
  H   H213      1.0  0.07662  0.23751  0.34602  1.0000
  C   C282      1.0  0.41495  0.47685  0.41754  1.0000
  C   C283      1.0  0.41936  0.14059  0.52492  1.0000
  C   C284      1.0  0.42257  0.10797  0.52241  1.0000
  C   C285      1.0  0.42966  0.08753  0.53532  1.0000
  C   C286      1.0  0.43447  0.09961  0.55071  1.0000
  C   C287      1.0  0.43234  0.13230  0.55309  1.0000
  C   C288      1.0  0.42449  0.15267  0.54026  1.0000
  H   H214      1.0  0.41850  0.09843  0.51065  1.0000
  H   H215      1.0  0.45315  0.47277  0.57629  1.0000
  H   H216      1.0  0.43585  0.14178  0.56491  1.0000
  H   H217      1.0  0.42186  0.17787  0.54229  1.0000
  C   C289      1.0  0.27358  0.16003  0.39370  1.0000
  C   C290      1.0  0.30204  0.14307  0.39683  1.0000
  C   C291      1.0  0.31847  0.14736  0.41128  1.0000
  C   C292      1.0  0.30615  0.16797  0.42296  1.0000
  C   C293      1.0  0.27746  0.18439  0.41989  1.0000
  C   C294      1.0  0.26168  0.18105  0.40524  1.0000
  H   H218      1.0  0.31152  0.12668  0.38800  1.0000
  H   H219      1.0  0.34055  0.13463  0.41344  1.0000
  H   H220      1.0  0.26724  0.19962  0.42899  1.0000
  H   H221      1.0  0.23998  0.19424  0.40296  1.0000
  H   H222      1.0  0.45164  0.47705  0.64807  1.0000
  C   C295      1.0  0.43338  0.25607  0.55916  1.0000
  C   C296      1.0  0.44875  0.03092  0.46977  1.0000
  H   H223      1.0  0.46793  0.27028  0.35684  1.0000
  H   H224      1.0  0.43264  0.04881  0.47466  1.0000
  C   C297      1.0  0.32472  0.30269  0.36412  1.0000
  C   C298      1.0  0.30920  0.27452  0.36510  1.0000
  C   C299      1.0  0.27660  0.27469  0.36459  1.0000
  C   C300      1.0  0.25904  0.30316  0.36297  1.0000
  C   C301      1.0  0.27446  0.33149  0.36175  1.0000
  C   C302      1.0  0.30730  0.33124  0.36208  1.0000
  H   H225      1.0  0.32254  0.25235  0.36618  1.0000
  H   H226      1.0  0.26516  0.25275  0.36579  1.0000
  C   C303      1.0  0.42224  0.44728  0.54126  1.0000
  C   C304      1.0  0.47398  0.23726  0.54082  1.0000
  C   C305      1.0  0.43713  0.46929  0.39098  1.0000
  C   C306      1.0  0.41866  0.45876  0.40343  1.0000
  H   H227      1.0  0.41185  0.27125  0.47033  1.0000
  H   H228      1.0  0.40661  0.43718  0.40201  1.0000
  H   H229      1.0  0.46673  0.28626  0.46929  1.0000
  C   C307      1.0  0.11916  0.29547  0.37828  1.0000
  H   H230      1.0  0.42786  0.41333  0.50240  1.0000
  C   C308      1.0  0.46228  0.49131  0.61503  1.0000
  C   C309      1.0  0.16545  0.32049  0.39730  1.0000
  C   C310      1.0  0.15151  0.29285  0.40221  1.0000
  C   C311      1.0  0.12794  0.28080  0.39267  1.0000
  P   P11       1.0  0.16386  0.27343  0.42063  1.0000
  C   C312      1.0  0.20588  0.27264  0.42250  1.0000
  C   C313      1.0  0.14617  0.29373  0.43753  1.0000
  C   C314      1.0  0.13719  0.32603  0.43668  1.0000
  C   C315      1.0  0.12348  0.34147  0.44984  1.0000
  C   C316      1.0  0.11867  0.32481  0.46394  1.0000
  C   C317      1.0  0.12763  0.29270  0.46490  1.0000
  C   C318      1.0  0.14134  0.27719  0.45177  1.0000
  C   C319      1.0  0.22006  0.26884  0.43756  1.0000
  C   C320      1.0  0.25248  0.26458  0.43890  1.0000
  C   C321      1.0  0.27093  0.26390  0.42522  1.0000
  C   C322      1.0  0.25709  0.26812  0.41020  1.0000
  C   C323      1.0  0.22474  0.27248  0.40882  1.0000
  C   C324      1.0  0.15194  0.23307  0.42089  1.0000
  C   C325      1.0  0.12032  0.22690  0.42254  1.0000
  C   C326      1.0  0.11079  0.19587  0.42191  1.0000
  C   C327      1.0  0.13280  0.17073  0.41995  1.0000
  C   C328      1.0  0.16440  0.17659  0.41880  1.0000
  C   C329      1.0  0.17396  0.20759  0.41936  1.0000
  H   H231      1.0  0.10168  0.28518  0.37080  1.0000
  C   C330      1.0  0.46422  0.03662  0.45547  1.0000
  C   C331      1.0  0.41614  0.25148  0.49399  1.0000
  H   H232      1.0  0.18386  0.33017  0.40434  1.0000
  H   H233      1.0  0.11678  0.25957  0.39593  1.0000
  H   H234      1.0  0.14065  0.33943  0.42591  1.0000
  Fe  Fe22      1.0  0.49009  0.14137  0.61058  1.0000
  H   H235      1.0  0.12392  0.27977  0.47584  1.0000
  H   H236      1.0  0.14822  0.25229  0.45277  1.0000
  H   H237      1.0  0.20617  0.26812  0.44826  1.0000
  H   H238      1.0  0.26329  0.26063  0.45048  1.0000
  H   H239      1.0  0.29584  0.25891  0.42624  1.0000
  H   H240      1.0  0.27128  0.26705  0.39953  1.0000
  H   H241      1.0  0.21461  0.27480  0.39701  1.0000
  H   H242      1.0  0.10290  0.24614  0.42380  1.0000
  H   H243      1.0  0.08625  0.19135  0.42254  1.0000
  H   H244      1.0  0.12535  0.14675  0.41914  1.0000
  H   H245      1.0  0.18152  0.15715  0.41718  1.0000
  H   H246      1.0  0.19848  0.21147  0.41831  1.0000
  C   C332      1.0  0.34398  0.21391  0.39135  1.0000
  C   C333      1.0  0.36734  0.18984  0.39249  1.0000
  C   C334      1.0  0.39466  0.19488  0.40095  1.0000
  C   C335      1.0  0.39871  0.22410  0.40818  1.0000
  C   C336      1.0  0.37589  0.24895  0.40652  1.0000
  C   C337      1.0  0.34833  0.24347  0.39820  1.0000
  P   P12       1.0  0.38148  0.28611  0.41650  1.0000
  C   C338      1.0  0.36748  0.28409  0.43672  1.0000
  C   C339      1.0  0.42273  0.29160  0.41538  1.0000
  C   C340      1.0  0.44052  0.29642  0.42913  1.0000
  C   C341      1.0  0.47270  0.29901  0.42796  1.0000
  C   C342      1.0  0.33132  0.06849  0.41637  1.0000
  C   C343      1.0  0.46979  0.29162  0.39938  1.0000
  C   C344      1.0  0.43757  0.28920  0.40048  1.0000
  C   C345      1.0  0.36602  0.31143  0.44620  1.0000
  C   C346      1.0  0.35321  0.31078  0.46152  1.0000
  C   C347      1.0  0.34140  0.28293  0.46737  1.0000
  C   C348      1.0  0.34254  0.25573  0.45795  1.0000
  C   C349      1.0  0.35579  0.25615  0.44275  1.0000
  C   C350      1.0  0.36055  0.31995  0.40755  1.0000
  C   C351      1.0  0.32786  0.32230  0.40784  1.0000
  C   C352      1.0  0.31145  0.34872  0.40142  1.0000
  C   C353      1.0  0.32758  0.37349  0.39499  1.0000
  C   C354      1.0  0.36011  0.37196  0.39515  1.0000
  C   C355      1.0  0.37652  0.34548  0.40154  1.0000
  H   H247      1.0  0.32235  0.20955  0.38522  1.0000
  H   H248      1.0  0.36390  0.16702  0.38714  1.0000
  C   C356      1.0  0.03106  0.35818  0.35787  1.0000
  H   H249      1.0  0.41961  0.22717  0.41518  1.0000
  H   H250      1.0  0.33024  0.26184  0.39685  1.0000
  H   H251      1.0  0.42995  0.29692  0.44081  1.0000
  C   C357      1.0  0.44189  0.09030  0.40393  1.0000
  H   H252      1.0  0.02448  0.25322  0.33486  1.0000
  C   C358      1.0  0.38379  0.04679  0.41110  1.0000
  H   H253      1.0  0.42414  0.28520  0.38974  1.0000
  H   H254      1.0  0.37455  0.33330  0.44166  1.0000
  H   H255      1.0  0.35219  0.33193  0.46878  1.0000
  H   H256      1.0  0.33136  0.28235  0.47920  1.0000
  H   H257      1.0  0.33327  0.23407  0.46239  1.0000
  H   H258      1.0  0.35639  0.23465  0.43574  1.0000
  H   H259      1.0  0.31505  0.30376  0.41307  1.0000
  H   H260      1.0  0.28621  0.34977  0.40122  1.0000
  H   H261      1.0  0.31491  0.39377  0.38979  1.0000
  H   H262      1.0  0.37267  0.39119  0.39019  1.0000
  H   H263      1.0  0.40161  0.34521  0.40176  1.0000
  C   C359      1.0  0.49354  0.22505  0.35612  1.0000
  C   C360      1.0  0.13361  0.32254  0.37335  1.0000
  H   H264      1.0  0.47304  0.21176  0.35785  1.0000
  H   H265      1.0  0.43438  0.47117  0.45130  1.0000
  C   C361      1.0  0.41470  0.41009  0.56271  1.0000
  C   C362      1.0  0.42978  0.42585  0.49127  1.0000
  C   C363      1.0  0.49064  0.25824  0.35568  1.0000
  C   C364      1.0  0.44516  0.02117  0.65474  1.0000
  C   C365      1.0  0.37095  0.03173  0.35364  1.0000
  H   H266      1.0  0.50104  0.32602  0.57366  1.0000
  P   P13       1.0  0.49433  0.41128  0.49248  1.0000
  S   S46       1.0  0.46008  0.38874  0.34102  1.0000
  H   H267      1.0  0.36897  0.26466  0.33498  1.0000
  H   H268      1.0  0.46987  0.18941  0.41807  1.0000
  H   H269      1.0  0.46844  0.41898  0.42324  1.0000
  C   C366      1.0  0.48738  0.29651  0.41313  1.0000
  H   H270      1.0  0.49475  0.48106  0.49091  1.0000
  H   H271      1.0  0.06617  0.34565  0.37557  1.0000
  H   H272      1.0  0.47956  0.01187  0.39228  1.0000
  H   H273      1.0  0.39244  0.24392  0.49429  1.0000
  H   H274      1.0  0.30861  0.07714  0.41207  1.0000
  Fe  Fe23      1.0  0.46588  0.34042  0.35170  1.0000
  H   H275      1.0  0.34857  0.05790  0.39301  1.0000
  Fe  Fe24      1.0  0.42894  0.40117  0.36188  1.0000
  H   H276      1.0  0.41208  0.49452  0.61588  1.0000
  H   H277      1.0  0.48383  0.22297  0.39534  1.0000
  H   H278      1.0  0.47754  0.26106  0.60051  1.0000
  H   H279      1.0  0.49891  0.13106  0.55395  1.0000
  H   H280      1.0  0.05254  0.14677  0.36219  1.0000
  Fe  Fe25      1.0  0.39688  0.33858  0.35832  1.0000
  S   S47       1.0  0.44253  0.06108  0.64804  1.0000
  C   C367      1.0  0.40407  0.45473  0.46952  1.0000
  S   S48       1.0  0.38573  0.38740  0.34850  1.0000
  H   H281      1.0  0.39388  0.02362  0.59783  1.0000
  C   C368      1.0  0.36719  0.05821  0.43829  1.0000
  H   H282      1.0  0.50014  0.19470  0.54867  1.0000
  H   H283      1.0  0.16840  0.35565  0.37889  1.0000
  C   C369      1.0  0.46462  0.36004  0.53042  1.0000
  H   H284      1.0  0.10801  0.33680  0.47411  1.0000
  C   C370      1.0  0.44136  0.23110  0.56956  1.0000
  C   C371      1.0  0.46749  0.25223  0.50620  1.0000
  H   H285      1.0  0.43134  0.00637  0.61890  1.0000
  C   C372      1.0  0.49372  0.46755  0.66167  1.0000
  C   C373      1.0  0.47353  0.09218  0.37489  1.0000
  H   H286      1.0  0.41243  0.17596  0.40217  1.0000
  C   C374      1.0  0.49817  0.25855  0.60793  1.0000
  H   H287      1.0  0.46076  0.35832  0.50487  1.0000
  C   C375      1.0  0.47005  0.37084  0.51496  1.0000
  H   H288      1.0  0.12757  0.33328  0.36195  1.0000
  H   H289      1.0  0.50074  0.34624  0.39057  1.0000
  H   H290      1.0  0.49326  0.08053  0.54008  1.0000
  C   C376      1.0  0.46567  0.45952  0.65470  1.0000
  C   C377      1.0  0.49417  0.40219  0.54121  1.0000
  C   C378      1.0  0.41069  0.41899  0.54674  1.0000
  H   H291      1.0  0.44298  0.27844  0.53683  1.0000
  H   H292      1.0  0.38306  0.46465  0.46382  1.0000
  C   C379      1.0  0.43630  0.24398  0.50673  1.0000
  C   C380      1.0  0.44966  0.25921  0.54485  1.0000
  H   H293      1.0  0.47156  0.18983  0.57375  1.0000
  S   S49       1.0  0.42650  0.32181  0.33769  1.0000
  C   C381      1.0  0.35418  0.05757  0.40558  1.0000
  H   H294      1.0  0.45111  0.33949  0.53221  1.0000
  S   S50       1.0  0.36556  0.30084  0.36674  1.0000
  C   C382      1.0  0.45796  0.27539  0.47996  1.0000
  H   H295      1.0  0.42776  0.23059  0.51666  1.0000
  H   H296      1.0  0.48110  0.28954  0.38785  1.0000
  S   S51       1.0  0.48671  0.19543  0.60778  1.0000
  C   C383      1.0  0.45597  0.42869  0.65601  1.0000
  H   H297      1.0  0.38817  0.06709  0.36923  1.0000
  C   C384      1.0  0.38563  0.04202  0.36748  1.0000
  C   C385      1.0  0.38999  0.04713  0.42755  1.0000
  C   C386      1.0  0.48202  0.38019  0.40768  1.0000
  H   H298      1.0  0.48148  0.08029  0.48228  1.0000
  H   H299      1.0  0.26099  0.35364  0.36061  1.0000
  H   H300      1.0  0.46296  0.36598  0.41118  1.0000
  P   P14       1.0  0.41406  0.03367  0.39727  1.0000
  C   C387      1.0  0.07513  0.16115  0.34072  1.0000
  C   C388      1.0  0.45226  0.49768  0.39304  1.0000
  C   C389      1.0  0.43294  0.45864  0.46246  1.0000
  C   C390      1.0  0.43758  0.46710  0.55181  1.0000
  S   S52       1.0  0.48330  0.04999  0.60597  1.0000
  C   C391      1.0  0.33792  0.06915  0.43271  1.0000
  C   C392      1.0  0.40250  0.43860  0.48402  1.0000
  H   H301      1.0  0.48615  0.09289  0.36373  1.0000
  C   C393      1.0  0.00140  0.35216  0.35182  1.0000
  H   H302      1.0  0.09811  0.16016  0.34613  1.0000
  H   H303      1.0  0.42889  0.22852  0.58068  1.0000
  H   H304      1.0  0.38012  0.43597  0.48962  1.0000
  H   H305      1.0  0.43345  0.42264  0.58562  1.0000
  H   H306      1.0  0.41863  0.45373  0.52889  1.0000
  H   H307      1.0  0.32046  0.07842  0.44101  1.0000
  H   H308      1.0  0.45292  0.04831  0.36956  1.0000
  H   H309      1.0  0.46955  0.18536  0.50626  1.0000
  H   H310      1.0  0.40563  0.38829  0.56701  1.0000
  C   C394      1.0  0.43037  0.42941  0.57320  1.0000
  C   C395      1.0  0.44168  0.45783  0.56782  1.0000
  C   C396      1.0  0.46022  0.44686  0.46987  1.0000
  C   C397      1.0  0.46100  0.11512  0.40061  1.0000
  H   H311      1.0  0.36246  0.04875  0.34478  1.0000
  C   C398      1.0  0.47666  0.11626  0.38607  1.0000
  H   H312      1.0  0.43136  0.06224  0.53340  1.0000
  H   H313      1.0  0.03561  0.30418  0.38806  1.0000
  H   H314      1.0  0.46625  0.38213  0.66509  1.0000
  C   C399      1.0  0.04329  0.34104  0.37096  1.0000
  C   C400      1.0  0.47691  0.37558  0.54353  1.0000
  H   H315      1.0  0.43020  0.08998  0.41532  1.0000
  Fe  Fe26      1.0  0.18016  0.20708  0.33458  1.0000
  H   H316      1.0  0.48656  0.06207  0.51015  1.0000
  S   S53       1.0  0.44296  0.07311  0.56662  1.0000
  C   C401      1.0  0.43842  0.06608  0.39277  1.0000
  Fe  Fe27      1.0  0.46522  0.08885  0.58967  1.0000
  H   H317      1.0  0.46389  0.13317  0.40950  1.0000
  H   H318      1.0  0.37242  0.05854  0.45095  1.0000
  H   H319      1.0  0.48636  0.30147  0.43869  1.0000
  C   C402      1.0  0.28283  0.39816  0.33395  1.0000
  C   C403      1.0  0.49937  0.41331  0.52579  1.0000
  C   C404      1.0  0.45462  0.06707  0.37824  1.0000
  P   P15       1.0  0.49427  0.24042  0.52205  1.0000
  H   H320      1.0  0.47303  0.36721  0.55554  1.0000
  H   H321      1.0  0.48238  0.45117  0.46437  1.0000
  H   H322      1.0  0.41499  0.19832  0.33640  1.0000
  C   C405      1.0  0.01974  0.15462  0.34285  1.0000
  H   H323      1.0  0.26930  0.13667  0.34219  1.0000
  C   C406      1.0  0.02603  0.31785  0.37809  1.0000
  H   H324      1.0  0.26784  0.40900  0.34298  1.0000
  H   H325      1.0  0.49604  0.01710  0.43791  1.0000
  C   C407      1.0  0.48739  0.39763  0.51253  1.0000
  H   H326      1.0  0.43437  0.42250  0.65040  1.0000
  H   H327      1.0  0.47889  0.00440  0.63741  1.0000
  C   C408      1.0  0.45495  0.00226  0.47802  1.0000
  C   C409      1.0  0.00193  0.22859  0.37135  1.0000
  C   C410      1.0  0.48179  0.21224  0.55139  1.0000
  C   C411      1.0  0.49363  0.18861  0.41383  1.0000
  H   H328      1.0  0.49678  0.20299  0.47496  1.0000
  C   C412      1.0  0.49310  0.17919  0.51016  1.0000
  H   H329      1.0  0.49597  0.45220  0.34185  1.0000
  C   C413      1.0  0.39654  0.02011  0.37907  1.0000
  H   H330      1.0  0.49783  0.30031  0.53955  1.0000
  H   H331      1.0  0.49586  0.29903  0.64444  1.0000
  H   H332      1.0  0.46285  0.16455  0.34174  1.0000
  H   H333      1.0  0.34174  0.21463  0.33739  1.0000
  H   H334      1.0  0.04488  0.37589  0.35251  1.0000
  H   H335      1.0  0.49158  0.13555  0.38355  1.0000
  C   C414      1.0  0.47450  0.40571  0.66414  1.0000
  H   H336      1.0  0.46101  0.48514  0.51251  1.0000
  H   H337      1.0  0.49484  0.26846  0.57120  1.0000
  H   H338      1.0  0.49005  0.13071  0.50313  1.0000
  C   C415      1.0  0.49288  0.01421  0.54966  1.0000
  C   C416      1.0  0.50092  0.30536  0.65667  1.0000
  H   H339      1.0  0.49181  0.25943  0.66592  1.0000
  H   H340      1.0  0.07026  0.24168  0.95626  1.0000
  Fe  Fe28      1.0  0.06257  0.42616  0.93985  1.0000
  H   H341      1.0  0.01903  0.24222  0.99001  1.0000
  S   S54       1.0  0.07077  0.44357  0.91429  1.0000
  Fe  Fe29      1.0  0.08571  0.39699  0.97161  1.0000
  S   S55       1.0  0.03749  0.39187  0.98080  1.0000
  H   H342      1.0  0.10504  0.09082  0.92620  1.0000
  Fe  Fe30      1.0  0.02636  0.37358  0.95645  1.0000
  C   C417      1.0  0.07536  0.02334  0.93219  1.0000
  C   C418      1.0  0.10743  0.32625  0.88147  1.0000
  C   C419      1.0  0.08642  0.26138  0.91792  1.0000
  S   S56       1.0  0.07520  0.37594  0.94761  1.0000
  S   S57       1.0  0.07686  0.44737  0.96330  1.0000
  C   C420      1.0  0.12538  0.34072  0.85023  1.0000
  S   S58       1.0  0.05578  0.04116  0.98044  1.0000
  C   C421      1.0  0.14112  0.39027  0.92221  1.0000
  C   C422      1.0  0.14765  0.33834  0.86243  1.0000
  C   C423      1.0  0.11894  0.34041  0.91520  1.0000
  S   S59       1.0  0.02519  0.09777  0.94730  1.0000
  H   H343      1.0  0.00188  0.17819  0.85595  1.0000
  C   C424      1.0  0.03738  0.28185  0.95564  1.0000
  C   C425      1.0  0.04586  0.24931  0.95638  1.0000
  C   C426      1.0  0.02310  0.22668  0.95713  1.0000
  C   C427      1.0  0.05601  0.15389  0.91694  1.0000
  C   C428      1.0  0.03270  0.30639  0.89972  1.0000
  C   C429      1.0  0.08066  0.09739  0.90380  1.0000
  Fe  Fe31      1.0  0.01765  0.07393  0.97054  1.0000
  C   C430      1.0  0.13138  0.32704  0.92937  1.0000
  C   C431      1.0  0.09417  0.33581  0.85358  1.0000
  C   C432      1.0  0.09213  0.22929  0.92133  1.0000
  H   H344      1.0  0.06083  0.32540  0.87148  1.0000
  C   C433      1.0  0.05991  0.11700  0.89489  1.0000
  C   C434      1.0  0.04663  0.24810  0.86412  1.0000
  S   S60       1.0  0.03518  0.18595  0.95650  1.0000
  C   C435      1.0  0.08908  0.47725  0.90660  1.0000
  P   P16       1.0  0.09608  0.31757  0.90167  1.0000
  C   C436      1.0  0.14850  0.34524  0.93984  1.0000
  H   H345      1.0  0.06125  0.37575  0.91230  1.0000
  S   S61       1.0  0.01228  0.42195  0.94685  1.0000
  C   C437      1.0  0.07835  0.24152  0.86140  1.0000
  H   H346      1.0  0.17179  0.34254  0.85986  1.0000
  C   C438      1.0  0.05164  0.02465  0.92073  1.0000
  C   C439      1.0  0.15326  0.37685  0.93630  1.0000
  H   H347      1.0  0.05509  0.29891  0.95451  1.0000
  H   H348      1.0  0.15629  0.32970  0.88733  1.0000
  S   S62       1.0  0.12655  0.37456  0.98555  1.0000
  H   H349      1.0  0.07591  0.10587  0.99987  1.0000
  H   H350      1.0  0.14399  0.41505  0.91963  1.0000
  H   H351      1.0  0.09174  0.25817  0.85484  1.0000
  Fe  Fe32      1.0  0.02728  0.44023  0.97055  1.0000
  H   H352      1.0  0.07686  0.33814  0.84415  1.0000
  C   C440      1.0  0.00601  0.29220  0.95596  1.0000
  H   H353      1.0  0.07672  0.04205  0.94095  1.0000
  H   H354      1.0  0.15721  0.33525  0.95102  1.0000
  H   H355      1.0  0.05360  0.10990  0.88294  1.0000
  H   H356      1.0  0.11730  0.20810  0.86480  1.0000
  H   H357      1.0  0.08727  0.17025  0.87991  1.0000
  H   H358      1.0  0.03483  0.04462  0.92044  1.0000
  H   H359      1.0  0.16565  0.39115  0.94469  1.0000
  C   C441      1.0  0.12417  0.37213  0.91167  1.0000
  C   C442      1.0  0.04715  0.14526  0.90148  1.0000
  H   H360      1.0  0.11435  0.38328  0.90100  1.0000
  H   H361      1.0  0.00556  0.38943  0.91525  1.0000
  H   H362      1.0  0.48004  0.41285  0.70122  1.0000
  C   C443      1.0  0.07716  0.13454  0.92571  1.0000
  H   H363      1.0  0.12740  0.30290  0.93260  1.0000
  H   H364      1.0  0.02820  0.23065  0.90696  1.0000
  C   C444      1.0  0.13876  0.33114  0.87799  1.0000
  H   H365      1.0  0.13224  0.34677  0.83822  1.0000
  H   H366      1.0  0.06893  0.27484  0.92473  1.0000
  H   H367      1.0  0.08320  0.14110  0.93780  1.0000
  C   C445      1.0  0.05500  0.32796  0.90409  1.0000
  C   C446      1.0  0.08932  0.10619  0.91920  1.0000
  H   H368      1.0  0.07893  0.21811  0.93056  1.0000
  H   H369      1.0  0.08976  0.07517  0.89886  1.0000
  C   C447      1.0  0.01308  0.36618  0.91094  1.0000
  C   C448      1.0  0.42720  0.01245  0.66789  1.0000
  C   C449      1.0  0.13245  0.22608  0.90129  1.0000
  C   C450      1.0  0.10338  0.27599  0.90594  1.0000
  C   C451      1.0  0.11510  0.21164  0.91302  1.0000
  H   H370      1.0  0.13285  0.27989  0.98303  1.0000
  C   C452      1.0  0.49842  0.41058  0.72506  1.0000
  H   H371      1.0  0.03990  0.28333  0.89513  1.0000
  H   H372      1.0  0.06667  0.47390  0.88366  1.0000
  H   H373      1.0  0.41225  0.03018  0.67374  1.0000
  H   H374      1.0  0.14040  0.26882  0.88864  1.0000
  H   H375      1.0  0.15055  0.21246  0.89500  1.0000
  C   C453      1.0  0.08518  0.32860  0.86913  1.0000
  C   C454      1.0  0.12660  0.25812  0.89771  1.0000
  C   C455      1.0  0.04486  0.35819  0.90934  1.0000
  H   H376      1.0  0.11964  0.18683  0.91582  1.0000
  H   H377      1.0  0.04245  0.32529  0.98915  1.0000
  H   H378      1.0  0.00472  0.23196  0.87450  1.0000
  H   H379      1.0  0.08100  0.01969  0.85338  1.0000
  H   H380      1.0  0.47780  0.42218  0.73025  1.0000
  C   C456      1.0  0.11063  0.28129  0.98911  1.0000
  Fe  Fe33      1.0  0.00615  0.14236  0.95912  1.0000
  C   C457      1.0  0.05882  0.00353  0.97164  1.0000
  C   C458      1.0  0.07559  0.19183  0.87556  1.0000
  C   C459      1.0  0.04376  0.19840  0.87846  1.0000
  C   C460      1.0  0.49983  0.40536  0.70859  1.0000
  C   C461      1.0  0.08812  0.30478  0.98488  1.0000
  C   C462      1.0  0.08253  0.48699  0.89081  1.0000
  H   H381      1.0  0.09278  0.32129  0.97541  1.0000
  C   C463      1.0  0.00527  0.22257  0.90943  1.0000
  C   C464      1.0  0.11021  0.49412  0.91556  1.0000
  H   H382      1.0  0.04625  0.17525  0.92241  1.0000
  C   C465      1.0  0.49862  0.28305  0.66880  1.0000
  H   H383      1.0  0.11602  0.48670  0.92760  1.0000
  C   C466      1.0  0.09275  0.21331  0.86702  1.0000
  S   S63       1.0  0.00289  0.11895  0.98315  1.0000
  C   C467      1.0  0.00498  0.23318  0.99951  1.0000
  C   C468      1.0  0.05964  0.30724  0.99287  1.0000
  H   H384      1.0  0.01598  0.00909  0.95825  1.0000
  P   P17       1.0  0.02138  0.17128  0.88979  1.0000
  H   H385      1.0  0.03537  0.26984  0.85963  1.0000
  C   C469      1.0  0.02935  0.22660  0.87256  1.0000
  H   H386      1.0  0.03657  0.00262  0.83704  1.0000
  H   H387      1.0  0.46593  0.01260  0.87757  1.0000
  H   H388      1.0  0.08109  0.99917  0.02972  1.0000
  S   S64       1.0  0.17319  0.88657  0.00664  1.0000
  C   C470      1.0  0.01973  0.76154  0.11916  1.0000
  Fe  Fe34      1.0  0.04364  0.57706  0.11844  1.0000
  S   S65       1.0  0.09240  0.55524  0.12034  1.0000
  H   H389      1.0  0.09025  0.68287  0.01764  1.0000
  C   C471      1.0  0.01776  0.65699  0.01054  1.0000
  H   H390      1.0  0.04769  0.82483  0.17886  1.0000
  C   C472      1.0  0.05977  0.93276  0.00598  1.0000
  Fe  Fe35      1.0  0.04212  0.86504  0.11935  1.0000
  S   S66       1.0  0.09333  0.87032  0.11600  1.0000
  H   H391      1.0  0.06890  0.91327  0.05540  1.0000
  Fe  Fe36      1.0  0.02593  0.92925  0.10344  1.0000
  S   S67       1.0  0.07583  0.93809  0.09784  1.0000
  Fe  Fe37      1.0  0.08053  0.88648  0.09109  1.0000
  S   S68       1.0  0.09932  0.85726  0.07009  1.0000
  Fe  Fe38      1.0  0.08423  0.92142  0.12319  1.0000
  S   S69       1.0  0.11732  0.94609  0.13988  1.0000
  S   S70       1.0  0.02946  0.87931  0.09437  1.0000
  S   S71       1.0  0.03399  0.91475  0.12892  1.0000
  C   C473      1.0  0.04066  0.67588  0.01692  1.0000
  H   H392      1.0  0.04512  0.51575  0.13237  1.0000
  C   C474      1.0  0.04952  0.52416  0.17012  1.0000
  C   C475      1.0  0.11920  0.61526  0.05915  1.0000
  H   H393      1.0  0.07252  0.95222  0.00157  1.0000
  H   H394      1.0  0.07878  0.73160  0.16437  1.0000
  S   S72       1.0  0.01047  0.55054  0.10378  1.0000
  S   S73       1.0  0.03163  0.62327  0.10632  1.0000
  H   H395      1.0  0.08426  0.84791  0.15987  1.0000
  C   C476      1.0  0.00211  0.80795  0.07549  1.0000
  C   C477      1.0  0.12483  0.61717  0.07556  1.0000
  H   H396      1.0  0.12962  0.63963  0.08096  1.0000
  C   C478      1.0  0.07426  0.53858  0.16283  1.0000
  H   H397      1.0  0.11619  0.78831  0.07419  1.0000
  C   C479      1.0  0.10526  0.97687  0.15324  1.0000
  H   H398      1.0  0.22717  0.79042  0.13879  1.0000
  H   H399      1.0  0.01931  0.93574  0.06656  1.0000
  H   H400      1.0  0.02655  0.53598  0.17019  1.0000
  C   C480      1.0  0.02720  0.88322  0.01851  1.0000
  C   C481      1.0  0.15445  0.87794  0.02477  1.0000
  C   C482      1.0  0.15246  0.90051  0.03707  1.0000
  C   C483      1.0  0.13589  0.89468  0.05119  1.0000
  C   C484      1.0  0.12169  0.86599  0.05314  1.0000
  C   C485      1.0  0.12481  0.84304  0.04111  1.0000
  C   C486      1.0  0.14081  0.84907  0.02693  1.0000
  H   H401      1.0  0.16326  0.92280  0.03553  1.0000
  H   H402      1.0  0.13407  0.91235  0.06049  1.0000
  H   H403      1.0  0.11437  0.82062  0.04271  1.0000
  H   H404      1.0  0.14304  0.83131  0.01770  1.0000
  P   P18       1.0  0.10544  0.52133  0.05254  1.0000
  C   C487      1.0  0.06817  0.50388  0.07805  1.0000
  H   H405      1.0  0.04532  0.76661  0.18108  1.0000
  H   H406      1.0  0.24606  0.75947  0.16238  1.0000
  H   H407      1.0  0.05848  0.98275  0.14410  1.0000
  H   H408      1.0  0.01815  0.71303  0.11074  1.0000
  H   H409      1.0  0.07906  0.81055  0.09436  1.0000
  H   H410      1.0  0.19361  0.50567  0.01510  1.0000
  H   H411      1.0  0.09463  0.81379  0.00856  1.0000
  H   H412      1.0  0.09988  0.94547  0.03723  1.0000
  C   C488      1.0  0.09129  0.51393  0.12238  1.0000
  C   C489      1.0  0.03265  0.94967  0.05849  1.0000
  H   H413      1.0  0.07243  0.86107  0.02351  1.0000
  C   C490      1.0  0.08160  0.74496  0.02740  1.0000
  C   C491      1.0  0.08200  0.79438  0.01307  1.0000
  H   H414      1.0  0.06204  0.52876  0.07975  1.0000
  C   C492      1.0  0.11159  0.55902  0.06172  1.0000
  C   C493      1.0  0.06192  0.68394  0.08175  1.0000
  H   H415      1.0  0.08065  0.79104  0.12179  1.0000
  C   C494      1.0  0.07200  0.66889  0.01297  1.0000
  H   H416      1.0  0.04180  0.64786  0.04728  1.0000
  C   C495      1.0  0.12424  0.59006  0.08501  1.0000
  H   H417      1.0  0.12865  0.59140  0.09774  1.0000
  H   H418      1.0  0.09097  0.61639  0.13551  1.0000
  C   C496      1.0  0.15567  0.51353  0.03162  1.0000
  C   C497      1.0  0.02727  0.93469  0.00597  1.0000
  H   H419      1.0  0.06846  0.67826  0.09397  1.0000
  H   H420      1.0  0.15832  0.72679  0.10986  1.0000
  H   H421      1.0  0.03138  0.76987  0.10870  1.0000
  H   H422      1.0  0.16107  0.68481  0.13615  1.0000
  C   C498      1.0  0.04453  0.69849  0.05015  1.0000
  H   H423      1.0  0.14651  0.62923  0.13479  1.0000
  H   H424      1.0  0.04640  0.74730  0.05766  1.0000
  C   C499      1.0  0.04727  0.66695  0.05525  1.0000
  C   C500      1.0  0.01253  0.78266  0.13177  1.0000
  C   C501      1.0  0.11802  0.56101  0.07812  1.0000
  C   C502      1.0  0.10386  0.52334  0.16269  1.0000
  H   H425      1.0  0.11981  0.63625  0.05181  1.0000
  C   C503      1.0  0.02379  0.81454  0.04916  1.0000
  H   H426      1.0  0.17422  0.78434  0.12828  1.0000
  H   H427      1.0  0.12286  0.53439  0.15678  1.0000
  C   C504      1.0  0.05038  0.79262  0.00963  1.0000
  H   H428      1.0  0.05768  0.63530  0.07480  1.0000
  S   S74       1.0  0.02168  0.82326  0.13216  1.0000
  H   H429      1.0  0.11756  0.81330  0.14274  1.0000
  H   H430      1.0  0.15542  0.74591  0.08196  1.0000
  H   H431      1.0  0.01502  0.86420  0.02378  1.0000
  C   C505      1.0  0.11274  0.58628  0.05223  1.0000
  H   H432      1.0  0.11845  0.54018  0.08565  1.0000
  H   H433      1.0  0.06374  0.71496  0.13821  1.0000
  C   C506      1.0  0.03440  0.76664  0.01478  1.0000
  C   C507      1.0  0.09761  0.77064  0.02196  1.0000
  H   H434      1.0  0.03864  0.81082  0.00239  1.0000
  C   C508      1.0  0.06072  0.93710  0.05231  1.0000
  C   C509      1.0  0.05546  0.54831  0.03502  1.0000
  H   H435      1.0  0.04363  0.81910  0.04172  1.0000
  H   H436      1.0  0.04999  0.81713  0.07091  1.0000
  H   H437      1.0  0.07045  0.56133  0.15704  1.0000
  H   H438      1.0  0.05190  0.56485  0.04479  1.0000
  C   C510      1.0  0.03908  0.52900  0.00929  1.0000
  H   H439      1.0  0.21139  0.72249  0.17559  1.0000
  H   H440      1.0  0.04979  0.65933  0.13726  1.0000
  H   H441      1.0  0.14221  0.52858  0.02342  1.0000
  C   C511      1.0  0.02204  0.98042  0.05452  1.0000
  H   H442      1.0  0.10897  0.58509  0.03947  1.0000
  H   H443      1.0  0.10123  0.90445  0.01165  1.0000
  H   H444      1.0  0.15821  0.71605  0.16519  1.0000
  H   H445      1.0  0.00542  0.80740  0.08833  1.0000
  H   H446      1.0  0.09422  0.72690  0.03432  1.0000
  C   C512      1.0  0.04987  0.74247  0.02371  1.0000
  C   C513      1.0  0.20337  0.73552  0.16509  1.0000
  C   C514      1.0  0.22288  0.75640  0.15768  1.0000
  C   C515      1.0  0.21228  0.77375  0.14436  1.0000
  C   C516      1.0  0.18228  0.77004  0.13834  1.0000
  C   C517      1.0  0.16287  0.74846  0.14548  1.0000
  C   C518      1.0  0.17335  0.73178  0.15912  1.0000
  P   P19       1.0  0.12347  0.74492  0.13850  1.0000
  C   C519      1.0  0.11344  0.70406  0.13801  1.0000
  C   C520      1.0  0.09968  0.76978  0.15166  1.0000
  C   C521      1.0  0.07996  0.75685  0.16299  1.0000
  C   C522      1.0  0.06125  0.77667  0.17274  1.0000
  C   C523      1.0  0.06267  0.80946  0.17157  1.0000
  C   C524      1.0  0.08327  0.82247  0.16086  1.0000
  C   C525      1.0  0.10193  0.80273  0.15106  1.0000
  C   C526      1.0  0.08207  0.69650  0.13775  1.0000
  C   C527      1.0  0.07407  0.66500  0.13705  1.0000
  C   C528      1.0  0.09729  0.64079  0.13608  1.0000
  C   C529      1.0  0.12860  0.64811  0.13576  1.0000
  C   C530      1.0  0.13670  0.67963  0.13665  1.0000
  C   C531      1.0  0.12020  0.75799  0.11803  1.0000
  C   C532      1.0  0.14074  0.74488  0.10653  1.0000
  C   C533      1.0  0.13911  0.75555  0.09073  1.0000
  C   C534      1.0  0.11692  0.77927  0.08631  1.0000
  C   C535      1.0  0.09598  0.79182  0.09763  1.0000
  C   C536      1.0  0.09735  0.78102  0.11336  1.0000
  C   C537      1.0  0.04965  0.72275  0.06116  1.0000
  C   C538      1.0  0.03549  0.55059  0.02180  1.0000
  C   C539      1.0  0.07821  0.95528  0.04213  1.0000
  P   P20       1.0  0.03016  0.70814  0.03038  1.0000
  H   H447      1.0  0.15012  0.97762  0.16482  1.0000
  C   C540      1.0  0.05859  0.71546  0.07686  1.0000
  S   S75       1.0  0.01081  0.58632  0.13883  1.0000
  C   C541      1.0  0.07601  0.90590  0.01192  1.0000
  C   C542      1.0  0.06757  0.98592  0.03800  1.0000
  H   H448      1.0  0.01692  0.56879  0.02131  1.0000
  C   C543      1.0  0.05607  0.65977  0.07096  1.0000
  C   C544      1.0  0.01198  0.72934  0.12024  1.0000
  H   H449      1.0  0.06250  0.73420  0.08532  1.0000
  C   C545      1.0  0.12663  0.98809  0.16441  1.0000
  C   C546      1.0  0.07948  0.52454  0.03562  1.0000
  C   C547      1.0  0.07507  0.99079  0.15274  1.0000
  C   C548      1.0  0.02597  0.63169  0.00043  1.0000
  H   H450      1.0  0.12231  0.77197  0.02436  1.0000
  C   C549      1.0  0.02746  0.81343  0.06569  1.0000
  C   C550      1.0  0.05974  0.88136  0.01844  1.0000
  C   C551      1.0  0.01073  0.90953  0.01184  1.0000
  H   H451      1.0  0.01519  0.95571  0.00126  1.0000
  C   C552      1.0  0.14384  0.50639  0.04672  1.0000
  H   H452      1.0  0.01692  0.99241  0.12178  1.0000
  H   H453      1.0  0.00967  0.97991  0.17447  1.0000
  H   H454      1.0  0.13723  0.50416  0.11280  1.0000
  H   H455      1.0  0.01024  0.76570  0.01153  1.0000
  C   C553      1.0  0.06203  0.50449  0.01013  1.0000
  C   C554      1.0  0.08017  0.64364  0.00280  1.0000
  C   C555      1.0  0.03971  0.99895  0.04446  1.0000
  S   S76       1.0  0.43831  0.60850  0.46183  1.0000
  H   H456      1.0  0.45123  0.96340  0.51839  1.0000
  C   C556      1.0  0.37742  0.97764  0.36286  1.0000
  S   S77       1.0  0.42334  0.52825  0.43724  1.0000
  Fe  Fe39      1.0  0.46980  0.59252  0.48211  1.0000
  S   S78       1.0  0.46660  0.59575  0.50924  1.0000
  Fe  Fe40      1.0  0.38094  0.65605  0.58638  1.0000
  S   S79       1.0  0.43190  0.65918  0.59139  1.0000
  S   S80       1.0  0.36602  0.64415  0.56093  1.0000
  Fe  Fe41      1.0  0.36233  0.67707  0.62082  1.0000
  S   S81       1.0  0.41289  0.68015  0.62754  1.0000
  S   S82       1.0  0.33288  0.69987  0.64088  1.0000
  Fe  Fe42      1.0  0.41845  0.70414  0.60411  1.0000
  S   S83       1.0  0.44068  0.75114  0.60203  1.0000
  Fe  Fe43      1.0  0.42105  0.63453  0.61429  1.0000
  S   S84       1.0  0.45740  0.59846  0.62370  1.0000
  S   S85       1.0  0.36786  0.70319  0.59771  1.0000
  S   S86       1.0  0.37018  0.62915  0.60898  1.0000
  C   C557      1.0  0.46270  0.97763  0.52718  1.0000
  C   C558      1.0  0.30439  0.81477  0.64929  1.0000
  H   H457      1.0  0.39218  0.52027  0.56176  1.0000
  H   H458      1.0  0.42985  0.87337  0.64717  1.0000
  H   H459      1.0  0.37331  0.56587  0.51155  1.0000
  H   H460      1.0  0.30336  0.80475  0.57396  1.0000
  H   H461      1.0  0.46085  0.53719  0.40859  1.0000
  C   C559      1.0  0.40914  0.58213  0.65924  1.0000
  H   H462      1.0  0.47563  0.68605  0.56912  1.0000
  H   H463      1.0  0.47312  0.83336  0.65039  1.0000
  C   C560      1.0  0.47375  0.71526  0.51618  1.0000
  C   C561      1.0  0.40983  0.53475  0.56675  1.0000
  H   H464      1.0  0.48230  0.76472  0.51295  1.0000
  H   H465      1.0  0.36292  0.77839  0.61341  1.0000
  C   C562      1.0  0.45799  0.55742  0.61968  1.0000
  H   H466      1.0  0.37782  0.55864  0.58300  1.0000
  C   C563      1.0  0.43089  0.54049  0.61895  1.0000
  H   H467      1.0  0.40836  0.55274  0.62021  1.0000
  C   C564      1.0  0.31084  0.80859  0.58614  1.0000
  C   C565      1.0  0.29784  0.69248  0.65108  1.0000
  H   H468      1.0  0.29882  0.77005  0.63730  1.0000
  H   H469      1.0  0.40470  0.81829  0.62919  1.0000
  C   C566      1.0  0.41495  0.82758  0.57715  1.0000
  C   C567      1.0  0.36390  0.91492  0.63432  1.0000
  C   C568      1.0  0.27756  0.66970  0.64603  1.0000
  H   H470      1.0  0.47247  0.58530  0.58605  1.0000
  H   H471      1.0  0.40554  0.80676  0.58241  1.0000
  H   H472      1.0  0.49710  0.85808  0.51287  1.0000
  H   H473      1.0  0.28338  0.65527  0.63573  1.0000
  C   C569      1.0  0.46576  0.68752  0.50834  1.0000
  C   C570      1.0  0.44491  0.95636  0.42359  1.0000
  H   H474      1.0  0.39815  0.55127  0.53698  1.0000
  C   C571      1.0  0.39191  0.74846  0.65790  1.0000
  C   C572      1.0  0.44482  0.88885  0.62406  1.0000
  C   C573      1.0  0.37155  0.79562  0.64418  1.0000
  C   C574      1.0  0.43784  0.61039  0.52291  1.0000
  C   C575      1.0  0.44576  0.61061  0.53915  1.0000
  C   C576      1.0  0.42437  0.62200  0.55067  1.0000
  C   C577      1.0  0.39410  0.63201  0.54629  1.0000
  C   C578      1.0  0.38593  0.63174  0.52998  1.0000
  C   C579      1.0  0.40791  0.62163  0.51828  1.0000
  H   H475      1.0  0.46862  0.60171  0.54286  1.0000
  H   H476      1.0  0.43115  0.62241  0.56303  1.0000
  H   H477      1.0  0.36258  0.63954  0.52639  1.0000
  H   H478      1.0  0.40148  0.62176  0.50579  1.0000
  H   H479      1.0  0.44351  0.99812  0.48923  1.0000
  C   C580      1.0  0.43305  0.50752  0.61650  1.0000
  C   C581      1.0  0.39204  0.98786  0.37674  1.0000
  C   C582      1.0  0.39995  0.98039  0.58436  1.0000
  H   H480      1.0  0.44787  0.77928  0.63492  1.0000
  H   H481      1.0  0.34507  0.76740  0.66030  1.0000
  H   H482      1.0  0.23348  0.64872  0.65005  1.0000
  C   C583      1.0  0.42423  0.57456  0.58556  1.0000
  H   H483      1.0  0.30229  0.85771  0.66346  1.0000
  H   H484      1.0  0.36244  0.70323  0.53604  1.0000
  Fe  Fe44      1.0  0.48112  0.62984  0.45164  1.0000
  C   C584      1.0  0.48141  0.75073  0.60036  1.0000
  C   C585      1.0  0.40164  0.55619  0.57882  1.0000
  C   C586      1.0  0.49885  0.80406  0.55233  1.0000
  C   C587      1.0  0.46196  0.71545  0.48323  1.0000
  C   C588      1.0  0.45988  0.68762  0.49195  1.0000
  C   C589      1.0  0.49612  0.77946  0.60055  1.0000
  Fe  Fe45      1.0  0.45508  0.56370  0.44891  1.0000
  H   H485      1.0  0.39671  0.75108  0.57705  1.0000
  C   C590      1.0  0.43038  0.50516  0.41964  1.0000
  C   C591      1.0  0.40099  0.79911  0.63739  1.0000
  C   C592      1.0  0.45156  0.97980  0.54281  1.0000
  C   C593      1.0  0.39222  0.54793  0.51180  1.0000
  H   H486      1.0  0.43570  0.94109  0.43260  1.0000
  H   H487      1.0  0.48019  0.94879  0.64691  1.0000
  H   H488      1.0  0.39337  0.54250  0.48623  1.0000
  C   C594      1.0  0.48795  0.97157  0.40734  1.0000
  H   H489      1.0  0.34671  0.87991  0.61868  1.0000
  C   C595      1.0  0.35229  0.86192  0.64284  1.0000
  H   H490      1.0  0.39969  0.97053  0.38561  1.0000
  H   H491      1.0  0.48219  0.80136  0.60141  1.0000
  C   C596      1.0  0.49858  0.71246  0.44748  1.0000
  C   C597      1.0  0.30476  0.83635  0.61127  1.0000
  C   C598      1.0  0.36731  0.77044  0.65468  1.0000
  H   H492      1.0  0.48862  0.68939  0.63682  1.0000
  H   H493      1.0  0.49481  0.79350  0.44604  1.0000
  H   H494      1.0  0.24869  0.76022  0.65011  1.0000
  C   C599      1.0  0.49442  0.84417  0.62786  1.0000
  H   H495      1.0  0.46286  0.66601  0.51498  1.0000
  H   H496      1.0  0.40356  0.81474  0.55306  1.0000
  C   C600      1.0  0.24922  0.66612  0.65415  1.0000
  C   C601      1.0  0.35345  0.88496  0.63080  1.0000
  C   C602      1.0  0.41401  0.83205  0.56064  1.0000
  C   C603      1.0  0.46739  0.88526  0.61204  1.0000
  C   C604      1.0  0.49719  0.91280  0.58340  1.0000
  H   H497      1.0  0.43962  0.73395  0.65274  1.0000
  C   C605      1.0  0.34463  0.79411  0.60850  1.0000
  C   C606      1.0  0.48991  0.67095  0.56139  1.0000
  C   C607      1.0  0.44715  0.87033  0.63785  1.0000
  H   H498      1.0  0.41804  0.59080  0.59503  1.0000
  H   H499      1.0  0.48706  0.54919  0.56401  1.0000
  C   C608      1.0  0.47587  0.95171  0.41877  1.0000
  H   H500      1.0  0.34631  0.77087  0.58570  1.0000
  H   H501      1.0  0.35256  0.73064  0.56166  1.0000
  H   H502      1.0  0.46079  0.78386  0.54001  1.0000
  C   C609      1.0  0.48693  0.54113  0.61791  1.0000
  C   C610      1.0  0.44307  0.96118  0.60796  1.0000
  C   C611      1.0  0.43746  0.94085  0.59514  1.0000
  H   H503      1.0  0.47292  0.76432  0.48382  1.0000
  P   P21       1.0  0.46087  0.90435  0.59293  1.0000
  C   C612      1.0  0.32967  0.81783  0.61786  1.0000
  C   C613      1.0  0.44143  0.87657  0.58039  1.0000
  H   H504      1.0  0.37638  0.58223  0.63971  1.0000
  C   C614      1.0  0.47169  0.84777  0.63969  1.0000
  H   H505      1.0  0.35715  0.63746  0.64414  1.0000
  C   C615      1.0  0.42667  0.85873  0.55394  1.0000
  C   C616      1.0  0.44058  0.88077  0.56375  1.0000
  C   C617      1.0  0.37514  0.62696  0.65183  1.0000
  H   H506      1.0  0.49725  0.99160  0.51060  1.0000
  P   P22       1.0  0.47640  0.71587  0.53771  1.0000
  H   H507      1.0  0.42502  0.90541  0.62269  1.0000
  H   H508      1.0  0.47455  0.55207  0.66102  1.0000
  C   C618      1.0  0.42603  0.98092  0.41696  1.0000
  C   C619      1.0  0.28885  0.78728  0.64566  1.0000
  C   C620      1.0  0.44188  0.50276  0.51241  1.0000
  C   C621      1.0  0.41573  0.95073  0.58333  1.0000
  H   H509      1.0  0.43107  0.96765  0.54618  1.0000
  H   H510      1.0  0.48807  0.70013  0.59885  1.0000
  H   H511      1.0  0.41540  0.69599  0.52571  1.0000
  H   H512      1.0  0.49044  0.53979  0.52410  1.0000
  C   C622      1.0  0.49447  0.67948  0.54543  1.0000
  H   H513      1.0  0.46040  0.95459  0.61697  1.0000
  H   H514      1.0  0.46547  0.74719  0.43758  1.0000
  C   C623      1.0  0.49246  0.86304  0.61416  1.0000
  C   C624      1.0  0.44047  0.53247  0.56096  1.0000
  C   C625      1.0  0.37373  0.92192  0.64977  1.0000
  H   H515      1.0  0.42596  0.86220  0.54113  1.0000
  H   H516      1.0  0.45083  0.90103  0.55837  1.0000
  C   C626      1.0  0.47651  0.74297  0.50724  1.0000
  H   H517      1.0  0.45616  0.71571  0.47066  1.0000
  C   C627      1.0  0.38585  0.59571  0.64939  1.0000
  H   H518      1.0  0.42883  0.84539  0.59972  1.0000
  C   C628      1.0  0.36260  0.86905  0.65828  1.0000
  H   H519      1.0  0.36482  0.93266  0.62503  1.0000
  C   C629      1.0  0.48916  0.50831  0.61582  1.0000
  P   P23       1.0  0.45061  0.50485  0.54528  1.0000
  C   C630      1.0  0.24737  0.80312  0.66388  1.0000
  C   C631      1.0  0.29559  0.83193  0.59543  1.0000
  C   C632      1.0  0.42839  0.84976  0.58700  1.0000
  P   P24       1.0  0.33963  0.82278  0.63863  1.0000
  C   C633      1.0  0.47093  0.74295  0.49077  1.0000
  C   C634      1.0  0.40347  0.53478  0.49755  1.0000
  H   H520      1.0  0.41792  0.55814  0.65701  1.0000
  H   H521      1.0  0.45021  0.74365  0.56722  1.0000
  H   H522      1.0  0.29220  0.85394  0.61849  1.0000
  C   C635      1.0  0.47636  0.97924  0.47188  1.0000
  H   H523      1.0  0.37407  0.95270  0.36112  1.0000
  H   H524      1.0  0.45308  0.66624  0.48606  1.0000
  H   H525      1.0  0.48771  0.82752  0.55263  1.0000
  H   H526      1.0  0.27625  0.84621  0.59047  1.0000
  S   S87       1.0  0.48534  0.94396  0.48248  1.0000
  C   C636      1.0  0.46316  0.55078  0.56799  1.0000
  C   C637      1.0  0.43713  0.72016  0.54538  1.0000
  S   S88       1.0  0.49533  0.58631  0.43721  1.0000
  H   H527      1.0  0.41117  0.93594  0.57320  1.0000
  S   S89       1.0  0.47617  0.68016  0.44174  1.0000
  C   C638      1.0  0.46531  0.96653  0.65280  1.0000
  C   C639      1.0  0.42554  0.77710  0.64065  1.0000
  C   C640      1.0  0.26042  0.78160  0.65288  1.0000
  C   C641      1.0  0.43130  0.73541  0.56001  1.0000
  C   C642      1.0  0.40086  0.73978  0.56566  1.0000
  C   C643      1.0  0.37601  0.72850  0.55696  1.0000
  C   C644      1.0  0.38158  0.71310  0.54248  1.0000
  C   C645      1.0  0.41195  0.70880  0.53673  1.0000
  C   C646      1.0  0.45504  0.57148  0.58039  1.0000
  C   C647      1.0  0.40634  0.53924  0.52633  1.0000
  C   C648      1.0  0.33520  0.78963  0.59271  1.0000
  C   C649      1.0  0.42091  0.75157  0.65074  1.0000
  H   H528      1.0  0.38240  0.94491  0.65246  1.0000
  H   H529      1.0  0.49549  0.96271  0.58950  1.0000
  S   S90       1.0  0.48271  0.54595  0.47032  1.0000
  H   H530      1.0  0.40197  0.98375  0.42068  1.0000
  C   C650      1.0  0.49612  0.56109  0.66533  1.0000
  C   C651      1.0  0.44940  0.51520  0.40734  1.0000
  C   C652      1.0  0.49232  0.50360  0.54241  1.0000
  C   C653      1.0  0.38770  0.64480  0.66406  1.0000
  H   H531      1.0  0.46583  0.50653  0.38334  1.0000
  C   C654      1.0  0.48378  0.77928  0.54511  1.0000
  C   C655      1.0  0.40563  0.00036  0.59718  1.0000
  C   C656      1.0  0.46942  0.99661  0.40095  1.0000
  C   C657      1.0  0.49084  0.98465  0.45732  1.0000
  C   C658      1.0  0.29103  0.83638  0.66032  1.0000
  C   C659      1.0  0.43129  0.51643  0.52676  1.0000
  C   C660      1.0  0.48736  0.74349  0.44391  1.0000
  C   C661      1.0  0.28983  0.71098  0.66452  1.0000
  H   H532      1.0  0.49957  0.81530  0.49267  1.0000
  C   C662      1.0  0.42692  0.99063  0.60904  1.0000
  H   H533      1.0  0.49067  0.93287  0.42396  1.0000
  C   C663      1.0  0.49776  0.74855  0.54510  1.0000
  H   H534      1.0  0.37972  0.66935  0.66527  1.0000
  H   H535      1.0  0.38367  0.98823  0.57509  1.0000
  C   C664      1.0  0.48874  0.99395  0.52274  1.0000
  C   C665      1.0  0.49929  0.72238  0.59894  1.0000
  C   C666      1.0  0.42834  0.51228  0.49787  1.0000
  H   H536      1.0  0.49925  0.63601  0.57968  1.0000
  C   C667      1.0  0.46455  0.99804  0.64735  1.0000
  H   H537      1.0  0.38804  0.72869  0.66569  1.0000
  C   C668      1.0  0.46678  0.99791  0.55406  1.0000
  C   C669      1.0  0.37299  0.89902  0.66173  1.0000
  C   C670      1.0  0.43832  0.00169  0.40580  1.0000
  H   H538      1.0  0.43746  0.50279  0.48679  1.0000
  H   H539      1.0  0.35538  0.99159  0.34063  1.0000
  H   H540      1.0  0.45805  0.00002  0.56615  1.0000
  C   C671      1.0  0.44711  0.95780  0.66583  1.0000
  C   C672      1.0  0.36689  0.99954  0.35131  1.0000
  Fe  Fe46      1.0  0.17107  0.71393  0.73236  1.0000
  S   S91       1.0  0.14982  0.76341  0.73146  1.0000
  S   S92       1.0  0.18368  0.69346  0.75665  1.0000
  Fe  Fe47      1.0  0.18868  0.77397  0.71493  1.0000
  S   S93       1.0  0.21372  0.81933  0.71800  1.0000
  S   S94       1.0  0.21230  0.72599  0.71764  1.0000
  Fe  Fe48      1.0  0.42329  0.86676  0.72780  1.0000
  S   S95       1.0  0.42169  0.81547  0.72149  1.0000
  S   S96       1.0  0.42515  0.88110  0.75402  1.0000
  Fe  Fe49      1.0  0.43265  0.88760  0.69272  1.0000
  S   S97       1.0  0.43073  0.83733  0.68440  1.0000
  S   S98       1.0  0.44944  0.91772  0.67211  1.0000
  Fe  Fe50      1.0  0.39104  0.83349  0.70137  1.0000
  S   S99       1.0  0.35252  0.80337  0.69314  1.0000
  Fe  Fe51      1.0  0.46139  0.82392  0.70514  1.0000
  H   H541      1.0  0.38109  0.90436  0.67363  1.0000
  S   S100      1.0  0.38995  0.88482  0.70840  1.0000
  S   S101      1.0  0.46564  0.87413  0.71270  1.0000
  Fe  Fe52      1.0  0.17063  0.83968  0.94966  1.0000
  S   S102      1.0  0.12011  0.82882  0.94649  1.0000
  S   S103      1.0  0.19698  0.82563  0.92661  1.0000
  H   H542      1.0  0.11275  0.83584  0.77593  1.0000
  Fe  Fe53      1.0  0.12251  0.80779  0.97086  1.0000
  S   S104      1.0  0.10357  0.75986  0.97598  1.0000
  Fe  Fe54      1.0  0.10834  0.87481  0.95848  1.0000
  S   S105      1.0  0.06787  0.90537  0.94917  1.0000
  S   S106      1.0  0.15813  0.88785  0.96009  1.0000
  Fe  Fe55      1.0  0.36340  0.80198  0.83514  1.0000
  S   S107      1.0  0.39190  0.75667  0.83867  1.0000
  S   S108      1.0  0.34999  0.81747  0.80982  1.0000
  Fe  Fe56      1.0  0.35123  0.80931  0.87165  1.0000
  S   S109      1.0  0.38086  0.76511  0.87722  1.0000
  S   S110      1.0  0.32917  0.83814  0.89231  1.0000
  Fe  Fe57      1.0  0.41483  0.78187  0.85893  1.0000
  S   S111      1.0  0.46748  0.78896  0.85827  1.0000
  Fe  Fe58      1.0  0.35516  0.74440  0.85646  1.0000
  S   S112      1.0  0.33428  0.69598  0.85785  1.0000
  S   S113      1.0  0.38696  0.82788  0.85476  1.0000
  S   S114      1.0  0.32504  0.78814  0.85157  1.0000
  Fe  Fe59      1.0  0.08351  0.64795  0.85035  1.0000
  S   S115      1.0  0.08692  0.59578  0.84542  1.0000
  S   S116      1.0  0.03616  0.67249  0.85435  1.0000
  Fe  Fe60      1.0  0.15435  0.65339  0.84798  1.0000
  S   S117      1.0  0.16323  0.60167  0.84314  1.0000
  S   S118      1.0  0.18747  0.69307  0.84781  1.0000
  Fe  Fe61      1.0  0.12176  0.60837  0.82667  1.0000
  S   S119      1.0  0.11968  0.59377  0.80076  1.0000
  Fe  Fe62      1.0  0.12758  0.59376  0.86254  1.0000
  S   S120      1.0  0.13617  0.56363  0.88518  1.0000
  S   S121      1.0  0.11491  0.66047  0.83049  1.0000
  S   S122      1.0  0.12200  0.64569  0.86834  1.0000
  C   C673      1.0  0.03364  0.71397  0.85257  1.0000
  C   C674      1.0  0.06037  0.73138  0.85223  1.0000
  C   C675      1.0  0.05759  0.76461  0.85219  1.0000
  C   C676      1.0  0.02261  0.58829  0.94232  1.0000
  H   H543      1.0  0.05992  0.81033  0.73435  1.0000
  C   C677      1.0  0.09616  0.51363  0.88417  1.0000
  H   H544      1.0  0.08315  0.71923  0.85228  1.0000
  H   H545      1.0  0.07835  0.77793  0.85208  1.0000
  H   H546      1.0  0.35036  0.71810  0.80467  1.0000
  C   C678      1.0  0.46558  0.89754  0.85910  1.0000
  C   C679      1.0  0.03796  0.76271  0.71031  1.0000
  H   H547      1.0  0.05620  0.53213  0.91802  1.0000
  C   C680      1.0  0.29332  0.69396  0.85544  1.0000
  C   C681      1.0  0.27469  0.72150  0.85316  1.0000
  C   C682      1.0  0.24274  0.72022  0.85036  1.0000
  C   C683      1.0  0.22825  0.69153  0.85069  1.0000
  C   C684      1.0  0.24645  0.66357  0.85330  1.0000
  C   C685      1.0  0.27904  0.66480  0.85557  1.0000
  H   H548      1.0  0.28474  0.74399  0.85340  1.0000
  H   H549      1.0  0.22911  0.74181  0.84799  1.0000
  H   H550      1.0  0.23555  0.64115  0.85347  1.0000
  H   H551      1.0  0.29312  0.64320  0.85743  1.0000
  C   C686      1.0  0.01039  0.86704  0.89796  1.0000
  H   H552      1.0  0.10024  0.83113  0.71712  1.0000
  C   C687      1.0  0.06458  0.94294  0.95798  1.0000
  C   C688      1.0  0.08759  0.95297  0.96837  1.0000
  H   H553      1.0  0.02324  0.58633  0.96797  1.0000
  C   C689      1.0  0.03878  0.96328  0.95438  1.0000
  H   H554      1.0  0.10763  0.93742  0.97117  1.0000
  H   H555      1.0  0.23183  0.58241  0.88609  1.0000
  H   H556      1.0  0.02141  0.95586  0.94604  1.0000
  C   C690      1.0  0.23370  0.83086  0.91730  1.0000
  C   C691      1.0  0.23834  0.81913  0.90174  1.0000
  C   C692      1.0  0.26735  0.82070  0.89399  1.0000
  C   C693      1.0  0.29210  0.83486  0.90161  1.0000
  C   C694      1.0  0.28716  0.84759  0.91699  1.0000
  C   C695      1.0  0.25827  0.84541  0.92486  1.0000
  H   H557      1.0  0.21931  0.80847  0.89576  1.0000
  H   H558      1.0  0.27053  0.81100  0.88214  1.0000
  H   H559      1.0  0.30596  0.85888  0.92297  1.0000
  H   H560      1.0  0.25512  0.85476  0.93678  1.0000
  C   C696      1.0  0.34331  0.65904  0.74315  1.0000
  H   H561      1.0  0.24671  0.77032  0.70012  1.0000
  H   H562      1.0  0.04974  0.71641  0.71975  1.0000
  C   C697      1.0  0.04330  0.78268  0.97069  1.0000
  C   C698      1.0  0.06286  0.75672  0.97501  1.0000
  C   C699      1.0  0.04975  0.72812  0.97907  1.0000
  H   H563      1.0  0.46567  0.95544  0.73860  1.0000
  H   H564      1.0  0.06480  0.70799  0.98249  1.0000
  C   C700      1.0  0.49846  0.84528  0.75888  1.0000
  C   C701      1.0  0.40617  0.86013  0.76920  1.0000
  C   C702      1.0  0.37965  0.84343  0.76592  1.0000
  C   C703      1.0  0.36332  0.82967  0.77846  1.0000
  C   C704      1.0  0.37364  0.83181  0.79437  1.0000
  C   C705      1.0  0.40094  0.84731  0.79757  1.0000
  C   C706      1.0  0.41693  0.86166  0.78506  1.0000
  H   H565      1.0  0.37103  0.84222  0.75380  1.0000
  H   H566      1.0  0.34222  0.81785  0.77584  1.0000
  H   H567      1.0  0.40903  0.84924  0.80975  1.0000
  H   H568      1.0  0.43746  0.87443  0.78770  1.0000
  H   H569      1.0  0.09314  0.89309  0.91745  1.0000
  C   C707      1.0  0.23158  0.63796  0.71677  1.0000
  H   H570      1.0  0.15285  0.85655  0.75839  1.0000
  C   C708      1.0  0.46450  0.80197  0.81493  1.0000
  C   C709      1.0  0.48670  0.71621  0.67788  1.0000
  C   C710      1.0  0.16486  0.66538  0.76821  1.0000
  C   C711      1.0  0.17133  0.66431  0.78459  1.0000
  C   C712      1.0  0.15766  0.64236  0.79450  1.0000
  C   C713      1.0  0.13743  0.62089  0.78811  1.0000
  C   C714      1.0  0.13114  0.62150  0.77161  1.0000
  C   C715      1.0  0.14469  0.64389  0.76166  1.0000
  H   H571      1.0  0.18692  0.68073  0.78970  1.0000
  H   H572      1.0  0.16323  0.64179  0.80709  1.0000
  H   H573      1.0  0.11561  0.60484  0.76657  1.0000
  H   H574      1.0  0.13982  0.64431  0.74899  1.0000
  C   C716      1.0  0.25207  0.81594  0.71067  1.0000
  C   C717      1.0  0.27260  0.84017  0.71326  1.0000
  C   C718      1.0  0.30378  0.83659  0.70816  1.0000
  C   C719      1.0  0.31410  0.80915  0.70006  1.0000
  C   C720      1.0  0.29329  0.78548  0.69713  1.0000
  C   C721      1.0  0.26252  0.78869  0.70256  1.0000
  H   H575      1.0  0.26454  0.86141  0.71944  1.0000
  H   H576      1.0  0.31967  0.85511  0.71031  1.0000
  H   H577      1.0  0.30094  0.76458  0.69057  1.0000
  H   H578      1.0  0.43920  0.69134  0.76566  1.0000
  C   C722      1.0  0.45889  0.70237  0.68179  1.0000
  C   C723      1.0  0.45888  0.67004  0.68547  1.0000
  H   H579      1.0  0.03912  0.59371  0.87514  1.0000
  C   C724      1.0  0.47203  0.78821  0.80020  1.0000
  P   P25       1.0  0.47824  0.89593  0.87979  1.0000
  H   H580      1.0  0.45474  0.95877  0.86891  1.0000
  C   C725      1.0  0.02815  0.72982  0.93058  1.0000
  C   C726      1.0  0.05524  0.77919  0.90920  1.0000
  C   C727      1.0  0.08287  0.78135  0.91809  1.0000
  C   C728      1.0  0.10918  0.79367  0.91111  1.0000
  C   C729      1.0  0.10770  0.80542  0.89559  1.0000
  C   C730      1.0  0.08017  0.80410  0.88682  1.0000
  C   C731      1.0  0.05419  0.79060  0.89347  1.0000
  C   C732      1.0  0.30825  0.73509  0.81623  1.0000
  C   C733      1.0  0.15543  0.74130  0.79898  1.0000
  H   H581      1.0  0.13540  0.72680  0.79855  1.0000
  C   C734      1.0  0.06216  0.68542  0.93945  1.0000
  C   C735      1.0  0.05734  0.71319  0.93054  1.0000
  C   C736      1.0  0.24079  0.68531  0.66732  1.0000
  H   H582      1.0  0.43199  0.64072  0.82556  1.0000
  H   H583      1.0  0.48625  0.71794  0.77354  1.0000
  H   H584      1.0  0.40001  0.89372  0.83608  1.0000
  C   C737      1.0  0.04245  0.99082  0.84822  1.0000
  H   H585      1.0  0.45967  0.76789  0.79645  1.0000
  C   C738      1.0  0.03112  0.73393  0.71729  1.0000
  C   C739      1.0  0.02480  0.96613  0.85348  1.0000
  C   C740      1.0  0.10921  0.89563  0.90766  1.0000
  C   C741      1.0  0.26267  0.83049  0.66759  1.0000
  Fe  Fe63      1.0  0.12446  0.74768  0.70957  1.0000
  H   H586      1.0  0.08397  0.77402  0.93049  1.0000
  H   H587      1.0  0.13068  0.79489  0.91780  1.0000
  H   H588      1.0  0.12793  0.81560  0.89039  1.0000
  H   H589      1.0  0.07891  0.81367  0.87485  1.0000
  H   H590      1.0  0.03319  0.78975  0.88637  1.0000
  S   S123      1.0  0.02535  0.82210  0.85447  1.0000
  H   H591      1.0  0.08489  0.67315  0.93962  1.0000
  H   H592      1.0  0.07637  0.72099  0.92346  1.0000
  C   C742      1.0  0.41253  0.59975  0.71062  1.0000
  C   C743      1.0  0.12412  0.52056  0.90885  1.0000
  C   C744      1.0  0.03219  0.95082  0.86790  1.0000
  C   C745      1.0  0.41178  0.89006  0.91460  1.0000
  C   C746      1.0  0.19494  0.76697  0.81412  1.0000
  C   C747      1.0  0.20809  0.77795  0.79994  1.0000
  P   P26       1.0  0.24210  0.80145  0.80091  1.0000
  C   C748      1.0  0.24627  0.82975  0.78494  1.0000
  C   C749      1.0  0.23984  0.82479  0.81897  1.0000
  C   C750      1.0  0.21104  0.83831  0.82407  1.0000
  C   C751      1.0  0.20892  0.85505  0.83846  1.0000
  C   C752      1.0  0.23564  0.85895  0.84767  1.0000
  C   C753      1.0  0.26453  0.84661  0.84236  1.0000
  C   C754      1.0  0.26668  0.82974  0.82803  1.0000
  C   C755      1.0  0.27441  0.84501  0.78360  1.0000
  C   C756      1.0  0.27951  0.86495  0.77069  1.0000
  C   C757      1.0  0.25631  0.87032  0.75913  1.0000
  C   C758      1.0  0.22773  0.85641  0.76072  1.0000
  C   C759      1.0  0.22239  0.83680  0.77377  1.0000
  C   C760      1.0  0.27586  0.77410  0.80166  1.0000
  H   H593      1.0  0.31696  0.70041  0.69897  1.0000
  H   H594      1.0  0.27055  0.60855  0.90300  1.0000
  C   C761      1.0  0.32342  0.75102  0.78987  1.0000
  C   C762      1.0  0.29660  0.77108  0.78879  1.0000
  H   H595      1.0  0.20512  0.77197  0.82562  1.0000
  H   H596      1.0  0.19017  0.83559  0.81702  1.0000
  H   H597      1.0  0.18657  0.86498  0.84246  1.0000
  H   H598      1.0  0.23413  0.87170  0.85888  1.0000
  H   H599      1.0  0.28534  0.85001  0.84940  1.0000
  H   H600      1.0  0.28929  0.82047  0.82408  1.0000
  H   H601      1.0  0.29284  0.84080  0.79235  1.0000
  H   H602      1.0  0.30168  0.87584  0.76954  1.0000
  H   H603      1.0  0.26049  0.88520  0.74891  1.0000
  H   H604      1.0  0.20991  0.86046  0.75163  1.0000
  H   H605      1.0  0.19975  0.82721  0.77494  1.0000
  H   H606      1.0  0.34014  0.75014  0.78026  1.0000
  H   H607      1.0  0.29256  0.78463  0.77804  1.0000
  H   H608      1.0  0.00927  0.84439  0.89209  1.0000
  H   H609      1.0  0.47615  0.70133  0.73154  1.0000
  H   H610      1.0  0.26419  0.61304  0.80242  1.0000
  H   H611      1.0  0.21765  0.62863  0.70721  1.0000
  H   H612      1.0  0.44915  0.56682  0.74320  1.0000
  C   C763      1.0  0.09376  0.97211  0.92215  1.0000
  C   C764      1.0  0.02948  0.65271  0.81166  1.0000
  H   H613      1.0  0.05271  0.87799  0.88629  1.0000
  C   C765      1.0  0.03073  0.57261  0.92808  1.0000
  C   C766      1.0  0.24485  0.69170  0.80094  1.0000
  H   H614      1.0  0.44252  0.83892  0.87909  1.0000
  C   C767      1.0  0.11713  0.53061  0.89313  1.0000
  C   C768      1.0  0.25718  0.77393  0.74777  1.0000
  H   H615      1.0  0.41418  0.97463  0.68352  1.0000
  H   H616      1.0  0.01160  0.70455  0.90201  1.0000
  C   C769      1.0  0.13713  0.87730  0.90758  1.0000
  C   C770      1.0  0.31456  0.73998  0.74965  1.0000
  C   C771      1.0  0.47935  0.65537  0.82503  1.0000
  H   H617      1.0  0.39263  0.59632  0.70295  1.0000
  H   H618      1.0  0.04385  0.64740  0.82207  1.0000
  H   H619      1.0  0.05873  0.62415  0.79594  1.0000
  H   H620      1.0  0.00802  0.61727  0.99562  1.0000
  H   H621      1.0  0.10982  0.95174  0.92328  1.0000
  C   C772      1.0  0.12358  0.92006  0.88280  1.0000
  C   C773      1.0  0.00601  0.83567  0.75180  1.0000
  C   C774      1.0  0.01343  0.78523  0.70720  1.0000
  H   H622      1.0  0.06092  0.70546  0.80011  1.0000
  C   C775      1.0  0.02812  0.78054  0.85267  1.0000
  C   C776      1.0  0.03576  0.99346  0.96126  1.0000
  H   H623      1.0  0.44580  0.92281  0.90821  1.0000
  C   C777      1.0  0.41689  0.76616  0.75431  1.0000
  C   C778      1.0  0.41521  0.73368  0.75675  1.0000
  C   C779      1.0  0.32797  0.66754  0.75740  1.0000
  C   C780      1.0  0.43414  0.89413  0.85502  1.0000
  C   C781      1.0  0.44048  0.71639  0.76354  1.0000
  C   C782      1.0  0.00238  0.84689  0.94324  1.0000
  H   H624      1.0  0.04232  0.82364  0.93257  1.0000
  H   H625      1.0  0.39708  0.77985  0.74943  1.0000
  H   H626      1.0  0.39428  0.72201  0.75353  1.0000
  C   C783      1.0  0.44844  0.65679  0.83034  1.0000
  C   C784      1.0  0.47165  0.96180  0.87834  1.0000
  C   C785      1.0  0.08539  0.70059  0.77783  1.0000
  C   C786      1.0  0.49497  0.80082  0.79051  1.0000
  C   C787      1.0  0.49430  0.71233  0.72501  1.0000
  H   H627      1.0  0.33458  0.78411  0.74353  1.0000
  C   C788      1.0  0.39860  0.86142  0.91110  1.0000
  C   C789      1.0  0.26235  0.63696  0.79782  1.0000
  C   C790      1.0  0.48859  0.74269  0.71850  1.0000
  C   C791      1.0  0.42108  0.59958  0.67183  1.0000
  C   C792      1.0  0.49758  0.95650  0.70157  1.0000
  C   C793      1.0  0.05301  0.61824  0.90567  1.0000
  H   H628      1.0  0.48743  0.62650  0.68697  1.0000
  H   H629      1.0  0.25540  0.72242  0.68268  1.0000
  C   C794      1.0  0.28697  0.72461  0.75270  1.0000
  S   S124      1.0  0.14320  0.69689  0.71156  1.0000
  C   C795      1.0  0.41877  0.57886  0.72331  1.0000
  H   H630      1.0  0.09084  0.52071  0.87202  1.0000
  C   C796      1.0  0.04739  0.64575  0.89654  1.0000
  C   C797      1.0  0.06977  0.66848  0.89583  1.0000
  C   C798      1.0  0.09825  0.66333  0.90378  1.0000
  C   C799      1.0  0.10494  0.63493  0.91181  1.0000
  C   C800      1.0  0.08242  0.61245  0.91278  1.0000
  H   H631      1.0  0.38652  0.64330  0.73225  1.0000
  H   H632      1.0  0.33414  0.67446  0.78283  1.0000
  C   C801      1.0  0.24763  0.66094  0.80690  1.0000
  C   C802      1.0  0.27126  0.67260  0.72554  1.0000
  P   P27       1.0  0.42358  0.65215  0.69170  1.0000
  P   P28       1.0  0.02056  0.76460  0.91824  1.0000
  C   C803      1.0  0.01235  0.92656  0.91225  1.0000
  H   H633      1.0  0.43898  0.58869  0.67942  1.0000
  H   H634      1.0  0.28560  0.62491  0.77587  1.0000
  C   C804      1.0  0.36299  0.67824  0.69667  1.0000
  H   H635      1.0  0.28741  0.69042  0.72263  1.0000
  H   H636      1.0  0.02568  0.64977  0.89006  1.0000
  H   H637      1.0  0.06532  0.68967  0.88872  1.0000
  H   H638      1.0  0.11566  0.68068  0.90316  1.0000
  H   H639      1.0  0.12774  0.63006  0.91708  1.0000
  H   H640      1.0  0.08819  0.59052  0.91900  1.0000
  C   C805      1.0  0.25642  0.69856  0.78581  1.0000
  C   C806      1.0  0.26611  0.66443  0.74153  1.0000
  C   C807      1.0  0.03787  0.63955  0.79693  1.0000
  H   H641      1.0  0.39950  0.82099  0.89565  1.0000
  H   H642      1.0  0.14054  0.53326  0.91586  1.0000
  C   C808      1.0  0.20252  0.62469  0.88310  1.0000
  C   C809      1.0  0.24574  0.65407  0.90225  1.0000
  C   C810      1.0  0.21986  0.67192  0.89614  1.0000
  C   C811      1.0  0.19826  0.65690  0.88658  1.0000
  P   P29       1.0  0.21187  0.71207  0.90284  1.0000
  C   C812      1.0  0.18721  0.71111  0.92024  1.0000
  C   C813      1.0  0.24863  0.72945  0.90691  1.0000
  C   C814      1.0  0.25285  0.74851  0.92037  1.0000
  C   C815      1.0  0.28136  0.76225  0.92294  1.0000
  C   C816      1.0  0.30574  0.75721  0.91209  1.0000
  C   C817      1.0  0.30178  0.73804  0.89877  1.0000
  C   C818      1.0  0.27342  0.72416  0.89623  1.0000
  C   C819      1.0  0.17339  0.73933  0.92627  1.0000
  C   C820      1.0  0.15338  0.73880  0.93937  1.0000
  C   C821      1.0  0.14659  0.71008  0.94638  1.0000
  C   C822      1.0  0.16000  0.68182  0.94037  1.0000
  C   C823      1.0  0.18030  0.68227  0.92738  1.0000
  C   C824      1.0  0.19077  0.73542  0.88779  1.0000
  C   C825      1.0  0.15874  0.73203  0.88559  1.0000
  C   C826      1.0  0.14207  0.74974  0.87403  1.0000
  C   C827      1.0  0.15706  0.77179  0.86483  1.0000
  C   C828      1.0  0.18874  0.77607  0.86722  1.0000
  C   C829      1.0  0.20563  0.75769  0.87851  1.0000
  H   H643      1.0  0.18554  0.61307  0.87593  1.0000
  H   H644      1.0  0.26228  0.66474  0.91009  1.0000
  H   H645      1.0  0.17810  0.66993  0.88181  1.0000
  H   H646      1.0  0.23418  0.75351  0.92873  1.0000
  H   H647      1.0  0.28418  0.77772  0.93307  1.0000
  H   H648      1.0  0.32742  0.76875  0.91381  1.0000
  H   H649      1.0  0.32052  0.73420  0.89025  1.0000
  H   H650      1.0  0.27066  0.70950  0.88581  1.0000
  H   H651      1.0  0.17839  0.76175  0.92089  1.0000
  H   H652      1.0  0.14336  0.76069  0.94425  1.0000
  H   H653      1.0  0.13115  0.70983  0.95656  1.0000
  H   H654      1.0  0.15488  0.65957  0.94587  1.0000
  H   H655      1.0  0.19040  0.66004  0.92299  1.0000
  H   H656      1.0  0.14676  0.71536  0.89268  1.0000
  H   H657      1.0  0.11753  0.74627  0.87220  1.0000
  H   H658      1.0  0.14417  0.78530  0.85578  1.0000
  H   H659      1.0  0.20055  0.79299  0.86006  1.0000
  H   H660      1.0  0.23030  0.76086  0.87979  1.0000
  C   C830      1.0  0.35141  0.72704  0.71095  1.0000
  C   C831      1.0  0.38299  0.72906  0.71455  1.0000
  C   C832      1.0  0.40469  0.70597  0.70899  1.0000
  C   C833      1.0  0.39504  0.68114  0.69935  1.0000
  H   H661      1.0  0.49510  0.89288  0.74990  1.0000
  C   C834      1.0  0.42416  0.89712  0.83915  1.0000
  H   H662      1.0  0.35446  0.65845  0.69012  1.0000
  C   C835      1.0  0.44412  0.78121  0.75822  1.0000
  H   H663      1.0  0.23668  0.73009  0.75304  1.0000
  C   C836      1.0  0.22570  0.63022  0.73264  1.0000
  H   H664      1.0  0.46600  0.75485  0.71982  1.0000
  H   H665      1.0  0.33479  0.74557  0.71476  1.0000
  H   H666      1.0  0.39074  0.74921  0.72113  1.0000
  H   H667      1.0  0.42910  0.70807  0.71180  1.0000
  S   S125      1.0  0.17365  0.81552  0.97375  1.0000
  H   H668      1.0  0.04272  0.76068  0.79517  1.0000
  C   C837      1.0  0.15150  0.90144  0.88273  1.0000
  C   C838      1.0  0.15835  0.88019  0.89518  1.0000
  H   H669      1.0  0.14710  0.85372  0.72896  1.0000
  H   H670      1.0  0.09405  0.99311  0.87901  1.0000
  C   C839      1.0  0.03601  0.91627  0.90171  1.0000
  Fe  Fe64      1.0  0.18371  0.71222  0.69661  1.0000
  H   H671      1.0  0.20701  0.77371  0.77412  1.0000
  H   H672      1.0  0.48660  0.63776  0.81628  1.0000
  H   H673      1.0  0.18014  0.86604  0.89535  1.0000
  C   C840      1.0  0.44409  0.58317  0.73347  1.0000
  C   C841      1.0  0.46979  0.76388  0.76478  1.0000
  C   C842      1.0  0.25456  0.65892  0.71322  1.0000
  H   H674      1.0  0.06964  0.50778  0.94395  1.0000
  H   H675      1.0  0.37912  0.85365  0.91801  1.0000
  C   C843      1.0  0.01940  0.64633  0.78350  1.0000
  C   C844      1.0  0.03765  0.67325  0.94794  1.0000
  C   C845      1.0  0.48340  0.95639  0.72947  1.0000
  H   H676      1.0  0.47137  0.64931  0.71685  1.0000
  H   H677      1.0  0.01411  0.50286  0.85836  1.0000
  C   C846      1.0  0.04788  0.54574  0.95770  1.0000
  H   H678      1.0  0.23490  0.78694  0.74666  1.0000
  S   S126      1.0  0.10626  0.85304  0.98271  1.0000
  H   H679      1.0  0.28378  0.81417  0.74242  1.0000
  H   H680      1.0  0.00737  0.70334  0.98179  1.0000
  P   P30       1.0  0.02238  0.59146  0.90909  1.0000
  H   H681      1.0  0.48159  0.85047  0.76818  1.0000
  H   H682      1.0  0.23688  0.63778  0.75713  1.0000
  H   H683      1.0  0.45278  0.71582  0.85764  1.0000
  C   C847      1.0  0.42821  0.98097  0.67345  1.0000
  C   C848      1.0  0.41004  0.84299  0.89842  1.0000
  C   C849      1.0  0.31338  0.77221  0.74594  1.0000
  C   C850      1.0  0.07023  0.83163  0.81554  1.0000
  C   C851      1.0  0.04876  0.85717  0.81767  1.0000
  C   C852      1.0  0.03005  0.86794  0.80492  1.0000
  C   C853      1.0  0.03211  0.85260  0.79016  1.0000
  C   C854      1.0  0.05273  0.82610  0.78806  1.0000
  C   C855      1.0  0.07266  0.81651  0.80073  1.0000
  P   P31       1.0  0.05436  0.80516  0.76920  1.0000
  C   C856      1.0  0.06590  0.76397  0.77239  1.0000
  C   C857      1.0  0.00425  0.72988  0.85207  1.0000
  C   C858      1.0  0.46743  0.73149  0.76777  1.0000
  C   C859      1.0  0.48690  0.65155  0.68445  1.0000
  C   C860      1.0  0.06712  0.71703  0.78914  1.0000
  H   H684      1.0  0.44492  0.80645  0.75633  1.0000
  H   H685      1.0  0.00797  0.79600  0.81958  1.0000
  C   C861      1.0  0.08365  0.74704  0.76092  1.0000
  C   C862      1.0  0.43876  0.67878  0.84197  1.0000
  C   C863      1.0  0.05669  0.53038  0.94356  1.0000
  C   C864      1.0  0.44516  0.90465  0.82726  1.0000
  C   C865      1.0  0.01636  0.80781  0.75973  1.0000
  C   C866      1.0  0.08282  0.82233  0.75650  1.0000
  C   C867      1.0  0.10939  0.83523  0.76314  1.0000
  C   C868      1.0  0.13228  0.84691  0.75325  1.0000
  C   C869      1.0  0.12893  0.84560  0.73667  1.0000
  C   C870      1.0  0.10251  0.83291  0.72998  1.0000
  C   C871      1.0  0.07961  0.82117  0.73983  1.0000
  H   H686      1.0  0.08452  0.82321  0.82550  1.0000
  H   H687      1.0  0.04629  0.86833  0.82927  1.0000
  H   H688      1.0  0.02606  0.63615  0.77207  1.0000
  C   C872      1.0  0.26145  0.70757  0.67256  1.0000
  H   H689      1.0  0.08966  0.79695  0.79930  1.0000
  C   C873      1.0  0.49904  0.99690  0.89565  1.0000
  H   H690      1.0  0.06357  0.60538  0.98874  1.0000
  H   H691      1.0  0.41700  0.88949  0.86401  1.0000
  H   H692      1.0  0.41479  0.68000  0.84608  1.0000
  H   H693      1.0  0.02081  0.85553  0.75106  1.0000
  H   H694      1.0  0.08993  0.75799  0.74980  1.0000
  C   C874      1.0  0.37489  0.64940  0.74332  1.0000
  H   H695      1.0  0.25354  0.72247  0.78147  1.0000
  C   C875      1.0  0.16884  0.75129  0.78483  1.0000
  H   H696      1.0  0.49071  0.95536  0.68919  1.0000
  C   C876      1.0  0.22863  0.60732  0.88892  1.0000
  C   C877      1.0  0.25033  0.62204  0.89844  1.0000
  C   C878      1.0  0.34140  0.70159  0.70207  1.0000
  C   C879      1.0  0.05748  0.96010  0.87716  1.0000
  C   C880      1.0  0.47479  0.95621  0.71338  1.0000
  S   S127      1.0  0.20452  0.68039  0.67692  1.0000
  H   H697      1.0  0.38947  0.65607  0.78305  1.0000
  P   P32       1.0  0.06652  0.94175  0.89621  1.0000
  C   C881      1.0  0.32930  0.73312  0.80363  1.0000
  C   C882      1.0  0.08482  0.98334  0.97507  1.0000
  C   C883      1.0  0.28471  0.78921  0.74518  1.0000
  H   H698      1.0  0.01516  0.86706  0.94692  1.0000
  P   P33       1.0  0.28785  0.68288  0.75723  1.0000
  C   C884      1.0  0.10237  0.91752  0.89539  1.0000
  H   H699      1.0  0.31296  0.72111  0.82684  1.0000
  C   C885      1.0  0.16878  0.74870  0.81362  1.0000
  C   C886      1.0  0.28167  0.75556  0.81530  1.0000
  H   H700      1.0  0.11879  0.93630  0.87305  1.0000
  H   H701      1.0  0.20703  0.61494  0.73546  1.0000
  H   H702      1.0  0.43764  0.71717  0.68214  1.0000
  H   H703      1.0  0.26586  0.75731  0.82527  1.0000
  H   H704      1.0  0.05315  0.80488  0.96765  1.0000
  C   C887      1.0  0.05708  0.74845  0.78635  1.0000
  Fe  Fe65      1.0  0.15698  0.86277  0.98397  1.0000
  H   H705      1.0  0.23304  0.71005  0.80797  1.0000
  H   H706      1.0  0.43727  0.90706  0.81499  1.0000
  C   C888      1.0  0.25827  0.74172  0.75137  1.0000
  C   C889      1.0  0.19583  0.76836  0.78526  1.0000
  H   H707      1.0  0.30541  0.72859  0.66852  1.0000
  C   C890      1.0  0.01779  0.82199  0.93503  1.0000
  H   H708      1.0  0.15923  0.73971  0.82459  1.0000
  H   H709      1.0  0.40396  0.55930  0.72525  1.0000
  C   C891      1.0  0.24295  0.64323  0.74498  1.0000
  C   C892      1.0  0.00869  0.53327  0.89587  1.0000
  C   C893      1.0  0.04851  0.54395  0.92883  1.0000
  S   S128      1.0  0.07632  0.77147  0.70460  1.0000
  H   H710      1.0  0.04146  0.65183  0.95489  1.0000
  C   C894      1.0  0.07018  0.97340  0.91046  1.0000
  H   H711      1.0  0.48191  0.73902  0.88231  1.0000
  C   C895      1.0  0.45664  0.62962  0.71845  1.0000
  H   H712      1.0  0.40268  0.90438  0.92439  1.0000
  C   C896      1.0  0.37660  0.65684  0.77189  1.0000
  H   H713      1.0  0.44685  0.79213  0.82238  1.0000
  H   H714      1.0  0.15880  0.74490  0.77348  1.0000
  C   C897      1.0  0.40977  0.63079  0.67463  1.0000
  H   H715      1.0  0.33698  0.72732  0.75007  1.0000
  H   H716      1.0  0.33123  0.66003  0.73183  1.0000
  C   C898      1.0  0.01721  0.72551  0.97873  1.0000
  H   H717      1.0  0.41584  0.63989  0.75774  1.0000
  H   H718      1.0  0.05343  0.53469  0.96910  1.0000
  H   H719      1.0  0.48273  0.61203  0.73885  1.0000
  C   C899      1.0  0.46295  0.60861  0.73106  1.0000
  C   C900      1.0  0.43626  0.90040  0.90533  1.0000
  S   S129      1.0  0.16259  0.76141  0.69281  1.0000
  C   C901      1.0  0.03498  0.88625  0.89467  1.0000
  C   C902      1.0  0.09348  0.71553  0.76369  1.0000
  C   C903      1.0  0.27430  0.64378  0.78277  1.0000
  C   C904      1.0  0.27127  0.67462  0.77657  1.0000
  H   H720      1.0  0.01775  0.93215  0.87182  1.0000
  C   C905      1.0  0.44768  0.88212  0.89242  1.0000
  H   H721      1.0  0.01678  0.86102  0.78065  1.0000
  H   H722      1.0  0.00513  0.95898  0.84645  1.0000
  C   C906      1.0  0.02994  0.57091  0.87764  1.0000
  H   H723      1.0  0.01852  0.80762  0.70186  1.0000
  C   C907      1.0  0.46013  0.69894  0.84851  1.0000
  C   C908      1.0  0.49105  0.69736  0.84332  1.0000
  H   H724      1.0  0.23799  0.65568  0.81848  1.0000
  H   H725      1.0  0.00411  0.76036  0.76607  1.0000
  C   C909      1.0  0.03105  0.57485  0.95707  1.0000
  C   C910      1.0  0.34510  0.66701  0.77174  1.0000
  H   H726      1.0  0.48673  0.74142  0.67561  1.0000
  H   H727      1.0  0.25821  0.66575  0.70093  1.0000
  H   H728      1.0  0.09327  0.67628  0.78005  1.0000
  H   H729      1.0  0.14243  0.86097  0.91726  1.0000
  C   C911      1.0  0.43179  0.62500  0.70795  1.0000
  C   C912      1.0  0.43436  0.85328  0.88907  1.0000
  H   H730      1.0  0.16798  0.90366  0.87311  1.0000
  H   H731      1.0  0.10758  0.70276  0.75487  1.0000
  H   H732      1.0  0.45049  0.95502  0.70999  1.0000
  C   C913      1.0  0.39145  0.64783  0.75768  1.0000
  C   C914      1.0  0.48708  0.93549  0.88562  1.0000
  H   H733      1.0  0.02368  0.53086  0.99906  1.0000
  H   H734      1.0  0.48897  0.54800  0.68986  1.0000
  C   C915      1.0  0.01089  0.78008  0.97050  1.0000
  H   H735      1.0  0.01221  0.94977  0.91759  1.0000
  C   C916      1.0  0.02080  0.56296  0.89312  1.0000
  H   H736      1.0  0.03446  0.55551  0.85322  1.0000
  C   C917      1.0  0.02725  0.54934  0.86513  1.0000
  C   C918      1.0  0.01564  0.51969  0.86801  1.0000
  H   H737      1.0  0.00900  0.61047  0.94206  1.0000
  H   H738      1.0  0.47386  0.83865  0.83167  1.0000
  C   C919      1.0  0.04906  0.99983  0.90991  1.0000
  C   C920      1.0  0.48648  0.90529  0.84703  1.0000
  H   H739      1.0  0.01310  0.88755  0.80662  1.0000
  C   C921      1.0  0.47621  0.90913  0.83124  1.0000
  C   C922      1.0  0.05718  0.62500  0.99656  1.0000
  H   H740      1.0  0.11415  0.99561  0.94212  1.0000
  C   C923      1.0  0.07486  0.98523  0.87188  1.0000
  H   H741      1.0  0.22570  0.79830  0.66977  1.0000
  C   C924      1.0  0.00819  0.68873  0.94745  1.0000
  H   H742      1.0  0.25281  0.84679  0.67640  1.0000
  H   H743      1.0  0.49226  0.83172  0.89339  1.0000
  H   H744      1.0  0.36259  0.85137  0.66764  1.0000
  C   C925      1.0  0.00634  0.51168  0.88338  1.0000
  C   C926      1.0  0.00276  0.67282  0.81295  1.0000
  H   H745      1.0  0.10439  0.63863  0.99971  1.0000
  H   H746      1.0  0.10283  0.99110  0.98300  1.0000
  C   C927      1.0  0.06746  0.00040  0.85742  1.0000
  C   C928      1.0  0.09643  0.99713  0.93287  1.0000
  C   C929      1.0  0.47961  0.82847  0.82012  1.0000
  C   C930      1.0  0.47780  0.99238  0.88328  1.0000
  H   H747      1.0  0.49233  0.91551  0.82203  1.0000
  H   H748      1.0  0.00272  0.65568  0.91920  1.0000
  C   C931      1.0  0.00148  0.79581  0.93000  1.0000
  C   C932      1.0  0.00144  0.76307  0.85227  1.0000
  C   C933      1.0  0.50066  0.67632  0.83118  1.0000
  C   C934      1.0  0.00353  0.71704  0.93898  1.0000
  H   H749      1.0  0.03031  0.00105  0.90123  1.0000
  H   H750      1.0  0.88073  0.37678  0.07616  1.0000
  C   C935      1.0  0.78346  0.18776  0.26822  1.0000
  H   H751      1.0  0.82652  0.32167  0.07931  1.0000
  C   C936      1.0  0.94610  0.40390  0.05919  1.0000
  C   C937      1.0  0.82523  0.35126  0.14829  1.0000
  H   H752      1.0  0.60636  0.45378  0.15013  1.0000
  S   S130      1.0  0.62366  0.09934  0.30553  1.0000
  H   H753      1.0  0.54179  0.30159  0.24277  1.0000
  Fe  Fe66      1.0  0.92512  0.35289  0.23328  1.0000
  S   S131      1.0  0.91470  0.31212  0.21733  1.0000
  S   S132      1.0  0.93448  0.34269  0.25968  1.0000
  Fe  Fe67      1.0  0.93600  0.39726  0.20456  1.0000
  S   S133      1.0  0.92605  0.35950  0.18687  1.0000
  S   S134      1.0  0.95366  0.44576  0.19805  1.0000
  Fe  Fe68      1.0  0.88653  0.34806  0.20298  1.0000
  S   S135      1.0  0.84491  0.33179  0.18936  1.0000
  Fe  Fe69      1.0  0.95478  0.32662  0.20267  1.0000
  C   C938      1.0  0.52317  0.36189  0.30270  1.0000
  S   S136      1.0  0.89385  0.38856  0.21987  1.0000
  S   S137      1.0  0.96775  0.36488  0.21939  1.0000
  Fe  Fe70      1.0  0.89478  0.15883  0.08797  1.0000
  S   S138      1.0  0.94519  0.16115  0.09486  1.0000
  S   S139      1.0  0.87509  0.14939  0.06325  1.0000
  Fe  Fe71      1.0  0.87064  0.17603  0.12187  1.0000
  S   S140      1.0  0.91972  0.17837  0.13095  1.0000
  S   S141      1.0  0.83346  0.19716  0.13894  1.0000
  Fe  Fe72      1.0  0.92987  0.20467  0.10854  1.0000
  S   S142      1.0  0.95282  0.25139  0.11094  1.0000
  Fe  Fe73      1.0  0.93083  0.13441  0.11664  1.0000
  C   C939      1.0  0.62395  0.40602  0.14572  1.0000
  S   S143      1.0  0.88034  0.20479  0.10002  1.0000
  S   S144      1.0  0.88091  0.12960  0.10921  1.0000
  Fe  Fe74      1.0  0.69164  0.25816  0.21287  1.0000
  S   S145      1.0  0.72165  0.21451  0.21759  1.0000
  S   S146      1.0  0.71072  0.30660  0.21475  1.0000
  Fe  Fe75      1.0  0.63017  0.22215  0.21273  1.0000
  S   S147      1.0  0.65688  0.17561  0.21699  1.0000
  S   S148      1.0  0.57885  0.23234  0.21925  1.0000
  Fe  Fe76      1.0  0.68462  0.20159  0.23502  1.0000
  S   S149      1.0  0.69450  0.19344  0.26129  1.0000
  Fe  Fe77      1.0  0.69156  0.19307  0.19894  1.0000
  S   S150      1.0  0.71454  0.16156  0.17966  1.0000
  S   S151      1.0  0.65717  0.24693  0.23147  1.0000
  S   S152      1.0  0.66258  0.23792  0.19333  1.0000
  C   C940      1.0  0.54228  0.22987  0.20948  1.0000
  C   C941      1.0  0.51541  0.24232  0.21722  1.0000
  C   C942      1.0  0.94937  0.03030  0.00156  1.0000
  C   C943      1.0  0.98758  0.10504  0.07005  1.0000
  C   C944      1.0  0.53921  0.21633  0.19439  1.0000
  H   H754      1.0  0.51739  0.25189  0.22910  1.0000
  C   C945      1.0  0.58131  0.19015  0.27161  1.0000
  H   H755      1.0  0.55957  0.20597  0.18848  1.0000
  H   H756      1.0  0.93989  0.25010  0.31261  1.0000
  C   C946      1.0  0.80145  0.18585  0.15070  1.0000
  C   C947      1.0  0.78821  0.20751  0.16181  1.0000
  C   C948      1.0  0.76171  0.20041  0.17073  1.0000
  C   C949      1.0  0.74818  0.17137  0.16875  1.0000
  C   C950      1.0  0.76178  0.14941  0.15791  1.0000
  C   C951      1.0  0.78833  0.15655  0.14898  1.0000
  H   H757      1.0  0.79865  0.22983  0.16374  1.0000
  H   H758      1.0  0.75183  0.21740  0.17917  1.0000
  H   H759      1.0  0.75166  0.12675  0.15639  1.0000
  H   H760      1.0  0.79869  0.13946  0.14078  1.0000
  C   C952      1.0  0.80979  0.22986  0.30060  1.0000
  C   C953      1.0  0.96950  0.14562  0.17686  1.0000
  H   H761      1.0  0.90655  0.31055  0.31371  1.0000
  C   C954      1.0  0.76123  0.24130  0.32221  1.0000
  H   H762      1.0  0.69661  0.14047  0.05112  1.0000
  H   H763      1.0  0.93144  0.06596  0.10199  1.0000
  C   C955      1.0  0.81052  0.32205  0.19908  1.0000
  C   C956      1.0  0.79468  0.34397  0.20895  1.0000
  C   C957      1.0  0.76426  0.33864  0.21398  1.0000
  C   C958      1.0  0.74984  0.31106  0.20947  1.0000
  C   C959      1.0  0.76630  0.28832  0.20029  1.0000
  C   C960      1.0  0.79640  0.29406  0.19489  1.0000
  H   H764      1.0  0.80524  0.36580  0.21201  1.0000
  H   H765      1.0  0.75166  0.35623  0.22114  1.0000
  H   H766      1.0  0.75550  0.26682  0.19695  1.0000
  H   H767      1.0  0.80853  0.27710  0.18718  1.0000
  C   C961      1.0  0.95493  0.46426  0.17897  1.0000
  C   C962      1.0  0.54761  0.18867  0.30007  1.0000
  C   C963      1.0  0.87494  0.45902  0.13173  1.0000
  H   H768      1.0  0.94014  0.42463  0.16542  1.0000
  H   H769      1.0  0.84210  0.09839  0.19684  1.0000
  C   C964      1.0  0.86587  0.13498  0.03208  1.0000
  C   C965      1.0  0.88863  0.13890  0.04379  1.0000
  C   C966      1.0  0.94694  0.44882  0.16489  1.0000
  H   H770      1.0  0.84148  0.13831  0.03513  1.0000
  H   H771      1.0  0.69010  0.19071  0.03598  1.0000
  C   C967      1.0  0.89780  0.32091  0.30265  1.0000
  C   C968      1.0  0.91810  0.32470  0.28976  1.0000
  C   C969      1.0  0.90739  0.33833  0.27534  1.0000
  C   C970      1.0  0.87603  0.34870  0.27401  1.0000
  C   C971      1.0  0.85578  0.34556  0.28706  1.0000
  P   P34       1.0  0.97711  0.42981  0.06340  1.0000
  H   H772      1.0  0.94226  0.31682  0.29100  1.0000
  H   H773      1.0  0.86756  0.35972  0.26306  1.0000
  C   C972      1.0  0.64272  0.12602  0.29323  1.0000
  C   C973      1.0  0.66271  0.14760  0.29979  1.0000
  C   C974      1.0  0.67866  0.16779  0.28977  1.0000
  C   C975      1.0  0.67413  0.16721  0.27319  1.0000
  C   C976      1.0  0.65379  0.14600  0.26661  1.0000
  C   C977      1.0  0.63836  0.12522  0.27662  1.0000
  H   H774      1.0  0.66633  0.14831  0.31257  1.0000
  H   H775      1.0  0.69455  0.18403  0.29487  1.0000
  H   H776      1.0  0.65020  0.14536  0.25383  1.0000
  H   H777      1.0  0.62291  0.10858  0.27149  1.0000
  C   C978      1.0  0.78689  0.16143  0.27837  1.0000
  H   H778      1.0  0.88107  0.39443  0.15581  1.0000
  H   H779      1.0  0.87319  0.39987  0.10448  1.0000
  C   C979      1.0  0.60824  0.42974  0.15460  1.0000
  C   C980      1.0  0.90534  0.12249  0.01194  1.0000
  C   C981      1.0  0.89194  0.13827  0.28613  1.0000
  C   C982      1.0  0.99579  0.30836  0.04553  1.0000
  C   C983      1.0  0.84846  0.32116  0.08574  1.0000
  C   C984      1.0  0.94558  0.24717  0.28711  1.0000
  C   C985      1.0  0.93268  0.47960  0.05800  1.0000
  H   H780      1.0  0.94084  0.01341  0.08941  1.0000
  H   H781      1.0  0.97937  0.47374  0.09100  1.0000
  H   H782      1.0  0.98637  0.10313  0.26709  1.0000
  H   H783      1.0  0.93454  0.14854  0.29839  1.0000
  H   H784      1.0  0.78991  0.21086  0.27203  1.0000
  C   C986      1.0  0.98672  0.49340  0.05874  1.0000
  C   C987      1.0  0.87292  0.12057  0.16158  1.0000
  C   C988      1.0  0.97474  0.37394  0.00278  1.0000
  C   C989      1.0  0.00046  0.25026  0.01374  1.0000
  H   H785      1.0  0.93613  0.03502  0.20461  1.0000
  H   H786      1.0  0.98592  0.15264  0.28244  1.0000
  H   H787      1.0  0.87246  0.45813  0.10612  1.0000
  H   H788      1.0  0.97789  0.39868  0.00528  1.0000
  C   C990      1.0  0.85054  0.33670  0.10041  1.0000
  S   S153      1.0  0.84127  0.32980  0.31798  1.0000
  C   C991      1.0  0.89875  0.37967  0.06739  1.0000
  C   C992      1.0  0.57652  0.27707  0.26640  1.0000
  H   H789      1.0  0.77847  0.08869  0.12270  1.0000
  H   H790      1.0  0.58876  0.20585  0.31117  1.0000
  H   H791      1.0  0.92124  0.11492  0.15520  1.0000
  H   H792      1.0  0.74743  0.15419  0.23682  1.0000
  C   C993      1.0  0.52649  0.27716  0.16163  1.0000
  H   H793      1.0  0.65581  0.27538  0.26648  1.0000
  H   H794      1.0  0.56403  0.06413  0.29501  1.0000
  H   H795      1.0  0.00010  0.03148  0.18756  1.0000
  C   C994      1.0  0.95425  0.24076  0.30290  1.0000
  C   C995      1.0  0.73922  0.10796  0.31846  1.0000
  C   C996      1.0  0.99538  0.03500  0.02520  1.0000
  C   C997      1.0  0.53396  0.38621  0.27725  1.0000
  H   H796      1.0  0.90365  0.12482  0.27673  1.0000
  C   C998      1.0  0.62709  0.28647  0.32527  1.0000
  C   C999      1.0  0.94738  0.46487  0.15011  1.0000
  H   H797      1.0  0.82640  0.12335  0.17114  1.0000
  C   C1000     1.0  0.57796  0.19915  0.30006  1.0000
  C   C1001     1.0  0.99386  0.44530  0.11099  1.0000
  H   H798      1.0  0.78081  0.11106  0.28031  1.0000
  H   H799      1.0  0.53105  0.48879  0.32857  1.0000
  C   C1002     1.0  0.99069  0.31850  0.00648  1.0000
  C   C1003     1.0  0.55094  0.18013  0.27152  1.0000
  H   H800      1.0  0.87276  0.29139  0.06846  1.0000
  H   H801      1.0  0.98651  0.15923  0.13206  1.0000
  C   C1004     1.0  0.88207  0.20229  0.17207  1.0000
  C   C1005     1.0  0.88558  0.23395  0.16828  1.0000
  C   C1006     1.0  0.88104  0.25708  0.18001  1.0000
  C   C1007     1.0  0.87262  0.24867  0.19546  1.0000
  C   C1008     1.0  0.86873  0.21691  0.19932  1.0000
  C   C1009     1.0  0.87373  0.19373  0.18751  1.0000
  P   P35       1.0  0.85959  0.20547  0.21945  1.0000
  C   C1010     1.0  0.89488  0.19239  0.22982  1.0000
  C   C1011     1.0  0.84140  0.23905  0.22971  1.0000
  C   C1012     1.0  0.85998  0.26114  0.23713  1.0000
  C   C1013     1.0  0.84622  0.28756  0.24480  1.0000
  C   C1014     1.0  0.81381  0.29219  0.24514  1.0000
  C   C1015     1.0  0.79515  0.27043  0.23773  1.0000
  C   C1016     1.0  0.80888  0.24415  0.22988  1.0000
  C   C1017     1.0  0.92101  0.18063  0.22129  1.0000
  C   C1018     1.0  0.94800  0.17001  0.22939  1.0000
  H   H802      1.0  0.96280  0.39006  0.03573  1.0000
  H   H803      1.0  0.97283  0.27357  0.22355  1.0000
  C   C1019     1.0  0.89616  0.19313  0.24658  1.0000
  C   C1020     1.0  0.83354  0.17336  0.21861  1.0000
  C   C1021     1.0  0.83751  0.14747  0.22905  1.0000
  C   C1022     1.0  0.81792  0.12221  0.22796  1.0000
  C   C1023     1.0  0.79400  0.12278  0.21660  1.0000
  C   C1024     1.0  0.78980  0.14851  0.20627  1.0000
  C   C1025     1.0  0.80954  0.17365  0.20718  1.0000
  H   H804      1.0  0.78486  0.35091  0.16345  1.0000
  H   H805      1.0  0.89162  0.24045  0.15622  1.0000
  H   H806      1.0  0.88384  0.28169  0.17721  1.0000
  H   H807      1.0  0.86893  0.26719  0.20423  1.0000
  H   H808      1.0  0.87136  0.16907  0.19028  1.0000
  H   H809      1.0  0.88517  0.25839  0.23673  1.0000
  H   H810      1.0  0.86077  0.30473  0.25025  1.0000
  H   H811      1.0  0.80318  0.31294  0.25089  1.0000
  H   H812      1.0  0.77001  0.27441  0.23771  1.0000
  H   H813      1.0  0.79399  0.22832  0.22374  1.0000
  H   H814      1.0  0.92096  0.17992  0.20841  1.0000
  C   C1026     1.0  0.96226  0.07720  0.20311  1.0000
  H   H815      1.0  0.53554  0.18712  0.31131  1.0000
  C   C1027     1.0  0.76991  0.18488  0.25316  1.0000
  H   H816      1.0  0.87619  0.20188  0.25343  1.0000
  H   H817      1.0  0.85559  0.14664  0.23806  1.0000
  H   H818      1.0  0.82090  0.10245  0.23613  1.0000
  H   H819      1.0  0.77841  0.10351  0.21590  1.0000
  H   H820      1.0  0.77101  0.14904  0.19763  1.0000
  H   H821      1.0  0.80595  0.19338  0.19900  1.0000
  C   C1028     1.0  0.94576  0.30116  0.15578  1.0000
  C   C1029     1.0  0.97237  0.31758  0.15279  1.0000
  C   C1030     1.0  0.97075  0.34402  0.14281  1.0000
  C   C1031     1.0  0.94234  0.35419  0.13586  1.0000
  C   C1032     1.0  0.91536  0.33786  0.13891  1.0000
  C   C1033     1.0  0.91737  0.31119  0.14885  1.0000
  C   C1034     1.0  0.84255  0.30055  0.13728  1.0000
  C   C1035     1.0  0.81788  0.28651  0.14478  1.0000
  H   H822      1.0  0.94709  0.28091  0.16372  1.0000
  C   C1036     1.0  0.75782  0.08789  0.32820  1.0000
  H   H823      1.0  0.59089  0.34843  0.28296  1.0000
  H   H824      1.0  0.94142  0.37474  0.12815  1.0000
  H   H825      1.0  0.89718  0.29821  0.15148  1.0000
  H   H826      1.0  0.75408  0.19184  0.32079  1.0000
  H   H827      1.0  0.85876  0.28586  0.13027  1.0000
  H   H828      1.0  0.81525  0.26144  0.14344  1.0000
  H   H829      1.0  0.92280  0.28965  0.08341  1.0000
  H   H830      1.0  0.59472  0.18961  0.26067  1.0000
  C   C1037     1.0  0.62983  0.26472  0.31273  1.0000
  P   P36       1.0  0.87914  0.35020  0.12923  1.0000
  C   C1038     1.0  0.84672  0.33300  0.13911  1.0000
  C   C1039     1.0  0.98961  0.09072  0.22745  1.0000
  H   H831      1.0  0.86602  0.13155  0.15031  1.0000
  C   C1040     1.0  0.87394  0.41101  0.11605  1.0000
  C   C1041     1.0  0.80281  0.26045  0.30611  1.0000
  C   C1042     1.0  0.94998  0.04997  0.10639  1.0000
  C   C1043     1.0  0.85057  0.11595  0.17328  1.0000
  H   H832      1.0  0.83004  0.34912  0.10528  1.0000
  C   C1044     1.0  0.95068  0.05100  0.21095  1.0000
  C   C1045     1.0  0.89424  0.16873  0.31050  1.0000
  C   C1046     1.0  0.85939  0.14232  0.28607  1.0000
  C   C1047     1.0  0.92021  0.13438  0.03953  1.0000
  C   C1048     1.0  0.75126  0.28259  0.11026  1.0000
  C   C1049     1.0  0.78366  0.28362  0.11018  1.0000
  C   C1050     1.0  0.80216  0.25611  0.10731  1.0000
  C   C1051     1.0  0.78829  0.22756  0.10437  1.0000
  C   C1052     1.0  0.75570  0.22643  0.10414  1.0000
  C   C1053     1.0  0.73731  0.25415  0.10720  1.0000
  P   P37       1.0  0.73684  0.19028  0.09976  1.0000
  C   C1054     1.0  0.76369  0.15610  0.10108  1.0000
  C   C1055     1.0  0.70591  0.18739  0.11412  1.0000
  C   C1056     1.0  0.67618  0.17848  0.10947  1.0000
  C   C1057     1.0  0.65237  0.17705  0.12075  1.0000
  C   C1058     1.0  0.65804  0.18464  0.13669  1.0000
  C   C1059     1.0  0.68749  0.19365  0.14136  1.0000
  C   C1060     1.0  0.71144  0.19480  0.13018  1.0000
  C   C1061     1.0  0.76060  0.13316  0.11299  1.0000
  C   C1062     1.0  0.78070  0.10611  0.11335  1.0000
  C   C1063     1.0  0.80391  0.10171  0.10183  1.0000
  C   C1064     1.0  0.80689  0.12424  0.08984  1.0000
  C   C1065     1.0  0.78682  0.15125  0.08941  1.0000
  C   C1066     1.0  0.72162  0.19095  0.07961  1.0000
  C   C1067     1.0  0.71797  0.21929  0.07093  1.0000
  C   C1068     1.0  0.70653  0.21916  0.05527  1.0000
  C   C1069     1.0  0.69877  0.19080  0.04815  1.0000
  C   C1070     1.0  0.70242  0.16250  0.05668  1.0000
  C   C1071     1.0  0.71381  0.16254  0.07234  1.0000
  H   H833      1.0  0.73698  0.30382  0.11276  1.0000
  H   H834      1.0  0.79444  0.30558  0.11270  1.0000
  H   H835      1.0  0.82735  0.25667  0.10770  1.0000
  H   H836      1.0  0.80321  0.20651  0.10261  1.0000
  H   H837      1.0  0.71213  0.25374  0.10720  1.0000
  H   H838      1.0  0.67121  0.17257  0.09720  1.0000
  H   H839      1.0  0.62953  0.16989  0.11717  1.0000
  H   H840      1.0  0.63974  0.18329  0.14550  1.0000
  H   H841      1.0  0.69180  0.19949  0.15374  1.0000
  H   H842      1.0  0.73432  0.20129  0.13411  1.0000
  H   H843      1.0  0.74289  0.13603  0.12209  1.0000
  H   H844      1.0  0.93799  0.13746  0.04841  1.0000
  H   H845      1.0  0.61864  0.20661  0.28582  1.0000
  H   H846      1.0  0.82496  0.12088  0.08090  1.0000
  H   H847      1.0  0.78947  0.16839  0.07996  1.0000
  H   H848      1.0  0.72414  0.24149  0.07608  1.0000
  H   H849      1.0  0.70389  0.24105  0.04859  1.0000
  H   H850      1.0  0.71663  0.14036  0.07876  1.0000
  C   C1072     1.0  0.60597  0.31078  0.22168  1.0000
  C   C1073     1.0  0.62561  0.33214  0.22864  1.0000
  C   C1074     1.0  0.64221  0.35217  0.21901  1.0000
  C   C1075     1.0  0.63922  0.35083  0.20241  1.0000
  C   C1076     1.0  0.61962  0.32930  0.19529  1.0000
  C   C1077     1.0  0.60312  0.30912  0.20507  1.0000
  P   P38       1.0  0.61634  0.32750  0.17379  1.0000
  C   C1078     1.0  0.61324  0.36749  0.16622  1.0000
  C   C1079     1.0  0.65015  0.30666  0.16522  1.0000
  C   C1080     1.0  0.67901  0.30584  0.17315  1.0000
  C   C1081     1.0  0.70496  0.28943  0.16660  1.0000
  C   C1082     1.0  0.70251  0.27393  0.15199  1.0000
  C   C1083     1.0  0.67405  0.27514  0.14381  1.0000
  C   C1084     1.0  0.64800  0.29157  0.15034  1.0000
  C   C1085     1.0  0.59740  0.39146  0.17504  1.0000
  H   H851      1.0  0.99322  0.46526  0.11911  1.0000
  H   H852      1.0  0.99402  0.21462  0.08971  1.0000
  C   C1086     1.0  0.94969  0.00882  0.15124  1.0000
  C   C1087     1.0  0.62643  0.37499  0.15148  1.0000
  C   C1088     1.0  0.58122  0.30798  0.16865  1.0000
  C   C1089     1.0  0.58198  0.27495  0.16706  1.0000
  C   C1090     1.0  0.55484  0.25976  0.16322  1.0000
  H   H853      1.0  0.85593  0.12410  0.00760  1.0000
  C   C1091     1.0  0.92404  0.38340  0.32385  1.0000
  C   C1092     1.0  0.55264  0.32536  0.16693  1.0000
  H   H854      1.0  0.59371  0.29472  0.22915  1.0000
  H   H855      1.0  0.62860  0.33258  0.24146  1.0000
  H   H856      1.0  0.65836  0.36789  0.22438  1.0000
  H   H857      1.0  0.65284  0.36606  0.19514  1.0000
  H   H858      1.0  0.58829  0.29177  0.20003  1.0000
  H   H859      1.0  0.68160  0.31735  0.18453  1.0000
  H   H860      1.0  0.72684  0.28843  0.17307  1.0000
  H   H861      1.0  0.72262  0.26081  0.14712  1.0000
  H   H862      1.0  0.67205  0.26300  0.13252  1.0000
  H   H863      1.0  0.62616  0.29233  0.14382  1.0000
  H   H864      1.0  0.58682  0.38620  0.18638  1.0000
  C   C1093     1.0  0.98185  0.22299  0.30627  1.0000
  C   C1094     1.0  0.98612  0.45000  0.09490  1.0000
  C   C1095     1.0  0.99831  0.00835  0.11743  1.0000
  H   H865      1.0  0.63868  0.35702  0.14442  1.0000
  H   H866      1.0  0.60338  0.26081  0.16906  1.0000
  H   H867      1.0  0.55554  0.23430  0.16198  1.0000
  H   H868      1.0  0.98853  0.21958  0.31862  1.0000
  C   C1096     1.0  0.52201  0.39167  0.30991  1.0000
  H   H869      1.0  0.55108  0.35070  0.16847  1.0000
  H   H870      1.0  0.96022  0.17118  0.00691  1.0000
  H   H871      1.0  0.81637  0.27966  0.30204  1.0000
  H   H872      1.0  0.83171  0.35419  0.28607  1.0000
  H   H873      1.0  0.54145  0.17185  0.26038  1.0000
  H   H874      1.0  0.99262  0.16432  0.32174  1.0000
  C   C1097     1.0  0.57009  0.30718  0.27297  1.0000
  C   C1098     1.0  0.59482  0.19967  0.28585  1.0000
  H   H875      1.0  0.75561  0.10681  0.25400  1.0000
  C   C1099     1.0  0.53372  0.17944  0.28574  1.0000
  H   H876      1.0  0.87673  0.39131  0.31558  1.0000
  C   C1100     1.0  0.79227  0.20468  0.30567  1.0000
  C   C1101     1.0  0.85946  0.10205  0.18782  1.0000
  H   H877      1.0  0.94104  0.45276  0.13932  1.0000
  C   C1102     1.0  0.96744  0.20941  0.02333  1.0000
  C   C1103     1.0  0.76404  0.12922  0.25785  1.0000
  C   C1104     1.0  0.92858  0.12593  0.02363  1.0000
  C   C1105     1.0  0.79685  0.30468  0.15402  1.0000
  C   C1106     1.0  0.86660  0.33165  0.30143  1.0000
  C   C1107     1.0  0.62582  0.31395  0.27528  1.0000
  C   C1108     1.0  0.76774  0.21068  0.31645  1.0000
  H   H878      1.0  0.95253  0.20021  0.03245  1.0000
  C   C1109     1.0  0.87347  0.44403  0.11691  1.0000
  C   C1110     1.0  0.89210  0.39004  0.32588  1.0000
  H   H879      1.0  0.98459  0.05922  0.24735  1.0000
  H   H880      1.0  0.77827  0.29355  0.16020  1.0000
  C   C1111     1.0  0.87827  0.40805  0.14487  1.0000
  H   H881      1.0  0.55776  0.26218  0.26309  1.0000
  H   H882      1.0  0.97253  0.30773  0.04055  1.0000
  C   C1112     1.0  0.84409  0.15958  0.29828  1.0000
  C   C1113     1.0  0.87617  0.39280  0.13006  1.0000
  C   C1114     1.0  0.87698  0.44102  0.14570  1.0000
  H   H883      1.0  0.60926  0.30542  0.32459  1.0000
  H   H884      1.0  0.92664  0.31653  0.10914  1.0000
  C   C1115     1.0  0.99896  0.34758  0.28800  1.0000
  C   C1116     1.0  0.97802  0.06454  0.23513  1.0000
  H   H885      1.0  0.81975  0.08096  0.10222  1.0000
  C   C1117     1.0  0.87449  0.30421  0.07959  1.0000
  H   H886      1.0  0.87930  0.34778  0.05046  1.0000
  H   H887      1.0  0.92310  0.41230  0.08185  1.0000
  H   H888      1.0  0.89686  0.08217  0.20210  1.0000
  H   H889      1.0  0.84625  0.13190  0.27656  1.0000
  P   P39       1.0  0.80215  0.16526  0.29838  1.0000
  C   C1118     1.0  0.90482  0.31875  0.10263  1.0000
  H   H890      1.0  0.97083  0.16405  0.25211  1.0000
  C   C1119     1.0  0.78490  0.13578  0.31066  1.0000
  C   C1120     1.0  0.90272  0.30334  0.08794  1.0000
  H   H891      1.0  0.82765  0.37622  0.15010  1.0000
  H   H892      1.0  0.97921  0.32336  0.06869  1.0000
  H   H893      1.0  0.58272  0.44082  0.17611  1.0000
  H   H894      1.0  0.91497  0.46251  0.05881  1.0000
  H   H895      1.0  0.92460  0.18440  0.26751  1.0000
  C   C1121     1.0  0.92278  0.39979  0.07057  1.0000
  C   C1122     1.0  0.87861  0.33516  0.10909  1.0000
  S   S154      1.0  0.98990  0.29193  0.19157  1.0000
  C   C1123     1.0  0.94174  0.04399  0.01627  1.0000
  C   C1124     1.0  0.89797  0.36333  0.05292  1.0000
  C   C1125     1.0  0.96437  0.47050  0.05991  1.0000
  C   C1126     1.0  0.94515  0.38739  0.04468  1.0000
  H   H896      1.0  0.82896  0.22593  0.29239  1.0000
  H   H897      1.0  0.88548  0.18450  0.16292  1.0000
  H   H898      1.0  0.87880  0.45266  0.15718  1.0000
  C   C1127     1.0  0.75967  0.15581  0.24810  1.0000
  C   C1128     1.0  0.92342  0.18286  0.25462  1.0000
  C   C1129     1.0  0.98748  0.42440  0.08422  1.0000
  C   C1130     1.0  0.92121  0.36714  0.04158  1.0000
  C   C1131     1.0  0.51948  0.31437  0.24355  1.0000
  H   H899      1.0  0.92418  0.26092  0.28452  1.0000
  C   C1132     1.0  0.77803  0.13187  0.27284  1.0000
  C   C1133     1.0  0.80045  0.33706  0.15573  1.0000
  H   H900      1.0  0.76541  0.20565  0.24586  1.0000
  H   H901      1.0  0.64501  0.32804  0.27883  1.0000
  C   C1134     1.0  0.98540  0.02527  0.17761  1.0000
  C   C1135     1.0  0.87410  0.12687  0.01640  1.0000
  H   H902      1.0  0.63425  0.41171  0.13437  1.0000
  H   H903      1.0  0.92064  0.35456  0.03032  1.0000
  H   H904      1.0  0.53328  0.24535  0.32124  1.0000
  H   H905      1.0  0.73807  0.14681  0.30202  1.0000
  C   C1136     1.0  0.00064  0.21085  0.29379  1.0000
  C   C1137     1.0  0.53184  0.27676  0.30106  1.0000
  C   C1138     1.0  0.94936  0.17133  0.24602  1.0000
  C   C1139     1.0  0.52885  0.35900  0.28624  1.0000
  H   H906      1.0  0.96829  0.16165  0.22272  1.0000
  C   C1140     1.0  0.95539  0.02015  0.09925  1.0000
  C   C1141     1.0  0.96869  0.05908  0.11909  1.0000
  C   C1142     1.0  0.90419  0.11132  0.16443  1.0000
  C   C1143     1.0  0.91328  0.09706  0.17899  1.0000
  C   C1144     1.0  0.63196  0.28428  0.26839  1.0000
  S   S155      1.0  0.96288  0.09657  0.12812  1.0000
  C   C1145     1.0  0.89067  0.09277  0.19073  1.0000
  P   P40       1.0  0.95352  0.08369  0.18218  1.0000
  H   H907      1.0  0.63469  0.41917  0.33141  1.0000
  C   C1146     1.0  0.98797  0.25505  0.21852  1.0000
  C   C1147     1.0  0.98170  0.23804  0.02572  1.0000
  C   C1148     1.0  0.60731  0.26600  0.26387  1.0000
  C   C1149     1.0  0.99364  0.35048  0.01032  1.0000
  C   C1150     1.0  0.52664  0.41867  0.30084  1.0000
  C   C1151     1.0  0.94398  0.03813  0.15864  1.0000
  C   C1152     1.0  0.98188  0.09701  0.21150  1.0000
  H   H908      1.0  0.65467  0.22301  0.30376  1.0000
  H   H909      1.0  0.99028  0.09841  0.04474  1.0000
  C   C1153     1.0  0.51866  0.25742  0.31239  1.0000
  H   H910      1.0  0.61214  0.24321  0.25831  1.0000
  C   C1154     1.0  0.65238  0.23975  0.31343  1.0000
  C   C1155     1.0  0.90936  0.15158  0.29831  1.0000
  H   H911      1.0  0.95767  0.05600  0.03953  1.0000
  C   C1156     1.0  0.96489  0.23657  0.27466  1.0000
  C   C1157     1.0  0.96450  0.04590  0.02817  1.0000
  H   H912      1.0  0.53614  0.43689  0.27747  1.0000
  H   H913      1.0  0.55501  0.12045  0.28964  1.0000
  C   C1158     1.0  0.77878  0.26617  0.31705  1.0000
  C   C1159     1.0  0.50782  0.32593  0.25820  1.0000
  H   H914      1.0  0.92618  0.05424  0.15367  1.0000
  H   H915      1.0  0.93276  0.37989  0.31188  1.0000
  C   C1160     1.0  0.53276  0.41593  0.28453  1.0000
  P   P41       1.0  0.53014  0.32094  0.27651  1.0000
  H   H916      1.0  0.77417  0.28983  0.32164  1.0000
  H   H917      1.0  0.94696  0.15278  0.18176  1.0000
  H   H918      1.0  0.61447  0.26707  0.30248  1.0000
  H   H919      1.0  0.95853  0.24263  0.26247  1.0000
  C   C1161     1.0  0.75271  0.13170  0.30967  1.0000
  H   H920      1.0  0.91825  0.05370  0.01833  1.0000
  C   C1162     1.0  0.99124  0.25617  0.10443  1.0000
  C   C1163     1.0  0.96407  0.49562  0.17798  1.0000
  H   H921      1.0  0.51116  0.30997  0.21827  1.0000
  C   C1164     1.0  0.80344  0.11559  0.32052  1.0000
  C   C1165     1.0  0.95849  0.04476  0.22690  1.0000
  C   C1166     1.0  0.78993  0.09161  0.32919  1.0000
  H   H922      1.0  0.87540  0.48458  0.13241  1.0000
  C   C1167     1.0  0.99947  0.31760  0.06141  1.0000
  H   H923      1.0  0.99403  0.31004  0.15858  1.0000
  C   C1168     1.0  0.59502  0.32546  0.27753  1.0000
  C   C1169     1.0  0.97182  0.19289  0.00902  1.0000
  H   H924      1.0  0.99539  0.29930  0.11766  1.0000
  H   H925      1.0  0.99768  0.40499  0.15756  1.0000
  H   H926      1.0  0.95281  0.12189  0.02044  1.0000
  C   C1170     1.0  0.86174  0.17252  0.31055  1.0000
  H   H927      1.0  0.52509  0.44173  0.30644  1.0000
  C   C1171     1.0  0.97839  0.11347  0.17489  1.0000
  C   C1172     1.0  0.53499  0.10599  0.29027  1.0000
  C   C1173     1.0  0.96166  0.04655  0.17197  1.0000
  H   H928      1.0  0.99509  0.37375  0.08227  1.0000
  C   C1174     1.0  0.99529  0.39395  0.09009  1.0000
  H   H929      1.0  0.53848  0.38444  0.26456  1.0000
  C   C1175     1.0  0.59494  0.42244  0.16924  1.0000
  H   H930      1.0  0.98337  0.19359  0.17484  1.0000
  H   H931      1.0  0.94989  0.02420  0.23279  1.0000
  C   C1176     1.0  0.99227  0.21835  0.27795  1.0000
  C   C1177     1.0  0.50438  0.11901  0.28842  1.0000
  H   H932      1.0  0.68874  0.21623  0.32750  1.0000
  H   H933      1.0  0.98989  0.36054  0.17619  1.0000
  H   H934      1.0  0.97328  0.12668  0.06909  1.0000
  C   C1178     1.0  0.51525  0.05421  0.29459  1.0000
  C   C1179     1.0  0.52539  0.30994  0.16351  1.0000
  H   H935      1.0  0.98932  0.45119  0.03089  1.0000
  C   C1180     1.0  0.54031  0.07376  0.29336  1.0000
  C   C1181     1.0  0.50963  0.21618  0.18696  1.0000
  H   H936      1.0  0.51693  0.39382  0.32250  1.0000
  H   H937      1.0  0.99199  0.11692  0.20577  1.0000
  H   H938      1.0  0.50740  0.20566  0.17529  1.0000
  C   C1182     1.0  0.51297  0.29291  0.28965  1.0000
  H   H939      1.0  0.55665  0.27974  0.30157  1.0000
  H   H940      1.0  0.90758  0.17905  0.32001  1.0000
  H   H941      1.0  0.99146  0.35672  0.14058  1.0000
  H   H942      1.0  0.85037  0.18560  0.32020  1.0000
  C   C1183     1.0  0.99017  0.16884  0.17306  1.0000
  C   C1184     1.0  0.50219  0.31925  0.22950  1.0000
  C   C1185     1.0  0.67191  0.23617  0.32672  1.0000
  H   H943      1.0  0.99770  0.21371  0.14021  1.0000
  H   H944      1.0  0.51953  0.02926  0.29708  1.0000
  H   H945      1.0  0.51907  0.34145  0.31001  1.0000
  H   H946      1.0  0.97776  0.25047  0.03682  1.0000
  C   C1186     1.0  0.99914  0.25790  0.20297  1.0000
  Fe  Fe78      1.0  0.62084  0.11198  0.33171  1.0000
  H   H947      1.0  0.82820  0.11850  0.32173  1.0000
  H   H948      1.0  0.98480  0.38984  0.30066  1.0000
  C   C1187     1.0  0.99358  0.35045  0.31687  1.0000
  C   C1188     1.0  0.99281  0.03816  0.12461  1.0000
  H   H949      1.0  0.71430  0.10515  0.31771  1.0000
  H   H950      1.0  0.98920  0.22689  0.23991  1.0000
  H   H951      1.0  0.98984  0.10635  0.09571  1.0000
  C   C1189     1.0  0.99738  0.22867  0.22781  1.0000
  C   C1190     1.0  0.95522  0.49666  0.14923  1.0000
  H   H952      1.0  0.93654  0.00288  0.14070  1.0000
  H   H953      1.0  0.74301  0.24557  0.33095  1.0000
  C   C1191     1.0  0.99197  0.36505  0.30180  1.0000
  C   C1192     1.0  0.99715  0.09380  0.08503  1.0000
  H   H954      1.0  0.99642  0.35866  0.27636  1.0000
  H   H955      1.0  0.50522  0.26515  0.15931  1.0000
  C   C1193     1.0  0.99685  0.08866  0.05630  1.0000
  H   H956      1.0  0.50325  0.32329  0.16250  1.0000
  C   C1194     1.0  0.54068  0.03994  0.41653  1.0000
  H   H957      1.0  0.80425  0.07638  0.33695  1.0000
  S   S156      1.0  0.62753  0.05325  0.38652  1.0000
  S   S157      1.0  0.60678  0.13915  0.37483  1.0000
  Fe  Fe79      1.0  0.61384  0.36466  0.45961  1.0000
  S   S158      1.0  0.66441  0.37324  0.46373  1.0000
  S   S159      1.0  0.57518  0.39788  0.45017  1.0000
  Fe  Fe80      1.0  0.62131  0.29458  0.46916  1.0000
  S   S160      1.0  0.67250  0.29785  0.47381  1.0000
  S   S161      1.0  0.59894  0.24899  0.47593  1.0000
  Fe  Fe81      1.0  0.65838  0.34384  0.48607  1.0000
  S   S162      1.0  0.67294  0.35168  0.51187  1.0000
  Fe  Fe82      1.0  0.67407  0.32646  0.45108  1.0000
  S   S163      1.0  0.70276  0.31431  0.42854  1.0000
  S   S164      1.0  0.60742  0.33871  0.48257  1.0000
  S   S165      1.0  0.62317  0.31990  0.44578  1.0000
  Fe  Fe83      1.0  0.84515  0.23390  0.35359  1.0000
  S   S166      1.0  0.82033  0.28145  0.35592  1.0000
  S   S167      1.0  0.81903  0.18917  0.35074  1.0000
  Fe  Fe84      1.0  0.91085  0.26056  0.35492  1.0000
  S   S168      1.0  0.88976  0.31013  0.35827  1.0000
  S   S169      1.0  0.96226  0.25300  0.34720  1.0000
  Fe  Fe85      1.0  0.85547  0.28888  0.37521  1.0000
  S   S170      1.0  0.84050  0.31067  0.39921  1.0000
  H   H958      1.0  0.54534  0.30544  0.48275  1.0000
  H   H959      1.0  0.51793  0.49678  0.39161  1.0000
  S   S171      1.0  0.87951  0.24022  0.37355  1.0000
  C   C1195     1.0  0.55696  0.05218  0.48143  1.0000
  C   C1196     1.0  0.50646  0.05922  0.50227  1.0000
  H   H960      1.0  0.66455  0.05823  0.65906  1.0000
  H   H961      1.0  0.59881  0.22537  0.38463  1.0000
  C   C1197     1.0  0.52352  0.26960  0.52311  1.0000
  Fe  Fe86      1.0  0.52646  0.07711  0.60765  1.0000
  S   S172      1.0  0.57329  0.05062  0.60520  1.0000
  Fe  Fe87      1.0  0.56428  0.40535  0.58720  1.0000
  S   S173      1.0  0.52268  0.38204  0.59721  1.0000
  S   S174      1.0  0.56845  0.40529  0.56008  1.0000
  Fe  Fe88      1.0  0.58153  0.43248  0.62031  1.0000
  C   C1198     1.0  0.64736  0.28357  0.33845  1.0000
  Fe  Fe89      1.0  0.55475  0.36661  0.61726  1.0000
  S   S175      1.0  0.54187  0.40961  0.63235  1.0000
  H   H962      1.0  0.62045  0.49944  0.46282  1.0000
  S   S176      1.0  0.59697  0.38818  0.60671  1.0000
  S   S177      1.0  0.55265  0.45150  0.59957  1.0000
  H   H963      1.0  0.65900  0.29030  0.52482  1.0000
  H   H964      1.0  0.68470  0.25486  0.34942  1.0000
  C   C1199     1.0  0.53271  0.32572  0.47751  1.0000
  C   C1200     1.0  0.51345  0.21560  0.46815  1.0000
  H   H965      1.0  0.54964  0.05253  0.64379  1.0000
  H   H966      1.0  0.57745  0.01791  0.55650  1.0000
  C   C1201     1.0  0.59119  0.30322  0.39465  1.0000
  C   C1202     1.0  0.99903  0.24090  0.35588  1.0000
  H   H967      1.0  0.72097  0.23774  0.37189  1.0000
  C   C1203     1.0  0.60203  0.20307  0.57870  1.0000
  H   H968      1.0  0.54927  0.37879  0.34559  1.0000
  C   C1204     1.0  0.54403  0.25671  0.56977  1.0000
  C   C1205     1.0  0.64425  0.36680  0.52545  1.0000
  C   C1206     1.0  0.64788  0.36148  0.54195  1.0000
  C   C1207     1.0  0.62501  0.37307  0.55284  1.0000
  C   C1208     1.0  0.59851  0.39040  0.54728  1.0000
  C   C1209     1.0  0.59511  0.39592  0.53082  1.0000
  C   C1210     1.0  0.61779  0.38416  0.51998  1.0000
  H   H969      1.0  0.66840  0.34829  0.54632  1.0000
  H   H970      1.0  0.62795  0.36876  0.56550  1.0000
  H   H971      1.0  0.57474  0.40930  0.52644  1.0000
  H   H972      1.0  0.61489  0.38848  0.50736  1.0000
  C   C1211     1.0  0.56384  0.23935  0.46653  1.0000
  C   C1212     1.0  0.54267  0.22132  0.47478  1.0000
  H   H973      1.0  0.58089  0.01085  0.37421  1.0000
  H   H974      1.0  0.66463  0.19121  0.40044  1.0000
  C   C1213     1.0  0.52738  0.24365  0.44435  1.0000
  C   C1214     1.0  0.55658  0.24952  0.45104  1.0000
  H   H975      1.0  0.54854  0.21199  0.48644  1.0000
  H   H976      1.0  0.63412  0.02296  0.41700  1.0000
  H   H977      1.0  0.57317  0.26247  0.44433  1.0000
  C   C1215     1.0  0.74208  0.31122  0.42164  1.0000
  C   C1216     1.0  0.76648  0.32558  0.42944  1.0000
  C   C1217     1.0  0.79653  0.32481  0.42256  1.0000
  C   C1218     1.0  0.80261  0.30971  0.40783  1.0000
  C   C1219     1.0  0.77840  0.29456  0.40031  1.0000
  C   C1220     1.0  0.74852  0.29514  0.40723  1.0000
  H   H978      1.0  0.76206  0.33803  0.44052  1.0000
  H   H979      1.0  0.81507  0.33649  0.42855  1.0000
  H   H980      1.0  0.78258  0.28262  0.38906  1.0000
  H   H981      1.0  0.72996  0.28404  0.40099  1.0000
  H   H982      1.0  0.88972  0.39481  0.36634  1.0000
  C   C1221     1.0  0.54701  0.45709  0.44952  1.0000
  C   C1222     1.0  0.57477  0.43922  0.45260  1.0000
  C   C1223     1.0  0.60134  0.45458  0.45729  1.0000
  C   C1224     1.0  0.54645  0.25986  0.35263  1.0000
  H   H983      1.0  0.52661  0.44538  0.44556  1.0000
  H   H984      1.0  0.62292  0.44100  0.45954  1.0000
  C   C1225     1.0  0.57636  0.01186  0.65269  1.0000
  C   C1226     1.0  0.71459  0.19136  0.36217  1.0000
  C   C1227     1.0  0.73210  0.21732  0.36612  1.0000
  C   C1228     1.0  0.76407  0.21707  0.36262  1.0000
  C   C1229     1.0  0.77890  0.19062  0.35541  1.0000
  C   C1230     1.0  0.76151  0.16436  0.35198  1.0000
  C   C1231     1.0  0.72940  0.16482  0.35512  1.0000
  C   C1232     1.0  0.62266  0.17745  0.57481  1.0000
  H   H985      1.0  0.77727  0.23709  0.36581  1.0000
  C   C1233     1.0  0.68390  0.32116  0.36031  1.0000
  H   H986      1.0  0.71621  0.14455  0.35217  1.0000
  S   S178      1.0  0.51429  0.31733  0.35338  1.0000
  C   C1234     1.0  0.63936  0.37247  0.34165  1.0000
  H   H987      1.0  0.50959  0.15476  0.43135  1.0000
  C   C1235     1.0  0.51229  0.48459  0.55214  1.0000
  H   H988      1.0  0.64172  0.28864  0.55277  1.0000
  C   C1236     1.0  0.57278  0.28917  0.51429  1.0000
  C   C1237     1.0  0.57381  0.16843  0.59597  1.0000
  C   C1238     1.0  0.54933  0.22666  0.35289  1.0000
  Fe  Fe90      1.0  0.57444  0.14437  0.35394  1.0000
  C   C1239     1.0  0.51639  0.16892  0.42135  1.0000
  C   C1240     1.0  0.57553  0.10744  0.55078  1.0000
  H   H989      1.0  0.69455  0.14134  0.39491  1.0000
  H   H990      1.0  0.56342  0.21817  0.59391  1.0000
  C   C1241     1.0  0.50808  0.22843  0.61363  1.0000
  C   C1242     1.0  0.64883  0.40040  0.38567  1.0000
  H   H991      1.0  0.66712  0.39899  0.37681  1.0000
  S   S179      1.0  0.52587  0.16749  0.35565  1.0000
  H   H992      1.0  0.59348  0.28652  0.50698  1.0000
  H   H993      1.0  0.57195  0.26130  0.40432  1.0000
  C   C1243     1.0  0.53478  0.04503  0.50775  1.0000
  H   H994      1.0  0.56926  0.35090  0.65662  1.0000
  C   C1244     1.0  0.54262  0.06843  0.53924  1.0000
  C   C1245     1.0  0.54129  0.19244  0.52292  1.0000
  C   C1246     1.0  0.50908  0.42882  0.40957  1.0000
  C   C1247     1.0  0.53021  0.41777  0.39785  1.0000
  C   C1248     1.0  0.52736  0.38756  0.39133  1.0000
  P   P42       1.0  0.56071  0.44164  0.39067  1.0000
  C   C1249     1.0  0.52557  0.44517  0.36244  1.0000
  C   C1250     1.0  0.59680  0.41869  0.39382  1.0000
  C   C1251     1.0  0.60198  0.40393  0.40864  1.0000
  C   C1252     1.0  0.63053  0.38816  0.41211  1.0000
  C   C1253     1.0  0.65412  0.38674  0.40073  1.0000
  H   H995      1.0  0.54398  0.11510  0.51185  1.0000
  C   C1254     1.0  0.62018  0.41627  0.38218  1.0000
  C   C1255     1.0  0.55056  0.26636  0.51378  1.0000
  C   C1256     1.0  0.54460  0.48529  0.55040  1.0000
  C   C1257     1.0  0.52516  0.43868  0.49274  1.0000
  C   C1258     1.0  0.55311  0.45322  0.37021  1.0000
  C   C1259     1.0  0.56035  0.04255  0.49736  1.0000
  C   C1260     1.0  0.58156  0.36988  0.66189  1.0000
  C   C1261     1.0  0.50535  0.22761  0.45310  1.0000
  C   C1262     1.0  0.58217  0.48623  0.65924  1.0000
  H   H996      1.0  0.51301  0.43391  0.52434  1.0000
  H   H997      1.0  0.62061  0.36183  0.64616  1.0000
  C   C1263     1.0  0.61732  0.01019  0.41028  1.0000
  H   H998      1.0  0.98128  0.22594  0.37846  1.0000
  C   C1264     1.0  0.62254  0.39981  0.33649  1.0000
  H   H999      1.0  0.54331  0.37867  0.38221  1.0000
  H   H1000     1.0  0.58414  0.40548  0.41772  1.0000
  H   H1001     1.0  0.63454  0.37760  0.42379  1.0000
  H   H1002     1.0  0.57706  0.42315  0.33379  1.0000
  C   C1265     1.0  0.93144  0.38591  0.35249  1.0000
  H   H1003     1.0  0.61660  0.42681  0.37054  1.0000
  C   C1266     1.0  0.56825  0.31553  0.52406  1.0000
  H   H1004     1.0  0.57846  0.33042  0.35407  1.0000
  H   H1005     1.0  0.50374  0.41410  0.55141  1.0000
  C   C1267     1.0  0.56499  0.48657  0.34763  1.0000
  H   H1006     1.0  0.55498  0.16507  0.60428  1.0000
  H   H1007     1.0  0.61297  0.34061  0.38243  1.0000
  C   C1268     1.0  0.58673  0.48497  0.41160  1.0000
  C   C1269     1.0  0.75081  0.10186  0.44338  1.0000
  C   C1270     1.0  0.72049  0.09167  0.44449  1.0000
  C   C1271     1.0  0.69511  0.11351  0.44327  1.0000
  C   C1272     1.0  0.69997  0.14554  0.44086  1.0000
  C   C1273     1.0  0.73037  0.15604  0.43976  1.0000
  C   C1274     1.0  0.75575  0.13389  0.44102  1.0000
  P   P43       1.0  0.73743  0.19723  0.43626  1.0000
  C   C1275     1.0  0.70206  0.21896  0.43037  1.0000
  C   C1276     1.0  0.75092  0.21616  0.45414  1.0000
  C   C1277     1.0  0.74739  0.24919  0.45554  1.0000
  C   C1278     1.0  0.75718  0.26431  0.46935  1.0000
  C   C1279     1.0  0.77064  0.24660  0.48189  1.0000
  C   C1280     1.0  0.77436  0.21372  0.48060  1.0000
  C   C1281     1.0  0.76452  0.19850  0.46678  1.0000
  C   C1282     1.0  0.69881  0.23241  0.41511  1.0000
  C   C1283     1.0  0.67180  0.25057  0.41108  1.0000
  C   C1284     1.0  0.64798  0.25526  0.42225  1.0000
  C   C1285     1.0  0.65098  0.24179  0.43740  1.0000
  C   C1286     1.0  0.67811  0.22415  0.44156  1.0000
  C   C1287     1.0  0.76594  0.19901  0.42057  1.0000
  C   C1288     1.0  0.76561  0.17729  0.40793  1.0000
  C   C1289     1.0  0.78781  0.17806  0.39583  1.0000
  C   C1290     1.0  0.81010  0.20087  0.39607  1.0000
  C   C1291     1.0  0.81032  0.22287  0.40847  1.0000
  C   C1292     1.0  0.78827  0.22207  0.42068  1.0000
  H   H1008     1.0  0.77049  0.08487  0.44420  1.0000
  H   H1009     1.0  0.71664  0.06680  0.44615  1.0000
  H   H1010     1.0  0.67159  0.10554  0.44389  1.0000
  H   H1011     1.0  0.67986  0.16165  0.43951  1.0000
  H   H1012     1.0  0.77940  0.14138  0.44000  1.0000
  H   H1013     1.0  0.73702  0.26335  0.44595  1.0000
  H   H1014     1.0  0.75419  0.28982  0.47028  1.0000
  H   H1015     1.0  0.77818  0.25842  0.49259  1.0000
  H   H1016     1.0  0.78486  0.20003  0.49032  1.0000
  H   H1017     1.0  0.76751  0.17307  0.46609  1.0000
  H   H1018     1.0  0.71703  0.22923  0.40629  1.0000
  H   H1019     1.0  0.66967  0.26149  0.39941  1.0000
  H   H1020     1.0  0.62767  0.27023  0.41939  1.0000
  H   H1021     1.0  0.63270  0.24585  0.44612  1.0000
  H   H1022     1.0  0.68057  0.21488  0.45357  1.0000
  H   H1023     1.0  0.74808  0.15988  0.40731  1.0000
  H   H1024     1.0  0.78744  0.16134  0.38606  1.0000
  H   H1025     1.0  0.82685  0.20177  0.38648  1.0000
  H   H1026     1.0  0.82728  0.24097  0.40845  1.0000
  H   H1027     1.0  0.78857  0.23976  0.42997  1.0000
  C   C1293     1.0  0.54539  0.49002  0.45163  1.0000
  H   H1028     1.0  0.57633  0.04903  0.47327  1.0000
  H   H1029     1.0  0.51241  0.29798  0.41232  1.0000
  C   C1294     1.0  0.51379  0.35387  0.45404  1.0000
  H   H1030     1.0  0.56700  0.27323  0.35125  1.0000
  H   H1031     1.0  0.58005  0.31896  0.40334  1.0000
  H   H1032     1.0  0.57654  0.15453  0.52474  1.0000
  C   C1295     1.0  0.52853  0.03299  0.66462  1.0000
  C   C1296     1.0  0.52190  0.35090  0.48713  1.0000
  H   H1033     1.0  0.57209  0.21473  0.35201  1.0000
  C   C1297     1.0  0.55630  0.42733  0.49415  1.0000
  H   H1034     1.0  0.56227  0.40220  0.49429  1.0000
  H   H1035     1.0  0.96173  0.32302  0.35435  1.0000
  C   C1298     1.0  0.55332  0.16152  0.52059  1.0000
  H   H1036     1.0  0.53297  0.01642  0.41449  1.0000
  P   P44       1.0  0.53821  0.03234  0.52828  1.0000
  H   H1037     1.0  0.54225  0.20275  0.62812  1.0000
  H   H1038     1.0  0.94630  0.38479  0.36296  1.0000
  C   C1299     1.0  0.52130  0.30996  0.57245  1.0000
  C   C1300     1.0  0.60888  0.02046  0.39478  1.0000
  H   H1039     1.0  0.56281  0.47441  0.65414  1.0000
  H   H1040     1.0  0.52536  0.05748  0.39357  1.0000
  H   H1041     1.0  0.66444  0.37108  0.34044  1.0000
  H   H1042     1.0  0.51176  0.49620  0.61494  1.0000
  C   C1301     1.0  0.57442  0.37717  0.34440  1.0000
  H   H1043     1.0  0.74726  0.06968  0.33511  1.0000
  S   S180      1.0  0.61054  0.16286  0.33780  1.0000
  H   H1044     1.0  0.59309  0.06503  0.53924  1.0000
  H   H1045     1.0  0.59032  0.11955  0.59654  1.0000
  H   H1046     1.0  0.77294  0.14362  0.34685  1.0000
  C   C1302     1.0  0.51711  0.27572  0.35392  1.0000
  H   H1047     1.0  0.57133  0.25027  0.63491  1.0000
  C   C1303     1.0  0.67254  0.03360  0.66000  1.0000
  C   C1304     1.0  0.69899  0.02245  0.65167  1.0000
  C   C1305     1.0  0.51951  0.11655  0.55086  1.0000
  P   P45       1.0  0.64486  0.31154  0.35470  1.0000
  H   H1048     1.0  0.52533  0.07211  0.46355  1.0000
  C   C1306     1.0  0.53634  0.06313  0.40478  1.0000
  C   C1307     1.0  0.56690  0.07678  0.43327  1.0000
  C   C1308     1.0  0.56155  0.10064  0.42177  1.0000
  C   C1309     1.0  0.54691  0.09336  0.40733  1.0000
  P   P46       1.0  0.57577  0.13955  0.42475  1.0000
  C   C1310     1.0  0.57780  0.14770  0.44586  1.0000
  C   C1311     1.0  0.61454  0.14045  0.41643  1.0000
  C   C1312     1.0  0.62757  0.16922  0.41268  1.0000
  C   C1313     1.0  0.65611  0.16935  0.40476  1.0000
  C   C1314     1.0  0.67291  0.14108  0.40150  1.0000
  C   C1315     1.0  0.66119  0.11249  0.40622  1.0000
  C   C1316     1.0  0.63206  0.11210  0.41358  1.0000
  C   C1317     1.0  0.60336  0.16271  0.45234  1.0000
  C   C1318     1.0  0.60616  0.16648  0.46883  1.0000
  C   C1319     1.0  0.58343  0.15548  0.47896  1.0000
  C   C1320     1.0  0.55745  0.14141  0.47258  1.0000
  C   C1321     1.0  0.55453  0.13768  0.45612  1.0000
  C   C1322     1.0  0.54716  0.16711  0.41570  1.0000
  H   H1049     1.0  0.50908  0.43041  0.36815  1.0000
  C   C1323     1.0  0.52284  0.20912  0.35458  1.0000
  C   C1324     1.0  0.57311  0.48098  0.49495  1.0000
  C   C1325     1.0  0.53186  0.20585  0.39531  1.0000
  C   C1326     1.0  0.55430  0.18503  0.40224  1.0000
  Fe  Fe91      1.0  0.85626  0.29806  0.33882  1.0000
  H   H1050     1.0  0.52650  0.34975  0.49982  1.0000
  H   H1051     1.0  0.54403  0.11086  0.39794  1.0000
  H   H1052     1.0  0.61524  0.19153  0.41530  1.0000
  C   C1327     1.0  0.61064  0.48490  0.65121  1.0000
  C   C1328     1.0  0.54226  0.49246  0.49324  1.0000
  H   H1053     1.0  0.67389  0.09040  0.40346  1.0000
  H   H1054     1.0  0.62298  0.08947  0.41647  1.0000
  H   H1055     1.0  0.62118  0.17166  0.44480  1.0000
  H   H1056     1.0  0.62557  0.17870  0.47373  1.0000
  H   H1057     1.0  0.58547  0.15894  0.49168  1.0000
  C   C1329     1.0  0.53450  0.22565  0.62346  1.0000
  H   H1058     1.0  0.59357  0.01253  0.64329  1.0000
  S   S181      1.0  0.50989  0.11368  0.58974  1.0000
  C   C1330     1.0  0.52840  0.06538  0.47597  1.0000
  H   H1059     1.0  0.59323  0.48186  0.36881  1.0000
  C   C1331     1.0  0.59111  0.34974  0.34935  1.0000
  H   H1060     1.0  0.57678  0.18254  0.39672  1.0000
  C   C1332     1.0  0.55104  0.32166  0.57237  1.0000
  C   C1333     1.0  0.56161  0.47835  0.40156  1.0000
  C   C1334     1.0  0.57398  0.26825  0.57091  1.0000
  C   C1335     1.0  0.57726  0.30099  0.57157  1.0000
  P   P47       1.0  0.60844  0.24211  0.57104  1.0000
  C   C1336     1.0  0.63538  0.25826  0.58501  1.0000
  C   C1337     1.0  0.62416  0.27165  0.59934  1.0000
  C   C1338     1.0  0.64457  0.28499  0.61012  1.0000
  C   C1339     1.0  0.67643  0.28456  0.60682  1.0000
  C   C1340     1.0  0.68790  0.27055  0.59277  1.0000
  C   C1341     1.0  0.66748  0.25727  0.58191  1.0000
  C   C1342     1.0  0.62285  0.24228  0.55082  1.0000
  C   C1343     1.0  0.61680  0.21757  0.54028  1.0000
  C   C1344     1.0  0.62631  0.21891  0.52434  1.0000
  C   C1345     1.0  0.64185  0.24492  0.51883  1.0000
  C   C1346     1.0  0.64757  0.26978  0.52920  1.0000
  C   C1347     1.0  0.63785  0.26866  0.54508  1.0000
  H   H1061     1.0  0.55399  0.34677  0.57301  1.0000
  H   H1062     1.0  0.60007  0.31071  0.57181  1.0000
  H   H1063     1.0  0.64875  0.24627  0.50641  1.0000
  H   H1064     1.0  0.59953  0.27222  0.60215  1.0000
  H   H1065     1.0  0.63545  0.29583  0.62098  1.0000
  H   H1066     1.0  0.69218  0.29509  0.61516  1.0000
  H   H1067     1.0  0.71262  0.27014  0.59026  1.0000
  H   H1068     1.0  0.67675  0.24643  0.57113  1.0000
  H   H1069     1.0  0.60420  0.19761  0.54425  1.0000
  H   H1070     1.0  0.62123  0.20012  0.51612  1.0000
  S   S182      1.0  0.56234  0.31613  0.62683  1.0000
  C   C1348     1.0  0.51869  0.29678  0.53252  1.0000
  S   S183      1.0  0.61622  0.46368  0.63296  1.0000
  C   C1349     1.0  0.57830  0.19850  0.58980  1.0000
  Fe  Fe92      1.0  0.64403  0.15371  0.35811  1.0000
  H   H1071     1.0  0.58280  0.03288  0.50142  1.0000
  H   H1072     1.0  0.55460  0.24643  0.50597  1.0000
  C   C1350     1.0  0.58664  0.27080  0.39520  1.0000
  C   C1351     1.0  0.55098  0.25266  0.62728  1.0000
  H   H1073     1.0  0.57969  0.08121  0.44410  1.0000
  H   H1074     1.0  0.54074  0.23171  0.56849  1.0000
  C   C1352     1.0  0.55605  0.04668  0.43073  1.0000
  C   C1353     1.0  0.54128  0.28270  0.62135  1.0000
  C   C1354     1.0  0.72017  0.33989  0.38000  1.0000
  H   H1075     1.0  0.60422  0.43967  0.49611  1.0000
  S   S184      1.0  0.67434  0.19298  0.36622  1.0000
  C   C1355     1.0  0.57265  0.47420  0.36271  1.0000
  Fe  Fe93      1.0  0.61794  0.08940  0.36644  1.0000
  H   H1076     1.0  0.58581  0.33276  0.52464  1.0000
  C   C1356     1.0  0.54910  0.12619  0.55496  1.0000
  Fe  Fe94      1.0  0.51372  0.42693  0.61108  1.0000
  C   C1357     1.0  0.54103  0.31967  0.53297  1.0000
  H   H1077     1.0  0.55142  0.14816  0.56136  1.0000
  S   S185      1.0  0.58221  0.09349  0.34666  1.0000
  C   C1358     1.0  0.69058  0.33008  0.37600  1.0000
  C   C1359     1.0  0.51834  0.47146  0.49227  1.0000
  H   H1078     1.0  0.53753  0.34063  0.54030  1.0000
  C   C1360     1.0  0.55150  0.03442  0.65294  1.0000
  C   C1361     1.0  0.51788  0.45771  0.34741  1.0000
  H   H1079     1.0  0.71154  0.03848  0.64430  1.0000
  C   C1362     1.0  0.62018  0.26270  0.37227  1.0000
  H   H1080     1.0  0.64229  0.18075  0.56704  1.0000
  H   H1081     1.0  0.52178  0.25170  0.43241  1.0000
  H   H1082     1.0  0.53894  0.30902  0.45347  1.0000
  H   H1083     1.0  0.67645  0.37505  0.40370  1.0000
  H   H1084     1.0  0.53438  0.12637  0.45147  1.0000
  C   C1363     1.0  0.89940  0.39206  0.35447  1.0000
  C   C1364     1.0  0.60167  0.25055  0.38420  1.0000
  H   H1085     1.0  0.53927  0.13368  0.48029  1.0000
  H   H1086     1.0  0.55996  0.47069  0.55796  1.0000
  H   H1087     1.0  0.55999  0.02825  0.43960  1.0000
  C   C1365     1.0  0.70767  0.32111  0.34881  1.0000
  H   H1088     1.0  0.50430  0.02814  0.55857  1.0000
  C   C1366     1.0  0.61101  0.37588  0.65595  1.0000
  H   H1089     1.0  0.52864  0.01359  0.62167  1.0000
  H   H1090     1.0  0.76712  0.34549  0.37199  1.0000
  C   C1367     1.0  0.62371  0.34725  0.34817  1.0000
  C   C1368     1.0  0.62754  0.40056  0.66223  1.0000
  C   C1369     1.0  0.73763  0.32964  0.35303  1.0000
  H   H1091     1.0  0.59849  0.11498  0.55376  1.0000
  S   S186      1.0  0.65764  0.10393  0.35078  1.0000
  C   C1370     1.0  0.61007  0.31540  0.38282  1.0000
  C   C1371     1.0  0.51133  0.20172  0.51738  1.0000
  C   C1372     1.0  0.58015  0.44846  0.49532  1.0000
  C   C1373     1.0  0.50347  0.06965  0.48650  1.0000
  C   C1374     1.0  0.51023  0.33569  0.66020  1.0000
  C   C1375     1.0  0.51468  0.28550  0.61169  1.0000
  C   C1376     1.0  0.50476  0.14804  0.50831  1.0000
  C   C1377     1.0  0.52901  0.32748  0.46099  1.0000
  C   C1378     1.0  0.59378  0.14285  0.59164  1.0000
  C   C1379     1.0  0.57121  0.00953  0.60826  1.0000
  H   H1092     1.0  0.55501  0.20895  0.52933  1.0000
  C   C1380     1.0  0.53498  0.13926  0.51336  1.0000
  C   C1381     1.0  0.61849  0.14746  0.58125  1.0000
  H   H1093     1.0  0.53787  0.22019  0.38524  1.0000
  H   H1094     1.0  0.60577  0.46777  0.41369  1.0000
  H   H1095     1.0  0.72508  0.34736  0.39208  1.0000
  C   C1382     1.0  0.66950  0.25806  0.33914  1.0000
  H   H1096     1.0  0.50664  0.30847  0.60726  1.0000
  C   C1383     1.0  0.74385  0.33912  0.36863  1.0000
  C   C1384     1.0  0.62419  0.29528  0.37130  1.0000
  C   C1385     1.0  0.51783  0.27752  0.57099  1.0000
  H   H1097     1.0  0.63451  0.12775  0.57832  1.0000
  H   H1098     1.0  0.75611  0.32898  0.34425  1.0000
  H   H1099     1.0  0.63062  0.24648  0.36365  1.0000
  S   S187      1.0  0.87803  0.24966  0.33477  1.0000
  C   C1386     1.0  0.57236  0.07889  0.54272  1.0000
  H   H1100     1.0  0.67307  0.32948  0.38520  1.0000
  C   C1387     1.0  0.51630  0.08774  0.54310  1.0000
  S   S188      1.0  0.51102  0.10681  0.62875  1.0000
  H   H1101     1.0  0.64985  0.40596  0.65722  1.0000
  C   C1388     1.0  0.59990  0.48766  0.45913  1.0000
  C   C1389     1.0  0.50353  0.01300  0.53386  1.0000
  H   H1102     1.0  0.51222  0.35584  0.44117  1.0000
  C   C1390     1.0  0.50645  0.37769  0.48024  1.0000
  H   H1103     1.0  0.51075  0.45194  0.41488  1.0000
  C   C1391     1.0  0.50265  0.37888  0.46358  1.0000
  H   H1104     1.0  0.59167  0.49731  0.49534  1.0000
  H   H1105     1.0  0.65773  0.49993  0.65177  1.0000
  C   C1392     1.0  0.53752  0.47845  0.34001  1.0000
  H   H1106     1.0  0.98299  0.29392  0.37766  1.0000
  C   C1393     1.0  0.59010  0.40213  0.33786  1.0000
  H   H1107     1.0  0.70318  0.31450  0.33657  1.0000
  C   C1394     1.0  0.87971  0.39386  0.34116  1.0000
  C   C1395     1.0  0.56966  0.00346  0.53201  1.0000
  C   C1396     1.0  0.58730  0.00353  0.38619  1.0000
  C   C1397     1.0  0.98430  0.32876  0.35904  1.0000
  H   H1108     1.0  0.50228  0.27349  0.49165  1.0000
  H   H1109     1.0  0.51246  0.35242  0.65053  1.0000
  H   H1110     1.0  0.50319  0.46956  0.56124  1.0000
  C   C1398     1.0  0.99642  0.31201  0.37223  1.0000
  H   H1111     1.0  0.50875  0.05002  0.66449  1.0000
  H   H1112     1.0  0.99983  0.14858  0.34989  1.0000
  C   C1399     1.0  0.63554  0.50089  0.65782  1.0000
  C   C1400     1.0  0.94395  0.38077  0.33717  1.0000
  H   H1113     1.0  0.96712  0.43820  0.34517  1.0000
  H   H1114     1.0  0.85477  0.39775  0.34266  1.0000
  C   C1401     1.0  0.98929  0.43861  0.33913  1.0000
  H   H1115     1.0  0.99233  0.48876  0.34252  1.0000
  H   H1116     1.0  0.50147  0.49135  0.66048  1.0000
  C   C1402     1.0  0.50326  0.36898  0.39616  1.0000
  C   C1403     1.0  0.50144  0.20748  0.40100  1.0000
  C   C1404     1.0  0.53733  0.50142  0.39937  1.0000
  P   P48       1.0  0.98550  0.37352  0.33468  1.0000
  H   H1117     1.0  0.99422  0.19184  0.98609  1.0000
  H   H1118     1.0  0.98375  0.29769  0.89815  1.0000
  S   S189      1.0  0.95696  0.13325  0.95168  1.0000
  Fe  Fe95      1.0  0.95492  0.10734  0.97536  1.0000
  H   H1119     1.0  0.73602  0.48341  0.96249  1.0000
  Fe  Fe96      1.0  0.97591  0.08634  0.94159  1.0000
  S   S190      1.0  0.97014  0.06676  0.91621  1.0000
  H   H1120     1.0  0.96903  0.14643  0.83875  1.0000
  C   C1405     1.0  0.51224  0.44464  0.66980  1.0000
  C   C1406     1.0  0.51689  0.34418  0.67601  1.0000
  C   C1407     1.0  0.99825  0.14792  0.87668  1.0000
  C   C1408     1.0  0.99110  0.34424  0.90711  1.0000
  H   H1121     1.0  0.94583  0.09836  0.84942  1.0000
  H   H1122     1.0  0.94086  0.24441  0.93099  1.0000
  H   H1123     1.0  0.94040  0.01401  0.93185  1.0000
  C   C1409     1.0  0.56807  0.38895  0.67399  1.0000
  C   C1410     1.0  0.96130  0.02793  0.90986  1.0000
  C   C1411     1.0  0.61488  0.41888  0.67467  1.0000
  C   C1412     1.0  0.96827  0.01842  0.89410  1.0000
  H   H1124     1.0  0.50373  0.02062  0.89948  1.0000
  C   C1413     1.0  0.96652  0.18327  0.90733  1.0000
  C   C1414     1.0  0.95292  0.36566  0.99134  1.0000
  H   H1125     1.0  0.98977  0.11276  0.89466  1.0000
  H   H1126     1.0  0.92440  0.19296  0.92070  1.0000
  C   C1415     1.0  0.55015  0.38585  0.72816  1.0000
  C   C1416     1.0  0.55161  0.38054  0.71170  1.0000
  S   S191      1.0  0.99418  0.33268  0.95361  1.0000
  H   H1127     1.0  0.57571  0.42827  0.68991  1.0000
  H   H1128     1.0  0.93924  0.38393  0.98501  1.0000
  S   S192      1.0  0.91264  0.11199  0.99166  1.0000
  H   H1129     1.0  0.62751  0.43836  0.67938  1.0000
  C   C1417     1.0  0.98534  0.24089  0.91923  1.0000
  H   H1130     1.0  0.95878  0.16088  0.90315  1.0000
  C   C1418     1.0  0.98550  0.12035  0.88246  1.0000
  C   C1419     1.0  0.98325  0.26968  0.95740  1.0000
  H   H1131     1.0  0.93362  0.32759  0.97823  1.0000
  C   C1420     1.0  0.94603  0.00712  0.91974  1.0000
  C   C1421     1.0  0.96060  0.11210  0.85695  1.0000
  H   H1132     1.0  0.96632  0.28604  0.99151  1.0000
  H   H1133     1.0  0.99767  0.48857  0.88568  1.0000
  C   C1422     1.0  0.94677  0.20150  0.91732  1.0000
  H   H1134     1.0  0.98058  0.03392  0.88640  1.0000
  C   C1423     1.0  0.58530  0.41316  0.68053  1.0000
  C   C1424     1.0  0.50332  0.41330  0.67071  1.0000
  H   H1135     1.0  0.95593  0.08208  0.87749  1.0000
  H   H1136     1.0  0.57228  0.36864  0.70671  1.0000
  H   H1137     1.0  0.53368  0.45144  0.67520  1.0000
  C   C1425     1.0  0.97967  0.01800  0.99881  1.0000
  H   H1138     1.0  0.97396  0.21996  0.95873  1.0000
  C   C1426     1.0  0.99172  0.23706  0.95799  1.0000
  C   C1427     1.0  0.97364  0.13921  0.85098  1.0000
  S   S193      1.0  0.99813  0.47493  0.98541  1.0000
  C   C1428     1.0  0.52666  0.39075  0.70178  1.0000
  H   H1139     1.0  0.63568  0.02155  0.67585  1.0000
  H   H1140     1.0  0.98574  0.00739  0.98740  1.0000
  C   C1429     1.0  0.94968  0.33389  0.98756  1.0000
  C   C1430     1.0  0.99579  0.19391  0.90310  1.0000
  C   C1431     1.0  0.95604  0.23044  0.92312  1.0000
  H   H1141     1.0  0.52259  0.40524  0.74757  1.0000
  H   H1142     1.0  0.56967  0.37835  0.73573  1.0000
  C   C1432     1.0  0.99231  0.15717  0.86080  1.0000
  H   H1143     1.0  0.99275  0.49027  0.95169  1.0000
  C   C1433     1.0  0.96852  0.31036  0.99506  1.0000
  P   P49       1.0  0.52855  0.38365  0.68056  1.0000
  C   C1434     1.0  0.96645  0.10277  0.87271  1.0000
  C   C1435     1.0  0.53045  0.00906  0.67616  1.0000
  H   H1144     1.0  0.95890  0.27748  0.95770  1.0000
  S   S194      1.0  0.96940  0.06008  0.96448  1.0000
  H   H1145     1.0  0.99292  0.26284  0.92419  1.0000
  H   H1146     1.0  0.96651  0.35040  0.90867  1.0000
  H   H1147     1.0  0.51952  0.32728  0.70046  1.0000
  C   C1436     1.0  0.99082  0.20462  0.99720  1.0000
  H   H1148     1.0  0.51212  0.00834  0.68491  1.0000
  C   C1437     1.0  0.65628  0.01292  0.66946  1.0000
  H   H1149     1.0  0.70632  0.49143  0.98762  1.0000
  C   C1438     1.0  0.52362  0.40097  0.73483  1.0000
  H   H1150     1.0  0.93186  0.02961  0.99223  1.0000
  C   C1439     1.0  0.50536  0.29116  0.68455  1.0000
  H   H1151     1.0  0.50364  0.27377  0.69395  1.0000
  C   C1440     1.0  0.51441  0.32161  0.68818  1.0000
  C   C1441     1.0  0.00088  0.31449  0.90130  1.0000
  C   C1442     1.0  0.86389  0.79246  0.05217  1.0000
  S   S195      1.0  0.88551  0.65152  0.02099  1.0000
  C   C1443     1.0  0.97232  0.70840  0.04560  1.0000
  C   C1444     1.0  0.94050  0.82807  0.12779  1.0000
  S   S196      1.0  0.95771  0.60606  0.11147  1.0000
  Fe  Fe97      1.0  0.97667  0.56113  0.12365  1.0000
  H   H1152     1.0  0.99350  0.66153  0.01339  1.0000
  H   H1153     1.0  0.92523  0.73040  0.00738  1.0000
  C   C1445     1.0  0.94171  0.95748  0.06011  1.0000
  S   S197      1.0  0.95101  0.51719  0.13071  1.0000
  Fe  Fe98      1.0  0.99526  0.59735  0.09320  1.0000
  C   C1446     1.0  0.95136  0.85248  0.09747  1.0000
  P   P50       1.0  0.94014  0.79645  0.08150  1.0000
  C   C1447     1.0  0.86272  0.84519  0.06328  1.0000
  C   C1448     1.0  0.93829  0.72494  0.01816  1.0000
  H   H1154     1.0  0.93039  0.99989  0.04673  1.0000
  C   C1449     1.0  0.94303  0.82099  0.09904  1.0000
  C   C1450     1.0  0.89115  0.78460  0.06077  1.0000
  H   H1155     1.0  0.94716  0.79965  0.04649  1.0000
  C   C1451     1.0  0.92277  0.71940  0.03239  1.0000
  S   S198      1.0  0.98533  0.67879  0.13662  1.0000
  C   C1452     1.0  0.91619  0.63808  0.03380  1.0000
  C   C1453     1.0  0.91154  0.63690  0.05039  1.0000
  C   C1454     1.0  0.93611  0.62687  0.06072  1.0000
  C   C1455     1.0  0.96541  0.61809  0.05445  1.0000
  C   C1456     1.0  0.96989  0.61927  0.03793  1.0000
  C   C1457     1.0  0.94536  0.62884  0.02765  1.0000
  H   H1156     1.0  0.88893  0.64382  0.05525  1.0000
  H   H1157     1.0  0.93237  0.62577  0.07346  1.0000
  C   C1458     1.0  0.96211  0.91260  0.04484  1.0000
  H   H1158     1.0  0.94894  0.62876  0.01494  1.0000
  C   C1459     1.0  0.95381  0.87303  0.01102  1.0000
  C   C1460     1.0  0.96410  0.51178  0.16324  1.0000
  C   C1461     1.0  0.95389  0.87166  0.11094  1.0000
  H   H1159     1.0  0.82834  0.82876  0.04688  1.0000
  H   H1160     1.0  0.90872  0.94621  0.00549  1.0000
  C   C1462     1.0  0.96723  0.70331  0.08899  1.0000
  C   C1463     1.0  0.97074  0.72190  0.01757  1.0000
  H   H1161     1.0  0.95162  0.87390  0.13658  1.0000
  C   C1464     1.0  0.81106  0.65786  0.00259  1.0000
  C   C1465     1.0  0.92687  0.86612  0.01951  1.0000
  H   H1162     1.0  0.91485  0.88395  0.02680  1.0000
  C   C1466     1.0  0.96761  0.73541  0.08513  1.0000
  C   C1467     1.0  0.94601  0.53379  0.05360  1.0000
  C   C1468     1.0  0.94009  0.69089  0.09484  1.0000
  C   C1469     1.0  0.98817  0.71421  0.03135  1.0000
  C   C1470     1.0  0.97271  0.80354  0.06874  1.0000
  H   H1163     1.0  0.98903  0.74455  0.08083  1.0000
  C   C1471     1.0  0.91323  0.71043  0.09683  1.0000
  C   C1472     1.0  0.90439  0.80692  0.07078  1.0000
  H   H1164     1.0  0.97819  0.96547  0.15095  1.0000
  C   C1473     1.0  0.94056  0.75517  0.08691  1.0000
  H   H1165     1.0  0.85158  0.86864  0.06433  1.0000
  P   P51       1.0  0.96875  0.91197  0.01181  1.0000
  H   H1166     1.0  0.85371  0.77497  0.04459  1.0000
  H   H1167     1.0  0.90189  0.76107  0.05962  1.0000
  C   C1474     1.0  0.91502  0.83605  0.01857  1.0000
  H   H1168     1.0  0.93544  0.96805  0.07150  1.0000
  H   H1169     1.0  0.96081  0.89580  0.10968  1.0000
  H   H1170     1.0  0.98200  0.72424  0.00618  1.0000
  H   H1171     1.0  0.89245  0.75736  0.09461  1.0000
  H   H1172     1.0  0.93753  0.81828  0.13960  1.0000
  C   C1475     1.0  0.91341  0.74246  0.09288  1.0000
  C   C1476     1.0  0.93981  0.71101  0.04611  1.0000
  H   H1173     1.0  0.82386  0.61650  0.01648  1.0000
  C   C1477     1.0  0.93785  0.80884  0.11434  1.0000
  H   H1174     1.0  0.92782  0.70507  0.05697  1.0000
  H   H1175     1.0  0.89434  0.83076  0.02519  1.0000
  H   H1176     1.0  0.95706  0.91298  0.07048  1.0000
  H   H1177     1.0  0.93257  0.78441  0.11608  1.0000
  H   H1178     1.0  0.95632  0.86212  0.08586  1.0000
  C   C1478     1.0  0.88999  0.83736  0.07192  1.0000
  C   C1479     1.0  0.84963  0.82274  0.05344  1.0000
  H   H1179     1.0  0.89948  0.85514  0.07949  1.0000
  H   H1180     1.0  0.93998  0.66617  0.09802  1.0000
  H   H1181     1.0  0.89239  0.70071  0.10162  1.0000
  H   H1182     1.0  0.99149  0.78719  0.15493  1.0000
  C   C1480     1.0  0.94852  0.85942  0.12610  1.0000
  H   H1183     1.0  0.93896  0.55825  0.05115  1.0000
  C   C1481     1.0  0.92966  0.81291  0.00892  1.0000
  H   H1184     1.0  0.99176  0.81043  0.02953  1.0000
  H   H1185     1.0  0.89753  0.72000  0.03259  1.0000
  C   C1482     1.0  0.97323  0.98778  0.15698  1.0000
  C   C1483     1.0  0.97754  0.52485  0.05552  1.0000
  H   H1186     1.0  0.97715  0.73187  0.15656  1.0000
  H   H1187     1.0  0.94625  0.97644  0.02091  1.0000
  C   C1484     1.0  0.95837  0.93016  0.03067  1.0000
  C   C1485     1.0  0.93891  0.97541  0.04614  1.0000
  C   C1486     1.0  0.92359  0.51121  0.05488  1.0000
  C   C1487     1.0  0.99469  0.80968  0.04235  1.0000
  H   H1188     1.0  0.97173  0.88846  0.04461  1.0000
  C   C1488     1.0  0.94765  0.96195  0.03150  1.0000
  C   C1489     1.0  0.95367  0.92624  0.05949  1.0000
  C   C1490     1.0  0.96930  0.80381  0.05206  1.0000
  H   H1189     1.0  0.70887  0.54191  0.00246  1.0000
  H   H1190     1.0  0.96989  0.53629  0.16280  1.0000
  C   C1491     1.0  0.99096  0.99594  0.17021  1.0000
  H   H1191     1.0  0.81968  0.67402  0.01139  1.0000
  H   H1192     1.0  0.98476  0.70045  0.05620  1.0000
  C   C1492     1.0  0.81331  0.62535  0.00547  1.0000
  Fe  Fe99      1.0  0.99516  0.63055  0.12503  1.0000
  H   H1193     1.0  0.89917  0.51831  0.05339  1.0000
  S   S199      1.0  0.98543  0.96189  0.09546  1.0000
  C   C1493     1.0  0.98907  0.73983  0.14607  1.0000
  H   H1194     1.0  0.99246  0.61253  0.03307  1.0000
  H   H1195     1.0  0.97034  0.50782  0.18877  1.0000
  H   H1196     1.0  0.98807  0.68798  0.08765  1.0000
  H   H1197     1.0  0.92038  0.78970  0.00798  1.0000
  H   H1198     1.0  0.99491  0.54233  0.05455  1.0000
  S   S200      1.0  0.99707  0.60439  0.06645  1.0000
  C   C1494     1.0  0.97954  0.99922  0.10473  1.0000
  C   C1495     1.0  0.99645  0.71841  0.13379  1.0000
  C   C1496     1.0  0.99720  0.77136  0.14513  1.0000
  C   C1497     1.0  0.96781  0.84995  0.00099  1.0000
  C   C1498     1.0  0.95594  0.81993  0.00015  1.0000
  H   H1199     1.0  0.00041  0.98994  0.05961  1.0000
  C   C1499     1.0  0.51671  0.81537  0.50219  1.0000
  C   C1500     1.0  0.59478  0.98842  0.60249  1.0000
  Fe  Fe100     1.0  0.52193  0.57054  0.45924  1.0000
  S   S201      1.0  0.57028  0.54680  0.45944  1.0000
  H   H1200     1.0  0.55531  0.87655  0.56138  1.0000
  H   H1201     1.0  0.95316  0.59024  0.64291  1.0000
  Fe  Fe101     1.0  0.59472  0.89935  0.47537  1.0000
  S   S202      1.0  0.55241  0.87676  0.48413  1.0000
  S   S203      1.0  0.63804  0.90239  0.49083  1.0000
  Fe  Fe102     1.0  0.56645  0.91250  0.44189  1.0000
  S   S204      1.0  0.52226  0.88878  0.44845  1.0000
  S   S205      1.0  0.56696  0.93153  0.41624  1.0000
  Fe  Fe103     1.0  0.52589  0.91624  0.47127  1.0000
  H   H1202     1.0  0.91473  0.57897  0.66390  1.0000
  Fe  Fe104     1.0  0.55288  0.85109  0.46060  1.0000
  C   C1501     1.0  0.60409  0.80685  0.40575  1.0000
  S   S206      1.0  0.56844  0.94145  0.46432  1.0000
  S   S207      1.0  0.59687  0.87242  0.45218  1.0000
  Fe  Fe105     1.0  0.60916  0.79842  0.60014  1.0000
  S   S208      1.0  0.66094  0.80040  0.59769  1.0000
  S   S209      1.0  0.58749  0.75133  0.59752  1.0000
  Fe  Fe106     1.0  0.60123  0.86852  0.60729  1.0000
  S   S210      1.0  0.65232  0.87633  0.60549  1.0000
  S   S211      1.0  0.56310  0.90319  0.61525  1.0000
  Fe  Fe107     1.0  0.64918  0.84502  0.58370  1.0000
  S   S212      1.0  0.67532  0.85342  0.56076  1.0000
  Fe  Fe108     1.0  0.65980  0.83110  0.61959  1.0000
  S   S213      1.0  0.68609  0.81979  0.64302  1.0000
  S   S214      1.0  0.59758  0.84050  0.58464  1.0000
  S   S215      1.0  0.60830  0.82582  0.62284  1.0000
  C   C1502     1.0  0.55788  0.58118  0.59822  1.0000
  C   C1503     1.0  0.57178  0.50541  0.45659  1.0000
  C   C1504     1.0  0.70908  0.99057  0.65267  1.0000
  C   C1505     1.0  0.57106  0.54945  0.62684  1.0000
  H   H1203     1.0  0.65494  0.69503  0.42099  1.0000
  H   H1204     1.0  0.86344  0.75989  0.66501  1.0000
  H   H1205     1.0  0.56291  0.55895  0.42370  1.0000
  C   C1506     1.0  0.56736  0.94392  0.61269  1.0000
  C   C1507     1.0  0.59284  0.95561  0.60466  1.0000
  S   S216      1.0  0.55558  0.79706  0.46225  1.0000
  C   C1508     1.0  0.54424  0.96504  0.61873  1.0000
  H   H1206     1.0  0.61076  0.93940  0.59995  1.0000
  H   H1207     1.0  0.67616  0.72148  0.46912  1.0000
  H   H1208     1.0  0.52466  0.95617  0.62510  1.0000
  C   C1509     1.0  0.72426  0.81969  0.65141  1.0000
  H   H1209     1.0  0.50684  0.65656  0.41086  1.0000
  C   C1510     1.0  0.72803  0.91781  0.64559  1.0000
  C   C1511     1.0  0.79143  0.71285  0.63708  1.0000
  C   C1512     1.0  0.77902  0.83190  0.65070  1.0000
  C   C1513     1.0  0.74919  0.83271  0.64355  1.0000
  H   H1210     1.0  0.54365  0.97373  0.57550  1.0000
  H   H1211     1.0  0.54801  0.73971  0.39321  1.0000
  H   H1212     1.0  0.79807  0.84217  0.64451  1.0000
  H   H1213     1.0  0.74551  0.84337  0.63194  1.0000
  C   C1514     1.0  0.93843  0.60930  0.64787  1.0000
  H   H1214     1.0  0.67881  0.55790  0.64692  1.0000
  C   C1515     1.0  0.60903  0.97936  0.54978  1.0000
  C   C1516     1.0  0.52872  0.77990  0.59980  1.0000
  C   C1517     1.0  0.54664  0.75154  0.59848  1.0000
  C   C1518     1.0  0.53186  0.72283  0.59782  1.0000
  H   H1215     1.0  0.54720  0.54014  0.52087  1.0000
  H   H1216     1.0  0.53997  0.80214  0.60019  1.0000
  H   H1217     1.0  0.54560  0.70083  0.59681  1.0000
  C   C1519     1.0  0.65072  0.71063  0.43107  1.0000
  C   C1520     1.0  0.64580  0.88609  0.51011  1.0000
  C   C1521     1.0  0.62260  0.87722  0.52081  1.0000
  C   C1522     1.0  0.63077  0.86752  0.53660  1.0000
  C   C1523     1.0  0.66220  0.86569  0.54146  1.0000
  C   C1524     1.0  0.68500  0.87369  0.53055  1.0000
  C   C1525     1.0  0.67688  0.88413  0.51516  1.0000
  H   H1218     1.0  0.59844  0.87887  0.51709  1.0000
  H   H1219     1.0  0.61293  0.86159  0.54496  1.0000
  H   H1220     1.0  0.70927  0.87238  0.53411  1.0000
  H   H1221     1.0  0.69496  0.89099  0.50711  1.0000
  H   H1222     1.0  0.50902  0.57728  0.64228  1.0000
  H   H1223     1.0  0.61101  0.97599  0.42909  1.0000
  C   C1526     1.0  0.68127  0.74336  0.38294  1.0000
  H   H1224     1.0  0.62068  0.97835  0.56128  1.0000
  C   C1527     1.0  0.54374  0.73428  0.46015  1.0000
  C   C1528     1.0  0.52677  0.70803  0.45577  1.0000
  C   C1529     1.0  0.57468  0.71395  0.41145  1.0000
  H   H1225     1.0  0.56586  0.73057  0.46622  1.0000
  H   H1226     1.0  0.53568  0.68435  0.45857  1.0000
  H   H1227     1.0  0.57989  0.50320  0.34206  1.0000
  C   C1530     1.0  0.52190  0.62279  0.55755  1.0000
  C   C1531     1.0  0.76446  0.90494  0.61837  1.0000
  H   H1228     1.0  0.53881  0.71992  0.55223  1.0000
  C   C1532     1.0  0.58315  0.96623  0.40848  1.0000
  C   C1533     1.0  0.76060  0.91944  0.64628  1.0000
  H   H1229     1.0  0.57579  0.53680  0.63788  1.0000
  C   C1534     1.0  0.56624  0.58242  0.62688  1.0000
  C   C1535     1.0  0.59074  0.83769  0.40622  1.0000
  C   C1536     1.0  0.61973  0.62070  0.66446  1.0000
  H   H1230     1.0  0.51856  0.54775  0.40586  1.0000
  C   C1537     1.0  0.54508  0.81862  0.41905  1.0000
  H   H1231     1.0  0.92482  0.68879  0.64469  1.0000
  C   C1538     1.0  0.81859  0.71954  0.66210  1.0000
  C   C1539     1.0  0.92241  0.66491  0.64899  1.0000
  C   C1540     1.0  0.61706  0.86939  0.66045  1.0000
  C   C1541     1.0  0.60427  0.98352  0.41717  1.0000
  C   C1542     1.0  0.53777  0.53038  0.40730  1.0000
  H   H1232     1.0  0.86070  0.67079  0.63690  1.0000
  C   C1543     1.0  0.71391  0.91035  0.63103  1.0000
  C   C1544     1.0  0.52515  0.69839  0.40063  1.0000
  H   H1233     1.0  0.56525  0.98005  0.50917  1.0000
  H   H1234     1.0  0.52638  0.73123  0.63363  1.0000
  C   C1545     1.0  0.66127  0.74706  0.39600  1.0000
  H   H1235     1.0  0.53975  0.81742  0.56516  1.0000
  C   C1546     1.0  0.53313  0.88953  0.65632  1.0000
  H   H1236     1.0  0.59391  0.68319  0.43020  1.0000
  H   H1237     1.0  0.63333  0.70639  0.35744  1.0000
  C   C1547     1.0  0.90088  0.65878  0.66102  1.0000
  P   P52       1.0  0.60522  0.74178  0.41212  1.0000
  H   H1238     1.0  0.55892  0.96297  0.38598  1.0000
  C   C1548     1.0  0.54263  0.76826  0.55891  1.0000
  C   C1549     1.0  0.56123  0.84352  0.41283  1.0000
  H   H1239     1.0  0.51025  0.85974  0.60515  1.0000
  C   C1550     1.0  0.64301  0.70373  0.66076  1.0000
  H   H1240     1.0  0.62710  0.80302  0.40077  1.0000
  H   H1241     1.0  0.72099  0.89783  0.60634  1.0000
  C   C1551     1.0  0.57531  0.68754  0.42164  1.0000
  C   C1552     1.0  0.55833  0.78782  0.41860  1.0000
  H   H1242     1.0  0.53835  0.86009  0.53355  1.0000
  H   H1243     1.0  0.54133  0.61611  0.53406  1.0000
  H   H1244     1.0  0.52636  0.88987  0.64386  1.0000
  C   C1553     1.0  0.54619  0.99766  0.61655  1.0000
  H   H1245     1.0  0.57142  0.65202  0.48055  1.0000
  H   H1246     1.0  0.60332  0.85731  0.40168  1.0000
  H   H1247     1.0  0.95805  0.64519  0.63337  1.0000
  C   C1554     1.0  0.52405  0.65238  0.64098  1.0000
  C   C1555     1.0  0.58467  0.00192  0.54696  1.0000
  H   H1248     1.0  0.52792  0.83953  0.65934  1.0000
  H   H1249     1.0  0.54572  0.76895  0.42378  1.0000
  P   P53       1.0  0.56990  0.60374  0.64535  1.0000
  C   C1556     1.0  0.61009  0.60082  0.65223  1.0000
  C   C1557     1.0  0.55616  0.64447  0.64230  1.0000
  C   C1558     1.0  0.57734  0.66823  0.64011  1.0000
  C   C1559     1.0  0.56661  0.69943  0.63713  1.0000
  H   H1250     1.0  0.51365  0.82682  0.62929  1.0000
  H   H1251     1.0  0.59792  0.71279  0.38029  1.0000
  C   C1560     1.0  0.71800  0.68120  0.66142  1.0000
  C   C1561     1.0  0.63188  0.57832  0.64587  1.0000
  C   C1562     1.0  0.53753  0.52449  0.52956  1.0000
  H   H1252     1.0  0.55102  0.86742  0.41330  1.0000
  C   C1563     1.0  0.81598  0.69288  0.63166  1.0000
  H   H1253     1.0  0.60214  0.66271  0.64045  1.0000
  H   H1254     1.0  0.58304  0.71765  0.63528  1.0000
  H   H1255     1.0  0.66933  0.75878  0.40662  1.0000
  H   H1256     1.0  0.56521  0.76404  0.56452  1.0000
  C   C1564     1.0  0.51543  0.83955  0.51352  1.0000
  P   P54       1.0  0.70447  0.92807  0.66285  1.0000
  H   H1257     1.0  0.55115  0.64692  0.42942  1.0000
  C   C1565     1.0  0.57070  0.53266  0.61254  1.0000
  H   H1258     1.0  0.62570  0.56233  0.63653  1.0000
  C   C1566     1.0  0.54447  0.58620  0.65965  1.0000
  H   H1259     1.0  0.63518  0.76497  0.46765  1.0000
  H   H1260     1.0  0.61433  0.99742  0.59616  1.0000
  C   C1567     1.0  0.53527  0.95005  0.57525  1.0000
  C   C1568     1.0  0.52817  0.79847  0.55932  1.0000
  C   C1569     1.0  0.60218  0.95840  0.52323  1.0000
  C   C1570     1.0  0.60603  0.68555  0.48587  1.0000
  C   C1571     1.0  0.57659  0.67329  0.48702  1.0000
  C   C1572     1.0  0.55364  0.68870  0.49634  1.0000
  C   C1573     1.0  0.56019  0.71620  0.50468  1.0000
  C   C1574     1.0  0.58939  0.72931  0.50315  1.0000
  C   C1575     1.0  0.61245  0.71340  0.49392  1.0000
  P   P55       1.0  0.59791  0.76515  0.51370  1.0000
  C   C1576     1.0  0.61141  0.75574  0.53367  1.0000
  C   C1577     1.0  0.62853  0.78434  0.50334  1.0000
  C   C1578     1.0  0.65999  0.77590  0.50664  1.0000
  C   C1579     1.0  0.68368  0.79141  0.49899  1.0000
  C   C1580     1.0  0.67618  0.81499  0.48777  1.0000
  C   C1581     1.0  0.64503  0.82285  0.48411  1.0000
  C   C1582     1.0  0.62125  0.80786  0.49192  1.0000
  C   C1583     1.0  0.62935  0.77708  0.54205  1.0000
  C   C1584     1.0  0.64061  0.76971  0.55731  1.0000
  C   C1585     1.0  0.63392  0.74108  0.56445  1.0000
  C   C1586     1.0  0.61604  0.71968  0.55624  1.0000
  C   C1587     1.0  0.60491  0.72687  0.54087  1.0000
  C   C1588     1.0  0.56443  0.79290  0.51431  1.0000
  C   C1589     1.0  0.54111  0.79222  0.50255  1.0000
  H   H1261     1.0  0.77149  0.71796  0.62946  1.0000
  H   H1262     1.0  0.70452  0.75205  0.38356  1.0000
  C   C1590     1.0  0.53875  0.84073  0.52513  1.0000
  C   C1591     1.0  0.56307  0.81746  0.52557  1.0000
  H   H1263     1.0  0.62373  0.67364  0.47856  1.0000
  C   C1592     1.0  0.61794  0.89776  0.65205  1.0000
  C   C1593     1.0  0.52608  0.67214  0.41073  1.0000
  H   H1264     1.0  0.54234  0.72753  0.51209  1.0000
  H   H1265     1.0  0.63534  0.72250  0.49281  1.0000
  H   H1266     1.0  0.66626  0.75768  0.51530  1.0000
  H   H1267     1.0  0.70785  0.78555  0.50194  1.0000
  H   H1268     1.0  0.69438  0.82760  0.48205  1.0000
  H   H1269     1.0  0.63929  0.84125  0.47547  1.0000
  H   H1270     1.0  0.59731  0.81478  0.48899  1.0000
  H   H1271     1.0  0.63501  0.79939  0.53675  1.0000
  H   H1272     1.0  0.65450  0.78640  0.56358  1.0000
  H   H1273     1.0  0.64219  0.73574  0.57644  1.0000
  H   H1274     1.0  0.61046  0.69773  0.56192  1.0000
  H   H1275     1.0  0.59109  0.71001  0.53474  1.0000
  H   H1276     1.0  0.54227  0.77459  0.49323  1.0000
  C   C1594     1.0  0.55722  0.50488  0.53898  1.0000
  H   H1277     1.0  0.81496  0.68270  0.61983  1.0000
  H   H1278     1.0  0.57374  0.93071  0.56136  1.0000
  H   H1279     1.0  0.58110  0.81919  0.53449  1.0000
  C   C1595     1.0  0.61868  0.66747  0.60216  1.0000
  C   C1596     1.0  0.62370  0.63465  0.60235  1.0000
  C   C1597     1.0  0.64530  0.62046  0.61300  1.0000
  C   C1598     1.0  0.66240  0.63911  0.62327  1.0000
  C   C1599     1.0  0.65838  0.67216  0.62263  1.0000
  C   C1600     1.0  0.63597  0.68610  0.61227  1.0000
  P   P56       1.0  0.68191  0.69756  0.63433  1.0000
  C   C1601     1.0  0.65512  0.71904  0.64750  1.0000
  C   C1602     1.0  0.71284  0.67601  0.64507  1.0000
  H   H1280     1.0  0.68892  0.90928  0.63008  1.0000
  C   C1603     1.0  0.62108  0.72139  0.38126  1.0000
  S   S217      1.0  0.51158  0.61595  0.47249  1.0000
  C   C1604     1.0  0.75783  0.63867  0.64481  1.0000
  C   C1605     1.0  0.73346  0.65518  0.63676  1.0000
  C   C1606     1.0  0.64476  0.75034  0.64421  1.0000
  H   H1281     1.0  0.53126  0.60020  0.56189  1.0000
  C   C1607     1.0  0.55922  0.59821  0.61248  1.0000
  C   C1608     1.0  0.64420  0.91574  0.65303  1.0000
  C   C1609     1.0  0.79270  0.72621  0.65229  1.0000
  C   C1610     1.0  0.70159  0.72275  0.62070  1.0000
  C   C1611     1.0  0.70496  0.71460  0.60450  1.0000
  C   C1612     1.0  0.72111  0.73374  0.59415  1.0000
  C   C1613     1.0  0.73451  0.76081  0.59992  1.0000
  C   C1614     1.0  0.73186  0.76862  0.61605  1.0000
  C   C1615     1.0  0.71554  0.74967  0.62643  1.0000
  H   H1282     1.0  0.60156  0.67867  0.59416  1.0000
  H   H1283     1.0  0.61079  0.62021  0.59430  1.0000
  H   H1284     1.0  0.64880  0.59495  0.61327  1.0000
  H   H1285     1.0  0.67867  0.62768  0.63156  1.0000
  H   H1286     1.0  0.63233  0.71155  0.61187  1.0000
  C   C1616     1.0  0.94118  0.64025  0.64249  1.0000
  C   C1617     1.0  0.55225  0.92587  0.56733  1.0000
  C   C1618     1.0  0.51416  0.66007  0.53584  1.0000
  H   H1287     1.0  0.77348  0.62244  0.63836  1.0000
  H   H1288     1.0  0.73066  0.65172  0.62404  1.0000
  H   H1289     1.0  0.65285  0.76254  0.63380  1.0000
  C   C1619     1.0  0.61799  0.95774  0.53785  1.0000
  H   H1290     1.0  0.55476  0.62358  0.61218  1.0000
  C   C1620     1.0  0.91679  0.60296  0.65970  1.0000
  H   H1291     1.0  0.56298  0.53514  0.58718  1.0000
  H   H1292     1.0  0.69530  0.69349  0.59975  1.0000
  H   H1293     1.0  0.72313  0.72772  0.58162  1.0000
  H   H1294     1.0  0.74670  0.77592  0.59189  1.0000
  H   H1295     1.0  0.74224  0.78958  0.62048  1.0000
  H   H1296     1.0  0.71391  0.75594  0.63895  1.0000
  H   H1297     1.0  0.60504  0.77435  0.44309  1.0000
  C   C1621     1.0  0.53467  0.70712  0.63615  1.0000
  H   H1298     1.0  0.60645  0.51907  0.42725  1.0000
  C   C1622     1.0  0.63978  0.74984  0.45746  1.0000
  H   H1299     1.0  0.53699  0.51769  0.49228  1.0000
  H   H1300     1.0  0.68574  0.68639  0.44573  1.0000
  H   H1301     1.0  0.51885  0.66639  0.52366  1.0000
  H   H1302     1.0  0.77373  0.74195  0.65646  1.0000
  C   C1623     1.0  0.63105  0.73597  0.39530  1.0000
  C   C1624     1.0  0.56388  0.54842  0.59821  1.0000
  C   C1625     1.0  0.62783  0.73550  0.43016  1.0000
  C   C1626     1.0  0.66991  0.90544  0.66246  1.0000
  C   C1627     1.0  0.54183  0.89523  0.56738  1.0000
  C   C1628     1.0  0.66810  0.70559  0.44509  1.0000
  H   H1303     1.0  0.77214  0.92575  0.65724  1.0000
  H   H1304     1.0  0.77849  0.89957  0.60791  1.0000
  C   C1629     1.0  0.56280  0.53678  0.41725  1.0000
  H   H1305     1.0  0.55233  0.59345  0.58721  1.0000
  C   C1630     1.0  0.62252  0.75505  0.44346  1.0000
  C   C1631     1.0  0.52745  0.63165  0.54181  1.0000
  C   C1632     1.0  0.53243  0.76528  0.45670  1.0000
  H   H1306     1.0  0.57559  0.50737  0.61270  1.0000
  H   H1307     1.0  0.53062  0.67949  0.49683  1.0000
  C   C1633     1.0  0.66268  0.72526  0.45827  1.0000
  C   C1634     1.0  0.62385  0.76640  0.65452  1.0000
  C   C1635     1.0  0.76211  0.64319  0.66117  1.0000
  H   H1308     1.0  0.80386  0.91333  0.63347  1.0000
  H   H1309     1.0  0.65047  0.67964  0.66346  1.0000
  H   H1310     1.0  0.52253  0.82328  0.42452  1.0000
  C   C1636     1.0  0.51595  0.57506  0.65458  1.0000
  H   H1311     1.0  0.61685  0.79089  0.65225  1.0000
  C   C1637     1.0  0.73206  0.90393  0.61749  1.0000
  H   H1312     1.0  0.63683  0.94015  0.53996  1.0000
  H   H1313     1.0  0.60871  0.94156  0.51402  1.0000
  C   C1638     1.0  0.57777  0.98072  0.52041  1.0000
  C   C1639     1.0  0.64116  0.71769  0.36822  1.0000
  C   C1640     1.0  0.58787  0.78161  0.41189  1.0000
  C   C1641     1.0  0.54934  0.71920  0.40095  1.0000
  H   H1314     1.0  0.53929  0.93912  0.65673  1.0000
  C   C1642     1.0  0.77871  0.91271  0.63276  1.0000
  C   C1643     1.0  0.58737  0.51422  0.41926  1.0000
  H   H1315     1.0  0.59857  0.90538  0.64439  1.0000
  C   C1644     1.0  0.84196  0.68622  0.64142  1.0000
  H   H1316     1.0  0.50705  0.63459  0.64209  1.0000
  H   H1317     1.0  0.68671  0.72587  0.35892  1.0000
  C   C1645     1.0  0.69263  0.96958  0.66200  1.0000
  C   C1646     1.0  0.52754  0.74332  0.55187  1.0000
  C   C1647     1.0  0.67123  0.72865  0.36906  1.0000
  H   H1318     1.0  0.58226  0.50495  0.53753  1.0000
  H   H1319     1.0  0.59725  0.85487  0.65916  1.0000
  H   H1320     1.0  0.64471  0.93719  0.64601  1.0000
  C   C1648     1.0  0.78431  0.81835  0.66588  1.0000
  C   C1649     1.0  0.57488  0.97635  0.39293  1.0000
  C   C1650     1.0  0.84352  0.69951  0.65675  1.0000
  C   C1651     1.0  0.57826  0.98780  0.66412  1.0000
  C   C1652     1.0  0.55112  0.66673  0.42122  1.0000
  C   C1653     1.0  0.51448  0.88865  0.57542  1.0000
  C   C1654     1.0  0.66244  0.57572  0.65171  1.0000
  C   C1655     1.0  0.53381  0.86135  0.66502  1.0000
  H   H1321     1.0  0.50686  0.96687  0.45230  1.0000
  H   H1322     1.0  0.52384  0.50351  0.44923  1.0000
  H   H1323     1.0  0.50525  0.70295  0.39283  1.0000
  C   C1656     1.0  0.51341  0.68356  0.63793  1.0000
  H   H1324     1.0  0.59707  0.96986  0.66343  1.0000
  H   H1325     1.0  0.50691  0.86470  0.57553  1.0000
  C   C1657     1.0  0.50787  0.94360  0.58328  1.0000
  C   C1658     1.0  0.50525  0.52397  0.53131  1.0000
  C   C1659     1.0  0.54079  0.91762  0.66371  1.0000
  C   C1660     1.0  0.50354  0.64268  0.56743  1.0000
  H   H1326     1.0  0.50779  0.55405  0.61806  1.0000
  C   C1661     1.0  0.50390  0.76981  0.44872  1.0000
  H   H1327     1.0  0.72949  0.98241  0.64604  1.0000
  C   C1662     1.0  0.67150  0.59514  0.66414  1.0000
  H   H1328     1.0  0.51190  0.96766  0.40361  1.0000
  C   C1663     1.0  0.89801  0.62758  0.66624  1.0000
  C   C1664     1.0  0.72959  0.80593  0.66655  1.0000
  Fe  Fe109     1.0  0.84766  0.82018  0.73444  1.0000
  S   S218      1.0  0.86295  0.77084  0.74124  1.0000
  S   S219      1.0  0.83838  0.85553  0.75439  1.0000
  Fe  Fe110     1.0  0.89091  0.76960  0.71865  1.0000
  Fe  Fe111     1.0  0.82299  0.75623  0.72625  1.0000
  S   S220      1.0  0.79505  0.71755  0.73651  1.0000
  S   S221      1.0  0.80526  0.80573  0.72087  1.0000
  Fe  Fe112     1.0  0.64418  0.64499  0.71389  1.0000
  S   S222      1.0  0.66141  0.59586  0.72115  1.0000
  S   S223      1.0  0.67252  0.67986  0.70052  1.0000
  Fe  Fe113     1.0  0.57971  0.63831  0.72775  1.0000
  S   S224      1.0  0.59221  0.58919  0.73623  1.0000
  S   S225      1.0  0.53083  0.65898  0.73192  1.0000
  Fe  Fe114     1.0  0.63730  0.60860  0.74436  1.0000
  S   S226      1.0  0.65534  0.59680  0.76933  1.0000
  Fe  Fe115     1.0  0.61469  0.58076  0.71219  1.0000
  S   S227      1.0  0.59975  0.53503  0.70009  1.0000
  S   S228      1.0  0.62309  0.65843  0.73750  1.0000
  S   S229      1.0  0.59915  0.62938  0.70342  1.0000
  Fe  Fe116     1.0  0.86616  0.68289  0.96295  1.0000
  S   S230      1.0  0.91247  0.68346  0.95088  1.0000
  S   S231      1.0  0.82141  0.70469  0.95195  1.0000
  H   H1329     1.0  0.82030  0.53102  0.97122  1.0000
  Fe  Fe117     1.0  0.93062  0.70472  0.97336  1.0000
  S   S232      1.0  0.95659  0.74986  0.97336  1.0000
  Fe  Fe118     1.0  0.92251  0.63700  0.96343  1.0000
  S   S233      1.0  0.94359  0.59669  0.94901  1.0000
  S   S234      1.0  0.87494  0.63495  0.97422  1.0000
  Fe  Fe119     1.0  0.68207  0.71512  0.84386  1.0000
  S   S235      1.0  0.65835  0.75948  0.85386  1.0000
  S   S236      1.0  0.67741  0.71060  0.81693  1.0000
  Fe  Fe120     1.0  0.71224  0.69789  0.87645  1.0000
  S   S237      1.0  0.68880  0.73990  0.88855  1.0000
  S   S238      1.0  0.74960  0.66569  0.88858  1.0000
  Fe  Fe121     1.0  0.64568  0.72876  0.87435  1.0000
  S   S239      1.0  0.59658  0.72658  0.88486  1.0000
  Fe  Fe122     1.0  0.70357  0.76619  0.86677  1.0000
  S   S240      1.0  0.72747  0.81267  0.86821  1.0000
  S   S241      1.0  0.66804  0.68389  0.86398  1.0000
  S   S242      1.0  0.72812  0.72462  0.85507  1.0000
  Fe  Fe123     1.0  0.93263  0.88333  0.83267  1.0000
  S   S243      1.0  0.94026  0.83160  0.83747  1.0000
  S   S244      1.0  0.93627  0.89643  0.80653  1.0000
  Fe  Fe124     1.0  0.93531  0.90114  0.86836  1.0000
  S   S245      1.0  0.94439  0.84992  0.87513  1.0000
  S   S246      1.0  0.92876  0.93244  0.89068  1.0000
  Fe  Fe125     1.0  0.97700  0.84600  0.85445  1.0000
  C   C1665     1.0  0.54131  0.82311  0.89151  1.0000
  Fe  Fe126     1.0  0.90662  0.83998  0.85756  1.0000
  S   S247      1.0  0.87532  0.80031  0.86330  1.0000
  S   S248      1.0  0.97145  0.89781  0.84891  1.0000
  S   S249      1.0  0.89548  0.89102  0.85152  1.0000
  C   C1666     1.0  0.94301  0.96875  0.89781  1.0000
  P   P57       1.0  0.87699  0.69077  0.66952  1.0000
  H   H1330     1.0  0.90018  0.54430  0.94198  1.0000
  S   S250      1.0  0.85151  0.75128  0.70409  1.0000
  C   C1667     1.0  0.50251  0.84116  0.81060  1.0000
  C   C1668     1.0  0.98404  0.75601  0.81068  1.0000
  C   C1669     1.0  0.56079  0.74302  0.87684  1.0000
  C   C1670     1.0  0.55997  0.76650  0.86510  1.0000
  C   C1671     1.0  0.53118  0.78056  0.85992  1.0000
  C   C1672     1.0  0.89996  0.71968  0.84289  1.0000
  C   C1673     1.0  0.53235  0.73331  0.88299  1.0000
  H   H1331     1.0  0.58156  0.77459  0.86042  1.0000
  C   C1674     1.0  0.50349  0.74680  0.87746  1.0000
  H   H1332     1.0  0.53266  0.71528  0.89215  1.0000
  C   C1675     1.0  0.76857  0.80956  0.86631  1.0000
  C   C1676     1.0  0.78541  0.83674  0.86399  1.0000
  C   C1677     1.0  0.81820  0.83445  0.86277  1.0000
  C   C1678     1.0  0.83426  0.80494  0.86399  1.0000
  C   C1679     1.0  0.81739  0.77792  0.86621  1.0000
  C   C1680     1.0  0.78484  0.78022  0.86756  1.0000
  H   H1333     1.0  0.77311  0.85961  0.86317  1.0000
  H   H1334     1.0  0.83100  0.85547  0.86104  1.0000
  H   H1335     1.0  0.82960  0.75503  0.86708  1.0000
  H   H1336     1.0  0.77250  0.75928  0.86999  1.0000
  C   C1681     1.0  0.95583  0.56190  0.95923  1.0000
  C   C1682     1.0  0.95385  0.55979  0.97585  1.0000
  C   C1683     1.0  0.93101  0.66899  0.82731  1.0000
  C   C1684     1.0  0.92797  0.96427  0.96741  1.0000
  H   H1337     1.0  0.89307  0.66919  0.72701  1.0000
  C   C1685     1.0  0.80283  0.69385  0.93392  1.0000
  C   C1686     1.0  0.77427  0.70939  0.92980  1.0000
  C   C1687     1.0  0.75841  0.70187  0.91568  1.0000
  C   C1688     1.0  0.77046  0.67785  0.90571  1.0000
  C   C1689     1.0  0.79894  0.66193  0.90990  1.0000
  C   C1690     1.0  0.81535  0.67029  0.92378  1.0000
  H   H1338     1.0  0.76415  0.72716  0.93767  1.0000
  H   H1339     1.0  0.73641  0.71406  0.91278  1.0000
  H   H1340     1.0  0.80842  0.64326  0.90228  1.0000
  H   H1341     1.0  0.83762  0.65856  0.92662  1.0000
  C   C1691     1.0  0.66190  0.62827  0.78265  1.0000
  C   C1692     1.0  0.66665  0.65864  0.77696  1.0000
  C   C1693     1.0  0.67154  0.68336  0.78770  1.0000
  C   C1694     1.0  0.67158  0.67812  0.80424  1.0000
  C   C1695     1.0  0.66697  0.64774  0.81002  1.0000
  C   C1696     1.0  0.66232  0.62286  0.79922  1.0000
  H   H1342     1.0  0.66714  0.66300  0.76427  1.0000
  H   H1343     1.0  0.67551  0.70669  0.78313  1.0000
  H   H1344     1.0  0.66707  0.64344  0.82274  1.0000
  H   H1345     1.0  0.65882  0.59938  0.80371  1.0000
  C   C1697     1.0  0.52361  0.69648  0.72328  1.0000
  C   C1698     1.0  0.54719  0.71107  0.71512  1.0000
  C   C1699     1.0  0.54141  0.74123  0.70851  1.0000
  C   C1700     1.0  0.57588  0.63107  0.78446  1.0000
  H   H1346     1.0  0.83843  0.65503  0.73168  1.0000
  H   H1347     1.0  0.95250  0.76494  0.75312  1.0000
  H   H1348     1.0  0.56993  0.69914  0.71388  1.0000
  H   H1349     1.0  0.55970  0.75230  0.70208  1.0000
  C   C1701     1.0  0.56246  0.65106  0.83893  1.0000
  P   P58       1.0  0.94899  0.70541  0.80152  1.0000
  C   C1702     1.0  0.59084  0.64682  0.86406  1.0000
  H   H1350     1.0  0.55530  0.62843  0.76110  1.0000
  C   C1703     1.0  0.86677  0.86335  0.76903  1.0000
  C   C1704     1.0  0.85760  0.86740  0.78500  1.0000
  C   C1705     1.0  0.87913  0.87592  0.79675  1.0000
  C   C1706     1.0  0.90965  0.88202  0.79246  1.0000
  C   C1707     1.0  0.91882  0.87810  0.77648  1.0000
  C   C1708     1.0  0.89766  0.86813  0.76486  1.0000
  H   H1351     1.0  0.83371  0.86396  0.78830  1.0000
  H   H1352     1.0  0.87174  0.87906  0.80899  1.0000
  H   H1353     1.0  0.94233  0.88292  0.77305  1.0000
  H   H1354     1.0  0.90480  0.86568  0.75255  1.0000
  C   C1709     1.0  0.76050  0.70845  0.72661  1.0000
  C   C1710     1.0  0.75141  0.72331  0.71229  1.0000
  C   C1711     1.0  0.72403  0.71488  0.70447  1.0000
  C   C1712     1.0  0.70580  0.69145  0.71089  1.0000
  C   C1713     1.0  0.71474  0.67695  0.72530  1.0000
  C   C1714     1.0  0.74201  0.68544  0.73312  1.0000
  H   H1355     1.0  0.76553  0.74117  0.70724  1.0000
  H   H1356     1.0  0.71705  0.72645  0.69342  1.0000
  H   H1357     1.0  0.70077  0.65898  0.73038  1.0000
  H   H1358     1.0  0.74882  0.67402  0.74424  1.0000
  H   H1359     1.0  0.90968  0.68493  0.70036  1.0000
  H   H1360     1.0  0.53637  0.65131  0.68036  1.0000
  C   C1715     1.0  0.97537  0.74969  0.71718  1.0000
  C   C1716     1.0  0.75609  0.52891  0.96345  1.0000
  H   H1361     1.0  0.97163  0.79994  0.89972  1.0000
  C   C1717     1.0  0.57257  0.64272  0.79998  1.0000
  C   C1718     1.0  0.77478  0.67383  0.78039  1.0000
  C   C1719     1.0  0.76122  0.65963  0.79352  1.0000
  C   C1720     1.0  0.75228  0.67789  0.80676  1.0000
  C   C1721     1.0  0.75594  0.71049  0.80671  1.0000
  C   C1722     1.0  0.76808  0.72511  0.79323  1.0000
  C   C1723     1.0  0.77865  0.70639  0.78036  1.0000
  P   P59       1.0  0.77132  0.76737  0.79252  1.0000
  C   C1724     1.0  0.74435  0.78717  0.80611  1.0000
  C   C1725     1.0  0.81102  0.77472  0.79777  1.0000
  C   C1726     1.0  0.82056  0.77305  0.81383  1.0000
  C   C1727     1.0  0.85024  0.78197  0.81823  1.0000
  C   C1728     1.0  0.87088  0.79162  0.80660  1.0000
  C   C1729     1.0  0.86227  0.79119  0.79049  1.0000
  C   C1730     1.0  0.83251  0.78258  0.78606  1.0000
  C   C1731     1.0  0.75350  0.81208  0.81584  1.0000
  C   C1732     1.0  0.73255  0.82618  0.82674  1.0000
  C   C1733     1.0  0.70218  0.81614  0.82771  1.0000
  C   C1734     1.0  0.69248  0.79255  0.81747  1.0000
  C   C1735     1.0  0.71341  0.77831  0.80661  1.0000
  C   C1736     1.0  0.75967  0.78285  0.77319  1.0000
  C   C1737     1.0  0.73998  0.76611  0.76319  1.0000
  C   C1738     1.0  0.73050  0.77860  0.74841  1.0000
  C   C1739     1.0  0.73989  0.80823  0.74366  1.0000
  C   C1740     1.0  0.75873  0.82542  0.75373  1.0000
  C   C1741     1.0  0.76841  0.81291  0.76848  1.0000
  H   H1362     1.0  0.78178  0.65979  0.77009  1.0000
  H   H1363     1.0  0.75736  0.63456  0.79339  1.0000
  H   H1364     1.0  0.74153  0.66701  0.81692  1.0000
  H   H1365     1.0  0.74843  0.72421  0.81702  1.0000
  H   H1366     1.0  0.78912  0.71714  0.77012  1.0000
  H   H1367     1.0  0.80461  0.76613  0.82303  1.0000
  H   H1368     1.0  0.85689  0.78225  0.83072  1.0000
  H   H1369     1.0  0.89334  0.79986  0.81012  1.0000
  H   H1370     1.0  0.87813  0.79875  0.78142  1.0000
  H   H1371     1.0  0.82618  0.78294  0.77353  1.0000
  H   H1372     1.0  0.77675  0.82058  0.81522  1.0000
  H   H1373     1.0  0.74008  0.84437  0.83475  1.0000
  H   H1374     1.0  0.68639  0.82637  0.83657  1.0000
  H   H1375     1.0  0.66902  0.78459  0.81820  1.0000
  H   H1376     1.0  0.70566  0.75980  0.79885  1.0000
  H   H1377     1.0  0.73195  0.74334  0.76668  1.0000
  H   H1378     1.0  0.71625  0.76501  0.74054  1.0000
  H   H1379     1.0  0.73299  0.81760  0.73208  1.0000
  H   H1380     1.0  0.76656  0.84817  0.74999  1.0000
  H   H1381     1.0  0.78300  0.82663  0.77611  1.0000
  H   H1382     1.0  0.62595  0.74811  0.82474  1.0000
  H   H1383     1.0  0.91452  0.64032  0.84642  1.0000
  H   H1384     1.0  0.74568  0.66827  0.68212  1.0000
  H   H1385     1.0  0.69490  0.59263  0.66901  1.0000
  H   H1386     1.0  0.92400  0.96253  0.92130  1.0000
  C   C1742     1.0  0.90229  0.70387  0.75873  1.0000
  C   C1743     1.0  0.52557  0.65530  0.77732  1.0000
  C   C1744     1.0  0.97195  0.77535  0.89621  1.0000
  C   C1745     1.0  0.92281  0.94724  0.99485  1.0000
  H   H1387     1.0  0.59192  0.87203  0.87461  1.0000
  H   H1388     1.0  0.96722  0.86306  0.91057  1.0000
  C   C1746     1.0  0.56872  0.71233  0.76152  1.0000
  C   C1747     1.0  0.59228  0.71720  0.77260  1.0000
  C   C1748     1.0  0.58932  0.74267  0.78313  1.0000
  C   C1749     1.0  0.56235  0.76274  0.78289  1.0000
  C   C1750     1.0  0.53797  0.75712  0.77223  1.0000
  C   C1751     1.0  0.54190  0.73234  0.76122  1.0000
  H   H1389     1.0  0.93435  0.81433  0.73969  1.0000
  H   H1390     1.0  0.59640  0.76366  0.67591  1.0000
  C   C1752     1.0  0.65593  0.95112  0.71280  1.0000
  H   H1391     1.0  0.97435  0.74407  0.68102  1.0000
  C   C1753     1.0  0.55264  0.58341  0.67580  1.0000
  C   C1754     1.0  0.60106  0.74603  0.82432  1.0000
  C   C1755     1.0  0.53220  0.80833  0.74415  1.0000
  C   C1756     1.0  0.53973  0.83258  0.73376  1.0000
  H   H1392     1.0  0.94253  0.69785  0.67822  1.0000
  H   H1393     1.0  0.97850  0.67038  0.77419  1.0000
  H   H1394     1.0  0.92415  0.76174  0.78383  1.0000
  H   H1395     1.0  0.57127  0.69310  0.75307  1.0000
  H   H1396     1.0  0.61301  0.70153  0.77282  1.0000
  H   H1397     1.0  0.60818  0.74689  0.79135  1.0000
  H   H1398     1.0  0.56082  0.78277  0.79084  1.0000
  C   C1757     1.0  0.96900  0.53631  0.95055  1.0000
  C   C1758     1.0  0.62192  0.71970  0.67096  1.0000
  H   H1399     1.0  0.64490  0.99981  0.71886  1.0000
  H   H1400     1.0  0.78087  0.63034  0.66745  1.0000
  C   C1759     1.0  0.95018  0.74728  0.67730  1.0000
  H   H1401     1.0  0.54194  0.78471  0.74191  1.0000
  H   H1402     1.0  0.55466  0.82728  0.72362  1.0000
  H   H1403     1.0  0.85413  0.69492  0.75425  1.0000
  H   H1404     1.0  0.56191  0.95713  0.72545  1.0000
  H   H1405     1.0  0.87229  0.51246  0.96154  1.0000
  C   C1760     1.0  0.74420  0.78902  0.94190  1.0000
  C   C1761     1.0  0.72355  0.79120  0.92896  1.0000
  C   C1762     1.0  0.73462  0.79773  0.91373  1.0000
  C   C1763     1.0  0.76628  0.80203  0.91144  1.0000
  C   C1764     1.0  0.78722  0.79981  0.92434  1.0000
  C   C1765     1.0  0.77601  0.79300  0.93960  1.0000
  P   P60       1.0  0.82815  0.80509  0.92103  1.0000
  C   C1766     1.0  0.84798  0.81189  0.93972  1.0000
  C   C1767     1.0  0.84622  0.77025  0.91174  1.0000
  C   C1768     1.0  0.87843  0.76348  0.91344  1.0000
  C   C1769     1.0  0.89234  0.73594  0.90688  1.0000
  C   C1770     1.0  0.87449  0.71552  0.89805  1.0000
  C   C1771     1.0  0.84254  0.72216  0.89619  1.0000
  C   C1772     1.0  0.82837  0.74919  0.90313  1.0000
  C   C1773     1.0  0.85395  0.84271  0.94464  1.0000
  C   C1774     1.0  0.87085  0.84764  0.95866  1.0000
  C   C1775     1.0  0.88193  0.82188  0.96785  1.0000
  C   C1776     1.0  0.87581  0.79120  0.96313  1.0000
  C   C1777     1.0  0.85863  0.78620  0.94923  1.0000
  C   C1778     1.0  0.83241  0.83955  0.90866  1.0000
  C   C1779     1.0  0.86041  0.84363  0.90056  1.0000
  C   C1780     1.0  0.86491  0.87177  0.89237  1.0000
  C   C1781     1.0  0.84142  0.89574  0.89187  1.0000
  C   C1782     1.0  0.81335  0.89178  0.89975  1.0000
  C   C1783     1.0  0.80897  0.86401  0.90828  1.0000
  H   H1406     1.0  0.73571  0.78338  0.95365  1.0000
  H   H1407     1.0  0.69903  0.78747  0.93064  1.0000
  H   H1408     1.0  0.71880  0.79926  0.90360  1.0000
  H   H1409     1.0  0.77447  0.80695  0.89954  1.0000
  H   H1410     1.0  0.79173  0.79022  0.94968  1.0000
  H   H1411     1.0  0.89279  0.77934  0.91995  1.0000
  H   H1412     1.0  0.91701  0.73060  0.90857  1.0000
  H   H1413     1.0  0.88533  0.69457  0.89264  1.0000
  H   H1414     1.0  0.82850  0.70637  0.88939  1.0000
  H   H1415     1.0  0.80352  0.75339  0.90161  1.0000
  H   H1416     1.0  0.84590  0.86299  0.93762  1.0000
  H   H1417     1.0  0.87567  0.87145  0.96226  1.0000
  H   H1418     1.0  0.96466  0.98227  0.87595  1.0000
  H   H1419     1.0  0.88475  0.77119  0.97011  1.0000
  H   H1420     1.0  0.85405  0.76222  0.94577  1.0000
  H   H1421     1.0  0.87888  0.82529  0.90057  1.0000
  H   H1422     1.0  0.88663  0.87517  0.88637  1.0000
  H   H1423     1.0  0.84515  0.91735  0.88538  1.0000
  H   H1424     1.0  0.79506  0.91034  0.89931  1.0000
  H   H1425     1.0  0.78739  0.86195  0.91470  1.0000
  H   H1426     1.0  0.90349  0.65702  0.91389  1.0000
  C   C1784     1.0  0.75839  0.55713  0.97204  1.0000
  C   C1785     1.0  0.96985  0.93294  0.98013  1.0000
  P   P61       1.0  0.78061  0.58830  0.96402  1.0000
  C   C1786     1.0  0.75647  0.60657  0.94855  1.0000
  C   C1787     1.0  0.79079  0.61577  0.97937  1.0000
  C   C1788     1.0  0.78918  0.64843  0.97645  1.0000
  C   C1789     1.0  0.96587  0.53248  0.98375  1.0000
  C   C1790     1.0  0.76082  0.59795  0.93251  1.0000
  C   C1791     1.0  0.74161  0.61171  0.92063  1.0000
  C   C1792     1.0  0.71785  0.63396  0.92466  1.0000
  C   C1793     1.0  0.71283  0.64206  0.94063  1.0000
  C   C1794     1.0  0.73180  0.62811  0.95258  1.0000
  C   C1795     1.0  0.81772  0.57320  0.95650  1.0000
  C   C1796     1.0  0.83414  0.59146  0.94579  1.0000
  C   C1797     1.0  0.86364  0.58090  0.94046  1.0000
  C   C1798     1.0  0.87709  0.55217  0.94594  1.0000
  H   H1427     1.0  0.88146  0.62219  0.67543  1.0000
  C   C1799     1.0  0.83175  0.54475  0.96232  1.0000
  H   H1428     1.0  0.53234  0.88189  0.72786  1.0000
  H   H1429     1.0  0.78141  0.65784  0.96502  1.0000
  H   H1430     1.0  0.94820  0.71374  0.76660  1.0000
  H   H1431     1.0  0.77907  0.58078  0.92907  1.0000
  H   H1432     1.0  0.74563  0.60587  0.90819  1.0000
  H   H1433     1.0  0.70371  0.64530  0.91532  1.0000
  H   H1434     1.0  0.69442  0.65940  0.94369  1.0000
  H   H1435     1.0  0.72743  0.63441  0.96491  1.0000
  H   H1436     1.0  0.82437  0.61421  0.94186  1.0000
  H   H1437     1.0  0.87657  0.59541  0.93247  1.0000
  H   H1438     1.0  0.98788  0.85509  0.99382  1.0000
  H   H1439     1.0  0.54090  0.80001  0.89707  1.0000
  H   H1440     1.0  0.52441  0.72866  0.75224  1.0000
  H   H1441     1.0  0.76302  0.79469  0.68542  1.0000
  C   C1800     1.0  0.93670  0.97792  0.91369  1.0000
  C   C1801     1.0  0.59490  0.61416  0.86202  1.0000
  C   C1802     1.0  0.98233  0.77889  0.71071  1.0000
  Fe  Fe127     1.0  0.89672  0.65993  0.99487  1.0000
  C   C1803     1.0  0.97282  0.71241  0.88614  1.0000
  H   H1442     1.0  0.65181  0.52899  0.67751  1.0000
  H   H1443     1.0  0.66067  0.90281  0.70480  1.0000
  H   H1444     1.0  0.53621  0.70873  0.67470  1.0000
  H   H1445     1.0  0.60784  0.60005  0.87084  1.0000
  H   H1446     1.0  0.98903  0.67919  0.95394  1.0000
  C   C1804     1.0  0.94322  0.76830  0.79132  1.0000
  C   C1805     1.0  0.93705  0.77767  0.67465  1.0000
  C   C1806     1.0  0.53668  0.74076  0.82255  1.0000
  H   H1447     1.0  0.98353  0.71647  0.85176  1.0000
  H   H1448     1.0  0.59162  0.63855  0.80837  1.0000
  C   C1807     1.0  0.56999  0.86355  0.87872  1.0000
  C   C1808     1.0  0.54203  0.86130  0.68114  1.0000
  H   H1449     1.0  0.54347  0.90526  0.87139  1.0000
  C   C1809     1.0  0.51211  0.75703  0.71010  1.0000
  C   C1810     1.0  0.80335  0.60434  0.99389  1.0000
  H   H1450     1.0  0.90737  0.60175  0.90416  1.0000
  H   H1451     1.0  0.98060  0.72875  0.93901  1.0000
  H   H1452     1.0  0.96927  0.91546  0.92341  1.0000
  C   C1811     1.0  0.86475  0.67886  0.68916  1.0000
  C   C1812     1.0  0.54947  0.88936  0.68861  1.0000
  C   C1813     1.0  0.64575  0.92425  0.70512  1.0000
  C   C1814     1.0  0.60389  0.51841  0.68058  1.0000
  C   C1815     1.0  0.59672  0.95249  0.69844  1.0000
  C   C1816     1.0  0.83422  0.66965  0.69179  1.0000
  C   C1817     1.0  0.82485  0.66110  0.70709  1.0000
  C   C1818     1.0  0.84603  0.66090  0.71977  1.0000
  C   C1819     1.0  0.87666  0.66907  0.71717  1.0000
  C   C1820     1.0  0.88602  0.67801  0.70195  1.0000
  H   H1453     1.0  0.71509  0.96330  0.69272  1.0000
  H   H1454     1.0  0.76843  0.52537  0.95229  1.0000
  C   C1821     1.0  0.50276  0.77054  0.86583  1.0000
  C   C1822     1.0  0.74476  0.89036  0.68182  1.0000
  C   C1823     1.0  0.79901  0.66938  0.98809  1.0000
  H   H1455     1.0  0.99690  0.68282  0.82451  1.0000
  H   H1456     1.0  0.95841  0.57319  0.90209  1.0000
  H   H1457     1.0  0.95864  0.86563  0.95258  1.0000
  C   C1824     1.0  0.53773  0.95751  0.72185  1.0000
  H   H1458     1.0  0.80094  0.65538  0.70925  1.0000
  H   H1459     1.0  0.94339  0.57930  0.98260  1.0000
  H   H1460     1.0  0.88409  0.68523  0.80286  1.0000
  H   H1461     1.0  0.60041  0.65809  0.87448  1.0000
  H   H1462     1.0  0.91602  0.74861  0.82401  1.0000
  C   C1825     1.0  0.54924  0.77045  0.82291  1.0000
  C   C1826     1.0  0.57448  0.66519  0.85264  1.0000
  H   H1463     1.0  0.65704  0.63202  0.68037  1.0000
  S   S251      1.0  0.87840  0.82071  0.71266  1.0000
  S   S252      1.0  0.93645  0.73940  0.72069  1.0000
  H   H1464     1.0  0.50797  0.66081  0.76830  1.0000
  H   H1465     1.0  0.55505  0.88902  0.70120  1.0000
  H   H1466     1.0  0.59103  0.79626  0.82439  1.0000
  H   H1467     1.0  0.67856  0.95039  0.71859  1.0000
  H   H1468     1.0  0.77692  0.86118  0.69594  1.0000
  C   C1827     1.0  0.58137  0.77318  0.82392  1.0000
  C   C1828     1.0  0.54949  0.91763  0.67988  1.0000
  H   H1469     1.0  0.59684  0.61750  0.78110  1.0000
  H   H1470     1.0  0.92953  0.81933  0.94398  1.0000
  H   H1471     1.0  0.84332  0.68203  0.78249  1.0000
  H   H1472     1.0  0.51166  0.73942  0.82169  1.0000
  H   H1473     1.0  0.99481  0.70479  0.72566  1.0000
  C   C1829     1.0  0.97642  0.83813  0.74474  1.0000
  C   C1830     1.0  0.86644  0.68832  0.77904  1.0000
  C   C1831     1.0  0.92830  0.61370  0.90709  1.0000
  C   C1832     1.0  0.86127  0.53421  0.95695  1.0000
  H   H1474     1.0  0.93333  0.78286  0.87985  1.0000
  C   C1833     1.0  0.52201  0.66679  0.79290  1.0000
  C   C1834     1.0  0.72705  0.91906  0.68072  1.0000
  H   H1475     1.0  0.60915  0.90393  0.69190  1.0000
  C   C1835     1.0  0.99438  0.72178  0.89749  1.0000
  H   H1476     1.0  0.93623  0.81731  0.78493  1.0000
  P   P62       1.0  0.54062  0.67486  0.82449  1.0000
  C   C1836     1.0  0.90575  0.78185  0.67020  1.0000
  C   C1837     1.0  0.58875  0.71619  0.82417  1.0000
  C   C1838     1.0  0.92613  0.64490  0.91249  1.0000
  H   H1477     1.0  0.97862  0.77509  0.85236  1.0000
  C   C1839     1.0  0.98470  0.61254  0.91012  1.0000
  H   H1478     1.0  0.88654  0.68532  0.86012  1.0000
  H   H1479     1.0  0.97381  0.68826  0.88183  1.0000
  C   C1840     1.0  0.54511  0.65976  0.80446  1.0000
  C   C1841     1.0  0.55237  0.63718  0.77317  1.0000
  H   H1480     1.0  0.89530  0.80546  0.66841  1.0000
  H   H1481     1.0  0.52847  0.83710  0.78881  1.0000
  C   C1842     1.0  0.95708  0.81271  0.74539  1.0000
  H   H1482     1.0  0.96853  0.85965  0.73864  1.0000
  H   H1483     1.0  0.74732  0.95047  0.71657  1.0000
  Fe  Fe128     1.0  0.83663  0.80214  0.69959  1.0000
  C   C1843     1.0  0.74080  0.56191  0.98599  1.0000
  C   C1844     1.0  0.51355  0.84128  0.88926  1.0000
  C   C1845     1.0  0.98221  0.64388  0.91555  1.0000
  H   H1484     1.0  0.97647  0.83508  0.80336  1.0000
  H   H1485     1.0  0.97062  0.53787  0.93770  1.0000
  C   C1846     1.0  0.94975  0.80015  0.79202  1.0000
  C   C1847     1.0  0.75939  0.80524  0.67375  1.0000
  H   H1486     1.0  0.57139  0.69044  0.85456  1.0000
  H   H1487     1.0  0.90689  0.70994  0.74644  1.0000
  H   H1488     1.0  0.54224  0.83955  0.68790  1.0000
  S   S253      1.0  0.94522  0.65845  0.98478  1.0000
  H   H1489     1.0  0.53903  0.56824  0.69917  1.0000
  H   H1490     1.0  0.64194  0.83663  0.67614  1.0000
  S   S254      1.0  0.88338  0.70772  0.98471  1.0000
  C   C1848     1.0  0.66861  0.87705  0.67104  1.0000
  C   C1849     1.0  0.87257  0.69540  0.76313  1.0000
  C   C1850     1.0  0.54233  0.88209  0.87669  1.0000
  C   C1851     1.0  0.95312  0.66007  0.91658  1.0000
  C   C1852     1.0  0.72082  0.50974  0.98328  1.0000
  H   H1491     1.0  0.96371  0.79631  0.70812  1.0000
  C   C1853     1.0  0.56946  0.83404  0.88610  1.0000
  P   P63       1.0  0.55793  0.95377  0.68998  1.0000
  H   H1492     1.0  0.99597  0.80038  0.96738  1.0000
  C   C1854     1.0  0.72806  0.94077  0.69334  1.0000
  C   C1855     1.0  0.88988  0.69007  0.79059  1.0000
  H   H1493     1.0  0.74463  0.87353  0.67214  1.0000
  H   H1494     1.0  0.96700  0.80212  0.99257  1.0000
  C   C1856     1.0  0.97289  0.81010  0.80224  1.0000
  C   C1857     1.0  0.93193  0.69956  0.82090  1.0000
  C   C1858     1.0  0.95065  0.73444  0.87995  1.0000
  C   C1859     1.0  0.50787  0.94020  0.89827  1.0000
  C   C1860     1.0  0.91508  0.66395  0.84153  1.0000
  C   C1861     1.0  0.50624  0.86951  0.74856  1.0000
  C   C1862     1.0  0.56556  0.61808  0.83726  1.0000
  H   H1495     1.0  0.88760  0.73928  0.84882  1.0000
  C   C1863     1.0  0.53235  0.57033  0.68670  1.0000
  C   C1864     1.0  0.91983  0.69892  0.78630  1.0000
  H   H1496     1.0  0.53396  0.79133  0.82284  1.0000
  C   C1865     1.0  0.95742  0.94881  0.96672  1.0000
  C   C1866     1.0  0.98795  0.90710  0.91563  1.0000
  C   C1867     1.0  0.52711  0.86326  0.73610  1.0000
  H   H1497     1.0  0.60458  0.69541  0.82455  1.0000
  C   C1868     1.0  0.89938  0.68925  0.84926  1.0000
  C   C1869     1.0  0.96025  0.74588  0.80068  1.0000
  H   H1498     1.0  0.57491  0.59050  0.67999  1.0000
  C   C1870     1.0  0.55635  0.71339  0.82373  1.0000
  C   C1871     1.0  0.92580  0.70570  0.77022  1.0000
  C   C1872     1.0  0.91622  0.72488  0.82880  1.0000
  H   H1499     1.0  0.53094  0.79974  0.85142  1.0000
  C   C1873     1.0  0.74229  0.66454  0.66944  1.0000
  H   H1500     1.0  0.89555  0.82560  0.97852  1.0000
  H   H1501     1.0  0.59077  0.81938  0.88752  1.0000
  C   C1874     1.0  0.90048  0.72497  0.67113  1.0000
  H   H1502     1.0  0.94224  0.64898  0.82120  1.0000
  C   C1875     1.0  0.97054  0.84612  0.94639  1.0000
  S   S255      1.0  0.82213  0.81918  0.67457  1.0000
  C   C1876     1.0  0.96954  0.79504  0.93349  1.0000
  C   C1877     1.0  0.95416  0.82014  0.94153  1.0000
  C   C1878     1.0  0.95743  0.59753  0.90594  1.0000
  H   H1503     1.0  0.81922  0.73021  0.67385  1.0000
  H   H1504     1.0  0.77823  0.89941  0.71829  1.0000
  H   H1505     1.0  0.95625  0.77533  0.92977  1.0000
  C   C1879     1.0  0.95946  0.98897  0.88814  1.0000
  C   C1880     1.0  0.51040  0.82723  0.79594  1.0000
  H   H1506     1.0  0.95146  0.68415  0.92090  1.0000
  H   H1507     1.0  0.80622  0.57917  0.99609  1.0000
  C   C1881     1.0  0.51486  0.95716  0.73370  1.0000
  C   C1882     1.0  0.61241  0.75112  0.66788  1.0000
  C   C1883     1.0  0.91056  0.96327  0.98143  1.0000
  C   C1884     1.0  0.76378  0.90488  0.70788  1.0000
  C   C1885     1.0  0.96732  0.78480  0.75305  1.0000
  H   H1508     1.0  0.96451  0.53103  0.99661  1.0000
  C   C1886     1.0  0.99766  0.75146  0.97422  1.0000
  C   C1887     1.0  0.76302  0.88329  0.69533  1.0000
  C   C1888     1.0  0.61632  0.92492  0.69789  1.0000
  C   C1889     1.0  0.95034  0.76588  0.88490  1.0000
  H   H1509     1.0  0.79835  0.69450  0.98557  1.0000
  H   H1510     1.0  0.93412  0.72742  0.87105  1.0000
  C   C1890     1.0  0.65010  0.61745  0.67053  1.0000
  C   C1891     1.0  0.95298  0.93282  0.99448  1.0000
  C   C1892     1.0  0.51196  0.81465  0.75701  1.0000
  C   C1893     1.0  0.98380  0.67962  0.79954  1.0000
  C   C1894     1.0  0.58210  0.59976  0.84868  1.0000
  H   H1511     1.0  0.52151  0.95696  0.74618  1.0000
  H   H1512     1.0  0.81738  0.66944  0.68220  1.0000
  H   H1513     1.0  0.51468  0.86131  0.81475  1.0000
  C   C1895     1.0  0.51398  0.97082  0.90317  1.0000
  C   C1896     1.0  0.74632  0.93362  0.70689  1.0000
  H   H1514     1.0  0.95104  0.79797  0.67629  1.0000
  C   C1897     1.0  0.98156  0.50931  0.95847  1.0000
  H   H1515     1.0  0.91858  0.97682  0.95701  1.0000
  C   C1898     1.0  0.63219  0.51762  0.67236  1.0000
  C   C1899     1.0  0.51371  0.87100  0.88178  1.0000
  C   C1900     1.0  0.93197  0.72108  0.67570  1.0000
  H   H1516     1.0  0.99262  0.92083  0.97919  1.0000
  C   C1901     1.0  0.55541  0.98627  0.67599  1.0000
  C   C1902     1.0  0.51461  0.69783  0.67742  1.0000
  H   H1517     1.0  0.58501  0.57439  0.84718  1.0000
  C   C1903     1.0  0.52916  0.95739  0.70564  1.0000
  C   C1904     1.0  0.66630  0.98106  0.67047  1.0000
  C   C1905     1.0  0.98675  0.87756  0.90834  1.0000
  H   H1518     1.0  0.88753  0.97495  0.98186  1.0000
  H   H1519     1.0  0.71052  0.79569  0.67276  1.0000
  C   C1906     1.0  0.64221  0.85919  0.67007  1.0000
  H   H1520     1.0  0.55705  0.50274  0.68018  1.0000
  S   S256      1.0  0.50581  0.79419  0.70100  1.0000
  H   H1521     1.0  0.70361  0.69818  0.66808  1.0000
  H   H1522     1.0  0.53019  0.97430  0.91288  1.0000
  H   H1523     1.0  0.68818  0.86783  0.67804  1.0000
  H   H1524     1.0  0.55542  0.60655  0.82711  1.0000
  H   H1525     1.0  0.61357  0.70789  0.68148  1.0000
  H   H1526     1.0  0.50747  0.71265  0.84875  1.0000
  H   H1527     1.0  0.65327  0.96525  0.67766  1.0000
  H   H1528     1.0  0.97062  0.94919  0.95574  1.0000
  C   C1907     1.0  0.88758  0.75567  0.66834  1.0000
  H   H1529     1.0  0.51924  0.92021  0.90441  1.0000
  P   P64       1.0  0.50383  0.78392  0.77111  1.0000
  C   C1908     1.0  0.99028  0.78806  0.81147  1.0000
  H   H1530     1.0  0.51056  0.90900  0.84978  1.0000
  C   C1909     1.0  0.98040  0.50748  0.97511  1.0000
  H   H1531     1.0  0.00102  0.52676  0.90766  1.0000
  C   C1910     1.0  0.51469  0.66549  0.68063  1.0000
  C   C1911     1.0  0.99679  0.78228  0.76024  1.0000
  C   C1912     1.0  0.60747  0.97964  0.70579  1.0000
  C   C1913     1.0  0.73760  0.50518  0.96915  1.0000
  C   C1914     1.0  0.57896  0.50251  0.67390  1.0000
  H   H1532     1.0  0.59278  0.00123  0.70616  1.0000
  H   H1533     1.0  0.60353  0.63836  0.66950  1.0000
  C   C1915     1.0  0.99240  0.66608  0.78478  1.0000
  C   C1916     1.0  0.63692  0.97890  0.71300  1.0000
  H   H1534     1.0  0.74104  0.58407  0.99241  1.0000
  C   C1917     1.0  0.99361  0.75313  0.90293  1.0000
  C   C1918     1.0  0.72232  0.53814  0.99166  1.0000
  H   H1535     1.0  0.99717  0.73943  0.81825  1.0000
  C   C1919     1.0  0.99994  0.72741  0.72061  1.0000
  C   C1920     1.0  0.50424  0.55883  0.68145  1.0000
  H   H1536     1.0  0.50145  0.68136  0.79590  1.0000
