data_image0
_chemical_formula_structural       CSCSCHSFeSFeSHCH3CFeS2FeS2FeS2FeS2FeHFeS3C6H5PC8H6C3HCHCH2CH3CH2C2HC2H3CHCH3C3H7C2HC2HC4HC4HC6H3CH4CH3C4HC8PC4HCHC6H8C2H2CH3C3HSH2C5HCH2CHCHCHC4H3C2H2C5HCHCHC6PC3H2CHPHCHC2HCH3C3H3SCHCHSCH3FeC3HCHC2HCH4FeSFeS2FeS2FeSFeHS2FeS2FeS2FeSFeS3FeS3CSC3HC3HC2HFeC7H4C6H4C6H4C6H2CHCHCHCHC4H4C2HCHC6H2C2HCH3SC2H4CHC4H2CSH5CHC2HCHSC6HCHFeCHCPHCHSHCH3CHCH2C7PC12HC2H11C6PC14H2C2H2CH14CFeHC2H2SH5C3FeC5H3CSCPCH5CH5C3H2SH2C2SC5SH5CH2C3H3CHCHCH2FeSFeS2FeS2FeSFeS3FeSHFeS2FeSFeS3FeS3FeHCH2C5H3C6H4C6H4C6H4C6H4C4HC2HCHC2HCSCH4CH2CHCHSH2CH2C5PC9HC4H14C2SH2CH2C7PC9HC5HC2H7CH2CHC2H6CHC4PC19HCH4CH12PC2HC3H3C2H3CH2CH3C5HC4HCH2C2FeHCHCHC4HCH2CH3CHC2H3C2H2C3SCFeHCHCH2CHC4HC2H2CSHSHFeSFeSFeS2CSCFeS2FeSHFeHFeHS2HCHSC7H4C2HC9H6CFeHCHC3S3C3HC3H2C7HC5H3C4HCHCH3FeCH2CH3CPC2HC2HCH3SHC4HFeH2FeC3H2C3H2PCH2CSC7SH8C7PC10HC3HC3H11CH2C2HCH3CSCH5C2H3C2SHC3H2CH2CH3C4H2PCH2CHC2HSHCH3CHSH2FeS2FeS2FeS2FeS2C6HCH2C4H3C5H4C3HCH2C2H2SHFeS2FeS2FeS2FeS2C6H4C2H2C6H5FeC2HCHC4H3C3HCPHC3H2C4H3C2H3CHCHC2HC3HC4HC3HCHSC2H2CHC3PC9H12CHCHC2PC2HCH2C3HC11HCHCH3CHCHCH7CHC2PC4H2C10PCHCHCH2CH4CH5C2HC2HCHCH2C2HC6PC2HC4H4CH2CH2CH3CH2CHC2HC4HC2HC3HCHCH3C3H2CH2CHC2H2CHC3HC5H2CH2C4H3CHCHC2PH5C4H2C2SFeSFeS2FeSFeCS2CHC9H4C6H2CH2CH2FeSFeS2H2C5H3C7HCH2CH2C2HPSC2H4CHC2HCHCHCHC9SH2CHC2H3C2H6PCHCH3C8H2CH3CPCHFeC11HPCH4C3HCH3CH4C3PCHC11H5C2H2CHC2HCH2CH5CH2C3H3C4HC2H3CPC5HC3HC2H3CHCH7C3H4C9H2CHC4HSC2HCHC2H3C4HC3H3PC3HC6HCSC2H2CSCHSFeSFeS2FeSCFeS2HC5H4C6H2CHC3FeSFeS2HC6H3C6HCH3C5HPCH4CHC10H2CH4C3H3C2H3CH2C2H2C2HC5HC4H2CPHC3H2C2H2CH2C2HC2H4CHC2PH2C2HC3H8PC4HCHC9HC2H2C2PC4HC2H2C2PH2CHCHC2HCH2CHC3HC3H2PH2C2HCHCH2C2HCHC2HCHCH4C4HPC2H2CPHC5HC2H5C2H3CHC2HC3HC2HC3H3CHCHCHC4HCH4C3HC2H2PHCHC2H2CH2CSHFeCH2FeS2FeS2FeS2FeS2FeS2FeS2C6H2CHC4H2SHC3HCH2C2H2CHC5H2C2H2FeS2FeS2C3HC2H4C2H2C6H4C2H2C2HC4H2CHC4HCHSH2SC3HCSHC2H4PC2HCHCHC2H4C2HC2HC2HCH3C4HC2HCH2C2HPC9HCHC9HCHCH4C4H5C6PC5HC12H7CH12CHCHCHCHC3HP2CH2C2HC3HC2H4C5H3C8H2CHC2HCH2PCHCH2CHC3HCH2C2H3CH2CH3C2H4C6H2C2HCH3C5H4C4H3C2H2C2HC3H2PH2C2HSCHC3H5FeHCHCHC2HSCHSFeCFeSFeS2H2CH2CFeS2FeSHFeS2FeHFeS3C6H4CPHCH2C6H5SC4HC2H2C3HC2HCHC6PC3HC10H2C2H6CHCH8SCHCH2SHFeCHCSHCH2CSHC3FeSH2C2HCH2CH2C4HC4H5C2H2C7PC18H18CHC6PC4H2C2FeHSC6H7C2H3C2H8CHC2HC2FeC3HCH2C5H2SC2SH2FeH2C2HC3SC5FeSFeS2FeS2FeSFeS3FeS2FeS2FeSFeS3FeCSHCH2C2S2HCH8C2HPH4C6H4C6H4C6H4C6HC6PCHC5H2C2H6FeCHCHCHSH4C2HC2H4CHCH2CH2CHC2H2CHCHC7H2C4H2C2HC3H3CH4CHSC2H2C2SC6PC13H15C2HC4H2C2H2CH2CH2C12H2C4HC2HCH3C2HC2SCHCPH2CHCH5CPCHCH3C2HC4H3FeCSC3HC2HCHPH2CHC2FeSFeS2FeS2FeCFeS3FeS2FeSHFeSFeS3HSC4FeS3H2CH2C2HC2H3C6H4C6H4C6H4C6H3C2H2CSCHC2SH4CHC2HCHC4HCHCHCHCHC4HCH4CHC2H2FeH4PHC2H2C2H2C2H2CH3CHC3SC2H2C4H2CH2CHC2H2C6PC5HCHC2HC3HSHCH6C2H7CHC2HC4HCHSC2HCHCHC3HFeCHCH2C6HCH4C4H3C2HC4H2S2HSCFeHFeSH2CH2CFeS2C6FeS2FeS2FeS2FeHFeCS2CH2C8H4SH2C2H3C6H4C6SCH2CPFeCH4CH5CHC3H4C2HC3SCH3CSH2SC6H2CHCHSHS2C10PC18H6CSH4C2H6PC2H2CSHC3SCHC9H2FeH3C2H2C3H10CPCHCHCHC3HCHFeHC3FeH2CH5C2HCHCHC3H2C3HCP
_chemical_formula_sum              "C1920 S256 H1536 Fe128 P64"
_cell_length_a       50.1175
_cell_length_b       51.307
_cell_length_c       52.3343
_cell_angle_alpha    89.7069
_cell_angle_beta     89.9447
_cell_angle_gamma    90.0171

_space_group_name_H-M_alt    "P 1"
_space_group_IT_number       1

loop_
  _space_group_symop_operation_xyz
  'x, y, z'

loop_
  _atom_site_type_symbol
  _atom_site_label
  _atom_site_symmetry_multiplicity
  _atom_site_fract_x
  _atom_site_fract_y
  _atom_site_fract_z
  _atom_site_occupancy
  C   C1        1.0  0.00731  0.28843  0.45016  1.0000
  S   S1        1.0  0.02976  0.33643  0.43951  1.0000
  C   C2        1.0  0.24564  0.98021  0.99730  1.0000
  S   S2        1.0  0.23809  0.08473  0.42314  1.0000
  C   C3        1.0  0.07297  0.44456  0.44489  1.0000
  H   H1        1.0  0.08107  0.13695  0.29874  1.0000
  S   S3        1.0  0.23919  0.14809  0.43153  1.0000
  Fe  Fe1       1.0  0.21031  0.11543  0.43924  1.0000
  S   S4        1.0  0.16487  0.12134  0.43731  1.0000
  Fe  Fe2       1.0  0.26848  0.11741  0.41912  1.0000
  S   S5        1.0  0.29622  0.12529  0.38509  1.0000
  H   H2        1.0  0.18126  0.07400  0.07681  1.0000
  C   C4        1.0  0.06261  0.18449  0.98475  1.0000
  H   H3        1.0  0.11990  0.12636  0.27135  1.0000
  H   H4        1.0  0.10641  0.97458  0.00416  1.0000
  H   H5        1.0  0.05679  0.16827  0.99692  1.0000
  C   C5        1.0  0.09878  0.27838  0.98088  1.0000
  Fe  Fe3       1.0  0.01992  0.16603  0.07690  1.0000
  S   S6        1.0  0.05531  0.15464  0.05131  1.0000
  S   S7        1.0  0.01656  0.19586  0.10832  1.0000
  Fe  Fe4       1.0  0.03105  0.15436  0.35627  1.0000
  S   S8        1.0  0.07325  0.13723  0.35326  1.0000
  S   S9        1.0  0.02618  0.19691  0.34673  1.0000
  Fe  Fe5       1.0  0.21231  0.11968  0.03883  1.0000
  S   S10       1.0  0.20798  0.09567  0.00333  1.0000
  S   S11       1.0  0.17988  0.13218  0.06739  1.0000
  Fe  Fe6       1.0  0.27370  0.12523  0.03157  1.0000
  S   S12       1.0  0.27374  0.10204  0.99504  1.0000
  S   S13       1.0  0.30805  0.14856  0.04941  1.0000
  Fe  Fe7       1.0  0.23643  0.12444  0.98538  1.0000
  H   H6        1.0  0.32146  0.07214  0.36545  1.0000
  Fe  Fe8       1.0  0.24541  0.07463  0.01529  1.0000
  S   S14       1.0  0.24984  0.03013  0.01639  1.0000
  S   S15       1.0  0.23832  0.14987  0.01998  1.0000
  S   S16       1.0  0.24780  0.09648  0.05275  1.0000
  C   C6        1.0  0.14550  0.13923  0.06220  1.0000
  C   C7        1.0  0.13015  0.14916  0.08250  1.0000
  C   C8        1.0  0.10262  0.15422  0.07951  1.0000
  C   C9        1.0  0.09006  0.14925  0.05620  1.0000
  C   C10       1.0  0.10550  0.13970  0.03579  1.0000
  C   C11       1.0  0.13300  0.13465  0.03877  1.0000
  H   H7        1.0  0.13959  0.15286  0.10071  1.0000
  H   H8        1.0  0.09115  0.16200  0.09517  1.0000
  H   H9        1.0  0.09604  0.13580  0.01764  1.0000
  H   H10       1.0  0.14440  0.12663  0.02315  1.0000
  H   H11       1.0  0.22951  0.01622  0.45218  1.0000
  P   P1        1.0  0.12023  0.23041  0.39823  1.0000
  C   C12       1.0  0.15668  0.03298  0.01901  1.0000
  C   C13       1.0  0.09135  0.28219  0.95522  1.0000
  C   C14       1.0  0.13981  0.12497  0.41340  1.0000
  C   C15       1.0  0.14516  0.12263  0.38725  1.0000
  C   C16       1.0  0.12457  0.12647  0.36919  1.0000
  C   C17       1.0  0.09845  0.13290  0.37694  1.0000
  C   C18       1.0  0.09317  0.13538  0.40305  1.0000
  C   C19       1.0  0.11365  0.13114  0.42111  1.0000
  H   H12       1.0  0.16509  0.11777  0.38095  1.0000
  H   H13       1.0  0.12890  0.12443  0.34905  1.0000
  H   H14       1.0  0.07321  0.14014  0.40935  1.0000
  H   H15       1.0  0.10920  0.13265  0.44125  1.0000
  H   H16       1.0  0.13651  0.08201  0.05849  1.0000
  H   H17       1.0  0.02055  0.09329  0.18065  1.0000
  C   C20       1.0  0.24536  0.00701  0.99137  1.0000
  C   C21       1.0  0.24171  0.01459  0.96590  1.0000
  C   C22       1.0  0.08399  0.18186  0.96779  1.0000
  H   H18       1.0  0.19509  0.01385  0.02183  1.0000
  C   C23       1.0  0.20582  0.19827  0.39053  1.0000
  H   H19       1.0  0.21709  0.23184  0.96569  1.0000
  C   C24       1.0  0.14904  0.06687  0.05054  1.0000
  H   H20       1.0  0.26436  0.17329  0.97137  1.0000
  H   H21       1.0  0.12376  0.42962  0.40443  1.0000
  C   C25       1.0  0.10230  0.29971  0.99705  1.0000
  H   H22       1.0  0.14243  0.17763  0.40117  1.0000
  H   H23       1.0  0.09481  0.16359  0.96690  1.0000
  H   H24       1.0  0.10685  0.29664  0.01703  1.0000
  C   C26       1.0  0.04914  0.20825  0.98650  1.0000
  H   H25       1.0  0.29375  0.17737  0.43634  1.0000
  H   H26       1.0  0.31451  0.43245  0.41814  1.0000
  C   C27       1.0  0.13918  0.27073  0.42904  1.0000
  C   C28       1.0  0.16533  0.17317  0.15817  1.0000
  H   H27       1.0  0.15380  0.97839  0.03390  1.0000
  C   C29       1.0  0.09645  0.25097  0.32587  1.0000
  C   C30       1.0  0.06655  0.18213  0.45210  1.0000
  H   H28       1.0  0.19064  0.19408  0.45232  1.0000
  H   H29       1.0  0.32517  0.12153  0.11092  1.0000
  H   H30       1.0  0.11854  0.21211  0.18527  1.0000
  C   C31       1.0  0.15382  0.21794  0.39570  1.0000
  H   H31       1.0  0.02649  0.09336  0.13361  1.0000
  C   C32       1.0  0.06843  0.03564  0.97963  1.0000
  H   H32       1.0  0.01790  0.43301  0.98709  1.0000
  H   H33       1.0  0.04373  0.12565  0.20715  1.0000
  H   H34       1.0  0.27871  0.05685  0.38382  1.0000
  C   C33       1.0  0.17508  0.23473  0.38965  1.0000
  C   C34       1.0  0.31967  0.04288  0.43384  1.0000
  C   C35       1.0  0.10340  0.14459  0.23760  1.0000
  H   H35       1.0  0.04259  0.16127  0.28065  1.0000
  H   H36       1.0  0.29818  0.19996  0.01990  1.0000
  H   H37       1.0  0.19377  0.04704  0.98142  1.0000
  H   H38       1.0  0.21733  0.96926  0.44987  1.0000
  H   H39       1.0  0.12091  0.05672  0.02166  1.0000
  H   H40       1.0  0.22589  0.19058  0.38868  1.0000
  H   H41       1.0  0.16286  0.21443  0.16504  1.0000
  C   C36       1.0  0.15901  0.03092  0.96282  1.0000
  C   C37       1.0  0.15264  0.14908  0.16089  1.0000
  H   H42       1.0  0.17159  0.25532  0.38652  1.0000
  C   C38       1.0  0.08128  0.14296  0.27884  1.0000
  C   C39       1.0  0.12758  0.14754  0.17259  1.0000
  H   H43       1.0  0.16837  0.31582  0.97148  1.0000
  C   C40       1.0  0.07188  0.20897  0.41422  1.0000
  C   C41       1.0  0.10616  0.25223  0.35091  1.0000
  C   C42       1.0  0.03550  0.22996  0.17003  1.0000
  C   C43       1.0  0.10763  0.22954  0.36598  1.0000
  H   H44       1.0  0.03279  0.01318  0.98655  1.0000
  C   C44       1.0  0.20104  0.22493  0.38735  1.0000
  C   C45       1.0  0.08880  0.22701  0.31555  1.0000
  C   C46       1.0  0.09114  0.20428  0.33016  1.0000
  C   C47       1.0  0.10045  0.20553  0.35529  1.0000
  H   H45       1.0  0.18820  0.16063  0.39778  1.0000
  C   C48       1.0  0.17134  0.27644  0.98595  1.0000
  C   C49       1.0  0.09644  0.27828  0.40873  1.0000
  C   C50       1.0  0.11896  0.26242  0.41236  1.0000
  C   C51       1.0  0.17926  0.29758  0.97074  1.0000
  C   C52       1.0  0.15868  0.19111  0.39791  1.0000
  C   C53       1.0  0.18185  0.02835  0.02986  1.0000
  H   H46       1.0  0.08805  0.40839  0.43011  1.0000
  H   H47       1.0  0.13151  0.19887  0.44398  1.0000
  H   H48       1.0  0.21743  0.23794  0.38286  1.0000
  C   C54       1.0  0.11038  0.01406  0.98962  1.0000
  H   H49       1.0  0.25223  0.19743  0.07917  1.0000
  H   H50       1.0  0.12048  0.13968  0.22593  1.0000
  H   H51       1.0  0.16206  0.13162  0.15355  1.0000
  H   H52       1.0  0.06281  0.21895  0.39812  1.0000
  C   C55       1.0  0.01300  0.29228  0.01171  1.0000
  H   H53       1.0  0.08094  0.22600  0.29629  1.0000
  H   H54       1.0  0.08522  0.18565  0.32227  1.0000
  H   H55       1.0  0.10187  0.18771  0.36640  1.0000
  C   C56       1.0  0.99919  0.26313  0.44382  1.0000
  C   C57       1.0  0.05440  0.01340  0.98734  1.0000
  C   C58       1.0  0.01914  0.30449  0.43177  1.0000
  C   C59       1.0  0.18252  0.04567  0.96387  1.0000
  H   H56       1.0  0.01652  0.26245  0.38107  1.0000
  C   C60       1.0  0.31340  0.21419  0.01491  1.0000
  C   C61       1.0  0.11485  0.17020  0.18143  1.0000
  C   C62       1.0  0.12043  0.25425  0.05437  1.0000
  C   C63       1.0  0.09832  0.23798  0.05128  1.0000
  C   C64       1.0  0.09933  0.21761  0.03375  1.0000
  C   C65       1.0  0.12213  0.21383  0.01877  1.0000
  C   C66       1.0  0.14429  0.23040  0.02139  1.0000
  C   C67       1.0  0.14346  0.25026  0.03976  1.0000
  P   P2        1.0  0.17478  0.22466  0.00373  1.0000
  C   C68       1.0  0.19960  0.21634  0.02755  1.0000
  C   C69       1.0  0.17005  0.19747  0.98229  1.0000
  C   C70       1.0  0.17076  0.17172  0.99151  1.0000
  C   C71       1.0  0.16643  0.15087  0.97493  1.0000
  H   H57       1.0  0.10148  0.25898  0.98860  1.0000
  C   C72       1.0  0.16481  0.20190  0.95622  1.0000
  H   H58       1.0  0.10166  0.34157  0.00011  1.0000
  C   C73       1.0  0.19249  0.20044  0.04845  1.0000
  C   C74       1.0  0.21137  0.19380  0.06701  1.0000
  C   C75       1.0  0.23745  0.20317  0.06511  1.0000
  C   C76       1.0  0.24455  0.21954  0.04483  1.0000
  C   C77       1.0  0.22580  0.22605  0.02605  1.0000
  C   C78       1.0  0.18511  0.25262  0.98475  1.0000
  H   H59       1.0  0.11981  0.26975  0.06835  1.0000
  H   H60       1.0  0.08052  0.24084  0.06275  1.0000
  H   H61       1.0  0.08253  0.20441  0.03215  1.0000
  H   H62       1.0  0.12245  0.19762  0.00568  1.0000
  H   H63       1.0  0.16073  0.26255  0.04288  1.0000
  H   H64       1.0  0.17478  0.16752  0.01140  1.0000
  H   H65       1.0  0.16762  0.13105  0.98197  1.0000
  H   H66       1.0  0.09479  0.26856  0.31445  1.0000
  C   C79       1.0  0.10316  0.13697  0.26334  1.0000
  C   C80       1.0  0.32625  0.25539  0.99590  1.0000
  H   H67       1.0  0.17245  0.19269  0.05027  1.0000
  H   H68       1.0  0.04274  0.17454  0.23530  1.0000
  C   C81       1.0  0.02284  0.29484  0.40688  1.0000
  H   H69       1.0  0.26471  0.22698  0.04361  1.0000
  H   H70       1.0  0.23199  0.23860  0.01054  1.0000
  H   H71       1.0  0.15432  0.27881  0.99828  1.0000
  C   C82       1.0  0.06995  0.21868  0.21055  1.0000
  C   C83       1.0  0.18461  0.18138  0.39565  1.0000
  C   C84       1.0  0.14029  0.05240  0.02957  1.0000
  H   H72       1.0  0.04221  0.26174  0.01594  1.0000
  S   S17       1.0  0.99949  0.14123  0.32822  1.0000
  H   H73       1.0  0.28574  0.24157  0.99820  1.0000
  H   H74       1.0  0.04293  0.19100  0.15749  1.0000
  C   C85       1.0  0.31930  0.20569  0.41808  1.0000
  C   C86       1.0  0.30644  0.23750  0.00271  1.0000
  C   C87       1.0  0.04027  0.24867  0.18876  1.0000
  C   C88       1.0  0.32117  0.06314  0.38424  1.0000
  C   C89       1.0  0.09482  0.30258  0.42062  1.0000
  H   H75       1.0  0.32085  0.27330  0.98608  1.0000
  C   C90       1.0  0.15303  0.19575  0.16727  1.0000
  H   H76       1.0  0.18461  0.17432  0.14880  1.0000
  H   H77       1.0  0.27745  0.03845  0.42781  1.0000
  C   C91       1.0  0.04765  0.20547  0.17169  1.0000
  H   H78       1.0  0.20589  0.18081  0.08255  1.0000
  C   C92       1.0  0.29700  0.05468  0.39466  1.0000
  H   H79       1.0  0.30507  0.21004  0.40308  1.0000
  C   C93       1.0  0.31293  0.18716  0.43672  1.0000
  H   H80       1.0  0.07934  0.15875  0.13923  1.0000
  C   C94       1.0  0.09284  0.32899  0.96191  1.0000
  C   C95       1.0  0.05745  0.24301  0.20906  1.0000
  C   C96       1.0  0.09953  0.21018  0.41841  1.0000
  C   C97       1.0  0.17423  0.06227  0.06101  1.0000
  H   H81       1.0  0.11246  0.27086  0.35838  1.0000
  H   H82       1.0  0.02185  0.23418  0.15449  1.0000
  H   H83       1.0  0.24852  0.97406  0.01690  1.0000
  C   C98       1.0  0.01427  0.26950  0.40040  1.0000
  C   C99       1.0  0.05691  0.22932  0.97115  1.0000
  H   H84       1.0  0.31834  0.03584  0.45335  1.0000
  H   H85       1.0  0.06088  0.25741  0.22377  1.0000
  C   C100      1.0  0.05961  0.15659  0.26866  1.0000
  C   C101      1.0  0.11037  0.19778  0.44000  1.0000
  C   C102      1.0  0.01013  0.25686  0.04294  1.0000
  C   C103      1.0  0.19058  0.04296  0.05072  1.0000
  C   C104      1.0  0.05977  0.16415  0.24296  1.0000
  H   H86       1.0  0.11790  0.12872  0.17424  1.0000
  C   C105      1.0  0.12787  0.19432  0.17883  1.0000
  H   H87       1.0  0.08321  0.21460  0.22640  1.0000
  C   C106      1.0  0.02353  0.26952  0.02282  1.0000
  H   H88       1.0  0.05770  0.05268  0.97293  1.0000
  C   C107      1.0  0.05370  0.12582  0.13360  1.0000
  C   C108      1.0  0.03724  0.10726  0.14523  1.0000
  C   C109      1.0  0.03401  0.10714  0.17177  1.0000
  C   C110      1.0  0.04711  0.12567  0.18675  1.0000
  C   C111      1.0  0.06380  0.14430  0.17521  1.0000
  C   C112      1.0  0.06689  0.14429  0.14852  1.0000
  P   P3        1.0  0.08129  0.16825  0.19406  1.0000
  C   C113      1.0  0.06510  0.19968  0.19187  1.0000
  C   C114      1.0  0.08169  0.15831  0.22725  1.0000
  C   C115      1.0  0.09940  0.32502  0.98754  1.0000
  H   H89       1.0  0.10692  0.05338  0.97473  1.0000
  H   H90       1.0  0.24200  0.03505  0.96093  1.0000
  C   C116      1.0  0.11523  0.31092  0.43679  1.0000
  H   H91       1.0  0.32345  0.18784  0.96933  1.0000
  P   P4        1.0  0.14640  0.01480  0.99115  1.0000
  H   H92       1.0  0.07991  0.27176  0.39703  1.0000
  C   C117      1.0  0.06825  0.99148  0.99611  1.0000
  H   H93       1.0  0.03293  0.21044  0.00008  1.0000
  C   C118      1.0  0.29628  0.04449  0.41943  1.0000
  C   C119      1.0  0.00202  0.25374  0.41889  1.0000
  H   H94       1.0  0.07743  0.31478  0.41773  1.0000
  C   C120      1.0  0.13738  0.29496  0.44107  1.0000
  H   H95       1.0  0.28391  0.21582  0.95878  1.0000
  H   H96       1.0  0.05590  0.12617  0.11297  1.0000
  H   H97       1.0  0.21037  0.03967  0.05848  1.0000
  C   C121      1.0  0.16836  0.96924  0.97091  1.0000
  C   C122      1.0  0.20658  0.25022  0.96759  1.0000
  C   C123      1.0  0.15950  0.98203  0.99299  1.0000
  H   H98       1.0  0.04643  0.24774  0.97282  1.0000
  H   H99       1.0  0.32094  0.07724  0.09299  1.0000
  H   H100      1.0  0.15602  0.25830  0.43327  1.0000
  S   S18       1.0  0.03063  0.30733  0.98648  1.0000
  C   C124      1.0  0.09631  0.03596  0.98067  1.0000
  H   H101      1.0  0.03041  0.26743  0.18768  1.0000
  C   C125      1.0  0.05554  0.19478  0.43091  1.0000
  H   H102      1.0  0.03427  0.19356  0.42734  1.0000
  S   S19       1.0  0.00176  0.15561  0.38875  1.0000
  C   C126      1.0  0.11041  0.44140  0.41584  1.0000
  H   H103      1.0  0.05738  0.97421  0.00204  1.0000
  H   H104      1.0  0.03195  0.30714  0.39246  1.0000
  H   H105      1.0  0.01825  0.23917  0.05114  1.0000
  Fe  Fe9       1.0  0.01331  0.33615  0.95788  1.0000
  C   C127      1.0  0.09029  0.42941  0.43026  1.0000
  C   C128      1.0  0.01155  0.45267  0.98268  1.0000
  C   C129      1.0  0.09613  0.99178  0.99729  1.0000
  H   H106      1.0  0.11350  0.32949  0.44644  1.0000
  C   C130      1.0  0.33138  0.13003  0.38794  1.0000
  H   H107      1.0  0.00488  0.07568  0.29867  1.0000
  C   C131      1.0  0.16054  0.96891  0.01661  1.0000
  C   C132      1.0  0.25776  0.18295  0.95409  1.0000
  H   H108      1.0  0.09030  0.34862  0.95471  1.0000
  C   C133      1.0  0.20097  0.29515  0.95418  1.0000
  H   H109      1.0  0.10848  0.20043  0.93967  1.0000
  H   H110      1.0  0.10259  0.17380  0.47306  1.0000
  H   H111      1.0  0.09700  0.36740  0.91358  1.0000
  H   H112      1.0  0.14572  0.36368  0.92133  1.0000
  Fe  Fe10      1.0  0.03111  0.35365  0.90449  1.0000
  S   S20       1.0  0.06283  0.34673  0.87353  1.0000
  Fe  Fe11      1.0  0.24974  0.27491  0.60075  1.0000
  S   S21       1.0  0.25198  0.30158  0.56691  1.0000
  S   S22       1.0  0.24300  0.23132  0.59628  1.0000
  Fe  Fe12      1.0  0.25458  0.31933  0.63901  1.0000
  S   S23       1.0  0.25727  0.34919  0.60701  1.0000
  S   S24       1.0  0.25529  0.33581  0.67987  1.0000
  Fe  Fe13      1.0  0.22356  0.32695  0.58869  1.0000
  S   S25       1.0  0.19061  0.34840  0.56686  1.0000
  Fe  Fe14      1.0  0.28573  0.32150  0.58765  1.0000
  H   H113      1.0  0.32034  0.24896  0.80241  1.0000
  S   S26       1.0  0.21907  0.29906  0.62162  1.0000
  S   S27       1.0  0.28512  0.29301  0.62059  1.0000
  Fe  Fe15      1.0  0.28551  0.33114  0.86993  1.0000
  S   S28       1.0  0.29294  0.29114  0.85474  1.0000
  S   S29       1.0  0.28534  0.11172  0.45818  1.0000
  Fe  Fe16      1.0  0.22433  0.32108  0.87438  1.0000
  S   S30       1.0  0.22818  0.27989  0.86039  1.0000
  S   S31       1.0  0.18827  0.33915  0.89441  1.0000
  Fe  Fe17      1.0  0.26459  0.27713  0.88516  1.0000
  S   S32       1.0  0.27785  0.24833  0.91549  1.0000
  Fe  Fe18      1.0  0.25613  0.29732  0.83061  1.0000
  S   S33       1.0  0.25415  0.28053  0.79010  1.0000
  S   S34       1.0  0.25886  0.31690  0.90136  1.0000
  S   S35       1.0  0.25043  0.33884  0.84359  1.0000
  Fe  Fe19      1.0  0.03745  0.35036  0.53542  1.0000
  S   S36       1.0  0.05300  0.37310  0.50189  1.0000
  S   S37       1.0  0.06471  0.32838  0.56318  1.0000
  S   S38       1.0  0.26919  0.17789  0.49006  1.0000
  C   C134      1.0  0.23260  0.40267  0.84638  1.0000
  S   S39       1.0  0.26824  0.04403  0.48450  1.0000
  C   C135      1.0  0.27136  0.99202  0.49749  1.0000
  C   C136      1.0  0.25881  0.01064  0.48171  1.0000
  C   C137      1.0  0.20801  0.39263  0.85426  1.0000
  H   H114      1.0  0.12476  0.38903  0.69941  1.0000
  C   C138      1.0  0.03654  0.25051  0.91259  1.0000
  C   C139      1.0  0.26120  0.21940  0.92421  1.0000
  C   C140      1.0  0.24161  0.20803  0.90886  1.0000
  H   H115      1.0  0.05741  0.43535  0.45622  1.0000
  C   C141      1.0  0.10947  0.40842  0.82154  1.0000
  C   C142      1.0  0.12017  0.22970  0.89854  1.0000
  H   H116      1.0  0.23560  0.21749  0.89127  1.0000
  Fe  Fe20      1.0  0.02138  0.35239  0.47923  1.0000
  C   C143      1.0  0.18959  0.41131  0.70891  1.0000
  C   C144      1.0  0.24809  0.21686  0.56606  1.0000
  C   C145      1.0  0.26012  0.23082  0.54621  1.0000
  C   C146      1.0  0.26504  0.21876  0.52267  1.0000
  C   C147      1.0  0.25838  0.19256  0.51872  1.0000
  C   C148      1.0  0.24577  0.17860  0.53833  1.0000
  C   C149      1.0  0.24069  0.19076  0.56198  1.0000
  H   H117      1.0  0.26623  0.25073  0.54916  1.0000
  H   H118      1.0  0.27462  0.22961  0.50757  1.0000
  H   H119      1.0  0.24066  0.15832  0.53556  1.0000
  H   H120      1.0  0.23139  0.17979  0.57729  1.0000
  C   C150      1.0  0.15582  0.34170  0.56600  1.0000
  C   C151      1.0  0.14391  0.32208  0.58082  1.0000
  C   C152      1.0  0.11604  0.31806  0.57966  1.0000
  C   C153      1.0  0.09983  0.33342  0.56359  1.0000
  C   C154      1.0  0.11182  0.35289  0.54872  1.0000
  C   C155      1.0  0.13958  0.35699  0.54997  1.0000
  H   H121      1.0  0.15613  0.31016  0.59327  1.0000
  H   H122      1.0  0.10702  0.30297  0.59125  1.0000
  H   H123      1.0  0.09970  0.36507  0.53648  1.0000
  H   H124      1.0  0.14854  0.37228  0.53852  1.0000
  C   C156      1.0  0.25478  0.31994  0.71029  1.0000
  C   C157      1.0  0.25738  0.33509  0.73254  1.0000
  C   C158      1.0  0.25684  0.32351  0.75710  1.0000
  C   C159      1.0  0.25397  0.29649  0.75973  1.0000
  C   C160      1.0  0.25122  0.28137  0.73748  1.0000
  C   C161      1.0  0.25157  0.29298  0.71293  1.0000
  H   H125      1.0  0.26009  0.35593  0.73076  1.0000
  H   H126      1.0  0.25904  0.33542  0.77397  1.0000
  H   H127      1.0  0.24899  0.26047  0.73925  1.0000
  H   H128      1.0  0.24953  0.28103  0.69608  1.0000
  C   C162      1.0  0.09756  0.34369  0.87992  1.0000
  C   C163      1.0  0.11399  0.32954  0.86309  1.0000
  C   C164      1.0  0.14177  0.32759  0.86725  1.0000
  C   C165      1.0  0.15340  0.33994  0.88827  1.0000
  C   C166      1.0  0.13694  0.35393  0.90510  1.0000
  C   C167      1.0  0.10925  0.35590  0.90090  1.0000
  H   H129      1.0  0.10518  0.31996  0.84680  1.0000
  H   H130      1.0  0.15414  0.31665  0.85420  1.0000
  C   C168      1.0  0.26886  0.20700  0.94694  1.0000
  H   H131      1.0  0.28641  0.99830  0.51092  1.0000
  C   C169      1.0  0.06903  0.35079  0.69913  1.0000
  H   H132      1.0  0.24682  0.40943  0.86047  1.0000
  C   C170      1.0  0.33114  0.16422  0.93648  1.0000
  H   H133      1.0  0.00882  0.27555  0.85842  1.0000
  C   C171      1.0  0.22124  0.39346  0.80233  1.0000
  H   H134      1.0  0.03083  0.23867  0.92873  1.0000
  C   C172      1.0  0.17155  0.29888  0.75602  1.0000
  C   C173      1.0  0.18214  0.28349  0.77561  1.0000
  C   C174      1.0  0.18884  0.29478  0.79896  1.0000
  C   C175      1.0  0.16808  0.32564  0.75967  1.0000
  H   H135      1.0  0.16650  0.29010  0.73788  1.0000
  H   H136      1.0  0.18564  0.26289  0.77264  1.0000
  H   H137      1.0  0.19727  0.28276  0.81393  1.0000
  H   H138      1.0  0.15972  0.33725  0.74432  1.0000
  C   C176      1.0  0.30775  0.28347  0.51705  1.0000
  C   C177      1.0  0.19632  0.38361  0.81007  1.0000
  H   H139      1.0  0.31548  0.31588  0.92292  1.0000
  C   C178      1.0  0.19211  0.05842  0.94204  1.0000
  H   H140      1.0  0.29477  0.28349  0.47784  1.0000
  C   C179      1.0  0.07806  0.22674  0.95368  1.0000
  C   C180      1.0  0.32232  0.24277  0.63535  1.0000
  C   C181      1.0  0.31663  0.23287  0.84034  1.0000
  C   C182      1.0  0.01736  0.25561  0.89380  1.0000
  C   C183      1.0  0.23249  0.97550  0.46319  1.0000
  C   C184      1.0  0.16562  0.97971  0.53079  1.0000
  H   H141      1.0  0.19364  0.42024  0.69048  1.0000
  H   H142      1.0  0.17824  0.23735  0.46937  1.0000
  C   C185      1.0  0.13405  0.40360  0.80979  1.0000
  C   C186      1.0  0.23938  0.00219  0.46444  1.0000
  H   H143      1.0  0.22704  0.39360  0.78243  1.0000
  C   C187      1.0  0.32788  0.15766  0.53721  1.0000
  H   H144      1.0  0.11098  0.39397  0.74454  1.0000
  H   H145      1.0  0.05776  0.00537  0.48598  1.0000
  H   H146      1.0  0.29728  0.30128  0.52183  1.0000
  S   S40       1.0  0.03656  0.37109  0.94351  1.0000
  C   C188      1.0  0.23925  0.40299  0.82044  1.0000
  C   C189      1.0  0.14342  0.22643  0.88407  1.0000
  H   H147      1.0  0.06209  0.99489  0.53214  1.0000
  H   H148      1.0  0.14716  0.99023  0.52800  1.0000
  H   H149      1.0  0.17956  0.27742  0.90663  1.0000
  H   H150      1.0  0.17131  0.37475  0.84292  1.0000
  C   C190      1.0  0.30648  0.27354  0.49227  1.0000
  H   H151      1.0  0.16385  0.15769  0.52167  1.0000
  C   C191      1.0  0.32986  0.24644  0.82088  1.0000
  C   C192      1.0  0.06883  0.27598  0.88876  1.0000
  C   C193      1.0  0.23810  0.99564  0.94672  1.0000
  C   C194      1.0  0.16499  0.24333  0.88735  1.0000
  H   H152      1.0  0.14463  0.21099  0.87006  1.0000
  H   H153      1.0  0.21918  0.38116  0.70411  1.0000
  C   C195      1.0  0.11950  0.35985  0.79946  1.0000
  S   S41       1.0  0.00656  0.38031  0.54670  1.0000
  H   H154      1.0  0.20313  0.39163  0.87444  1.0000
  H   H155      1.0  0.31282  0.19659  0.53609  1.0000
  H   H156      1.0  0.00303  0.44693  0.46640  1.0000
  H   H157      1.0  0.08304  0.31134  0.92615  1.0000
  H   H158      1.0  0.21012  0.36058  0.74579  1.0000
  C   C196      1.0  0.16322  0.26368  0.90487  1.0000
  H   H159      1.0  0.18295  0.24095  0.87603  1.0000
  C   C197      1.0  0.14021  0.26675  0.91969  1.0000
  C   C198      1.0  0.26437  0.96539  0.49632  1.0000
  H   H160      1.0  0.14929  0.41858  0.81016  1.0000
  C   C199      1.0  0.07521  0.98570  0.51840  1.0000
  H   H161      1.0  0.06105  0.44669  0.64324  1.0000
  S   S42       1.0  0.03264  0.44526  0.51455  1.0000
  C   C200      1.0  0.18877  0.99391  0.53615  1.0000
  C   C201      1.0  0.09495  0.36477  0.81126  1.0000
  C   C202      1.0  0.09002  0.38893  0.82246  1.0000
  C   C203      1.0  0.17032  0.42192  0.72517  1.0000
  C   C204      1.0  0.33013  0.18462  0.53994  1.0000
  C   C205      1.0  0.17884  0.05571  0.91876  1.0000
  H   H162      1.0  0.15843  0.18442  0.91940  1.0000
  C   C206      1.0  0.18178  0.19572  0.47115  1.0000
  H   H163      1.0  0.30493  0.46230  0.90128  1.0000
  Fe  Fe21      1.0  0.25369  0.08082  0.46344  1.0000
  C   C207      1.0  0.09469  0.96808  0.52671  1.0000
  H   H164      1.0  0.32346  0.42259  0.92180  1.0000
  C   C208      1.0  0.01160  0.26524  0.53355  1.0000
  P   P5        1.0  0.08779  0.25451  0.93425  1.0000
  H   H165      1.0  0.31808  0.24214  0.46742  1.0000
  C   C209      1.0  0.07277  0.99161  0.49241  1.0000
  H   H166      1.0  0.21526  0.35886  0.64842  1.0000
  S   S43       1.0  0.31801  0.35947  0.88315  1.0000
  H   H167      1.0  0.29688  0.22499  0.83695  1.0000
  C   C210      1.0  0.32553  0.46205  0.90757  1.0000
  H   H168      1.0  0.03341  0.27390  0.56786  1.0000
  H   H169      1.0  0.32468  0.27593  0.89881  1.0000
  H   H170      1.0  0.07055  0.37171  0.76075  1.0000
  C   C211      1.0  0.19000  0.38299  0.83625  1.0000
  H   H171      1.0  0.18333  0.15440  0.47836  1.0000
  C   C212      1.0  0.10715  0.37892  0.70629  1.0000
  H   H172      1.0  0.10578  0.42694  0.83076  1.0000
  H   H173      1.0  0.18802  0.01498  0.53727  1.0000
  C   C213      1.0  0.01493  0.26637  0.56000  1.0000
  C   C214      1.0  0.07483  0.40315  0.59630  1.0000
  C   C215      1.0  0.06580  0.42598  0.60786  1.0000
  C   C216      1.0  0.06798  0.42891  0.63434  1.0000
  C   C217      1.0  0.07898  0.40892  0.64931  1.0000
  C   C218      1.0  0.08777  0.38575  0.63783  1.0000
  C   C219      1.0  0.08591  0.38326  0.61121  1.0000
  P   P6        1.0  0.10185  0.35947  0.65671  1.0000
  C   C220      1.0  0.13786  0.35948  0.65413  1.0000
  C   C221      1.0  0.15353  0.34793  0.67339  1.0000
  C   C222      1.0  0.18135  0.34764  0.67128  1.0000
  C   C223      1.0  0.19372  0.35908  0.65010  1.0000
  C   C224      1.0  0.17835  0.37037  0.63080  1.0000
  C   C225      1.0  0.15054  0.37045  0.63266  1.0000
  C   C226      1.0  0.08905  0.32849  0.64575  1.0000
  C   C227      1.0  0.06433  0.32707  0.63316  1.0000
  C   C228      1.0  0.05422  0.30303  0.62527  1.0000
  C   C229      1.0  0.06834  0.28014  0.63038  1.0000
  C   C230      1.0  0.09269  0.28130  0.64332  1.0000
  C   C231      1.0  0.10311  0.30536  0.65083  1.0000
  H   H174      1.0  0.07317  0.40076  0.57576  1.0000
  C   C232      1.0  0.06243  0.26088  0.91037  1.0000
  C   C233      1.0  0.07660  0.36928  0.74101  1.0000
  H   H175      1.0  0.08042  0.41160  0.66974  1.0000
  H   H176      1.0  0.09289  0.36577  0.60201  1.0000
  H   H177      1.0  0.05681  0.33889  0.68676  1.0000
  H   H178      1.0  0.14432  0.33886  0.68990  1.0000
  H   H179      1.0  0.19350  0.33841  0.68591  1.0000
  H   H180      1.0  0.13923  0.37880  0.61708  1.0000
  H   H181      1.0  0.05283  0.34446  0.62913  1.0000
  H   H182      1.0  0.03561  0.30233  0.61475  1.0000
  H   H183      1.0  0.06047  0.26157  0.62416  1.0000
  H   H184      1.0  0.10361  0.26356  0.64739  1.0000
  H   H185      1.0  0.12211  0.30578  0.66058  1.0000
  C   C234      1.0  0.08769  0.29649  0.50316  1.0000
  C   C235      1.0  0.07549  0.28257  0.48354  1.0000
  C   C236      1.0  0.08717  0.25964  0.47458  1.0000
  C   C237      1.0  0.11142  0.25100  0.48484  1.0000
  C   C238      1.0  0.12412  0.26516  0.50426  1.0000
  C   C239      1.0  0.11171  0.28767  0.51367  1.0000
  P   P7        1.0  0.15529  0.25397  0.51804  1.0000
  C   C240      1.0  0.18274  0.27591  0.51125  1.0000
  C   C241      1.0  0.15174  0.25154  0.55231  1.0000
  C   C242      1.0  0.17442  0.25174  0.56805  1.0000
  C   C243      1.0  0.17175  0.24908  0.59451  1.0000
  C   C244      1.0  0.14653  0.24616  0.60549  1.0000
  C   C245      1.0  0.12387  0.24574  0.58996  1.0000
  C   C246      1.0  0.12642  0.24833  0.56346  1.0000
  C   C247      1.0  0.20885  0.26604  0.50958  1.0000
  C   C248      1.0  0.23045  0.28285  0.50587  1.0000
  C   C249      1.0  0.22633  0.30972  0.50425  1.0000
  C   C250      1.0  0.20052  0.31975  0.50611  1.0000
  C   C251      1.0  0.17880  0.30298  0.50953  1.0000
  C   C252      1.0  0.16370  0.22222  0.50548  1.0000
  C   C253      1.0  0.17471  0.22011  0.48086  1.0000
  H   H186      1.0  0.14598  0.03768  0.89912  1.0000
  H   H187      1.0  0.05715  0.44136  0.59622  1.0000
  C   C254      1.0  0.16667  0.17517  0.51028  1.0000
  C   C255      1.0  0.15964  0.19953  0.52011  1.0000
  H   H188      1.0  0.07845  0.31410  0.51034  1.0000
  H   H189      1.0  0.05703  0.28962  0.47525  1.0000
  C   C256      1.0  0.02389  0.27093  0.87256  1.0000
  H   H190      1.0  0.12009  0.23330  0.47761  1.0000
  H   H191      1.0  0.12046  0.29824  0.52936  1.0000
  H   H192      1.0  0.19427  0.25370  0.56007  1.0000
  H   H193      1.0  0.18937  0.24908  0.60650  1.0000
  H   H194      1.0  0.14473  0.24402  0.62600  1.0000
  H   H195      1.0  0.10431  0.24335  0.59840  1.0000
  H   H196      1.0  0.10864  0.24768  0.55177  1.0000
  H   H197      1.0  0.21278  0.24541  0.51203  1.0000
  H   H198      1.0  0.25046  0.27502  0.50534  1.0000
  H   H199      1.0  0.24319  0.32284  0.50254  1.0000
  H   H200      1.0  0.19740  0.34067  0.50609  1.0000
  H   H201      1.0  0.15930  0.31152  0.51173  1.0000
  H   H202      1.0  0.08812  0.98475  0.45459  1.0000
  H   H203      1.0  0.21015  0.07009  0.94313  1.0000
  C   C257      1.0  0.16121  0.18094  0.93962  1.0000
  Fe  Fe22      1.0  0.02094  0.40223  0.51158  1.0000
  H   H204      1.0  0.15136  0.20053  0.53918  1.0000
  C   C258      1.0  0.20393  0.38928  0.71653  1.0000
  C   C259      1.0  0.33137  0.18100  0.45579  1.0000
  H   H205      1.0  0.12849  0.01564  0.93772  1.0000
  H   H206      1.0  0.08853  0.28439  0.88659  1.0000
  S   S44       1.0  0.22451  0.10975  0.48000  1.0000
  H   H207      1.0  0.15952  0.43927  0.71939  1.0000
  H   H208      1.0  0.21606  0.17452  0.90364  1.0000
  H   H209      1.0  0.08010  0.34948  0.81285  1.0000
  H   H210      1.0  0.05459  0.29335  0.85383  1.0000
  H   H211      1.0  0.07142  0.39220  0.83259  1.0000
  C   C260      1.0  0.14603  0.02785  0.93924  1.0000
  C   C261      1.0  0.18593  0.32161  0.80254  1.0000
  C   C262      1.0  0.17607  0.33733  0.78269  1.0000
  Fe  Fe23      1.0  0.25478  0.14076  0.47107  1.0000
  C   C263      1.0  0.17908  0.38784  0.75650  1.0000
  C   C264      1.0  0.09209  0.36318  0.68978  1.0000
  C   C265      1.0  0.19871  0.37760  0.74018  1.0000
  C   C266      1.0  0.23063  0.18373  0.91586  1.0000
  C   C267      1.0  0.23897  0.17099  0.93833  1.0000
  H   H212      1.0  0.23106  0.99206  0.54327  1.0000
  H   H213      1.0  0.12316  0.34063  0.79183  1.0000
  H   H214      1.0  0.15997  0.13914  0.93605  1.0000
  C   C268      1.0  0.13935  0.37920  0.79882  1.0000
  S   S45       1.0  0.32056  0.33342  0.56106  1.0000
  C   C269      1.0  0.11859  0.24952  0.91689  1.0000
  P   P8        1.0  0.17240  0.37206  0.78686  1.0000
  C   C270      1.0  0.08984  0.97994  0.47471  1.0000
  H   H215      1.0  0.04360  0.34417  0.73177  1.0000
  H   H216      1.0  0.19180  0.32995  0.82065  1.0000
  H   H217      1.0  0.25863  0.41012  0.81444  1.0000
  H   H218      1.0  0.10330  0.21695  0.89526  1.0000
  H   H219      1.0  0.13926  0.28298  0.93277  1.0000
  C   C271      1.0  0.06140  0.35379  0.72467  1.0000
  H   H220      1.0  0.15044  0.41903  0.76136  1.0000
  H   H221      1.0  0.18803  0.37861  0.61406  1.0000
  H   H222      1.0  0.16379  0.22146  0.94850  1.0000
  H   H223      1.0  0.23523  0.00180  0.92712  1.0000
  H   H224      1.0  0.30906  0.14930  0.53101  1.0000
  C   C272      1.0  0.04965  0.28095  0.86998  1.0000
  C   C273      1.0  0.09943  0.38184  0.73182  1.0000
  C   C274      1.0  0.16518  0.41034  0.74896  1.0000
  H   H225      1.0  0.05383  0.17092  0.46480  1.0000
  H   H226      1.0  0.18662  0.06528  0.90181  1.0000
  S   S46       1.0  0.01002  0.31815  0.91921  1.0000
  H   H227      1.0  0.02758  0.27163  0.52101  1.0000
  H   H228      1.0  0.31694  0.22117  0.87966  1.0000
  C   C275      1.0  0.15592  0.04026  0.91730  1.0000
  C   C276      1.0  0.17773  0.17328  0.48585  1.0000
  S   S47       1.0  0.22664  0.13972  0.94587  1.0000
  C   C277      1.0  0.16189  0.15545  0.94899  1.0000
  C   C278      1.0  0.21456  0.27145  0.95256  1.0000
  C   C279      1.0  0.32818  0.23069  0.86457  1.0000
  C   C280      1.0  0.08864  0.30771  0.94579  1.0000
  C   C281      1.0  0.21304  0.98101  0.53961  1.0000
  S   S48       1.0  0.00797  0.32754  0.51202  1.0000
  H   H229      1.0  0.20698  0.31149  0.94222  1.0000
  H   H230      1.0  0.00425  0.29544  0.46929  1.0000
  H   H231      1.0  0.32609  0.16675  0.47026  1.0000
  H   H232      1.0  0.31464  0.24543  0.65454  1.0000
  H   H233      1.0  0.23114  0.26948  0.93940  1.0000
  C   C282      1.0  0.09173  0.20289  0.95233  1.0000
  H   H234      1.0  0.07752  0.24877  0.45947  1.0000
  H   H235      1.0  0.29369  0.21303  0.62585  1.0000
  C   C283      1.0  0.09395  0.18377  0.45674  1.0000
  C   C284      1.0  0.31059  0.22444  0.61923  1.0000
  C   C285      1.0  0.32227  0.27030  0.53593  1.0000
  H   H236      1.0  0.32772  0.45423  0.45840  1.0000
  H   H237      1.0  0.31027  0.20722  0.58222  1.0000
  H   H238      1.0  0.32112  0.14725  0.94442  1.0000
  C   C286      1.0  0.31983  0.25045  0.48633  1.0000
  H   H239      1.0  0.32285  0.27815  0.55510  1.0000
  C   C287      1.0  0.32004  0.22131  0.59430  1.0000
  H   H240      1.0  0.09661  0.96404  0.54698  1.0000
  C   C288      1.0  0.23852  0.96883  0.95262  1.0000
  H   H241      1.0  0.16832  0.97888  0.95248  1.0000
  H   H242      1.0  0.15287  0.30115  0.45414  1.0000
  Fe  Fe24      1.0  0.03471  0.62664  0.41966  1.0000
  S   S49       1.0  0.06817  0.64171  0.39340  1.0000
  Fe  Fe25      1.0  0.24190  0.67930  0.12049  1.0000
  S   S50       1.0  0.24108  0.63663  0.11081  1.0000
  S   S51       1.0  0.23623  0.69660  0.16063  1.0000
  Fe  Fe26      1.0  0.24858  0.69563  0.06433  1.0000
  S   S52       1.0  0.24757  0.65397  0.05161  1.0000
  S   S53       1.0  0.25789  0.72033  0.02934  1.0000
  Fe  Fe27      1.0  0.21345  0.64845  0.07870  1.0000
  S   S54       1.0  0.17940  0.62222  0.06505  1.0000
  Fe  Fe28      1.0  0.27544  0.64598  0.08405  1.0000
  S   S55       1.0  0.31027  0.61851  0.07522  1.0000
  S   S56       1.0  0.21230  0.69077  0.08948  1.0000
  S   S57       1.0  0.27818  0.68790  0.09577  1.0000
  Fe  Fe29      1.0  0.28638  0.65980  0.36491  1.0000
  S   S58       1.0  0.28121  0.69052  0.33436  1.0000
  H   H243      1.0  0.20079  0.65709  0.45188  1.0000
  Fe  Fe30      1.0  0.22518  0.64763  0.36566  1.0000
  S   S59       1.0  0.21657  0.67744  0.33508  1.0000
  S   S60       1.0  0.19472  0.62362  0.38882  1.0000
  Fe  Fe31      1.0  0.25336  0.66220  0.31495  1.0000
  S   S61       1.0  0.25687  0.64883  0.27293  1.0000
  Fe  Fe32      1.0  0.24518  0.70319  0.35691  1.0000
  S   S62       1.0  0.23660  0.74583  0.36616  1.0000
  S   S63       1.0  0.26055  0.63044  0.34466  1.0000
  S   S64       1.0  0.25166  0.67422  0.38826  1.0000
  Fe  Fe33      1.0  0.02762  0.62208  0.02216  1.0000
  S   S65       1.0  0.05829  0.65052  0.03850  1.0000
  S   S66       1.0  0.03102  0.59696  0.98720  1.0000
  S   S67       1.0  0.23105  0.83872  0.00440  1.0000
  Fe  Fe34      1.0  0.00721  0.56725  0.00953  1.0000
  H   H244      1.0  0.02905  0.57408  0.13882  1.0000
  C   C289      1.0  0.24237  0.96122  0.97808  1.0000
  H   H245      1.0  0.18885  0.82823  0.44274  1.0000
  H   H246      1.0  0.24271  0.94072  0.98299  1.0000
  C   C290      1.0  0.24253  0.75790  0.39732  1.0000
  C   C291      1.0  0.25252  0.74177  0.41664  1.0000
  C   C292      1.0  0.26674  0.88042  0.42211  1.0000
  C   C293      1.0  0.24200  0.79422  0.42755  1.0000
  C   C294      1.0  0.23721  0.78419  0.40290  1.0000
  H   H247      1.0  0.25743  0.72182  0.41254  1.0000
  H   H248      1.0  0.01367  0.71670  0.01441  1.0000
  H   H249      1.0  0.22962  0.79686  0.38802  1.0000
  C   C295      1.0  0.24935  0.75312  0.02323  1.0000
  C   C296      1.0  0.25187  0.76253  0.99813  1.0000
  C   C297      1.0  0.24680  0.78877  0.99228  1.0000
  C   C298      1.0  0.23903  0.80594  0.01152  1.0000
  C   C299      1.0  0.23665  0.79663  0.03672  1.0000
  C   C300      1.0  0.24178  0.77026  0.04259  1.0000
  H   H250      1.0  0.25792  0.74944  0.98313  1.0000
  H   H251      1.0  0.24899  0.79569  0.97290  1.0000
  H   H252      1.0  0.23082  0.80987  0.05172  1.0000
  H   H253      1.0  0.24027  0.76329  0.06207  1.0000
  C   C301      1.0  0.14596  0.63087  0.05743  1.0000
  C   C302      1.0  0.13513  0.65512  0.06379  1.0000
  C   C303      1.0  0.10828  0.66084  0.05797  1.0000
  C   C304      1.0  0.09198  0.64247  0.04561  1.0000
  C   C305      1.0  0.10285  0.61833  0.03911  1.0000
  C   C306      1.0  0.12960  0.61250  0.04516  1.0000
  H   H254      1.0  0.14732  0.66924  0.07368  1.0000
  H   H255      1.0  0.10007  0.67951  0.06332  1.0000
  H   H256      1.0  0.09067  0.60417  0.02928  1.0000
  H   H257      1.0  0.13769  0.59362  0.04027  1.0000
  C   C307      1.0  0.24232  0.68296  0.19168  1.0000
  C   C308      1.0  0.24822  0.65655  0.19543  1.0000
  C   C309      1.0  0.25208  0.64658  0.22041  1.0000
  C   C310      1.0  0.25061  0.66278  0.24203  1.0000
  C   C311      1.0  0.24484  0.68922  0.23828  1.0000
  C   C312      1.0  0.24063  0.69917  0.21331  1.0000
  H   H258      1.0  0.24942  0.64373  0.17913  1.0000
  H   H259      1.0  0.25596  0.62607  0.22310  1.0000
  H   H260      1.0  0.24360  0.70202  0.25460  1.0000
  H   H261      1.0  0.23603  0.71960  0.21075  1.0000
  C   C313      1.0  0.10341  0.63683  0.39316  1.0000
  C   C314      1.0  0.11620  0.61969  0.41005  1.0000
  C   C315      1.0  0.14403  0.61563  0.40825  1.0000
  C   C316      1.0  0.15963  0.62936  0.39022  1.0000
  C   C317      1.0  0.14692  0.64706  0.37385  1.0000
  C   C318      1.0  0.11900  0.65049  0.37512  1.0000
  H   H262      1.0  0.10460  0.60933  0.42425  1.0000
  H   H263      1.0  0.15361  0.60205  0.42113  1.0000
  H   H264      1.0  0.15853  0.65779  0.35989  1.0000
  H   H265      1.0  0.10940  0.66373  0.36186  1.0000
  C   C319      1.0  0.13216  0.67618  0.96933  1.0000
  C   C320      1.0  0.31300  0.73914  0.96215  1.0000
  C   C321      1.0  0.27176  0.92734  0.42250  1.0000
  C   C322      1.0  0.31224  0.86629  0.99370  1.0000
  H   H266      1.0  0.02645  0.72682  0.43144  1.0000
  C   C323      1.0  0.30393  0.60812  0.14495  1.0000
  C   C324      1.0  0.30375  0.84592  0.00952  1.0000
  H   H267      1.0  0.00756  0.66530  0.96529  1.0000
  C   C325      1.0  0.07850  0.68293  0.95646  1.0000
  H   H268      1.0  0.28134  0.58986  0.11498  1.0000
  C   C326      1.0  0.31949  0.76422  0.42972  1.0000
  C   C327      1.0  0.02671  0.59131  0.12708  1.0000
  H   H269      1.0  0.04476  0.50299  0.41628  1.0000
  C   C328      1.0  0.30936  0.67494  0.16304  1.0000
  S   S68       1.0  0.02200  0.52522  0.01297  1.0000
  C   C329      1.0  0.17937  0.93094  0.99604  1.0000
  H   H270      1.0  0.22151  0.69847  0.43734  1.0000
  H   H271      1.0  0.17192  0.93366  0.03642  1.0000
  H   H272      1.0  0.18019  0.82325  0.39622  1.0000
  H   H273      1.0  0.07077  0.65149  0.98298  1.0000
  C   C330      1.0  0.17800  0.94374  0.97246  1.0000
  H   H274      1.0  0.12407  0.68457  0.42842  1.0000
  H   H275      1.0  0.26976  0.66101  0.44055  1.0000
  C   C331      1.0  0.25628  0.90526  0.41761  1.0000
  H   H276      1.0  0.05269  0.76337  0.44947  1.0000
  C   C332      1.0  0.28369  0.59212  0.13545  1.0000
  H   H277      1.0  0.09648  0.57304  0.21397  1.0000
  S   S69       1.0  0.00641  0.59160  0.04542  1.0000
  H   H278      1.0  0.01653  0.65169  0.08332  1.0000
  H   H279      1.0  0.18759  0.91141  0.99718  1.0000
  C   C333      1.0  0.07558  0.52907  0.16984  1.0000
  H   H280      1.0  0.03578  0.76693  0.98905  1.0000
  H   H281      1.0  0.30723  0.64064  0.23199  1.0000
  C   C334      1.0  0.10498  0.53915  0.05434  1.0000
  C   C335      1.0  0.12148  0.54040  0.07581  1.0000
  C   C336      1.0  0.11478  0.55668  0.09621  1.0000
  C   C337      1.0  0.09179  0.57230  0.09504  1.0000
  C   C338      1.0  0.04222  0.79200  0.95653  1.0000
  P   P9        1.0  0.08247  0.59221  0.12209  1.0000
  C   C339      1.0  0.08284  0.57152  0.15013  1.0000
  C   C340      1.0  0.10502  0.61937  0.12687  1.0000
  C   C341      1.0  0.09612  0.64165  0.13991  1.0000
  C   C342      1.0  0.11375  0.66208  0.14520  1.0000
  C   C343      1.0  0.14046  0.66038  0.13773  1.0000
  C   C344      1.0  0.14948  0.63833  0.12484  1.0000
  C   C345      1.0  0.13186  0.61799  0.11925  1.0000
  C   C346      1.0  0.15120  0.53843  0.43735  1.0000
  C   C347      1.0  0.31278  0.82053  0.00526  1.0000
  H   H282      1.0  0.30477  0.88586  0.99674  1.0000
  C   C348      1.0  0.04516  0.76889  0.97050  1.0000
  C   C349      1.0  0.07539  0.54519  0.14821  1.0000
  C   C350      1.0  0.16044  0.54201  0.38472  1.0000
  C   C351      1.0  0.17940  0.55148  0.40186  1.0000
  H   H283      1.0  0.28949  0.84968  0.02466  1.0000
  H   H284      1.0  0.30911  0.94196  0.43622  1.0000
  H   H285      1.0  0.03275  0.46998  0.01432  1.0000
  H   H286      1.0  0.06367  0.58806  0.37468  1.0000
  H   H287      1.0  0.29922  0.79383  0.40781  1.0000
  H   H288      1.0  0.30426  0.76001  0.01580  1.0000
  H   H289      1.0  0.13947  0.52873  0.07664  1.0000
  H   H290      1.0  0.12750  0.55699  0.11292  1.0000
  H   H291      1.0  0.29208  0.59949  0.20860  1.0000
  H   H292      1.0  0.07564  0.64311  0.14633  1.0000
  H   H293      1.0  0.10679  0.67917  0.15528  1.0000
  H   H294      1.0  0.15426  0.67609  0.14192  1.0000
  H   H295      1.0  0.17016  0.63710  0.11882  1.0000
  H   H296      1.0  0.13944  0.60150  0.10878  1.0000
  C   C352      1.0  0.07537  0.57091  0.07334  1.0000
  C   C353      1.0  0.13169  0.52951  0.42022  1.0000
  S   S70       1.0  0.01010  0.65776  0.43823  1.0000
  H   H297      1.0  0.06931  0.53713  0.13002  1.0000
  H   H298      1.0  0.30021  0.85815  0.43497  1.0000
  C   C354      1.0  0.08587  0.66383  0.97425  1.0000
  H   H299      1.0  0.06897  0.55321  0.03657  1.0000
  H   H300      1.0  0.30577  0.73834  0.18153  1.0000
  C   C355      1.0  0.25182  0.77786  0.44683  1.0000
  C   C356      1.0  0.12151  0.74164  0.32994  1.0000
  C   C357      1.0  0.14620  0.73567  0.31901  1.0000
  C   C358      1.0  0.16792  0.72976  0.33468  1.0000
  C   C359      1.0  0.16490  0.72918  0.36123  1.0000
  C   C360      1.0  0.14014  0.73499  0.37241  1.0000
  C   C361      1.0  0.11857  0.74170  0.35652  1.0000
  P   P10       1.0  0.13694  0.73694  0.40676  1.0000
  C   C362      1.0  0.15077  0.76740  0.41781  1.0000
  C   C363      1.0  0.10208  0.73354  0.41543  1.0000
  C   C364      1.0  0.08949  0.75180  0.43131  1.0000
  C   C365      1.0  0.07415  0.53368  0.41124  1.0000
  C   C366      1.0  0.04748  0.72877  0.42701  1.0000
  C   C367      1.0  0.05978  0.71070  0.41101  1.0000
  C   C368      1.0  0.08690  0.71307  0.40521  1.0000
  C   C369      1.0  0.09056  0.56526  0.19561  1.0000
  C   C370      1.0  0.14515  0.68829  0.43049  1.0000
  H   H301      1.0  0.26323  0.94659  0.41993  1.0000
  C   C371      1.0  0.17274  0.80884  0.40964  1.0000
  C   C372      1.0  0.15949  0.78670  0.40060  1.0000
  C   C373      1.0  0.15677  0.71154  0.42157  1.0000
  C   C374      1.0  0.18441  0.71519  0.42456  1.0000
  C   C375      1.0  0.20015  0.69577  0.43575  1.0000
  H   H302      1.0  0.30983  0.73669  0.05649  1.0000
  C   C376      1.0  0.15812  0.87976  0.45276  1.0000
  C   C377      1.0  0.04511  0.62651  0.10156  1.0000
  H   H303      1.0  0.10470  0.74638  0.31778  1.0000
  H   H304      1.0  0.14861  0.73579  0.29843  1.0000
  H   H305      1.0  0.18726  0.72581  0.32627  1.0000
  H   H306      1.0  0.18210  0.72458  0.37285  1.0000
  H   H307      1.0  0.09945  0.74708  0.36454  1.0000
  H   H308      1.0  0.10040  0.76811  0.43897  1.0000
  H   H309      1.0  0.18487  0.82604  0.96591  1.0000
  C   C378      1.0  0.09038  0.58145  0.17402  1.0000
  H   H310      1.0  0.04832  0.69472  0.40306  1.0000
  H   H311      1.0  0.09598  0.69891  0.39261  1.0000
  C   C379      1.0  0.28995  0.59792  0.18814  1.0000
  H   H312      1.0  0.06200  0.63657  0.09314  1.0000
  C   C380      1.0  0.33039  0.81527  0.98502  1.0000
  C   C381      1.0  0.29768  0.92462  0.43195  1.0000
  H   H313      1.0  0.15690  0.78438  0.38021  1.0000
  H   H314      1.0  0.19398  0.73286  0.41778  1.0000
  H   H315      1.0  0.25569  0.57277  0.19160  1.0000
  H   H316      1.0  0.31699  0.61800  0.13151  1.0000
  H   H317      1.0  0.23837  0.81456  0.43156  1.0000
  H   H318      1.0  0.05756  0.58262  0.07172  1.0000
  C   C382      1.0  0.12046  0.80528  0.96655  1.0000
  H   H319      1.0  0.25453  0.86333  0.41886  1.0000
  C   C383      1.0  0.16741  0.81484  0.97121  1.0000
  C   C384      1.0  0.16940  0.79580  0.99023  1.0000
  C   C385      1.0  0.14708  0.78099  0.99737  1.0000
  C   C386      1.0  0.12246  0.78590  0.98541  1.0000
  P   P11       1.0  0.15032  0.75663  0.02226  1.0000
  C   C387      1.0  0.11770  0.74527  0.03184  1.0000
  C   C388      1.0  0.16989  0.72900  0.01175  1.0000
  C   C389      1.0  0.18899  0.73156  0.99221  1.0000
  C   C390      1.0  0.07571  0.47166  0.44507  1.0000
  C   C391      1.0  0.20314  0.68690  0.99902  1.0000
  C   C392      1.0  0.18391  0.68402  0.01812  1.0000
  C   C393      1.0  0.16724  0.70488  0.02435  1.0000
  C   C394      1.0  0.10456  0.72627  0.01732  1.0000
  C   C395      1.0  0.07967  0.71679  0.02502  1.0000
  C   C396      1.0  0.06769  0.72630  0.04719  1.0000
  C   C397      1.0  0.08037  0.74559  0.06149  1.0000
  C   C398      1.0  0.10528  0.75513  0.05383  1.0000
  C   C399      1.0  0.16635  0.77082  0.04988  1.0000
  C   C400      1.0  0.16589  0.79791  0.05377  1.0000
  C   C401      1.0  0.17775  0.80866  0.07548  1.0000
  C   C402      1.0  0.18987  0.79249  0.09363  1.0000
  C   C403      1.0  0.19005  0.76552  0.09013  1.0000
  C   C404      1.0  0.17837  0.75473  0.06835  1.0000
  C   C405      1.0  0.29275  0.87760  0.43136  1.0000
  H   H320      1.0  0.03054  0.80793  0.96415  1.0000
  C   C406      1.0  0.32924  0.86119  0.97316  1.0000
  H   H321      1.0  0.18838  0.79278  0.99959  1.0000
  H   H322      1.0  0.10476  0.77504  0.99059  1.0000
  H   H323      1.0  0.19200  0.74982  0.98232  1.0000
  H   H324      1.0  0.16270  0.86744  0.43663  1.0000
  C   C407      1.0  0.01931  0.63519  0.09600  1.0000
  H   H325      1.0  0.18231  0.66572  0.02845  1.0000
  H   H326      1.0  0.15282  0.70239  0.03955  1.0000
  H   H327      1.0  0.11375  0.71852  0.00029  1.0000
  H   H328      1.0  0.07000  0.70148  0.01422  1.0000
  H   H329      1.0  0.04878  0.71842  0.05352  1.0000
  H   H330      1.0  0.07106  0.75290  0.07871  1.0000
  H   H331      1.0  0.11484  0.76996  0.06526  1.0000
  H   H332      1.0  0.15651  0.81085  0.04007  1.0000
  H   H333      1.0  0.17786  0.82960  0.07804  1.0000
  H   H334      1.0  0.19931  0.80084  0.11031  1.0000
  H   H335      1.0  0.19958  0.75294  0.10412  1.0000
  H   H336      1.0  0.17889  0.73384  0.06604  1.0000
  P   P12       1.0  0.09928  0.51902  0.43161  1.0000
  C   C408      1.0  0.26932  0.58243  0.17855  1.0000
  C   C409      1.0  0.04965  0.52117  0.40692  1.0000
  H   H337      1.0  0.28667  0.67012  0.01389  1.0000
  C   C410      1.0  0.26620  0.57953  0.15221  1.0000
  C   C411      1.0  0.09610  0.48389  0.43099  1.0000
  C   C412      1.0  0.11268  0.66049  0.98072  1.0000
  H   H338      1.0  0.31559  0.77406  0.44755  1.0000
  H   H339      1.0  0.30534  0.80519  0.01751  1.0000
  H   H340      1.0  0.11003  0.52648  0.03855  1.0000
  C   C413      1.0  0.06231  0.74935  0.43712  1.0000
  C   C414      1.0  0.08185  0.55426  0.05320  1.0000
  H   H341      1.0  0.09739  0.56834  0.40277  1.0000
  H   H342      1.0  0.11839  0.64563  0.99446  1.0000
  H   H343      1.0  0.08335  0.52659  0.21029  1.0000
  C   C415      1.0  0.31319  0.76272  0.38383  1.0000
  H   H344      1.0  0.30175  0.66243  0.14816  1.0000
  H   H345      1.0  0.15203  0.65082  0.44788  1.0000
  C   C416      1.0  0.08318  0.53909  0.19353  1.0000
  H   H346      1.0  0.01142  0.52314  0.38828  1.0000
  H   H347      1.0  0.31707  0.62833  0.27638  1.0000
  H   H348      1.0  0.21662  0.67097  0.99483  1.0000
  C   C417      1.0  0.32714  0.68375  0.01621  1.0000
  C   C418      1.0  0.04904  0.60448  0.11709  1.0000
  C   C419      1.0  0.17496  0.54935  0.42815  1.0000
  C   C420      1.0  0.31169  0.71803  0.18170  1.0000
  C   C421      1.0  0.20547  0.71056  0.98587  1.0000
  H   H349      1.0  0.02073  0.56545  0.36699  1.0000
  C   C422      1.0  0.03061  0.53250  0.39082  1.0000
  C   C423      1.0  0.16857  0.79280  0.45302  1.0000
  C   C424      1.0  0.18847  0.67257  0.44414  1.0000
  C   C425      1.0  0.03574  0.55645  0.37902  1.0000
  H   H350      1.0  0.12196  0.52425  0.38024  1.0000
  C   C426      1.0  0.13677  0.53086  0.39382  1.0000
  H   H351      1.0  0.30293  0.69378  0.42813  1.0000
  H   H352      1.0  0.23590  0.90749  0.41111  1.0000
  C   C427      1.0  0.30295  0.70147  0.16237  1.0000
  C   C428      1.0  0.05941  0.74799  0.96017  1.0000
  Fe  Fe35      1.0  0.23294  0.85253  0.96310  1.0000
  H   H353      1.0  0.06085  0.73017  0.97111  1.0000
  C   C429      1.0  0.30727  0.61117  0.17142  1.0000
  H   H354      1.0  0.09619  0.60163  0.17612  1.0000
  C   C430      1.0  0.16099  0.66899  0.44177  1.0000
  H   H355      1.0  0.25017  0.56764  0.14472  1.0000
  C   C431      1.0  0.17752  0.81173  0.43580  1.0000
  C   C432      1.0  0.07895  0.55796  0.39952  1.0000
  C   C433      1.0  0.01167  0.49936  0.99275  1.0000
  C   C434      1.0  0.05988  0.56922  0.38344  1.0000
  H   H356      1.0  0.29193  0.65243  0.97026  1.0000
  C   C435      1.0  0.32767  0.70828  0.20137  1.0000
  H   H357      1.0  0.18668  0.90935  0.44208  1.0000
  H   H358      1.0  0.15295  0.67330  0.97416  1.0000
  C   C436      1.0  0.15524  0.77075  0.44402  1.0000
  H   H359      1.0  0.08514  0.56989  0.45227  1.0000
  H   H360      1.0  0.16378  0.54406  0.36434  1.0000
  H   H361      1.0  0.06984  0.50878  0.16823  1.0000
  C   C437      1.0  0.30851  0.66227  0.97932  1.0000
  H   H362      1.0  0.10153  0.80919  0.95735  1.0000
  C   C438      1.0  0.30556  0.67203  0.00399  1.0000
  C   C439      1.0  0.32499  0.62926  0.23596  1.0000
  H   H363      1.0  0.29037  0.70910  0.14729  1.0000
  H   H364      1.0  0.12904  0.47741  0.40493  1.0000
  H   H365      1.0  0.01277  0.71268  0.95897  1.0000
  C   C440      1.0  0.17061  0.94352  0.01812  1.0000
  C   C441      1.0  0.30851  0.89971  0.43618  1.0000
  H   H366      1.0  0.18963  0.55696  0.44135  1.0000
  H   H367      1.0  0.30458  0.77086  0.36655  1.0000
  C   C442      1.0  0.31010  0.77561  0.40711  1.0000
  C   C443      1.0  0.00091  0.60010  0.12151  1.0000
  C   C444      1.0  0.31662  0.76623  0.96026  1.0000
  S   S71       1.0  0.32596  0.65857  0.38709  1.0000
  C   C445      1.0  0.01989  0.47367  0.99811  1.0000
  Fe  Fe36      1.0  0.00106  0.58349  0.44532  1.0000
  H   H368      1.0  0.19728  0.56103  0.39474  1.0000
  C   C446      1.0  0.25677  0.75158  0.44130  1.0000
  H   H369      1.0  0.32489  0.69011  0.03578  1.0000
  C   C447      1.0  0.30182  0.68783  0.44796  1.0000
  H   H370      1.0  0.32836  0.72844  0.36511  1.0000
  H   H371      1.0  0.01223  0.68902  0.05340  1.0000
  C   C448      1.0  0.32420  0.75632  0.02277  1.0000
  H   H372      1.0  0.22091  0.71302  0.97158  1.0000
  C   C449      1.0  0.32511  0.66489  0.18293  1.0000
  C   C450      1.0  0.32735  0.74294  0.04588  1.0000
  C   C451      1.0  0.33058  0.62236  0.26125  1.0000
  C   C452      1.0  0.32648  0.73882  0.38303  1.0000
  H   H373      1.0  0.32482  0.72768  0.97532  1.0000
  C   C453      1.0  0.14297  0.81960  0.95933  1.0000
  C   C454      1.0  0.11332  0.46855  0.41617  1.0000
  H   H374      1.0  0.18520  0.93420  0.95537  1.0000
  H   H375      1.0  0.16215  0.91417  0.56780  1.0000
  C   C455      1.0  0.31977  0.75449  0.49576  1.0000
  S   S72       1.0  0.23251  0.82594  0.92944  1.0000
  H   H376      1.0  0.17584  0.93807  0.47794  1.0000
  S   S73       1.0  0.23401  0.87750  0.89322  1.0000
  H   H377      1.0  0.09437  0.81618  0.47253  1.0000
  Fe  Fe37      1.0  0.20214  0.85313  0.91228  1.0000
  S   S74       1.0  0.16844  0.83166  0.89128  1.0000
  Fe  Fe38      1.0  0.26447  0.85188  0.91281  1.0000
  S   S75       1.0  0.29746  0.82771  0.89364  1.0000
  Fe  Fe39      1.0  0.02868  0.81082  0.58460  1.0000
  S   S76       1.0  0.06202  0.82193  0.55662  1.0000
  S   S77       1.0  0.02603  0.77846  0.61395  1.0000
  C   C456      1.0  0.29766  0.67136  0.49885  1.0000
  S   S78       1.0  0.04340  0.85433  0.87962  1.0000
  C   C457      1.0  0.19901  0.76337  0.51543  1.0000
  Fe  Fe40      1.0  0.21887  0.85093  0.54048  1.0000
  S   S79       1.0  0.21566  0.85345  0.49770  1.0000
  S   S80       1.0  0.18679  0.84200  0.57029  1.0000
  Fe  Fe41      1.0  0.28028  0.85861  0.53960  1.0000
  S   S81       1.0  0.28142  0.86199  0.49668  1.0000
  H   H378      1.0  0.23306  0.94392  0.54008  1.0000
  Fe  Fe42      1.0  0.24472  0.88732  0.50100  1.0000
  H   H379      1.0  0.08491  0.91126  0.53124  1.0000
  Fe  Fe43      1.0  0.25249  0.82834  0.49673  1.0000
  H   H380      1.0  0.15342  0.73131  0.85041  1.0000
  S   S82       1.0  0.24546  0.88621  0.54395  1.0000
  S   S83       1.0  0.25371  0.82354  0.53941  1.0000
  H   H381      1.0  0.04671  0.81831  0.48522  1.0000
  C   C458      1.0  0.09710  0.65914  0.47519  1.0000
  H   H382      1.0  0.26549  0.64691  0.48575  1.0000
  S   S84       1.0  0.25972  0.78920  0.47775  1.0000
  C   C459      1.0  0.01335  0.71079  0.55950  1.0000
  C   C460      1.0  0.09691  0.82609  0.56073  1.0000
  C   C461      1.0  0.11241  0.83380  0.53956  1.0000
  C   C462      1.0  0.14007  0.83811  0.54194  1.0000
  C   C463      1.0  0.15248  0.83494  0.56566  1.0000
  C   C464      1.0  0.13709  0.82667  0.58671  1.0000
  C   C465      1.0  0.10945  0.82218  0.58428  1.0000
  H   H383      1.0  0.10283  0.83698  0.52135  1.0000
  H   H384      1.0  0.15170  0.84443  0.52564  1.0000
  H   H385      1.0  0.14656  0.82414  0.60513  1.0000
  H   H386      1.0  0.09779  0.81622  0.60070  1.0000
  C   C466      1.0  0.02227  0.47118  0.49416  1.0000
  C   C467      1.0  0.10176  0.72982  0.55396  1.0000
  H   H387      1.0  0.01446  0.72040  0.85855  1.0000
  C   C468      1.0  0.02503  0.86969  0.81410  1.0000
  C   C469      1.0  0.24479  0.95695  0.47923  1.0000
  C   C470      1.0  0.15536  0.76529  0.90596  1.0000
  C   C471      1.0  0.13354  0.83791  0.88918  1.0000
  C   C472      1.0  0.12213  0.86090  0.89840  1.0000
  C   C473      1.0  0.09454  0.86550  0.89539  1.0000
  C   C474      1.0  0.07792  0.84710  0.88347  1.0000
  C   C475      1.0  0.08926  0.82396  0.87449  1.0000
  C   C476      1.0  0.11690  0.81948  0.87725  1.0000
  H   H388      1.0  0.13464  0.87534  0.90746  1.0000
  H   H389      1.0  0.08602  0.88352  0.90229  1.0000
  H   H390      1.0  0.07683  0.80973  0.86503  1.0000
  H   H391      1.0  0.12551  0.80175  0.86981  1.0000
  H   H392      1.0  0.13892  0.68413  0.51990  1.0000
  H   H393      1.0  0.08462  0.55609  0.53316  1.0000
  C   C477      1.0  0.14625  0.74497  0.51946  1.0000
  Fe  Fe44      1.0  0.00164  0.80687  0.63759  1.0000
  H   H394      1.0  0.14154  0.83446  0.94460  1.0000
  C   C478      1.0  0.19120  0.93965  0.53200  1.0000
  H   H395      1.0  0.13072  0.64362  0.49574  1.0000
  C   C479      1.0  0.02672  0.69323  0.54336  1.0000
  C   C480      1.0  0.07662  0.80626  0.70785  1.0000
  C   C481      1.0  0.14595  0.91222  0.49419  1.0000
  S   S85       1.0  0.01525  0.78516  0.85497  1.0000
  S   S86       1.0  0.03030  0.65342  0.50895  1.0000
  S   S87       1.0  0.31477  0.86009  0.56821  1.0000
  C   C482      1.0  0.09576  0.52329  0.50988  1.0000
  C   C483      1.0  0.05391  0.79441  0.93240  1.0000
  C   C484      1.0  0.29373  0.72669  0.94721  1.0000
  H   H396      1.0  0.00098  0.89952  0.79652  1.0000
  C   C485      1.0  0.28275  0.66921  0.45498  1.0000
  C   C486      1.0  0.11744  0.73577  0.90559  1.0000
  C   C487      1.0  0.01241  0.67546  0.52833  1.0000
  H   H397      1.0  0.02272  0.89521  0.75407  1.0000
  H   H398      1.0  0.17974  0.76579  0.87217  1.0000
  C   C488      1.0  0.12489  0.69545  0.95168  1.0000
  C   C489      1.0  0.06672  0.70723  0.89823  1.0000
  C   C490      1.0  0.12267  0.68345  0.50629  1.0000
  C   C491      1.0  0.06841  0.77367  0.92216  1.0000
  C   C492      1.0  0.13122  0.89446  0.58827  1.0000
  C   C493      1.0  0.00532  0.51373  0.46328  1.0000
  C   C494      1.0  0.08797  0.89270  0.56789  1.0000
  H   H399      1.0  0.30618  0.92627  0.53114  1.0000
  C   C495      1.0  0.04752  0.72165  0.88472  1.0000
  C   C496      1.0  0.02991  0.70920  0.86806  1.0000
  C   C497      1.0  0.03148  0.68229  0.86452  1.0000
  C   C498      1.0  0.05098  0.66785  0.87735  1.0000
  C   C499      1.0  0.06868  0.68026  0.89398  1.0000
  H   H400      1.0  0.01053  0.84273  0.72890  1.0000
  H   H401      1.0  0.12248  0.95371  0.46892  1.0000
  H   H402      1.0  0.06198  0.48314  0.45637  1.0000
  C   C500      1.0  0.16262  0.75702  0.88155  1.0000
  C   C501      1.0  0.18151  0.77448  0.53305  1.0000
  C   C502      1.0  0.02912  0.88308  0.76992  1.0000
  C   C503      1.0  0.16403  0.73401  0.50165  1.0000
  H   H403      1.0  0.30338  0.80142  0.94111  1.0000
  C   C504      1.0  0.12471  0.91537  0.54696  1.0000
  H   H404      1.0  0.05136  0.81223  0.92143  1.0000
  C   C505      1.0  0.09695  0.82024  0.69574  1.0000
  H   H405      1.0  0.26323  0.73158  0.91852  1.0000
  H   H406      1.0  0.04824  0.69341  0.54243  1.0000
  H   H407      1.0  0.12981  0.84675  0.70069  1.0000
  Fe  Fe45      1.0  0.23416  0.90112  0.92986  1.0000
  C   C506      1.0  0.08435  0.56585  0.49311  1.0000
  H   H408      1.0  0.04534  0.74237  0.88758  1.0000
  H   H409      1.0  0.01599  0.87197  0.83276  1.0000
  C   C507      1.0  0.09797  0.90704  0.54720  1.0000
  H   H410      1.0  0.05197  0.64692  0.87486  1.0000
  H   H411      1.0  0.08348  0.66863  0.90387  1.0000
  H   H412      1.0  0.11376  0.71221  0.87154  1.0000
  C   C508      1.0  0.14132  0.90876  0.56760  1.0000
  P   P13       1.0  0.11164  0.73468  0.52097  1.0000
  C   C509      1.0  0.10613  0.70528  0.50263  1.0000
  C   C510      1.0  0.08796  0.54909  0.51392  1.0000
  H   H413      1.0  0.18824  0.79033  0.54510  1.0000
  C   C511      1.0  0.09102  0.76078  0.50866  1.0000
  C   C512      1.0  0.05889  0.80193  0.49109  1.0000
  H   H414      1.0  0.30418  0.92015  0.48453  1.0000
  C   C513      1.0  0.09646  0.75153  0.56941  1.0000
  H   H415      1.0  0.01730  0.67258  0.85219  1.0000
  H   H416      1.0  0.30076  0.74875  0.48769  1.0000
  H   H417      1.0  0.04000  0.50070  0.51790  1.0000
  S   S88       1.0  0.00680  0.83974  0.60892  1.0000
  H   H418      1.0  0.14790  0.53764  0.45777  1.0000
  C   C514      1.0  0.00791  0.46669  0.47171  1.0000
  C   C515      1.0  0.15525  0.76543  0.53502  1.0000
  C   C516      1.0  0.10188  0.78046  0.49310  1.0000
  C   C517      1.0  0.02043  0.51817  0.48530  1.0000
  H   H419      1.0  0.32690  0.56924  0.56732  1.0000
  Fe  Fe46      1.0  0.00992  0.82591  0.86932  1.0000
  H   H420      1.0  0.12282  0.78050  0.48833  1.0000
  H   H421      1.0  0.14204  0.77486  0.54844  1.0000
  Fe  Fe47      1.0  0.01304  0.63376  0.47388  1.0000
  C   C518      1.0  0.00144  0.82377  0.73131  1.0000
  C   C519      1.0  0.13289  0.88819  0.49136  1.0000
  C   C520      1.0  0.09795  0.69895  0.94505  1.0000
  H   H422      1.0  0.06251  0.79512  0.69659  1.0000
  H   H423      1.0  0.07114  0.71958  0.48259  1.0000
  C   C521      1.0  0.17138  0.90350  0.45560  1.0000
  C   C522      1.0  0.16531  0.91970  0.47617  1.0000
  C   C523      1.0  0.08053  0.68067  0.47150  1.0000
  H   H424      1.0  0.09823  0.77111  0.56184  1.0000
  H   H425      1.0  0.07710  0.77585  0.90332  1.0000
  P   P14       1.0  0.13735  0.93387  0.52002  1.0000
  C   C524      1.0  0.27823  0.74112  0.93005  1.0000
  H   H426      1.0  0.16689  0.78032  0.91542  1.0000
  H   H427      1.0  0.29590  0.66514  0.51859  1.0000
  C   C525      1.0  0.10929  0.96224  0.48294  1.0000
  S   S89       1.0  0.23384  0.94579  0.92755  1.0000
  C   C526      1.0  0.09790  0.70471  0.56417  1.0000
  C   C527      1.0  0.08893  0.70148  0.58932  1.0000
  C   C528      1.0  0.08399  0.72323  0.60456  1.0000
  C   C529      1.0  0.08791  0.74824  0.59463  1.0000
  C   C530      1.0  0.08794  0.55669  0.46820  1.0000
  C   C531      1.0  0.06388  0.76189  0.51528  1.0000
  C   C532      1.0  0.04794  0.78245  0.50659  1.0000
  S   S90       1.0  0.20028  0.87822  0.94740  1.0000
  H   H428      1.0  0.09883  0.81962  0.67511  1.0000
  H   H429      1.0  0.10091  0.68752  0.55272  1.0000
  H   H430      1.0  0.08535  0.68208  0.59685  1.0000
  H   H431      1.0  0.07673  0.72074  0.62394  1.0000
  H   H432      1.0  0.08385  0.76519  0.60627  1.0000
  H   H433      1.0  0.05522  0.74728  0.52782  1.0000
  H   H434      1.0  0.02742  0.78397  0.51291  1.0000
  H   H435      1.0  0.11800  0.88185  0.50500  1.0000
  C   C533      1.0  0.32232  0.91498  0.49457  1.0000
  C   C534      1.0  0.04428  0.76029  0.80234  1.0000
  C   C535      1.0  0.06267  0.74619  0.81688  1.0000
  C   C536      1.0  0.08760  0.75696  0.82230  1.0000
  C   C537      1.0  0.09445  0.78153  0.81263  1.0000
  C   C538      1.0  0.07623  0.79568  0.79756  1.0000
  C   C539      1.0  0.05087  0.78507  0.79309  1.0000
  P   P15       1.0  0.08541  0.82657  0.78308  1.0000
  C   C540      1.0  0.05805  0.84911  0.78690  1.0000
  C   C541      1.0  0.11495  0.83889  0.79894  1.0000
  C   C542      1.0  0.11310  0.85828  0.81774  1.0000
  C   C543      1.0  0.13587  0.86636  0.83094  1.0000
  C   C544      1.0  0.16060  0.85506  0.82572  1.0000
  C   C545      1.0  0.16271  0.83595  0.80692  1.0000
  C   C546      1.0  0.14003  0.82791  0.79353  1.0000
  C   C547      1.0  0.04514  0.85118  0.81058  1.0000
  C   C548      1.0  0.31895  0.69846  0.46642  1.0000
  C   C549      1.0  0.01681  0.88544  0.79374  1.0000
  H   H436      1.0  0.15765  0.71895  0.48863  1.0000
  C   C550      1.0  0.04985  0.86518  0.76653  1.0000
  C   C551      1.0  0.09126  0.82251  0.74916  1.0000
  C   C552      1.0  0.07377  0.80733  0.73440  1.0000
  H   H437      1.0  0.17272  0.79487  0.47324  1.0000
  C   C553      1.0  0.07090  0.75010  0.93576  1.0000
  C   C554      1.0  0.11435  0.83553  0.71017  1.0000
  C   C555      1.0  0.11135  0.83692  0.73672  1.0000
  H   H438      1.0  0.02468  0.75224  0.79850  1.0000
  H   H439      1.0  0.05748  0.72705  0.82410  1.0000
  H   H440      1.0  0.10168  0.74625  0.83393  1.0000
  H   H441      1.0  0.11388  0.78930  0.81723  1.0000
  H   H442      1.0  0.03610  0.79590  0.78243  1.0000
  H   H443      1.0  0.09419  0.86691  0.82284  1.0000
  H   H444      1.0  0.13420  0.88082  0.84588  1.0000
  H   H445      1.0  0.17799  0.86075  0.83670  1.0000
  H   H446      1.0  0.18191  0.82705  0.80313  1.0000
  H   H447      1.0  0.14190  0.81264  0.77943  1.0000
  H   H448      1.0  0.05115  0.83899  0.82654  1.0000
  C   C556      1.0  0.09955  0.51414  0.48502  1.0000
  H   H449      1.0  0.27006  0.77937  0.91457  1.0000
  H   H450      1.0  0.05928  0.86398  0.74797  1.0000
  C   C557      1.0  0.31999  0.77039  0.51735  1.0000
  C   C558      1.0  0.08579  0.80081  0.48414  1.0000
  H   H451      1.0  0.09689  0.87498  0.60424  1.0000
  C   C559      1.0  0.16670  0.95244  0.52848  1.0000
  H   H452      1.0  0.12430  0.84981  0.74734  1.0000
  H   H453      1.0  0.09851  0.51023  0.52600  1.0000
  H   H454      1.0  0.06386  0.67929  0.45842  1.0000
  C   C560      1.0  0.12514  0.72707  0.88129  1.0000
  S   S91       1.0  0.23517  0.92357  0.47683  1.0000
  C   C561      1.0  0.19026  0.74321  0.49967  1.0000
  H   H455      1.0  0.14435  0.88878  0.60377  1.0000
  H   H456      1.0  0.02535  0.53793  0.49068  1.0000
  H   H457      1.0  0.19267  0.91869  0.52981  1.0000
  H   H458      1.0  0.00379  0.84226  0.46842  1.0000
  H   H459      1.0  0.12749  0.76142  0.93676  1.0000
  C   C562      1.0  0.28048  0.66117  0.48042  1.0000
  C   C563      1.0  0.08481  0.70356  0.48531  1.0000
  H   H460      1.0  0.06755  0.88566  0.56770  1.0000
  H   H461      1.0  0.12907  0.85340  0.46879  1.0000
  H   H462      1.0  0.30131  0.77711  0.52549  1.0000
  C   C564      1.0  0.33209  0.83309  0.88793  1.0000
  C   C565      1.0  0.13288  0.75474  0.91791  1.0000
  S   S92       1.0  0.00928  0.81916  0.67929  1.0000
  H   H463      1.0  0.07835  0.58589  0.49628  1.0000
  C   C566      1.0  0.13905  0.87199  0.47075  1.0000
  C   C567      1.0  0.09497  0.53063  0.46393  1.0000
  C   C568      1.0  0.30095  0.78054  0.94301  1.0000
  H   H464      1.0  0.27384  0.95149  0.50887  1.0000
  H   H465      1.0  0.02460  0.72429  0.57110  1.0000
  C   C569      1.0  0.11811  0.66047  0.49267  1.0000
  H   H466      1.0  0.05765  0.68498  0.95136  1.0000
  H   H467      1.0  0.05729  0.79696  0.74302  1.0000
  C   C570      1.0  0.31696  0.68978  0.49187  1.0000
  H   H468      1.0  0.31793  0.81116  0.67277  1.0000
  H   H469      1.0  0.31535  0.85042  0.64498  1.0000
  H   H470      1.0  0.21928  0.77061  0.51381  1.0000
  C   C571      1.0  0.14764  0.73778  0.86929  1.0000
  C   C572      1.0  0.02873  0.49700  0.50069  1.0000
  C   C573      1.0  0.10453  0.88660  0.58849  1.0000
  C   C574      1.0  0.28192  0.76802  0.92792  1.0000
  H   H471      1.0  0.20378  0.73504  0.48563  1.0000
  H   H472      1.0  0.10583  0.49416  0.48242  1.0000
  P   P16       1.0  0.08817  0.72289  0.92135  1.0000
  C   C575      1.0  0.33153  0.84832  0.65862  1.0000
  H   H473      1.0  0.00934  0.69979  0.47724  1.0000
  H   H474      1.0  0.01242  0.73406  0.51004  1.0000
  C   C576      1.0  0.32334  0.91867  0.52103  1.0000
  H   H475      1.0  0.09333  0.64134  0.46469  1.0000
  C   C577      1.0  0.21417  0.95389  0.53778  1.0000
  C   C578      1.0  0.11173  0.95602  0.50901  1.0000
  H   H476      1.0  0.32081  0.62503  0.46526  1.0000
  S   S93       1.0  0.26675  0.87704  0.94794  1.0000
  H   H477      1.0  0.14044  0.70726  0.94318  1.0000
  C   C579      1.0  0.99929  0.48787  0.45651  1.0000
  H   H478      1.0  0.29056  0.70592  0.94919  1.0000
  H   H479      1.0  0.33009  0.69755  0.50639  1.0000
  H   H480      1.0  0.14896  0.75583  0.45732  1.0000
  C   C580      1.0  0.00168  0.70144  0.94518  1.0000
  H   H481      1.0  0.26463  0.73880  0.45597  1.0000
  S   S94       1.0  0.03950  0.60351  0.45577  1.0000
  H   H482      1.0  0.33214  0.87388  0.89713  1.0000
  H   H483      1.0  0.49529  0.25049  0.06809  1.0000
  Fe  Fe48      1.0  0.46240  0.13849  0.09001  1.0000
  S   S95       1.0  0.42637  0.11330  0.07977  1.0000
  S   S96       1.0  0.46280  0.18149  0.09745  1.0000
  Fe  Fe49      1.0  0.48631  0.15017  0.31584  1.0000
  S   S97       1.0  0.48421  0.11999  0.34755  1.0000
  S   S98       1.0  0.48178  0.13446  0.27518  1.0000
  Fe  Fe50      1.0  0.49369  0.19429  0.35388  1.0000
  S   S99       1.0  0.49189  0.16728  0.38743  1.0000
  S   S100      1.0  0.50165  0.23756  0.35893  1.0000
  Fe  Fe51      1.0  0.45714  0.14854  0.36742  1.0000
  S   S101      1.0  0.42296  0.13844  0.39493  1.0000
  S   S102      1.0  0.45726  0.17742  0.33488  1.0000
  C   C581      1.0  0.39386  0.12379  0.07072  1.0000
  C   C582      1.0  0.38464  0.14899  0.07574  1.0000
  C   C583      1.0  0.35828  0.15602  0.06931  1.0000
  C   C584      1.0  0.35866  0.09061  0.23114  1.0000
  C   C585      1.0  0.35041  0.11329  0.05172  1.0000
  C   C586      1.0  0.37657  0.10600  0.05876  1.0000
  H   H484      1.0  0.39766  0.16292  0.08487  1.0000
  C   C587      1.0  0.65291  0.13915  0.27860  1.0000
  H   H485      1.0  0.63160  0.31703  0.98960  1.0000
  H   H486      1.0  0.38345  0.08644  0.05489  1.0000
  C   C588      1.0  0.48875  0.17544  0.19670  1.0000
  C   C589      1.0  0.48427  0.15087  0.24526  1.0000
  C   C590      1.0  0.48491  0.17804  0.24334  1.0000
  C   C591      1.0  0.48742  0.19023  0.21923  1.0000
  H   H487      1.0  0.48339  0.18963  0.26046  1.0000
  H   H488      1.0  0.48829  0.21126  0.21803  1.0000
  H   H489      1.0  0.42725  0.17855  0.21293  1.0000
  C   C592      1.0  0.34707  0.13331  0.36578  1.0000
  C   C593      1.0  0.37507  0.13647  0.36738  1.0000
  C   C594      1.0  0.38767  0.13641  0.39124  1.0000
  C   C595      1.0  0.37191  0.13362  0.41331  1.0000
  C   C596      1.0  0.34406  0.13031  0.41171  1.0000
  H   H490      1.0  0.51563  0.30284  0.42638  1.0000
  H   H491      1.0  0.38688  0.13855  0.35018  1.0000
  H   H492      1.0  0.38137  0.13391  0.43180  1.0000
  H   H493      1.0  0.57167  0.31678  0.96647  1.0000
  C   C597      1.0  0.53385  0.09376  0.27081  1.0000
  C   C598      1.0  0.49926  0.24949  0.39050  1.0000
  C   C599      1.0  0.48628  0.23499  0.40944  1.0000
  H   H494      1.0  0.47737  0.21649  0.40484  1.0000
  C   C600      1.0  0.56308  0.18552  0.24776  1.0000
  H   H495      1.0  0.61710  0.19958  0.24997  1.0000
  H   H496      1.0  0.39504  0.03488  0.23653  1.0000
  C   C601      1.0  0.50556  0.24929  0.00394  1.0000
  C   C602      1.0  0.50442  0.27610  0.99866  1.0000
  H   H497      1.0  0.50906  0.23573  0.98855  1.0000
  H   H498      1.0  0.50740  0.28300  0.97940  1.0000
  S   S103      1.0  0.49596  0.32748  0.01180  1.0000
  H   H499      1.0  0.49213  0.29806  0.05865  1.0000
  Fe  Fe52      1.0  0.49332  0.17180  0.12799  1.0000
  S   S104      1.0  0.49070  0.12857  0.12223  1.0000
  S   S105      1.0  0.49272  0.19179  0.16689  1.0000
  Fe  Fe53      1.0  0.49794  0.18311  0.07081  1.0000
  S   S106      1.0  0.49576  0.14054  0.06151  1.0000
  S   S107      1.0  0.50201  0.20597  0.03389  1.0000
  Fe  Fe54      1.0  0.52419  0.13454  0.09391  1.0000
  S   S108      1.0  0.55788  0.10526  0.08850  1.0000
  S   S109      1.0  0.52875  0.17725  0.10160  1.0000
  Fe  Fe55      1.0  0.51912  0.14132  0.36494  1.0000
  S   S110      1.0  0.55261  0.12094  0.38726  1.0000
  S   S111      1.0  0.52298  0.16943  0.33220  1.0000
  C   C603      1.0  0.64383  0.12627  0.06480  1.0000
  C   C604      1.0  0.62761  0.14476  0.07708  1.0000
  C   C605      1.0  0.60116  0.13872  0.08409  1.0000
  C   C606      1.0  0.59069  0.11402  0.07901  1.0000
  C   C607      1.0  0.60692  0.09550  0.06681  1.0000
  C   C608      1.0  0.63331  0.10163  0.05953  1.0000
  H   H500      1.0  0.63560  0.16385  0.08130  1.0000
  H   H501      1.0  0.58898  0.15306  0.09369  1.0000
  H   H502      1.0  0.59905  0.07627  0.06300  1.0000
  H   H503      1.0  0.64562  0.08716  0.05025  1.0000
  C   C609      1.0  0.48739  0.14824  0.19855  1.0000
  C   C610      1.0  0.48532  0.13607  0.22272  1.0000
  H   H504      1.0  0.48824  0.13660  0.18141  1.0000
  H   H505      1.0  0.48469  0.11505  0.22401  1.0000
  C   C611      1.0  0.64484  0.12357  0.38194  1.0000
  C   C612      1.0  0.63193  0.11011  0.40172  1.0000
  C   C613      1.0  0.60379  0.10984  0.40314  1.0000
  C   C614      1.0  0.58809  0.12310  0.38495  1.0000
  C   C615      1.0  0.60097  0.13710  0.36549  1.0000
  C   C616      1.0  0.62914  0.13709  0.36388  1.0000
  H   H506      1.0  0.64365  0.09945  0.41562  1.0000
  H   H507      1.0  0.59410  0.09892  0.41825  1.0000
  H   H508      1.0  0.58926  0.14759  0.35148  1.0000
  H   H509      1.0  0.63888  0.14750  0.34846  1.0000
  H   H510      1.0  0.51871  0.21848  0.28504  1.0000
  Fe  Fe56      1.0  0.50131  0.34230  0.97123  1.0000
  C   C617      1.0  0.50982  0.27407  0.39668  1.0000
  C   C618      1.0  0.35314  0.41506  0.41213  1.0000
  H   H511      1.0  0.51987  0.28543  0.38210  1.0000
  C   C619      1.0  0.45473  0.08472  0.17708  1.0000
  H   H512      1.0  0.49922  0.43176  0.98999  1.0000
  C   C620      1.0  0.49904  0.29377  0.01822  1.0000
  C   C621      1.0  0.49596  0.28445  0.04335  1.0000
  C   C622      1.0  0.49761  0.25757  0.04874  1.0000
  C   C623      1.0  0.50181  0.23992  0.02889  1.0000
  H   H513      1.0  0.54041  0.17570  0.28160  1.0000
  H   H514      1.0  0.54141  0.16034  0.20481  1.0000
  H   H515      1.0  0.57078  0.24587  0.44852  1.0000
  C   C624      1.0  0.50738  0.28400  0.42168  1.0000
  C   C625      1.0  0.47857  0.37556  0.42508  1.0000
  C   C626      1.0  0.55834  0.14981  0.19726  1.0000
  H   H516      1.0  0.36004  0.05990  0.25934  1.0000
  C   C627      1.0  0.41660  0.02158  0.42017  1.0000
  P   P17       1.0  0.58035  0.15461  0.24585  1.0000
  H   H517      1.0  0.54080  0.14642  0.15985  1.0000
  C   C628      1.0  0.43989  0.41842  0.99506  1.0000
  C   C629      1.0  0.41960  0.42255  0.01289  1.0000
  C   C630      1.0  0.39754  0.43782  0.00634  1.0000
  H   H518      1.0  0.40825  0.96597  0.39042  1.0000
  H   H519      1.0  0.55421  0.31113  0.01048  1.0000
  C   C631      1.0  0.57721  0.29981  0.97761  1.0000
  C   C632      1.0  0.46568  0.06507  0.12848  1.0000
  C   C633      1.0  0.61587  0.13941  0.98460  1.0000
  C   C634      1.0  0.56749  0.29662  0.00243  1.0000
  H   H520      1.0  0.36006  0.13123  0.14255  1.0000
  H   H521      1.0  0.64754  0.11973  0.00479  1.0000
  H   H522      1.0  0.61315  0.46173  0.98751  1.0000
  C   C635      1.0  0.41347  0.13201  0.00663  1.0000
  C   C636      1.0  0.41110  0.14895  0.14666  1.0000
  H   H523      1.0  0.61818  0.11163  0.16910  1.0000
  H   H524      1.0  0.64671  0.26100  0.01280  1.0000
  H   H525      1.0  0.37850  0.13181  0.98280  1.0000
  C   C637      1.0  0.58039  0.14420  0.21289  1.0000
  H   H526      1.0  0.36183  0.22090  0.06631  1.0000
  C   C638      1.0  0.64235  0.13212  0.98867  1.0000
  H   H527      1.0  0.65785  0.21070  0.95649  1.0000
  C   C639      1.0  0.59620  0.30307  0.40224  1.0000
  C   C640      1.0  0.42256  0.18621  0.17269  1.0000
  H   H528      1.0  0.39338  0.40108  0.41045  1.0000
  C   C641      1.0  0.36028  0.22646  0.01322  1.0000
  C   C642      1.0  0.55540  0.11211  0.30796  1.0000
  C   C643      1.0  0.41564  0.14401  0.19252  1.0000
  H   H529      1.0  0.43020  0.32939  0.43021  1.0000
  C   C644      1.0  0.63144  0.18039  0.42499  1.0000
  C   C645      1.0  0.66530  0.16354  0.27885  1.0000
  C   C646      1.0  0.36812  0.06719  0.24146  1.0000
  C   C647      1.0  0.43427  0.18875  0.44255  1.0000
  H   H530      1.0  0.34871  0.23246  0.40388  1.0000
  C   C648      1.0  0.43452  0.08445  0.15850  1.0000
  C   C649      1.0  0.34104  0.13833  0.05713  1.0000
  C   C650      1.0  0.50102  0.45208  0.98471  1.0000
  H   H531      1.0  0.54208  0.11233  0.23492  1.0000
  C   C651      1.0  0.39367  0.25935  0.45151  1.0000
  H   H532      1.0  0.38198  0.44133  0.02029  1.0000
  S   S112      1.0  0.53897  0.36318  0.95988  1.0000
  C   C652      1.0  0.33456  0.43001  0.42554  1.0000
  C   C653      1.0  0.39838  0.06259  0.20561  1.0000
  H   H533      1.0  0.55856  0.11223  0.32847  1.0000
  H   H534      1.0  0.58078  0.20117  0.21316  1.0000
  C   C654      1.0  0.44133  0.45804  0.42255  1.0000
  H   H535      1.0  0.56224  0.21823  0.98249  1.0000
  C   C655      1.0  0.43018  0.14706  0.02196  1.0000
  C   C656      1.0  0.42449  0.17337  0.02613  1.0000
  C   C657      1.0  0.40192  0.18486  0.01489  1.0000
  P   P18       1.0  0.39500  0.21908  0.01969  1.0000
  C   C658      1.0  0.40221  0.22704  0.05260  1.0000
  C   C659      1.0  0.38202  0.22624  0.07124  1.0000
  C   C660      1.0  0.38779  0.23220  0.09670  1.0000
  C   C661      1.0  0.41368  0.23924  0.10372  1.0000
  C   C662      1.0  0.43385  0.24013  0.08531  1.0000
  C   C663      1.0  0.42826  0.23381  0.05991  1.0000
  C   C664      1.0  0.36911  0.10010  0.20811  1.0000
  C   C665      1.0  0.56800  0.13062  0.29240  1.0000
  C   C666      1.0  0.54516  0.19057  0.26771  1.0000
  H   H536      1.0  0.49577  0.07579  0.18570  1.0000
  H   H537      1.0  0.44291  0.08163  0.38230  1.0000
  H   H538      1.0  0.44708  0.13805  0.03131  1.0000
  H   H539      1.0  0.43767  0.18452  0.03827  1.0000
  H   H540      1.0  0.58149  0.27056  0.38109  1.0000
  H   H541      1.0  0.33752  0.13316  0.34725  1.0000
  H   H542      1.0  0.41822  0.24376  0.12345  1.0000
  H   H543      1.0  0.45400  0.24524  0.09084  1.0000
  H   H544      1.0  0.44435  0.23397  0.04605  1.0000
  H   H545      1.0  0.47712  0.33455  0.41636  1.0000
  H   H546      1.0  0.58088  0.14495  0.30119  1.0000
  H   H547      1.0  0.50549  0.05833  0.14249  1.0000
  C   C667      1.0  0.37908  0.41205  0.42156  1.0000
  H   H548      1.0  0.44983  0.00088  0.40363  1.0000
  C   C668      1.0  0.44884  0.04088  0.39110  1.0000
  H   H549      1.0  0.45714  0.40681  0.00025  1.0000
  C   C669      1.0  0.63999  0.43329  0.97168  1.0000
  C   C670      1.0  0.44341  0.24127  0.96033  1.0000
  P   P19       1.0  0.39539  0.22734  0.43724  1.0000
  C   C671      1.0  0.46612  0.35125  0.42337  1.0000
  C   C672      1.0  0.35380  0.06160  0.11481  1.0000
  H   H550      1.0  0.38713  0.05148  0.13857  1.0000
  C   C673      1.0  0.42193  0.17046  0.19453  1.0000
  H   H551      1.0  0.41384  0.27328  0.02106  1.0000
  H   H552      1.0  0.34322  0.10142  0.24099  1.0000
  C   C674      1.0  0.65014  0.35095  0.97294  1.0000
  C   C675      1.0  0.54471  0.18095  0.99005  1.0000
  C   C676      1.0  0.52965  0.19346  0.45131  1.0000
  H   H553      1.0  0.63822  0.36428  0.98418  1.0000
  C   C677      1.0  0.64635  0.32412  0.97611  1.0000
  C   C678      1.0  0.34015  0.20875  0.02022  1.0000
  C   C679      1.0  0.40664  0.23026  0.40457  1.0000
  C   C680      1.0  0.42310  0.25106  0.39695  1.0000
  C   C681      1.0  0.43189  0.25298  0.37165  1.0000
  C   C682      1.0  0.42418  0.23433  0.35377  1.0000
  C   C683      1.0  0.40783  0.21357  0.36122  1.0000
  C   C684      1.0  0.39942  0.21130  0.38658  1.0000
  C   C685      1.0  0.48383  0.24484  0.43425  1.0000
  C   C686      1.0  0.53263  0.21484  0.26958  1.0000
  C   C687      1.0  0.54383  0.15925  0.00628  1.0000
  H   H554      1.0  0.63133  0.24196  0.11324  1.0000
  C   C688      1.0  0.34199  0.44224  0.44825  1.0000
  H   H555      1.0  0.47478  0.41550  0.43628  1.0000
  C   C689      1.0  0.40963  0.13318  0.16860  1.0000
  H   H556      1.0  0.52915  0.14407  0.00326  1.0000
  H   H557      1.0  0.40798  0.14067  0.12789  1.0000
  H   H558      1.0  0.34507  0.19051  0.02953  1.0000
  C   C690      1.0  0.34467  0.06137  0.39850  1.0000
  H   H559      1.0  0.58861  0.16105  0.96151  1.0000
  C   C691      1.0  0.54115  0.17818  0.43223  1.0000
  H   H560      1.0  0.43312  0.18634  0.42205  1.0000
  C   C692      1.0  0.59385  0.27648  0.39694  1.0000
  H   H561      1.0  0.42984  0.26542  0.41054  1.0000
  H   H562      1.0  0.44541  0.26849  0.36603  1.0000
  H   H563      1.0  0.43151  0.23558  0.33431  1.0000
  H   H564      1.0  0.40224  0.19876  0.34753  1.0000
  H   H565      1.0  0.38762  0.19448  0.39213  1.0000
  H   H566      1.0  0.52525  0.45625  0.43509  1.0000
  H   H567      1.0  0.65961  0.23704  0.40382  1.0000
  C   C693      1.0  0.42182  0.26416  0.00406  1.0000
  H   H568      1.0  0.53282  0.15925  0.42770  1.0000
  C   C694      1.0  0.63590  0.22031  0.01749  1.0000
  C   C695      1.0  0.64592  0.19479  0.01851  1.0000
  P   P20       1.0  0.60114  0.22704  0.02434  1.0000
  C   C696      1.0  0.59646  0.23223  0.05815  1.0000
  C   C697      1.0  0.59127  0.25550  0.00620  1.0000
  C   C698      1.0  0.57434  0.27449  0.01669  1.0000
  C   C699      1.0  0.43557  0.06474  0.39274  1.0000
  H   H569      1.0  0.33240  0.12794  0.42891  1.0000
  H   H570      1.0  0.41739  0.11138  0.00436  1.0000
  C   C700      1.0  0.60081  0.25884  0.98115  1.0000
  C   C701      1.0  0.61836  0.23602  0.07444  1.0000
  C   C702      1.0  0.61437  0.23931  0.10070  1.0000
  C   C703      1.0  0.58854  0.23896  0.11082  1.0000
  C   C704      1.0  0.56668  0.23523  0.09472  1.0000
  C   C705      1.0  0.57060  0.23163  0.06854  1.0000
  C   C706      1.0  0.58001  0.19987  0.01582  1.0000
  C   C707      1.0  0.57889  0.17801  0.03202  1.0000
  C   C708      1.0  0.56095  0.15778  0.02724  1.0000
  C   C709      1.0  0.33872  0.10630  0.11713  1.0000
  P   P21       1.0  0.40254  0.09885  0.16574  1.0000
  C   C710      1.0  0.56276  0.20121  0.99471  1.0000
  H   H571      1.0  0.58583  0.31721  0.39043  1.0000
  C   C711      1.0  0.65479  0.16668  0.43056  1.0000
  H   H572      1.0  0.41341  0.05127  0.19578  1.0000
  C   C712      1.0  0.34408  0.21820  0.41856  1.0000
  H   H573      1.0  0.63319  0.17849  0.02341  1.0000
  H   H574      1.0  0.56611  0.27233  0.03568  1.0000
  C   C713      1.0  0.43813  0.42946  0.97061  1.0000
  H   H575      1.0  0.36932  0.17847  0.98852  1.0000
  H   H576      1.0  0.41619  0.13201  0.20959  1.0000
  H   H577      1.0  0.61355  0.24428  0.97256  1.0000
  H   H578      1.0  0.63853  0.23613  0.06704  1.0000
  C   C714      1.0  0.41575  0.44426  0.96366  1.0000
  H   H579      1.0  0.58542  0.24136  0.13117  1.0000
  H   H580      1.0  0.54663  0.23480  0.10253  1.0000
  H   H581      1.0  0.55342  0.22827  0.05639  1.0000
  H   H582      1.0  0.59132  0.17704  0.04885  1.0000
  H   H583      1.0  0.55970  0.14131  0.04027  1.0000
  C   C715      1.0  0.43965  0.34835  0.43127  1.0000
  C   C716      1.0  0.44028  0.07479  0.13407  1.0000
  H   H584      1.0  0.44237  0.29906  0.99185  1.0000
  C   C717      1.0  0.62681  0.18252  0.25779  1.0000
  C   C718      1.0  0.38935  0.08637  0.19543  1.0000
  H   H585      1.0  0.37216  0.23128  0.11099  1.0000
  C   C719      1.0  0.41698  0.17548  0.14880  1.0000
  H   H586      1.0  0.52793  0.07989  0.30935  1.0000
  C   C720      1.0  0.61399  0.15816  0.25789  1.0000
  H   H587      1.0  0.47013  0.05835  0.10934  1.0000
  H   H588      1.0  0.42557  0.07546  0.11900  1.0000
  C   C721      1.0  0.62752  0.13638  0.26789  1.0000
  C   C722      1.0  0.55793  0.14189  0.17175  1.0000
  H   H589      1.0  0.61344  0.33203  0.42692  1.0000
  C   C723      1.0  0.56870  0.21892  0.33574  1.0000
  C   C724      1.0  0.58897  0.20829  0.32070  1.0000
  C   C725      1.0  0.61339  0.20168  0.33176  1.0000
  C   C726      1.0  0.61775  0.20612  0.35775  1.0000
  C   C727      1.0  0.59748  0.21691  0.37302  1.0000
  C   C728      1.0  0.57278  0.22283  0.36186  1.0000
  P   P22       1.0  0.60296  0.22342  0.40654  1.0000
  C   C729      1.0  0.60695  0.25796  0.41230  1.0000
  C   C730      1.0  0.57443  0.21171  0.42435  1.0000
  H   H590      1.0  0.42834  0.20649  0.17418  1.0000
  C   C731      1.0  0.49416  0.26938  0.44047  1.0000
  C   C732      1.0  0.62464  0.29314  0.43831  1.0000
  C   C733      1.0  0.38787  0.05314  0.22864  1.0000
  C   C734      1.0  0.56309  0.18747  0.41844  1.0000
  H   H591      1.0  0.34753  0.40606  0.39423  1.0000
  H   H592      1.0  0.60053  0.13241  0.99753  1.0000
  H   H593      1.0  0.45095  0.09290  0.19577  1.0000
  H   H594      1.0  0.35210  0.99664  0.43669  1.0000
  C   C735      1.0  0.37725  0.09239  0.14196  1.0000
  H   H595      1.0  0.57117  0.17566  0.40315  1.0000
  H   H596      1.0  0.42113  0.41410  0.03185  1.0000
  C   C736      1.0  0.61168  0.31142  0.42283  1.0000
  H   H597      1.0  0.54959  0.22385  0.32731  1.0000
  H   H598      1.0  0.58572  0.20502  0.30055  1.0000
  C   C737      1.0  0.43936  0.01930  0.40479  1.0000
  H   H599      1.0  0.36794  0.26419  0.99597  1.0000
  H   H600      1.0  0.55665  0.23054  0.37336  1.0000
  H   H601      1.0  0.66206  0.20403  0.26834  1.0000
  C   C738      1.0  0.44841  0.26748  0.96554  1.0000
  H   H602      1.0  0.41785  0.18758  0.13183  1.0000
  H   H603      1.0  0.63683  0.20062  0.36576  1.0000
  C   C739      1.0  0.48014  0.07504  0.17144  1.0000
  H   H604      1.0  0.61913  0.12552  0.21429  1.0000
  C   C740      1.0  0.38607  0.16991  0.99836  1.0000
  C   C741      1.0  0.35890  0.11180  0.13475  1.0000
  H   H605      1.0  0.61825  0.11729  0.26792  1.0000
  C   C742      1.0  0.63280  0.20618  0.41600  1.0000
  C   C743      1.0  0.56294  0.22687  0.44378  1.0000
  C   C744      1.0  0.56365  0.13079  0.26583  1.0000
  C   C745      1.0  0.59393  0.28100  0.96703  1.0000
  H   H606      1.0  0.62893  0.19290  0.32028  1.0000
  C   C746      1.0  0.41626  0.23791  0.99868  1.0000
  C   C747      1.0  0.60199  0.13030  0.20264  1.0000
  H   H607      1.0  0.57911  0.12196  0.14179  1.0000
  C   C748      1.0  0.53825  0.09375  0.29718  1.0000
  C   C749      1.0  0.56750  0.20482  0.22908  1.0000
  C   C750      1.0  0.54640  0.11226  0.25516  1.0000
  H   H608      1.0  0.51984  0.08009  0.26261  1.0000
  C   C751      1.0  0.48561  0.06517  0.14714  1.0000
  H   H609      1.0  0.36283  0.06889  0.39016  1.0000
  C   C752      1.0  0.60152  0.12236  0.17705  1.0000
  H   H610      1.0  0.55755  0.24349  0.21592  1.0000
  H   H611      1.0  0.52692  0.25250  0.25211  1.0000
  H   H612      1.0  0.35180  0.04219  0.10699  1.0000
  C   C753      1.0  0.55450  0.22889  0.23066  1.0000
  C   C754      1.0  0.53721  0.23396  0.25100  1.0000
  C   C755      1.0  0.57951  0.12816  0.16161  1.0000
  H   H613      1.0  0.46656  0.03924  0.37930  1.0000
  H   H614      1.0  0.61261  0.17042  0.42718  1.0000
  C   C756      1.0  0.39151  0.14349  0.99466  1.0000
  H   H615      1.0  0.35109  0.17525  0.07399  1.0000
  H   H616      1.0  0.35197  0.26575  0.44282  1.0000
  C   C757      1.0  0.34423  0.05081  0.42332  1.0000
  H   H617      1.0  0.65821  0.28576  0.96393  1.0000
  C   C758      1.0  0.65363  0.24101  0.01251  1.0000
  C   C759      1.0  0.43779  0.27889  0.98749  1.0000
  H   H618      1.0  0.42336  0.20635  0.97211  1.0000
  H   H619      1.0  0.43829  0.44355  0.40786  1.0000
  C   C760      1.0  0.37397  0.06703  0.13248  1.0000
  H   H620      1.0  0.37865  0.46093  0.97727  1.0000
  C   C761      1.0  0.42721  0.22655  0.97668  1.0000
  C   C762      1.0  0.62196  0.26651  0.43334  1.0000
  C   C763      1.0  0.61508  0.44512  0.97496  1.0000
  H   H621      1.0  0.36149  0.11819  0.20022  1.0000
  C   C764      1.0  0.46451  0.39703  0.43446  1.0000
  C   C765      1.0  0.36979  0.27364  0.45140  1.0000
  C   C766      1.0  0.41289  0.06705  0.40808  1.0000
  C   C767      1.0  0.43786  0.39432  0.44228  1.0000
  C   C768      1.0  0.42565  0.36971  0.44103  1.0000
  H   H622      1.0  0.65696  0.44120  0.98174  1.0000
  H   H623      1.0  0.53038  0.18267  0.97473  1.0000
  C   C769      1.0  0.35303  0.25000  0.00130  1.0000
  H   H624      1.0  0.49936  0.37772  0.41975  1.0000
  H   H625      1.0  0.40305  0.08579  0.40930  1.0000
  C   C770      1.0  0.39566  0.44878  0.98187  1.0000
  C   C771      1.0  0.66223  0.14107  0.97212  1.0000
  C   C772      1.0  0.36293  0.21187  0.43748  1.0000
  C   C773      1.0  0.40318  0.04554  0.42194  1.0000
  H   H626      1.0  0.38647  0.30381  0.96729  1.0000
  H   H627      1.0  0.34652  0.33042  0.95675  1.0000
  H   H628      1.0  0.66289  0.12241  0.28698  1.0000
  C   C774      1.0  0.65796  0.21764  0.41190  1.0000
  H   H629      1.0  0.33741  0.09942  0.04245  1.0000
  C   C775      1.0  0.65236  0.18516  0.26824  1.0000
  H   H630      1.0  0.63133  0.25260  0.44609  1.0000
  C   C776      1.0  0.43523  0.45232  0.44817  1.0000
  C   C777      1.0  0.64258  0.41134  0.95592  1.0000
  P   P23       1.0  0.37430  0.04922  0.44241  1.0000
  H   H631      1.0  0.65383  0.14662  0.43696  1.0000
  H   H632      1.0  0.47377  0.23332  0.44870  1.0000
  H   H633      1.0  0.46393  0.15877  0.44637  1.0000
  H   H634      1.0  0.45439  0.42659  0.95730  1.0000
  H   H635      1.0  0.40972  0.00476  0.43079  1.0000
  C   C778      1.0  0.51100  0.45883  0.96062  1.0000
  C   C779      1.0  0.38643  0.42356  0.44482  1.0000
  C   C780      1.0  0.60923  0.15568  0.96401  1.0000
  C   C781      1.0  0.33629  0.08127  0.10703  1.0000
  H   H636      1.0  0.40543  0.36698  0.44785  1.0000
  H   H637      1.0  0.57328  0.44444  0.96484  1.0000
  C   C782      1.0  0.59267  0.43541  0.96227  1.0000
  C   C783      1.0  0.66141  0.30653  0.96178  1.0000
  S   S113      1.0  0.51214  0.36863  0.90266  1.0000
  Fe  Fe57      1.0  0.47585  0.34778  0.91834  1.0000
  S   S114      1.0  0.44227  0.33217  0.89292  1.0000
  Fe  Fe58      1.0  0.48001  0.34815  0.53639  1.0000
  S   S115      1.0  0.47436  0.35373  0.49410  1.0000
  S   S116      1.0  0.44778  0.34508  0.56751  1.0000
  Fe  Fe59      1.0  0.50148  0.31906  0.48967  1.0000
  S   S117      1.0  0.48946  0.28064  0.47194  1.0000
  Fe  Fe60      1.0  0.51266  0.37735  0.49561  1.0000
  C   C784      1.0  0.35354  0.24137  0.86933  1.0000
  S   S118      1.0  0.50516  0.31254  0.53183  1.0000
  S   S119      1.0  0.51667  0.37408  0.53851  1.0000
  C   C785      1.0  0.61995  0.40170  0.94329  1.0000
  H   H638      1.0  0.59580  0.02624  0.50479  1.0000
  C   C786      1.0  0.36250  0.43930  0.92733  1.0000
  C   C787      1.0  0.33810  0.28148  0.91396  1.0000
  C   C788      1.0  0.56344  0.42238  0.64782  1.0000
  C   C789      1.0  0.35418  0.09121  0.46994  1.0000
  C   C790      1.0  0.36961  0.33248  0.58666  1.0000
  C   C791      1.0  0.39767  0.33536  0.58751  1.0000
  C   C792      1.0  0.41273  0.33905  0.56503  1.0000
  C   C793      1.0  0.39939  0.33908  0.54155  1.0000
  C   C794      1.0  0.37130  0.33662  0.54072  1.0000
  H   H639      1.0  0.46419  0.42294  0.49249  1.0000
  H   H640      1.0  0.40769  0.33525  0.60580  1.0000
  H   H641      1.0  0.41065  0.34199  0.52413  1.0000
  H   H642      1.0  0.36112  0.33755  0.52254  1.0000
  C   C795      1.0  0.40744  0.33919  0.89192  1.0000
  C   C796      1.0  0.39557  0.35813  0.90738  1.0000
  C   C797      1.0  0.36815  0.36398  0.90464  1.0000
  C   C798      1.0  0.40409  0.11407  0.47805  1.0000
  C   C799      1.0  0.36383  0.33091  0.87222  1.0000
  C   C800      1.0  0.39136  0.32566  0.87438  1.0000
  H   H643      1.0  0.40761  0.36864  0.92103  1.0000
  H   H644      1.0  0.35925  0.37899  0.91625  1.0000
  C   C801      1.0  0.64092  0.14643  0.88785  1.0000
  H   H645      1.0  0.40032  0.31125  0.86207  1.0000
  H   H646      1.0  0.47197  0.39654  0.86223  1.0000
  C   C802      1.0  0.65573  0.15727  0.95154  1.0000
  H   H647      1.0  0.57536  0.34137  0.60520  1.0000
  H   H648      1.0  0.66413  0.29753  0.88554  1.0000
  Fe  Fe61      1.0  0.53709  0.33931  0.92399  1.0000
  S   S120      1.0  0.57086  0.31294  0.91010  1.0000
  Fe  Fe62      1.0  0.54142  0.33816  0.53029  1.0000
  S   S121      1.0  0.53933  0.34247  0.48762  1.0000
  S   S122      1.0  0.57630  0.32099  0.55326  1.0000
  H   H649      1.0  0.61349  0.44505  0.60950  1.0000
  H   H650      1.0  0.46727  0.41382  0.53880  1.0000
  C   C803      1.0  0.65508  0.31144  0.57040  1.0000
  C   C804      1.0  0.62698  0.30972  0.57013  1.0000
  C   C805      1.0  0.61175  0.32331  0.55182  1.0000
  C   C806      1.0  0.62503  0.33840  0.53345  1.0000
  C   C807      1.0  0.65315  0.34032  0.53386  1.0000
  H   H651      1.0  0.60617  0.98052  0.51589  1.0000
  H   H652      1.0  0.61694  0.29801  0.58443  1.0000
  H   H653      1.0  0.61366  0.34882  0.51914  1.0000
  C   C808      1.0  0.61439  0.22846  0.76966  1.0000
  C   C809      1.0  0.60279  0.32322  0.89959  1.0000
  C   C810      1.0  0.62315  0.30457  0.89670  1.0000
  C   C811      1.0  0.64863  0.31192  0.88784  1.0000
  C   C812      1.0  0.65735  0.02212  0.47767  1.0000
  C   C813      1.0  0.63351  0.35646  0.88420  1.0000
  C   C814      1.0  0.60809  0.34921  0.89330  1.0000
  H   H654      1.0  0.61918  0.28435  0.90119  1.0000
  C   C815      1.0  0.57711  0.40701  0.52502  1.0000
  H   H655      1.0  0.63722  0.37648  0.87879  1.0000
  H   H656      1.0  0.59243  0.36362  0.89500  1.0000
  C   C816      1.0  0.61245  0.38221  0.60606  1.0000
  H   H657      1.0  0.66321  0.35241  0.51987  1.0000
  H   H658      1.0  0.65599  0.45690  0.48227  1.0000
  C   C817      1.0  0.46005  0.23405  0.88902  1.0000
  C   C818      1.0  0.56869  0.43275  0.52175  1.0000
  H   H659      1.0  0.36140  0.18488  0.88197  1.0000
  P   P24       1.0  0.35558  0.23074  0.55396  1.0000
  S   S123      1.0  0.52063  0.41332  0.47023  1.0000
  C   C819      1.0  0.34282  0.25875  0.62619  1.0000
  C   C820      1.0  0.65386  0.31237  0.82047  1.0000
  H   H660      1.0  0.65394  0.17670  0.78525  1.0000
  H   H661      1.0  0.60195  0.23959  0.92569  1.0000
  H   H662      1.0  0.57769  0.40626  0.93659  1.0000
  H   H663      1.0  0.61216  0.15311  0.77609  1.0000
  C   C821      1.0  0.63903  0.46151  0.47023  1.0000
  H   H664      1.0  0.36742  0.26911  0.59427  1.0000
  C   C822      1.0  0.61465  0.01782  0.49897  1.0000
  C   C823      1.0  0.39168  0.30939  0.47306  1.0000
  H   H665      1.0  0.61499  0.24939  0.76680  1.0000
  C   C824      1.0  0.53683  0.22162  0.92587  1.0000
  H   H666      1.0  0.42038  0.08105  0.45862  1.0000
  C   C825      1.0  0.38932  0.24339  0.55369  1.0000
  H   H667      1.0  0.37358  0.44942  0.47499  1.0000
  C   C826      1.0  0.34451  0.20948  0.94015  1.0000
  H   H668      1.0  0.42340  0.12310  0.48079  1.0000
  C   C827      1.0  0.64560  0.21093  0.91669  1.0000
  C   C828      1.0  0.56532  0.18376  0.92120  1.0000
  C   C829      1.0  0.42182  0.41521  0.49033  1.0000
  C   C830      1.0  0.40701  0.23664  0.57349  1.0000
  C   C831      1.0  0.43224  0.24819  0.57494  1.0000
  C   C832      1.0  0.43992  0.26681  0.55683  1.0000
  C   C833      1.0  0.42251  0.27368  0.53714  1.0000
  C   C834      1.0  0.39731  0.26206  0.53546  1.0000
  C   C835      1.0  0.45191  0.17303  0.45640  1.0000
  S   S124      1.0  0.50102  0.31672  0.93683  1.0000
  H   H669      1.0  0.43985  0.19635  0.51608  1.0000
  H   H670      1.0  0.55697  0.25856  0.92875  1.0000
  C   C836      1.0  0.65392  0.33790  0.88157  1.0000
  H   H671      1.0  0.62849  0.24926  0.61026  1.0000
  C   C837      1.0  0.36506  0.97994  0.49833  1.0000
  C   C838      1.0  0.60833  0.16052  0.84670  1.0000
  H   H672      1.0  0.54953  0.40638  0.64998  1.0000
  H   H673      1.0  0.38042  0.40342  0.49467  1.0000
  H   H674      1.0  0.43562  0.26060  0.46132  1.0000
  C   C839      1.0  0.63348  0.38695  0.58887  1.0000
  C   C840      1.0  0.39930  0.40675  0.50407  1.0000
  H   H675      1.0  0.35833  0.33029  0.60418  1.0000
  H   H676      1.0  0.40088  0.22318  0.58841  1.0000
  H   H677      1.0  0.44554  0.24335  0.59056  1.0000
  H   H678      1.0  0.45910  0.27649  0.55836  1.0000
  H   H679      1.0  0.42836  0.28876  0.52374  1.0000
  H   H680      1.0  0.58739  0.30248  0.48944  1.0000
  P   P25       1.0  0.64623  0.23072  0.51879  1.0000
  C   C841      1.0  0.36070  0.26644  0.91953  1.0000
  H   H681      1.0  0.35102  0.27384  0.63831  1.0000
  C   C842      1.0  0.37716  0.07902  0.46047  1.0000
  H   H682      1.0  0.39487  0.18764  0.55956  1.0000
  H   H683      1.0  0.35184  0.32041  0.85852  1.0000
  H   H684      1.0  0.45842  0.27611  0.88839  1.0000
  C   C843      1.0  0.46079  0.40895  0.87507  1.0000
  C   C844      1.0  0.38099  0.12655  0.48657  1.0000
  C   C845      1.0  0.40224  0.09028  0.46522  1.0000
  C   C846      1.0  0.37607  0.17968  0.55330  1.0000
  C   C847      1.0  0.44820  0.41237  0.52919  1.0000
  C   C848      1.0  0.34143  0.23650  0.58527  1.0000
  C   C849      1.0  0.41890  0.42086  0.89489  1.0000
  C   C850      1.0  0.41961  0.25920  0.89440  1.0000
  H   H685      1.0  0.62854  0.05304  0.48050  1.0000
  H   H686      1.0  0.65754  0.11774  0.86252  1.0000
  C   C851      1.0  0.35615  0.33365  0.56327  1.0000
  H   H687      1.0  0.52357  0.40857  0.60397  1.0000
  H   H688      1.0  0.52231  0.18234  0.92183  1.0000
  H   H689      1.0  0.59574  0.16606  0.83075  1.0000
  C   C852      1.0  0.42555  0.40472  0.54288  1.0000
  P   P26       1.0  0.41384  0.45947  0.93252  1.0000
  C   C853      1.0  0.56420  0.44162  0.66665  1.0000
  H   H690      1.0  0.53111  0.23003  0.47130  1.0000
  Fe  Fe63      1.0  0.51149  0.39126  0.93979  1.0000
  C   C854      1.0  0.55249  0.37725  0.60574  1.0000
  C   C855      1.0  0.52657  0.38771  0.60532  1.0000
  C   C856      1.0  0.50432  0.37123  0.60580  1.0000
  C   C857      1.0  0.50777  0.34423  0.60635  1.0000
  C   C858      1.0  0.53346  0.33368  0.60655  1.0000
  C   C859      1.0  0.55575  0.35009  0.60627  1.0000
  C   C860      1.0  0.57726  0.41280  0.57109  1.0000
  C   C861      1.0  0.58126  0.39703  0.54961  1.0000
  C   C862      1.0  0.53980  0.19473  0.92278  1.0000
  C   C863      1.0  0.41773  0.21207  0.89576  1.0000
  C   C864      1.0  0.45952  0.44340  0.90653  1.0000
  H   H691      1.0  0.63087  0.39960  0.57249  1.0000
  P   P27       1.0  0.36864  0.23808  0.90058  1.0000
  C   C865      1.0  0.37270  0.29732  0.95271  1.0000
  H   H692      1.0  0.49049  0.33150  0.60587  1.0000
  H   H693      1.0  0.53618  0.31275  0.60592  1.0000
  H   H694      1.0  0.58702  0.37683  0.55196  1.0000
  H   H695      1.0  0.57964  0.39453  0.50855  1.0000
  C   C866      1.0  0.41675  0.27083  0.46168  1.0000
  C   C867      1.0  0.35211  0.35043  0.88705  1.0000
  C   C868      1.0  0.45398  0.17577  0.48288  1.0000
  H   H696      1.0  0.50604  0.44573  0.51442  1.0000
  C   C869      1.0  0.34957  0.14161  0.54295  1.0000
  H   H697      1.0  0.56402  0.45083  0.58388  1.0000
  H   H698      1.0  0.36204  0.96398  0.51168  1.0000
  H   H699      1.0  0.38490  0.00431  0.52578  1.0000
  C   C870      1.0  0.44637  0.41752  0.50299  1.0000
  H   H700      1.0  0.57326  0.22551  0.75801  1.0000
  H   H701      1.0  0.54559  0.27958  0.50115  1.0000
  H   H702      1.0  0.48433  0.37925  0.60486  1.0000
  H   H703      1.0  0.38379  0.39523  0.54094  1.0000
  C   C871      1.0  0.33576  0.24718  0.53007  1.0000
  C   C872      1.0  0.51588  0.44751  0.47444  1.0000
  C   C873      1.0  0.62682  0.14035  0.84401  1.0000
  P   P28       1.0  0.58082  0.39880  0.60263  1.0000
  C   C874      1.0  0.41579  0.29578  0.47223  1.0000
  H   H704      1.0  0.40685  0.19401  0.89770  1.0000
  C   C875      1.0  0.62216  0.16654  0.89089  1.0000
  C   C876      1.0  0.58080  0.42374  0.62677  1.0000
  C   C877      1.0  0.56585  0.24594  0.51648  1.0000
  C   C878      1.0  0.56471  0.27031  0.50453  1.0000
  C   C879      1.0  0.58828  0.28308  0.49765  1.0000
  C   C880      1.0  0.61298  0.27130  0.50223  1.0000
  C   C881      1.0  0.61430  0.24631  0.51324  1.0000
  C   C882      1.0  0.59053  0.23407  0.52104  1.0000
  C   C883      1.0  0.64641  0.19722  0.50763  1.0000
  C   C884      1.0  0.58987  0.18785  0.76710  1.0000
  C   C885      1.0  0.62061  0.99190  0.50526  1.0000
  H   H705      1.0  0.65705  0.20397  0.83097  1.0000
  H   H706      1.0  0.37027  0.42179  0.93628  1.0000
  H   H707      1.0  0.41006  0.27811  0.89519  1.0000
  H   H708      1.0  0.46786  0.16372  0.49352  1.0000
  H   H709      1.0  0.34762  0.12063  0.54127  1.0000
  C   C886      1.0  0.35580  0.97792  0.47326  1.0000
  C   C887      1.0  0.35208  0.25594  0.60115  1.0000
  H   H710      1.0  0.39073  0.04121  0.49588  1.0000
  H   H711      1.0  0.38239  0.14529  0.49589  1.0000
  C   C888      1.0  0.34195  0.16339  0.91191  1.0000
  H   H712      1.0  0.59195  0.18955  0.87146  1.0000
  C   C889      1.0  0.62449  0.18662  0.49445  1.0000
  C   C890      1.0  0.62469  0.16052  0.48678  1.0000
  H   H713      1.0  0.60769  0.15245  0.47678  1.0000
  C   C891      1.0  0.35395  0.18561  0.90138  1.0000
  H   H714      1.0  0.61707  0.42702  0.48105  1.0000
  H   H715      1.0  0.54755  0.23644  0.52244  1.0000
  C   C892      1.0  0.43333  0.40544  0.87781  1.0000
  H   H716      1.0  0.55073  0.44052  0.68284  1.0000
  H   H717      1.0  0.63093  0.28198  0.49756  1.0000
  H   H718      1.0  0.59112  0.21536  0.53071  1.0000
  H   H719      1.0  0.61612  0.24687  0.56501  1.0000
  H   H720      1.0  0.42706  0.40017  0.56309  1.0000
  C   C893      1.0  0.56427  0.44851  0.54303  1.0000
  H   H721      1.0  0.62508  0.25265  0.81659  1.0000
  H   H722      1.0  0.57163  0.17740  0.76276  1.0000
  C   C894      1.0  0.63525  0.29243  0.82413  1.0000
  C   C895      1.0  0.44534  0.21103  0.89173  1.0000
  C   C896      1.0  0.61712  0.36647  0.62764  1.0000
  H   H723      1.0  0.48138  0.23331  0.88573  1.0000
  H   H724      1.0  0.49525  0.43048  0.88752  1.0000
  H   H725      1.0  0.60736  0.19833  0.48952  1.0000
  C   C897      1.0  0.35024  0.31229  0.94684  1.0000
  C   C898      1.0  0.42035  0.20968  0.48177  1.0000
  C   C899      1.0  0.66084  0.21915  0.93770  1.0000
  C   C900      1.0  0.64284  0.24217  0.59646  1.0000
  H   H726      1.0  0.37050  0.18747  0.47067  1.0000
  C   C901      1.0  0.40113  0.40191  0.53034  1.0000
  C   C902      1.0  0.43818  0.19407  0.49557  1.0000
  H   H727      1.0  0.60140  0.28368  0.94777  1.0000
  H   H728      1.0  0.47018  0.45762  0.91786  1.0000
  H   H729      1.0  0.42328  0.39032  0.86706  1.0000
  C   C903      1.0  0.59077  0.21496  0.76446  1.0000
  P   P29       1.0  0.62105  0.18540  0.92003  1.0000
  C   C904      1.0  0.58811  0.19962  0.92286  1.0000
  C   C905      1.0  0.37790  0.00269  0.50626  1.0000
  C   C906      1.0  0.56837  0.43855  0.56767  1.0000
  C   C907      1.0  0.35946  0.99855  0.45605  1.0000
  C   C908      1.0  0.38117  0.02359  0.48924  1.0000
  H   H730      1.0  0.64546  0.34216  0.64770  1.0000
  C   C909      1.0  0.64311  0.13334  0.86457  1.0000
  C   C910      1.0  0.58488  0.22671  0.92525  1.0000
  C   C911      1.0  0.55935  0.23761  0.92685  1.0000
  H   H731      1.0  0.39088  0.32854  0.48168  1.0000
  C   C912      1.0  0.64952  0.22291  0.89281  1.0000
  C   C913      1.0  0.40459  0.23621  0.89712  1.0000
  H   H732      1.0  0.40814  0.22366  0.49188  1.0000
  H   H733      1.0  0.38390  0.26843  0.52048  1.0000
  H   H734      1.0  0.60149  0.36326  0.64161  1.0000
  C   C914      1.0  0.60605  0.17364  0.86998  1.0000
  H   H735      1.0  0.61751  0.29608  0.83547  1.0000
  C   C915      1.0  0.35608  0.11495  0.48278  1.0000
  H   H736      1.0  0.34037  0.14570  0.90079  1.0000
  H   H737      1.0  0.39775  0.41738  0.89666  1.0000
  H   H738      1.0  0.63756  0.21757  0.87648  1.0000
  H   H739      1.0  0.51206  0.18665  0.46133  1.0000
  H   H740      1.0  0.39056  0.14012  0.55511  1.0000
  H   H741      1.0  0.65032  0.33147  0.82852  1.0000
  H   H742      1.0  0.38572  0.26426  0.85301  1.0000
  C   C916      1.0  0.43190  0.43993  0.90955  1.0000
  C   C917      1.0  0.37912  0.46100  0.92322  1.0000
  C   C918      1.0  0.35536  0.20887  0.91543  1.0000
  H   H743      1.0  0.56731  0.16288  0.91873  1.0000
  H   H744      1.0  0.56493  0.44031  0.50274  1.0000
  H   H745      1.0  0.62855  0.13011  0.82603  1.0000
  H   H746      1.0  0.45528  0.19232  0.89058  1.0000
  C   C919      1.0  0.66249  0.26339  0.79846  1.0000
  C   C920      1.0  0.64719  0.14506  0.49115  1.0000
  C   C921      1.0  0.63709  0.21498  0.77822  1.0000
  C   C922      1.0  0.44717  0.25812  0.89048  1.0000
  C   C923      1.0  0.33276  0.30416  0.92772  1.0000
  C   C924      1.0  0.63304  0.03293  0.48525  1.0000
  C   C925      1.0  0.61266  0.17419  0.77474  1.0000
  C   C926      1.0  0.62911  0.16468  0.94715  1.0000
  C   C927      1.0  0.47385  0.42802  0.88932  1.0000
  H   H747      1.0  0.65278  0.41667  0.90372  1.0000
  H   H748      1.0  0.33807  0.12446  0.48940  1.0000
  C   C928      1.0  0.37765  0.27423  0.93943  1.0000
  H   H749      1.0  0.43384  0.30450  0.47980  1.0000
  C   C929      1.0  0.36662  0.25512  0.84971  1.0000
  C   C930      1.0  0.37373  0.15262  0.55075  1.0000
  C   C931      1.0  0.59944  0.44411  0.62525  1.0000
  C   C932      1.0  0.64203  0.35468  0.63130  1.0000
  H   H750      1.0  0.35004  0.30899  0.46308  1.0000
  S   S125      1.0  0.52115  0.43489  0.93818  1.0000
  C   C933      1.0  0.63960  0.26791  0.81334  1.0000
  C   C934      1.0  0.41845  0.20727  0.45509  1.0000
  H   H751      1.0  0.34441  0.22729  0.95106  1.0000
  C   C935      1.0  0.35411  0.19593  0.54829  1.0000
  H   H752      1.0  0.65407  0.14074  0.90326  1.0000
  C   C936      1.0  0.64504  0.98098  0.49775  1.0000
  C   C937      1.0  0.37170  0.02176  0.46407  1.0000
  H   H753      1.0  0.62146  0.38467  0.93126  1.0000
  H   H754      1.0  0.36467  0.26876  0.81071  1.0000
  H   H755      1.0  0.51710  0.23017  0.92741  1.0000
  C   C938      1.0  0.36871  0.29836  0.46257  1.0000
  C   C939      1.0  0.33250  0.18719  0.95057  1.0000
  C   C940      1.0  0.36792  0.43930  0.45770  1.0000
  C   C941      1.0  0.63627  0.18766  0.78007  1.0000
  H   H756      1.0  0.39502  0.26281  0.94423  1.0000
  C   C942      1.0  0.33592  0.43973  0.91926  1.0000
  C   C943      1.0  0.50910  0.45835  0.49806  1.0000
  C   C944      1.0  0.35642  0.19300  0.45601  1.0000
  H   H757      1.0  0.64769  0.12504  0.48464  1.0000
  H   H758      1.0  0.33471  0.08259  0.46710  1.0000
  H   H759      1.0  0.45203  0.23238  0.94358  1.0000
  P   P30       1.0  0.42027  0.42137  0.45639  1.0000
  C   C945      1.0  0.59515  0.41379  0.94635  1.0000
  C   C946      1.0  0.65452  0.23196  0.55247  1.0000
  C   C947      1.0  0.63586  0.24063  0.57063  1.0000
  H   H760      1.0  0.34536  0.21998  0.50007  1.0000
  C   C948      1.0  0.65840  0.37532  0.59273  1.0000
  C   C949      1.0  0.33490  0.23765  0.50500  1.0000
  C   C950      1.0  0.54050  0.21783  0.45702  1.0000
  C   C951      1.0  0.35477  0.25767  0.82561  1.0000
  C   C952      1.0  0.61707  0.44471  0.46962  1.0000
  C   C953      1.0  0.66262  0.35904  0.61379  1.0000
  H   H761      1.0  0.46072  0.27893  0.95273  1.0000
  C   C954      1.0  0.66324  0.99620  0.48367  1.0000
  S   S126      1.0  0.47361  0.37219  0.95390  1.0000
  C   C955      1.0  0.58250  0.46212  0.66478  1.0000
  C   C956      1.0  0.59488  0.45099  0.45466  1.0000
  H   H762      1.0  0.63657  0.29963  0.45432  1.0000
  H   H763      1.0  0.57753  0.43830  0.45466  1.0000
  C   C957      1.0  0.63639  0.61907  0.97771  1.0000
  S   S127      1.0  0.50297  0.56590  0.41165  1.0000
  C   C958      1.0  0.41106  0.69459  0.98192  1.0000
  H   H764      1.0  0.59406  0.64664  0.09494  1.0000
  S   S128      1.0  0.49615  0.62904  0.40874  1.0000
  Fe  Fe64      1.0  0.46887  0.59478  0.41358  1.0000
  S   S129      1.0  0.43077  0.58736  0.39061  1.0000
  Fe  Fe65      1.0  0.49203  0.56638  0.01513  1.0000
  S   S130      1.0  0.49863  0.59140  0.05025  1.0000
  S   S131      1.0  0.48801  0.52215  0.01902  1.0000
  Fe  Fe66      1.0  0.48841  0.61350  0.97982  1.0000
  S   S132      1.0  0.49442  0.64136  0.01203  1.0000
  C   C959      1.0  0.35288  0.73700  0.05485  1.0000
  Fe  Fe67      1.0  0.46545  0.61639  0.03410  1.0000
  S   S133      1.0  0.43469  0.63939  0.05736  1.0000
  S   S134      1.0  0.45729  0.59012  0.00077  1.0000
  H   H765      1.0  0.54163  0.50404  0.04434  1.0000
  C   C960      1.0  0.35563  0.65015  0.07301  1.0000
  C   C961      1.0  0.38318  0.65425  0.06884  1.0000
  C   C962      1.0  0.39960  0.63419  0.05941  1.0000
  C   C963      1.0  0.38804  0.61012  0.05364  1.0000
  C   C964      1.0  0.36060  0.60592  0.05814  1.0000
  H   H766      1.0  0.38463  0.82433  0.40004  1.0000
  H   H767      1.0  0.39192  0.67291  0.07345  1.0000
  H   H768      1.0  0.40040  0.59445  0.04656  1.0000
  H   H769      1.0  0.39098  0.74502  0.43478  1.0000
  C   C965      1.0  0.40258  0.60842  0.38777  1.0000
  C   C966      1.0  0.40185  0.63288  0.39942  1.0000
  C   C967      1.0  0.37846  0.64816  0.39831  1.0000
  C   C968      1.0  0.44937  0.72169  0.01052  1.0000
  C   C969      1.0  0.35646  0.61519  0.37321  1.0000
  C   C970      1.0  0.37983  0.59981  0.37445  1.0000
  H   H770      1.0  0.41918  0.63983  0.40961  1.0000
  H   H771      1.0  0.37803  0.66691  0.40758  1.0000
  C   C971      1.0  0.53575  0.77884  0.98299  1.0000
  H   H772      1.0  0.38012  0.58092  0.36536  1.0000
  C   C972      1.0  0.49649  0.49823  0.99589  1.0000
  C   C973      1.0  0.50635  0.50497  0.97174  1.0000
  C   C974      1.0  0.39523  0.72520  0.44065  1.0000
  Fe  Fe68      1.0  0.53049  0.60097  0.41049  1.0000
  S   S135      1.0  0.56430  0.60715  0.38155  1.0000
  Fe  Fe69      1.0  0.52708  0.61443  0.02537  1.0000
  S   S136      1.0  0.56612  0.63632  0.03346  1.0000
  S   S137      1.0  0.52259  0.58785  0.99163  1.0000
  H   H773      1.0  0.39507  0.73966  0.04748  1.0000
  C   C975      1.0  0.64302  0.63796  0.05883  1.0000
  C   C976      1.0  0.61836  0.64447  0.04744  1.0000
  C   C977      1.0  0.59728  0.62634  0.04652  1.0000
  C   C978      1.0  0.60117  0.60155  0.05709  1.0000
  C   C979      1.0  0.62592  0.59493  0.06821  1.0000
  C   C980      1.0  0.37213  0.75849  0.01782  1.0000
  H   H774      1.0  0.61551  0.66376  0.03952  1.0000
  H   H775      1.0  0.58506  0.58757  0.05695  1.0000
  H   H776      1.0  0.62876  0.57563  0.07615  1.0000
  C   C981      1.0  0.59819  0.61502  0.38799  1.0000
  C   C982      1.0  0.60815  0.61674  0.41287  1.0000
  C   C983      1.0  0.63514  0.62337  0.41701  1.0000
  C   C984      1.0  0.35338  0.60781  0.26695  1.0000
  C   C985      1.0  0.64257  0.62636  0.37147  1.0000
  C   C986      1.0  0.61565  0.61955  0.36739  1.0000
  H   H777      1.0  0.59511  0.61269  0.42887  1.0000
  C   C987      1.0  0.55426  0.51192  0.02934  1.0000
  H   H778      1.0  0.35769  0.60256  0.28662  1.0000
  H   H779      1.0  0.60837  0.61755  0.34812  1.0000
  H   H780      1.0  0.52066  0.50427  0.43964  1.0000
  C   C988      1.0  0.55420  0.63636  0.10591  1.0000
  C   C989      1.0  0.52004  0.46436  0.45347  1.0000
  C   C990      1.0  0.53392  0.63945  0.12394  1.0000
  C   C991      1.0  0.54922  0.69482  0.42790  1.0000
  C   C992      1.0  0.60748  0.69305  0.28840  1.0000
  H   H781      1.0  0.33983  0.91602  0.39519  1.0000
  P   P31       1.0  0.34186  0.78241  0.97899  1.0000
  C   C993      1.0  0.56317  0.78068  0.98751  1.0000
  H   H782      1.0  0.42143  0.66159  0.00600  1.0000
  H   H783      1.0  0.56526  0.68028  0.16505  1.0000
  H   H784      1.0  0.56080  0.95706  0.00569  1.0000
  H   H785      1.0  0.61758  0.82317  0.43816  1.0000
  C   C994      1.0  0.33262  0.74005  0.42910  1.0000
  H   H786      1.0  0.56192  0.69201  0.98117  1.0000
  C   C995      1.0  0.54352  0.74263  0.95443  1.0000
  C   C996      1.0  0.64402  0.73845  0.95959  1.0000
  C   C997      1.0  0.49372  0.47167  0.00219  1.0000
  C   C998      1.0  0.62799  0.69882  0.97989  1.0000
  C   C999      1.0  0.41738  0.80219  0.95593  1.0000
  C   C1000     1.0  0.59133  0.49823  0.38085  1.0000
  C   C1001     1.0  0.65225  0.52001  0.95402  1.0000
  C   C1002     1.0  0.34424  0.62577  0.06804  1.0000
  C   C1003     1.0  0.63244  0.62305  0.22251  1.0000
  C   C1004     1.0  0.61012  0.71584  0.06246  1.0000
  H   H787      1.0  0.61689  0.71315  0.22286  1.0000
  H   H788      1.0  0.45147  0.53641  0.97650  1.0000
  C   C1005     1.0  0.58892  0.70467  0.30478  1.0000
  H   H789      1.0  0.37641  0.63321  0.99767  1.0000
  H   H790      1.0  0.52207  0.79218  0.99219  1.0000
  H   H791      1.0  0.57694  0.47879  0.42939  1.0000
  H   H792      1.0  0.63939  0.93212  0.98655  1.0000
  C   C1006     1.0  0.57942  0.66836  0.45305  1.0000
  C   C1007     1.0  0.42062  0.71487  0.43613  1.0000
  C   C1008     1.0  0.56152  0.49634  0.00867  1.0000
  H   H793      1.0  0.55546  0.55031  0.04555  1.0000
  H   H794      1.0  0.42030  0.95463  0.43517  1.0000
  H   H795      1.0  0.33898  0.60809  0.36332  1.0000
  C   C1009     1.0  0.60894  0.74460  0.19649  1.0000
  C   C1010     1.0  0.65140  0.69747  0.99433  1.0000
  H   H796      1.0  0.38823  0.58883  0.25179  1.0000
  H   H797      1.0  0.47971  0.67040  0.96932  1.0000
  H   H798      1.0  0.48611  0.46621  0.02082  1.0000
  C   C1011     1.0  0.45113  0.48264  0.41569  1.0000
  H   H799      1.0  0.37239  0.66721  0.15863  1.0000
  H   H800      1.0  0.46443  0.73197  0.02135  1.0000
  C   C1012     1.0  0.57650  0.50687  0.98859  1.0000
  C   C1013     1.0  0.43543  0.73448  0.99105  1.0000
  H   H801      1.0  0.63050  0.60152  0.18735  1.0000
  H   H802      1.0  0.57079  0.79538  0.00037  1.0000
  C   C1014     1.0  0.35554  0.63937  0.38544  1.0000
  C   C1015     1.0  0.62391  0.57325  0.97645  1.0000
  H   H803      1.0  0.55793  0.94058  0.05024  1.0000
  C   C1016     1.0  0.37435  0.82999  0.41737  1.0000
  C   C1017     1.0  0.57724  0.66227  0.32190  1.0000
  C   C1018     1.0  0.64875  0.74787  0.42805  1.0000
  C   C1019     1.0  0.61145  0.66594  0.28905  1.0000
  C   C1020     1.0  0.59566  0.65062  0.30545  1.0000
  H   H804      1.0  0.37425  0.79112  0.43319  1.0000
  C   C1021     1.0  0.61933  0.64044  0.23890  1.0000
  C   C1022     1.0  0.52598  0.75996  0.96630  1.0000
  C   C1023     1.0  0.65723  0.92575  0.43077  1.0000
  C   C1024     1.0  0.62020  0.61490  0.19992  1.0000
  H   H805      1.0  0.66532  0.68957  0.16026  1.0000
  H   H806      1.0  0.65377  0.88235  0.01408  1.0000
  C   C1025     1.0  0.63977  0.63325  0.13597  1.0000
  P   P32       1.0  0.33443  0.63084  0.18348  1.0000
  H   H807      1.0  0.35524  0.72614  0.07254  1.0000
  C   C1026     1.0  0.59472  0.62389  0.19361  1.0000
  C   C1027     1.0  0.58141  0.64099  0.20997  1.0000
  C   C1028     1.0  0.59368  0.64935  0.23251  1.0000
  H   H808      1.0  0.64672  0.56522  0.44428  1.0000
  H   H809      1.0  0.34338  0.66555  0.08076  1.0000
  C   C1029     1.0  0.59477  0.47389  0.44005  1.0000
  C   C1030     1.0  0.35501  0.60689  0.44828  1.0000
  H   H810      1.0  0.33438  0.72111  0.21643  1.0000
  H   H811      1.0  0.43010  0.49352  0.97532  1.0000
  C   C1031     1.0  0.57731  0.54857  0.01008  1.0000
  H   H812      1.0  0.64507  0.92824  0.41384  1.0000
  H   H813      1.0  0.38974  0.76412  0.00733  1.0000
  C   C1032     1.0  0.45456  0.50180  0.43428  1.0000
  C   C1033     1.0  0.37256  0.78457  0.96085  1.0000
  H   H814      1.0  0.57389  0.55704  0.40596  1.0000
  C   C1034     1.0  0.34652  0.76463  0.00869  1.0000
  C   C1035     1.0  0.57288  0.49724  0.36085  1.0000
  H   H815      1.0  0.58528  0.61750  0.17607  1.0000
  H   H816      1.0  0.56152  0.64770  0.20523  1.0000
  H   H817      1.0  0.58304  0.66263  0.24489  1.0000
  H   H818      1.0  0.63345  0.55842  0.29570  1.0000
  C   C1036     1.0  0.64690  0.52866  0.40566  1.0000
  H   H819      1.0  0.66209  0.53378  0.96637  1.0000
  C   C1037     1.0  0.35157  0.68655  0.00353  1.0000
  C   C1038     1.0  0.38656  0.92920  0.44069  1.0000
  P   P33       1.0  0.38679  0.67717  0.96303  1.0000
  H   H820      1.0  0.33489  0.87681  0.96020  1.0000
  H   H821      1.0  0.61906  0.67959  0.18936  1.0000
  C   C1039     1.0  0.66117  0.80565  0.40571  1.0000
  C   C1040     1.0  0.61508  0.69963  0.18400  1.0000
  H   H822      1.0  0.44592  0.68106  0.43943  1.0000
  C   C1041     1.0  0.65001  0.81210  0.98746  1.0000
  C   C1042     1.0  0.33808  0.83579  0.96865  1.0000
  C   C1043     1.0  0.60856  0.54514  0.44631  1.0000
  H   H823      1.0  0.37851  0.60081  0.20702  1.0000
  H   H824      1.0  0.62337  0.62542  0.12510  1.0000
  H   H825      1.0  0.60814  0.69917  0.40680  1.0000
  H   H826      1.0  0.34533  0.60391  0.42998  1.0000
  H   H827      1.0  0.61302  0.68394  0.98283  1.0000
  H   H828      1.0  0.58244  0.69958  0.08938  1.0000
  H   H829      1.0  0.38470  0.58628  0.99432  1.0000
  H   H830      1.0  0.64996  0.68621  0.38496  1.0000
  P   P34       1.0  0.61635  0.52097  0.42249  1.0000
  C   C1044     1.0  0.57017  0.84986  0.96180  1.0000
  C   C1045     1.0  0.40260  0.94631  0.42655  1.0000
  C   C1046     1.0  0.53814  0.65515  0.14533  1.0000
  C   C1047     1.0  0.35326  0.86333  0.44330  1.0000
  H   H831      1.0  0.55088  0.62451  0.08908  1.0000
  C   C1048     1.0  0.37695  0.64757  0.15261  1.0000
  H   H832      1.0  0.54169  0.64836  0.98018  1.0000
  C   C1049     1.0  0.63243  0.83113  0.97826  1.0000
  C   C1050     1.0  0.56198  0.53806  0.02995  1.0000
  C   C1051     1.0  0.38697  0.62598  0.98107  1.0000
  C   C1052     1.0  0.35717  0.92449  0.40428  1.0000
  C   C1053     1.0  0.42504  0.68193  0.00161  1.0000
  C   C1054     1.0  0.56262  0.66788  0.14860  1.0000
  C   C1055     1.0  0.58313  0.66482  0.13054  1.0000
  C   C1056     1.0  0.36241  0.62618  0.16211  1.0000
  C   C1057     1.0  0.56841  0.92935  0.03589  1.0000
  H   H833      1.0  0.63426  0.63878  0.97050  1.0000
  C   C1058     1.0  0.37318  0.94172  0.39024  1.0000
  C   C1059     1.0  0.64873  0.62228  0.28409  1.0000
  H   H834      1.0  0.57361  0.84039  0.98001  1.0000
  H   H835      1.0  0.43357  0.81417  0.96292  1.0000
  C   C1060     1.0  0.65197  0.86260  0.00707  1.0000
  C   C1061     1.0  0.39381  0.79972  0.97008  1.0000
  P   P35       1.0  0.61292  0.88212  0.97445  1.0000
  C   C1062     1.0  0.56502  0.67256  0.43054  1.0000
  C   C1063     1.0  0.59590  0.90055  0.99878  1.0000
  C   C1064     1.0  0.59370  0.89103  0.02390  1.0000
  C   C1065     1.0  0.58013  0.90551  0.04241  1.0000
  H   H836      1.0  0.46216  0.52088  0.42899  1.0000
  C   C1066     1.0  0.40539  0.58924  0.95830  1.0000
  C   C1067     1.0  0.58361  0.92425  0.99225  1.0000
  H   H837      1.0  0.54196  0.55538  0.37021  1.0000
  H   H838      1.0  0.59759  0.62965  0.30580  1.0000
  C   C1068     1.0  0.40288  0.61877  0.12568  1.0000
  C   C1069     1.0  0.36852  0.81124  0.43604  1.0000
  P   P36       1.0  0.63545  0.65078  0.26799  1.0000
  H   H839      1.0  0.60551  0.48246  0.38319  1.0000
  H   H840      1.0  0.54076  0.51720  0.34155  1.0000
  C   C1070     1.0  0.57359  0.54007  0.39376  1.0000
  H   H841      1.0  0.66491  0.49044  0.40983  1.0000
  C   C1071     1.0  0.36876  0.60100  0.15359  1.0000
  H   H842      1.0  0.66529  0.69971  0.11183  1.0000
  C   C1072     1.0  0.37056  0.60010  0.24730  1.0000
  C   C1073     1.0  0.64946  0.70359  0.39668  1.0000
  H   H843      1.0  0.61884  0.70527  0.27545  1.0000
  C   C1074     1.0  0.61181  0.70659  0.15819  1.0000
  H   H844      1.0  0.54582  0.55004  0.95931  1.0000
  H   H845      1.0  0.60226  0.87244  0.02926  1.0000
  C   C1075     1.0  0.58081  0.76360  0.97541  1.0000
  H   H846      1.0  0.35759  0.58428  0.16042  1.0000
  C   C1076     1.0  0.62311  0.69720  0.10347  1.0000
  C   C1077     1.0  0.64438  0.57662  0.29632  1.0000
  C   C1078     1.0  0.38883  0.59736  0.13536  1.0000
  H   H847      1.0  0.63418  0.56781  0.39583  1.0000
  C   C1079     1.0  0.58495  0.53295  0.98933  1.0000
  C   C1080     1.0  0.56363  0.68047  0.96396  1.0000
  C   C1081     1.0  0.65361  0.61401  0.99812  1.0000
  H   H848      1.0  0.57268  0.48073  0.34803  1.0000
  H   H849      1.0  0.64174  0.54935  0.00614  1.0000
  P   P37       1.0  0.60428  0.54680  0.96341  1.0000
  H   H850      1.0  0.58075  0.49473  0.97234  1.0000
  H   H851      1.0  0.60192  0.76559  0.97910  1.0000
  C   C1082     1.0  0.61380  0.71859  0.20305  1.0000
  C   C1083     1.0  0.57394  0.68930  0.32164  1.0000
  H   H852      1.0  0.50478  0.75878  0.96235  1.0000
  C   C1084     1.0  0.62593  0.71088  0.40912  1.0000
  H   H853      1.0  0.41793  0.61603  0.11101  1.0000
  C   C1085     1.0  0.36496  0.60692  0.22191  1.0000
  H   H854      1.0  0.35203  0.58698  0.05430  1.0000
  H   H855      1.0  0.43584  0.72663  0.42695  1.0000
  C   C1086     1.0  0.36675  0.85598  0.42095  1.0000
  C   C1087     1.0  0.41618  0.72107  0.97696  1.0000
  H   H856      1.0  0.40766  0.66038  0.12645  1.0000
  C   C1088     1.0  0.57866  0.64896  0.10922  1.0000
  H   H857      1.0  0.51484  0.62988  0.12114  1.0000
  C   C1089     1.0  0.61719  0.49039  0.43977  1.0000
  C   C1090     1.0  0.44406  0.69550  0.01587  1.0000
  H   H858      1.0  0.40561  0.73136  0.96199  1.0000
  C   C1091     1.0  0.60531  0.75162  0.17087  1.0000
  H   H859      1.0  0.52226  0.65773  0.15914  1.0000
  C   C1092     1.0  0.63477  0.59852  0.28321  1.0000
  H   H860      1.0  0.65570  0.62979  0.35539  1.0000
  H   H861      1.0  0.39305  0.57802  0.12819  1.0000
  H   H862      1.0  0.60404  0.73854  0.13200  1.0000
  H   H863      1.0  0.64268  0.62463  0.43631  1.0000
  C   C1093     1.0  0.63584  0.90273  0.95704  1.0000
  C   C1094     1.0  0.60324  0.70382  0.08562  1.0000
  C   C1095     1.0  0.42634  0.68920  0.44320  1.0000
  C   C1096     1.0  0.65251  0.62821  0.39635  1.0000
  H   H864      1.0  0.58260  0.56905  0.01073  1.0000
  P   P38       1.0  0.61446  0.68206  0.13369  1.0000
  C   C1097     1.0  0.39160  0.59922  0.97927  1.0000
  C   C1098     1.0  0.63317  0.85650  0.98810  1.0000
  H   H865      1.0  0.60815  0.75935  0.21122  1.0000
  H   H866      1.0  0.65425  0.68179  0.00806  1.0000
  C   C1099     1.0  0.36355  0.91830  0.42975  1.0000
  P   P39       1.0  0.64957  0.77584  0.44892  1.0000
  H   H867      1.0  0.40896  0.56851  0.95702  1.0000
  C   C1100     1.0  0.65561  0.58881  0.00811  1.0000
  C   C1101     1.0  0.33299  0.66462  0.96670  1.0000
  C   C1102     1.0  0.66206  0.67365  0.26095  1.0000
  C   C1103     1.0  0.66063  0.61647  0.14271  1.0000
  C   C1104     1.0  0.33643  0.72768  0.40550  1.0000
  H   H868      1.0  0.50808  0.52527  0.96652  1.0000
  C   C1105     1.0  0.39574  0.64304  0.96164  1.0000
  C   C1106     1.0  0.62546  0.73304  0.42468  1.0000
  H   H869      1.0  0.43973  0.75469  0.98658  1.0000
  H   H870      1.0  0.58624  0.72562  0.30452  1.0000
  H   H871      1.0  0.60164  0.77181  0.16578  1.0000
  H   H872      1.0  0.60707  0.73822  0.43421  1.0000
  H   H873      1.0  0.65900  0.65214  0.05946  1.0000
  C   C1107     1.0  0.39705  0.64382  0.13441  1.0000
  C   C1108     1.0  0.62745  0.56398  0.45352  1.0000
  H   H874      1.0  0.53748  0.69770  0.41075  1.0000
  H   H875      1.0  0.56573  0.65832  0.41530  1.0000
  H   H876      1.0  0.39192  0.80996  0.98805  1.0000
  C   C1109     1.0  0.51367  0.48539  0.95425  1.0000
  H   H877      1.0  0.55971  0.69828  0.33449  1.0000
  C   C1110     1.0  0.33470  0.68192  0.20180  1.0000
  C   C1111     1.0  0.38154  0.59937  0.45168  1.0000
  H   H878      1.0  0.45587  0.48702  0.39592  1.0000
  C   C1112     1.0  0.37527  0.74463  0.04074  1.0000
  C   C1113     1.0  0.60671  0.73270  0.15175  1.0000
  C   C1114     1.0  0.64973  0.70376  0.09813  1.0000
  H   H879      1.0  0.36817  0.69511  0.01366  1.0000
  C   C1115     1.0  0.64701  0.61303  0.06911  1.0000
  C   C1116     1.0  0.64088  0.65974  0.14253  1.0000
  H   H880      1.0  0.61628  0.59697  0.27264  1.0000
  C   C1117     1.0  0.57006  0.93866  0.01080  1.0000
  C   C1118     1.0  0.64059  0.56858  0.99756  1.0000
  C   C1119     1.0  0.55491  0.51773  0.35718  1.0000
  H   H881      1.0  0.45483  0.68553  0.03098  1.0000
  H   H882      1.0  0.56564  0.65028  0.33499  1.0000
  H   H883      1.0  0.57866  0.89822  0.06183  1.0000
  C   C1120     1.0  0.59154  0.51949  0.39765  1.0000
  H   H884      1.0  0.64692  0.79339  0.39590  1.0000
  C   C1121     1.0  0.35453  0.67739  0.97844  1.0000
  H   H885      1.0  0.59476  0.72038  0.04857  1.0000
  C   C1122     1.0  0.55542  0.53918  0.37350  1.0000
  H   H886      1.0  0.37124  0.87014  0.40617  1.0000
  C   C1123     1.0  0.63679  0.72169  0.05709  1.0000
  C   C1124     1.0  0.55212  0.65569  0.96352  1.0000
  C   C1125     1.0  0.62150  0.59884  0.96695  1.0000
  C   C1126     1.0  0.66335  0.66910  0.15568  1.0000
  H   H887      1.0  0.64216  0.73098  0.03918  1.0000
  C   C1127     1.0  0.39586  0.95267  0.40137  1.0000
  H   H888      1.0  0.47878  0.71720  0.95887  1.0000
  H   H889      1.0  0.34745  0.67492  0.21702  1.0000
  H   H890      1.0  0.36800  0.94653  0.37067  1.0000
  H   H891      1.0  0.58458  0.93160  0.97282  1.0000
  C   C1128     1.0  0.44682  0.52771  0.95820  1.0000
  C   C1129     1.0  0.65659  0.71563  0.07491  1.0000
  C   C1130     1.0  0.64542  0.92604  0.96765  1.0000
  H   H892      1.0  0.65227  0.61593  0.22713  1.0000
  C   C1131     1.0  0.34209  0.62156  0.21606  1.0000
  C   C1132     1.0  0.37549  0.71001  0.45262  1.0000
  H   H893      1.0  0.55450  0.47637  0.00775  1.0000
  H   H894      1.0  0.39234  0.59030  0.43613  1.0000
  P   P40       1.0  0.34227  0.89651  0.44793  1.0000
  H   H895      1.0  0.65014  0.79297  0.97892  1.0000
  C   C1133     1.0  0.62415  0.71924  0.96223  1.0000
  H   H896      1.0  0.61939  0.82626  0.96253  1.0000
  C   C1134     1.0  0.64996  0.55344  0.39447  1.0000
  C   C1135     1.0  0.57111  0.74427  0.95891  1.0000
  H   H897      1.0  0.66497  0.62969  0.00669  1.0000
  H   H898      1.0  0.34615  0.70883  0.40455  1.0000
  C   C1136     1.0  0.43457  0.50324  0.95742  1.0000
  H   H899      1.0  0.66013  0.59626  0.13677  1.0000
  H   H900      1.0  0.66464  0.66497  0.22039  1.0000
  C   C1137     1.0  0.54785  0.71290  0.44775  1.0000
  S   S138      1.0  0.53466  0.60303  0.45310  1.0000
  H   H901      1.0  0.53503  0.72980  0.44595  1.0000
  Fe  Fe70      1.0  0.49867  0.62912  0.45160  1.0000
  C   C1138     1.0  0.60666  0.81081  0.45132  1.0000
  H   H902      1.0  0.59155  0.92186  0.57454  1.0000
  H   H903      1.0  0.49738  0.66074  0.56024  1.0000
  Fe  Fe71      1.0  0.49983  0.75674  0.58686  1.0000
  S   S139      1.0  0.49922  0.78519  0.55455  1.0000
  S   S140      1.0  0.50073  0.71291  0.58005  1.0000
  Fe  Fe72      1.0  0.49927  0.80000  0.62649  1.0000
  S   S141      1.0  0.49871  0.83162  0.59582  1.0000
  S   S142      1.0  0.49951  0.81459  0.66800  1.0000
  Fe  Fe73      1.0  0.46767  0.80667  0.57651  1.0000
  S   S143      1.0  0.43349  0.81879  0.54979  1.0000
  S   S144      1.0  0.46633  0.77660  0.60807  1.0000
  Fe  Fe74      1.0  0.48177  0.76848  0.87508  1.0000
  S   S145      1.0  0.48523  0.81099  0.88492  1.0000
  S   S146      1.0  0.48036  0.74561  0.91234  1.0000
  Fe  Fe75      1.0  0.48003  0.78062  0.81751  1.0000
  S   S147      1.0  0.48292  0.82368  0.82411  1.0000
  S   S148      1.0  0.47842  0.76188  0.77775  1.0000
  Fe  Fe76      1.0  0.45293  0.81710  0.85581  1.0000
  S   S149      1.0  0.42016  0.84659  0.86500  1.0000
  S   S150      1.0  0.44776  0.77450  0.84751  1.0000
  C   C1139     1.0  0.40045  0.82977  0.55580  1.0000
  C   C1140     1.0  0.39127  0.83573  0.58035  1.0000
  C   C1141     1.0  0.36496  0.84488  0.58390  1.0000
  C   C1142     1.0  0.34742  0.84768  0.56307  1.0000
  C   C1143     1.0  0.35651  0.84141  0.53864  1.0000
  C   C1144     1.0  0.38296  0.83287  0.53498  1.0000
  H   H904      1.0  0.40452  0.83356  0.59653  1.0000
  H   H905      1.0  0.35814  0.84975  0.60290  1.0000
  C   C1145     1.0  0.36808  0.84224  0.75513  1.0000
  H   H906      1.0  0.38987  0.82846  0.51589  1.0000
  C   C1146     1.0  0.49398  0.79916  0.69827  1.0000
  C   C1147     1.0  0.48584  0.77686  0.74765  1.0000
  C   C1148     1.0  0.49005  0.76104  0.72606  1.0000
  C   C1149     1.0  0.49409  0.77208  0.70154  1.0000
  H   H907      1.0  0.48977  0.74008  0.72827  1.0000
  H   H908      1.0  0.49715  0.75964  0.68518  1.0000
  S   S151      1.0  0.48485  0.62436  0.93781  1.0000
  H   H909      1.0  0.63281  0.63853  0.52125  1.0000
  C   C1150     1.0  0.37108  0.86121  0.88402  1.0000
  C   C1151     1.0  0.38673  0.84039  0.87500  1.0000
  C   C1152     1.0  0.37501  0.81573  0.87297  1.0000
  H   H910      1.0  0.43183  0.49575  0.89278  1.0000
  C   C1153     1.0  0.38615  0.69233  0.93162  1.0000
  H   H911      1.0  0.37986  0.88040  0.88556  1.0000
  H   H912      1.0  0.38668  0.79958  0.86589  1.0000
  C   C1154     1.0  0.57103  0.73660  0.55145  1.0000
  C   C1155     1.0  0.41394  0.80415  0.70643  1.0000
  H   H913      1.0  0.34539  0.96053  0.46727  1.0000
  H   H914      1.0  0.33446  0.58861  0.61005  1.0000
  C   C1156     1.0  0.48244  0.71175  0.91825  1.0000
  H   H915      1.0  0.54409  0.59786  0.55845  1.0000
  C   C1157     1.0  0.34121  0.61881  0.46824  1.0000
  C   C1158     1.0  0.49858  0.68118  0.49817  1.0000
  C   C1159     1.0  0.49980  0.70094  0.54841  1.0000
  C   C1160     1.0  0.50110  0.71784  0.52743  1.0000
  C   C1161     1.0  0.50057  0.70802  0.50248  1.0000
  H   H916      1.0  0.50264  0.73850  0.53029  1.0000
  H   H917      1.0  0.50122  0.72139  0.48645  1.0000
  C   C1162     1.0  0.51084  0.50249  0.47965  1.0000
  C   C1163     1.0  0.50675  0.48564  0.50064  1.0000
  H   H918      1.0  0.50163  0.49376  0.51903  1.0000
  H   H919      1.0  0.49557  0.64345  0.51569  1.0000
  Fe  Fe77      1.0  0.53030  0.80761  0.57611  1.0000
  S   S152      1.0  0.56369  0.82090  0.54887  1.0000
  S   S153      1.0  0.53284  0.77769  0.60769  1.0000
  Fe  Fe78      1.0  0.51485  0.81350  0.85298  1.0000
  S   S154      1.0  0.55330  0.83759  0.85361  1.0000
  S   S155      1.0  0.51367  0.77060  0.84477  1.0000
  C   C1164     1.0  0.59764  0.82910  0.55467  1.0000
  C   C1165     1.0  0.61497  0.83237  0.53369  1.0000
  C   C1166     1.0  0.64164  0.84039  0.53717  1.0000
  H   H920      1.0  0.65453  0.84350  0.52086  1.0000
  C   C1167     1.0  0.63418  0.84146  0.58276  1.0000
  C   C1168     1.0  0.60747  0.83347  0.57928  1.0000
  H   H921      1.0  0.60760  0.82911  0.51458  1.0000
  H   H922      1.0  0.43595  0.83856  0.75910  1.0000
  H   H923      1.0  0.58394  0.58588  0.87909  1.0000
  H   H924      1.0  0.59440  0.83110  0.59559  1.0000
  C   C1169     1.0  0.49016  0.81491  0.71992  1.0000
  C   C1170     1.0  0.48630  0.80394  0.74444  1.0000
  H   H925      1.0  0.48979  0.83580  0.71763  1.0000
  H   H926      1.0  0.48318  0.81642  0.76076  1.0000
  C   C1171     1.0  0.62939  0.82461  0.90169  1.0000
  C   C1172     1.0  0.62862  0.84375  0.88255  1.0000
  C   C1173     1.0  0.60525  0.84734  0.86791  1.0000
  C   C1174     1.0  0.58243  0.83191  0.87222  1.0000
  C   C1175     1.0  0.58315  0.81301  0.89154  1.0000
  C   C1176     1.0  0.60653  0.80930  0.90606  1.0000
  H   H927      1.0  0.64606  0.85562  0.87890  1.0000
  H   H928      1.0  0.60483  0.86215  0.85313  1.0000
  H   H929      1.0  0.56556  0.80144  0.89545  1.0000
  H   H930      1.0  0.60684  0.79450  0.92085  1.0000
  C   C1177     1.0  0.48492  0.69336  0.89873  1.0000
  C   C1178     1.0  0.48570  0.66653  0.90483  1.0000
  H   H931      1.0  0.48605  0.69977  0.87904  1.0000
  H   H932      1.0  0.48752  0.65234  0.88972  1.0000
  C   C1179     1.0  0.49745  0.66410  0.51901  1.0000
  C   C1180     1.0  0.49822  0.67396  0.54411  1.0000
  H   H933      1.0  0.56799  0.76932  0.50135  1.0000
  C   C1181     1.0  0.44722  0.85633  0.68683  1.0000
  C   C1182     1.0  0.39444  0.60414  0.47482  1.0000
  C   C1183     1.0  0.63084  0.73720  0.87557  1.0000
  C   C1184     1.0  0.64195  0.64890  0.50550  1.0000
  H   H934      1.0  0.45117  0.51122  0.47412  1.0000
  H   H935      1.0  0.61409  0.56856  0.91255  1.0000
  C   C1185     1.0  0.35427  0.82321  0.69134  1.0000
  H   H936      1.0  0.58315  0.47694  0.67945  1.0000
  C   C1186     1.0  0.62966  0.86866  0.79528  1.0000
  C   C1187     1.0  0.60018  0.46331  0.64413  1.0000
  C   C1188     1.0  0.34786  0.81216  0.87931  1.0000
  C   C1189     1.0  0.61733  0.93410  0.54370  1.0000
  H   H937      1.0  0.62624  0.94965  0.55472  1.0000
  C   C1190     1.0  0.56747  0.64979  0.92012  1.0000
  H   H938      1.0  0.42669  0.59852  0.92362  1.0000
  S   S156      1.0  0.65836  0.81847  0.92036  1.0000
  H   H939      1.0  0.56006  0.55958  0.48975  1.0000
  H   H940      1.0  0.63402  0.88837  0.80132  1.0000
  S   S157      1.0  0.50754  0.53679  0.48416  1.0000
  C   C1191     1.0  0.36253  0.71413  0.89695  1.0000
  C   C1192     1.0  0.59513  0.89266  0.51651  1.0000
  C   C1193     1.0  0.33304  0.82619  0.67423  1.0000
  H   H941      1.0  0.62177  0.90319  0.48628  1.0000
  C   C1194     1.0  0.34380  0.74602  0.48474  1.0000
  S   S158      1.0  0.49593  0.67036  0.46640  1.0000
  H   H942      1.0  0.59949  0.85548  0.64539  1.0000
  C   C1195     1.0  0.37508  0.77243  0.93697  1.0000
  C   C1196     1.0  0.64405  0.84778  0.80557  1.0000
  H   H943      1.0  0.42898  0.69043  0.92683  1.0000
  H   H944      1.0  0.53690  0.82501  0.95211  1.0000
  H   H945      1.0  0.42532  0.84265  0.80513  1.0000
  H   H946      1.0  0.61503  0.75687  0.84236  1.0000
  P   P41       1.0  0.40283  0.83693  0.71333  1.0000
  C   C1197     1.0  0.58023  0.74439  0.89693  1.0000
  C   C1198     1.0  0.39867  0.77506  0.92286  1.0000
  H   H947      1.0  0.55272  0.74160  0.56138  1.0000
  C   C1199     1.0  0.65141  0.84499  0.56175  1.0000
  H   H948      1.0  0.63995  0.87578  0.92566  1.0000
  C   C1200     1.0  0.62555  0.72835  0.90039  1.0000
  H   H949      1.0  0.36954  0.62223  0.61580  1.0000
  C   C1201     1.0  0.34174  0.48394  0.90389  1.0000
  C   C1202     1.0  0.34625  0.59507  0.59382  1.0000
  H   H950      1.0  0.33626  0.84935  0.47885  1.0000
  H   H951      1.0  0.38066  0.50053  0.90842  1.0000
  H   H952      1.0  0.38325  0.88648  0.48658  1.0000
  H   H953      1.0  0.58996  0.68127  0.90380  1.0000
  C   C1203     1.0  0.36811  0.75391  0.49562  1.0000
  C   C1204     1.0  0.61310  0.50381  0.93212  1.0000
  H   H954      1.0  0.57012  0.76267  0.86106  1.0000
  C   C1205     1.0  0.48410  0.65804  0.93038  1.0000
  C   C1206     1.0  0.53747  0.56799  0.92320  1.0000
  H   H955      1.0  0.43794  0.79192  0.92116  1.0000
  C   C1207     1.0  0.62887  0.66987  0.49353  1.0000
  C   C1208     1.0  0.66488  0.93362  0.47600  1.0000
  H   H956      1.0  0.55194  0.64263  0.48963  1.0000
  C   C1209     1.0  0.54810  0.57818  0.90058  1.0000
  H   H957      1.0  0.58692  0.87617  0.50633  1.0000
  H   H958      1.0  0.55625  0.88388  0.89680  1.0000
  H   H959      1.0  0.41179  0.80928  0.66532  1.0000
  C   C1210     1.0  0.36598  0.61403  0.59705  1.0000
  C   C1211     1.0  0.65566  0.48220  0.92661  1.0000
  C   C1212     1.0  0.34195  0.58421  0.56973  1.0000
  C   C1213     1.0  0.61487  0.90819  0.50518  1.0000
  H   H960      1.0  0.39219  0.92476  0.46014  1.0000
  C   C1214     1.0  0.64159  0.68290  0.47326  1.0000
  C   C1215     1.0  0.62480  0.52184  0.94888  1.0000
  H   H961      1.0  0.55969  0.72233  0.48584  1.0000
  C   C1216     1.0  0.34397  0.90356  0.48174  1.0000
  H   H962      1.0  0.34321  0.84352  0.52256  1.0000
  H   H963      1.0  0.54434  0.62148  0.94122  1.0000
  C   C1217     1.0  0.34606  0.91147  0.53477  1.0000
  C   C1218     1.0  0.38052  0.61534  0.49529  1.0000
  H   H964      1.0  0.44806  0.83790  0.67700  1.0000
  P   P42       1.0  0.39703  0.62220  0.52519  1.0000
  C   C1219     1.0  0.37669  0.61187  0.55181  1.0000
  C   C1220     1.0  0.42786  0.60427  0.52910  1.0000
  C   C1221     1.0  0.42969  0.57827  0.52097  1.0000
  C   C1222     1.0  0.45367  0.56456  0.52347  1.0000
  C   C1223     1.0  0.47567  0.57631  0.53505  1.0000
  C   C1224     1.0  0.47353  0.60161  0.54458  1.0000
  C   C1225     1.0  0.44971  0.61554  0.54172  1.0000
  C   C1226     1.0  0.38130  0.62227  0.57617  1.0000
  C   C1227     1.0  0.62607  0.92915  0.51867  1.0000
  H   H965      1.0  0.64153  0.84506  0.60184  1.0000
  C   C1228     1.0  0.48160  0.67654  0.94971  1.0000
  H   H966      1.0  0.61911  0.46994  0.90863  1.0000
  C   C1229     1.0  0.40226  0.65703  0.52576  1.0000
  C   C1230     1.0  0.38327  0.67354  0.53703  1.0000
  C   C1231     1.0  0.38763  0.70047  0.53784  1.0000
  C   C1232     1.0  0.41070  0.71110  0.52699  1.0000
  C   C1233     1.0  0.42896  0.69494  0.51466  1.0000
  C   C1234     1.0  0.42483  0.66801  0.51400  1.0000
  C   C1235     1.0  0.58670  0.89762  0.54145  1.0000
  C   C1236     1.0  0.36230  0.70169  0.92082  1.0000
  C   C1237     1.0  0.54420  0.85366  0.92294  1.0000
  H   H967      1.0  0.34635  0.91336  0.55540  1.0000
  C   C1238     1.0  0.61703  0.74599  0.54086  1.0000
  H   H968      1.0  0.41274  0.56865  0.51234  1.0000
  C   C1239     1.0  0.43858  0.47175  0.46673  1.0000
  H   H969      1.0  0.49430  0.56570  0.53660  1.0000
  H   H970      1.0  0.49041  0.61062  0.55397  1.0000
  H   H971      1.0  0.44852  0.63510  0.54933  1.0000
  H   H972      1.0  0.39681  0.63670  0.57905  1.0000
  C   C1240     1.0  0.56186  0.70851  0.47048  1.0000
  C   C1241     1.0  0.61817  0.72356  0.52573  1.0000
  C   C1242     1.0  0.55385  0.61330  0.54777  1.0000
  C   C1243     1.0  0.55442  0.55800  0.94205  1.0000
  H   H973      1.0  0.36520  0.66570  0.54539  1.0000
  H   H974      1.0  0.37328  0.71316  0.54703  1.0000
  H   H975      1.0  0.41451  0.73187  0.52808  1.0000
  H   H976      1.0  0.56045  0.74741  0.90466  1.0000
  H   H977      1.0  0.43929  0.65588  0.50424  1.0000
  C   C1244     1.0  0.52299  0.87114  0.79676  1.0000
  C   C1245     1.0  0.50429  0.88170  0.77989  1.0000
  C   C1246     1.0  0.50733  0.87809  0.75360  1.0000
  C   C1247     1.0  0.52897  0.86381  0.74418  1.0000
  C   C1248     1.0  0.54760  0.85271  0.76105  1.0000
  C   C1249     1.0  0.54439  0.85657  0.78741  1.0000
  P   P43       1.0  0.57475  0.83261  0.74959  1.0000
  C   C1250     1.0  0.58258  0.84064  0.71669  1.0000
  C   C1251     1.0  0.60301  0.83850  0.77024  1.0000
  C   C1252     1.0  0.61786  0.81765  0.78036  1.0000
  C   C1253     1.0  0.63825  0.82232  0.79801  1.0000
  C   C1254     1.0  0.48091  0.70318  0.94368  1.0000
  H   H978      1.0  0.38698  0.74777  0.48766  1.0000
  C   C1255     1.0  0.60923  0.86407  0.77766  1.0000
  C   C1256     1.0  0.56522  0.83285  0.69709  1.0000
  C   C1257     1.0  0.57124  0.83829  0.67153  1.0000
  C   C1258     1.0  0.59476  0.85147  0.66526  1.0000
  C   C1259     1.0  0.61221  0.85930  0.68459  1.0000
  C   C1260     1.0  0.60618  0.85393  0.71023  1.0000
  C   C1261     1.0  0.56533  0.79867  0.75217  1.0000
  C   C1262     1.0  0.55188  0.78955  0.77401  1.0000
  C   C1263     1.0  0.54547  0.76314  0.77646  1.0000
  C   C1264     1.0  0.55194  0.74571  0.75703  1.0000
  C   C1265     1.0  0.56565  0.75451  0.73542  1.0000
  C   C1266     1.0  0.57270  0.78079  0.73314  1.0000
  H   H979      1.0  0.52064  0.87365  0.81721  1.0000
  H   H980      1.0  0.48735  0.89245  0.78724  1.0000
  H   H981      1.0  0.49271  0.88601  0.74052  1.0000
  H   H982      1.0  0.53068  0.86122  0.72379  1.0000
  H   H983      1.0  0.55832  0.84810  0.80088  1.0000
  H   H984      1.0  0.61346  0.79775  0.77509  1.0000
  H   H985      1.0  0.38703  0.77572  0.52585  1.0000
  C   C1267     1.0  0.60038  0.73250  0.91155  1.0000
  H   H986      1.0  0.38506  0.89408  0.53299  1.0000
  H   H987      1.0  0.59786  0.88040  0.77026  1.0000
  H   H988      1.0  0.54704  0.82231  0.70154  1.0000
  H   H989      1.0  0.55763  0.83209  0.65662  1.0000
  H   H990      1.0  0.59267  0.89970  0.92412  1.0000
  H   H991      1.0  0.40046  0.76621  0.90422  1.0000
  H   H992      1.0  0.62011  0.85996  0.72481  1.0000
  H   H993      1.0  0.54616  0.80269  0.78916  1.0000
  H   H994      1.0  0.53455  0.75631  0.79305  1.0000
  H   H995      1.0  0.54594  0.72548  0.75863  1.0000
  H   H996      1.0  0.57061  0.74101  0.72029  1.0000
  H   H997      1.0  0.58380  0.78697  0.71645  1.0000
  C   C1268     1.0  0.35386  0.62300  0.49171  1.0000
  H   H998      1.0  0.60082  0.66048  0.55509  1.0000
  C   C1269     1.0  0.39466  0.84010  0.74686  1.0000
  H   H999      1.0  0.35546  0.80569  0.70294  1.0000
  C   C1270     1.0  0.58553  0.75288  0.87200  1.0000
  H   H1000     1.0  0.61461  0.47900  0.64284  1.0000
  C   C1271     1.0  0.34399  0.85758  0.89063  1.0000
  H   H1001     1.0  0.44641  0.70333  0.50564  1.0000
  C   C1272     1.0  0.59750  0.57992  0.48622  1.0000
  C   C1273     1.0  0.59272  0.56831  0.91566  1.0000
  C   C1274     1.0  0.54922  0.84130  0.94627  1.0000
  H   H1002     1.0  0.35396  0.58341  0.53040  1.0000
  P   P44       1.0  0.65362  0.94774  0.50562  1.0000
  P   P45       1.0  0.59363  0.72149  0.94383  1.0000
  C   C1275     1.0  0.41023  0.69654  0.91849  1.0000
  H   H1003     1.0  0.55062  0.81238  0.48832  1.0000
  H   H1004     1.0  0.53095  0.60684  0.51354  1.0000
  C   C1276     1.0  0.55878  0.63851  0.50879  1.0000
  C   C1277     1.0  0.60233  0.77124  0.47644  1.0000
  H   H1005     1.0  0.38681  0.72763  0.86549  1.0000
  C   C1278     1.0  0.44826  0.49635  0.45975  1.0000
  C   C1279     1.0  0.57572  0.57814  0.89671  1.0000
  C   C1280     1.0  0.61088  0.74963  0.86144  1.0000
  H   H1006     1.0  0.57514  0.83899  0.45622  1.0000
  C   C1281     1.0  0.44811  0.52908  0.91203  1.0000
  C   C1282     1.0  0.57341  0.62858  0.55943  1.0000
  H   H1007     1.0  0.53488  0.58619  0.88616  1.0000
  H   H1008     1.0  0.36649  0.67197  0.46853  1.0000
  H   H1009     1.0  0.52833  0.84677  0.91061  1.0000
  H   H1010     1.0  0.52129  0.49086  0.93564  1.0000
  C   C1283     1.0  0.44633  0.90451  0.71150  1.0000
  C   C1284     1.0  0.46556  0.89955  0.69278  1.0000
  C   C1285     1.0  0.46601  0.87545  0.68052  1.0000
  C   C1286     1.0  0.58100  0.88319  0.93053  1.0000
  C   C1287     1.0  0.57763  0.68608  0.47335  1.0000
  H   H1011     1.0  0.48013  0.91432  0.68778  1.0000
  H   H1012     1.0  0.48101  0.87135  0.66611  1.0000
  H   H1013     1.0  0.41802  0.64538  0.92610  1.0000
  C   C1288     1.0  0.35109  0.86764  0.66033  1.0000
  C   C1289     1.0  0.42646  0.76058  0.72042  1.0000
  C   C1290     1.0  0.36826  0.76964  0.51740  1.0000
  C   C1291     1.0  0.41510  0.60610  0.93941  1.0000
  C   C1292     1.0  0.34420  0.77763  0.52839  1.0000
  C   C1293     1.0  0.64583  0.89446  0.93338  1.0000
  C   C1294     1.0  0.36784  0.90053  0.52211  1.0000
  C   C1295     1.0  0.51750  0.49165  0.45600  1.0000
  H   H1014     1.0  0.55449  0.70204  0.53495  1.0000
  H   H1015     1.0  0.57869  0.62510  0.57923  1.0000
  C   C1296     1.0  0.57208  0.71419  0.53643  1.0000
  H   H1016     1.0  0.60998  0.75258  0.48265  1.0000
  C   C1297     1.0  0.59773  0.91838  0.55502  1.0000
  C   C1298     1.0  0.41530  0.84038  0.76504  1.0000
  H   H1017     1.0  0.37848  0.84644  0.81939  1.0000
  C   C1299     1.0  0.38657  0.71767  0.88383  1.0000
  H   H1018     1.0  0.42925  0.71252  0.88496  1.0000
  H   H1019     1.0  0.34429  0.78958  0.54543  1.0000
  P   P46       1.0  0.59547  0.67947  0.50270  1.0000
  C   C1300     1.0  0.41045  0.70908  0.89472  1.0000
  H   H1020     1.0  0.59246  0.77020  0.56494  1.0000
  C   C1301     1.0  0.57899  0.65350  0.52012  1.0000
  H   H1021     1.0  0.44587  0.92323  0.72099  1.0000
  H   H1022     1.0  0.34299  0.63252  0.50691  1.0000
  C   C1302     1.0  0.59344  0.75261  0.55354  1.0000
  H   H1023     1.0  0.41535  0.59943  0.47635  1.0000
  C   C1303     1.0  0.58589  0.64862  0.54570  1.0000
  C   C1304     1.0  0.57850  0.78054  0.48689  1.0000
  C   C1305     1.0  0.54651  0.61830  0.52248  1.0000
  H   H1024     1.0  0.56843  0.63806  0.90302  1.0000
  C   C1306     1.0  0.59547  0.70772  0.52313  1.0000
  H   H1025     1.0  0.34410  0.72146  0.88880  1.0000
  H   H1026     1.0  0.63656  0.71897  0.51588  1.0000
  C   C1307     1.0  0.41983  0.78978  0.93236  1.0000
  C   C1308     1.0  0.36668  0.89623  0.49579  1.0000
  H   H1027     1.0  0.63431  0.75848  0.54270  1.0000
  H   H1028     1.0  0.45540  0.54488  0.51621  1.0000
  H   H1029     1.0  0.63051  0.86939  0.67966  1.0000
  C   C1309     1.0  0.64901  0.93641  0.45402  1.0000
  H   H1030     1.0  0.59325  0.59333  0.50158  1.0000
  H   H1031     1.0  0.34180  0.84618  0.78764  1.0000
  C   C1310     1.0  0.42888  0.49150  0.93385  1.0000
  H   H1032     1.0  0.63034  0.94701  0.45486  1.0000
  H   H1033     1.0  0.51606  0.56820  0.92633  1.0000
  H   H1034     1.0  0.64119  0.71840  0.91080  1.0000
  C   C1311     1.0  0.35722  0.59244  0.54879  1.0000
  C   C1312     1.0  0.58263  0.81994  0.46160  1.0000
  H   H1035     1.0  0.43352  0.46814  0.48653  1.0000
  H   H1036     1.0  0.57204  0.88495  0.55042  1.0000
  H   H1037     1.0  0.53547  0.72808  0.94160  1.0000
  H   H1038     1.0  0.35015  0.80396  0.47269  1.0000
  C   C1313     1.0  0.40672  0.67389  0.45484  1.0000
  C   C1314     1.0  0.56001  0.87463  0.91513  1.0000
  C   C1315     1.0  0.43579  0.50460  0.91115  1.0000
  C   C1316     1.0  0.40941  0.84263  0.79107  1.0000
  C   C1317     1.0  0.42800  0.86100  0.70575  1.0000
  C   C1318     1.0  0.57946  0.67442  0.92062  1.0000
  H   H1039     1.0  0.43110  0.74707  0.73579  1.0000
  H   H1040     1.0  0.46338  0.55952  0.93636  1.0000
  C   C1319     1.0  0.41027  0.63289  0.94100  1.0000
  C   C1320     1.0  0.42762  0.88533  0.71798  1.0000
  H   H1041     1.0  0.63627  0.59616  0.47830  1.0000
  C   C1321     1.0  0.56868  0.80491  0.47954  1.0000
  H   H1042     1.0  0.34997  0.88466  0.64801  1.0000
  H   H1043     1.0  0.63202  0.69926  0.46402  1.0000
  H   H1044     1.0  0.45352  0.53904  0.89447  1.0000
  C   C1322     1.0  0.55389  0.64042  0.94160  1.0000
  C   C1323     1.0  0.42901  0.75277  0.69500  1.0000
  C   C1324     1.0  0.36848  0.48344  0.91162  1.0000
  C   C1325     1.0  0.62176  0.58147  0.47317  1.0000
  C   C1326     1.0  0.58216  0.55859  0.93868  1.0000
  H   H1045     1.0  0.41268  0.88960  0.73234  1.0000
  H   H1046     1.0  0.64930  0.80617  0.80618  1.0000
  H   H1047     1.0  0.65049  0.73460  0.86733  1.0000
  H   H1048     1.0  0.38740  0.87984  0.67808  1.0000
  C   C1327     1.0  0.36230  0.84454  0.78122  1.0000
  C   C1328     1.0  0.42380  0.77045  0.67526  1.0000
  C   C1329     1.0  0.38294  0.84471  0.79916  1.0000
  C   C1330     1.0  0.66361  0.91014  0.91964  1.0000
  H   H1049     1.0  0.43553  0.73316  0.69064  1.0000
  H   H1050     1.0  0.42608  0.76450  0.65553  1.0000
  H   H1051     1.0  0.35177  0.84223  0.74163  1.0000
  C   C1331     1.0  0.34725  0.84429  0.46180  1.0000
  C   C1332     1.0  0.62843  0.48399  0.92120  1.0000
  H   H1052     1.0  0.35877  0.76141  0.92891  1.0000
  H   H1053     1.0  0.59199  0.50486  0.92768  1.0000
  C   C1333     1.0  0.37413  0.84245  0.69306  1.0000
  C   C1334     1.0  0.41914  0.78618  0.72616  1.0000
  H   H1054     1.0  0.33886  0.79314  0.87714  1.0000
  C   C1335     1.0  0.37231  0.86479  0.67749  1.0000
  C   C1336     1.0  0.41601  0.79593  0.68092  1.0000
  C   C1337     1.0  0.45369  0.54061  0.93557  1.0000
  H   H1055     1.0  0.41783  0.79164  0.74603  1.0000
  H   H1056     1.0  0.34355  0.69997  0.93079  1.0000
  P   P47       1.0  0.34278  0.72365  0.45815  1.0000
  H   H1057     1.0  0.64138  0.75470  0.94646  1.0000
  H   H1058     1.0  0.55712  0.46827  0.54036  1.0000
  C   C1338     1.0  0.57748  0.69003  0.94253  1.0000
  C   C1339     1.0  0.57884  0.56091  0.47954  1.0000
  H   H1059     1.0  0.60778  0.60352  0.95169  1.0000
  S   S159      1.0  0.46915  0.59652  0.45648  1.0000
  C   C1340     1.0  0.35497  0.81842  0.45824  1.0000
  H   H1060     1.0  0.33533  0.65596  0.94800  1.0000
  C   C1341     1.0  0.61676  0.78640  0.45880  1.0000
  C   C1342     1.0  0.38142  0.68425  0.45972  1.0000
  C   C1343     1.0  0.58422  0.54368  0.45956  1.0000
  H   H1061     1.0  0.35036  0.83223  0.95197  1.0000
  H   H1062     1.0  0.65953  0.85130  0.81961  1.0000
  H   H1063     1.0  0.65444  0.80278  0.49746  1.0000
  H   H1064     1.0  0.41115  0.65387  0.45975  1.0000
  H   H1065     1.0  0.59143  0.65093  0.45494  1.0000
  Fe  Fe79      1.0  0.50492  0.56973  0.45436  1.0000
  H   H1066     1.0  0.33362  0.50124  0.89486  1.0000
  C   C1344     1.0  0.58661  0.87051  0.95379  1.0000
  H   H1067     1.0  0.56947  0.52905  0.45469  1.0000
  C   C1345     1.0  0.63897  0.48444  0.45561  1.0000
  H   H1068     1.0  0.65579  0.49764  0.45685  1.0000
  C   C1346     1.0  0.66338  0.94161  0.95393  1.0000
  C   C1347     1.0  0.79125  0.19615  0.39762  1.0000
  H   H1069     1.0  0.74034  0.02348  0.96099  1.0000
  S   S160      1.0  0.74521  0.08153  0.40458  1.0000
  C   C1348     1.0  0.83092  0.11152  0.96232  1.0000
  H   H1070     1.0  0.92602  0.17533  0.41746  1.0000
  S   S161      1.0  0.74358  0.14371  0.41244  1.0000
  Fe  Fe80      1.0  0.71294  0.11239  0.40754  1.0000
  C   C1349     1.0  0.69711  0.40612  0.97656  1.0000
  Fe  Fe81      1.0  0.77568  0.11328  0.41290  1.0000
  S   S162      1.0  0.81071  0.12963  0.38886  1.0000
  Fe  Fe82      1.0  0.95863  0.15614  0.07618  1.0000
  S   S163      1.0  0.92887  0.13056  0.05473  1.0000
  S   S164      1.0  0.95083  0.18490  0.10747  1.0000
  H   H1071     1.0  0.76224  0.21716  0.96404  1.0000
  H   H1072     1.0  0.86376  0.20825  0.01185  1.0000
  C   C1350     1.0  0.72876  0.43832  0.99206  1.0000
  H   H1073     1.0  0.76719  0.23779  0.02705  1.0000
  H   H1074     1.0  0.94227  0.17568  0.01495  1.0000
  C   C1351     1.0  0.98887  0.16153  0.24607  1.0000
  Fe  Fe83      1.0  0.96940  0.14662  0.36024  1.0000
  S   S165      1.0  0.93700  0.11745  0.37266  1.0000
  S   S166      1.0  0.96129  0.18840  0.35019  1.0000
  Fe  Fe84      1.0  0.70827  0.11277  0.03377  1.0000
  S   S167      1.0  0.70399  0.08789  0.99869  1.0000
  H   H1075     1.0  0.70067  0.21232  0.41413  1.0000
  Fe  Fe85      1.0  0.76995  0.11617  0.02812  1.0000
  S   S168      1.0  0.77020  0.09133  0.99271  1.0000
  S   S169      1.0  0.80227  0.14086  0.04718  1.0000
  Fe  Fe86      1.0  0.73428  0.11482  0.98059  1.0000
  H   H1076     1.0  0.73981  0.45627  0.98925  1.0000
  Fe  Fe87      1.0  0.74001  0.06606  0.01326  1.0000
  S   S170      1.0  0.74192  0.02158  0.01715  1.0000
  S   S171      1.0  0.73595  0.14103  0.01442  1.0000
  S   S172      1.0  0.74238  0.08944  0.04990  1.0000
  C   C1352     1.0  0.89384  0.13475  0.05167  1.0000
  C   C1353     1.0  0.88022  0.15511  0.06365  1.0000
  C   C1354     1.0  0.85222  0.15684  0.06173  1.0000
  C   C1355     1.0  0.83757  0.13834  0.04779  1.0000
  C   C1356     1.0  0.85122  0.11830  0.03538  1.0000
  C   C1357     1.0  0.87921  0.11652  0.03737  1.0000
  H   H1077     1.0  0.89122  0.16922  0.07474  1.0000
  H   H1078     1.0  0.84181  0.17240  0.07139  1.0000
  H   H1079     1.0  0.84020  0.10401  0.02455  1.0000
  H   H1080     1.0  0.88959  0.10072  0.02804  1.0000
  C   C1358     1.0  0.89629  0.17208  0.96728  1.0000
  P   P48       1.0  0.84415  0.19047  0.96188  1.0000
  H   H1081     1.0  0.99003  0.22574  0.23017  1.0000
  C   C1359     1.0  0.71139  0.42945  0.97309  1.0000
  H   H1082     1.0  0.96683  0.43878  0.43548  1.0000
  H   H1083     1.0  0.99481  0.08878  0.25395  1.0000
  C   C1360     1.0  0.84624  0.12691  0.38715  1.0000
  C   C1361     1.0  0.86087  0.14690  0.37495  1.0000
  C   C1362     1.0  0.88872  0.14482  0.37124  1.0000
  C   C1363     1.0  0.90232  0.12236  0.37911  1.0000
  C   C1364     1.0  0.88776  0.10250  0.39156  1.0000
  C   C1365     1.0  0.85999  0.10486  0.39584  1.0000
  H   H1084     1.0  0.85052  0.16394  0.36787  1.0000
  H   H1085     1.0  0.89955  0.16032  0.36175  1.0000
  H   H1086     1.0  0.89799  0.08499  0.39768  1.0000
  H   H1087     1.0  0.84911  0.08917  0.40498  1.0000
  H   H1088     1.0  0.97704  0.35829  0.41620  1.0000
  S   S173      1.0  0.67714  0.13489  0.05707  1.0000
  C   C1366     1.0  0.74004  0.99719  0.99313  1.0000
  C   C1367     1.0  0.92733  0.33834  0.00673  1.0000
  C   C1368     1.0  0.93685  0.41264  0.45092  1.0000
  C   C1369     1.0  0.98948  0.30290  0.02153  1.0000
  H   H1089     1.0  0.99132  0.24560  0.95770  1.0000
  C   C1370     1.0  0.67957  0.17843  0.42711  1.0000
  C   C1371     1.0  0.81213  0.20386  0.43886  1.0000
  H   H1090     1.0  0.83166  0.18615  0.40629  1.0000
  H   H1091     1.0  0.79309  0.26506  0.99638  1.0000
  C   C1372     1.0  0.81355  0.19489  0.41357  1.0000
  C   C1373     1.0  0.90198  0.44957  0.96944  1.0000
  C   C1374     1.0  0.84105  0.13629  0.96766  1.0000
  H   H1092     1.0  0.93022  0.19992  0.23400  1.0000
  C   C1375     1.0  0.90213  0.43112  0.98916  1.0000
  C   C1376     1.0  0.68124  0.20376  0.41749  1.0000
  H   H1093     1.0  0.95896  0.29957  0.05042  1.0000
  C   C1377     1.0  0.91241  0.21279  0.40422  1.0000
  H   H1094     1.0  0.83473  0.40482  0.43401  1.0000
  C   C1378     1.0  0.86368  0.11439  0.20459  1.0000
  C   C1379     1.0  0.87250  0.09102  0.19391  1.0000
  C   C1380     1.0  0.88975  0.07481  0.20769  1.0000
  C   C1381     1.0  0.89869  0.08224  0.23192  1.0000
  C   C1382     1.0  0.89088  0.10627  0.24225  1.0000
  C   C1383     1.0  0.87264  0.12190  0.22877  1.0000
  P   P49       1.0  0.90255  0.11635  0.27330  1.0000
  C   C1384     1.0  0.87695  0.10737  0.29602  1.0000
  C   C1385     1.0  0.93439  0.10197  0.28107  1.0000
  C   C1386     1.0  0.95421  0.09980  0.26222  1.0000
  H   H1095     1.0  0.70905  0.44083  0.95574  1.0000
  C   C1387     1.0  0.89260  0.23186  0.40601  1.0000
  C   C1388     1.0  0.84394  0.32940  0.96595  1.0000
  C   C1389     1.0  0.94053  0.09525  0.30642  1.0000
  C   C1390     1.0  0.85714  0.12533  0.30307  1.0000
  C   C1391     1.0  0.83767  0.11838  0.32103  1.0000
  C   C1392     1.0  0.83761  0.09341  0.33180  1.0000
  C   C1393     1.0  0.85676  0.07520  0.32432  1.0000
  C   C1394     1.0  0.87618  0.08203  0.30627  1.0000
  C   C1395     1.0  0.90938  0.15084  0.27344  1.0000
  C   C1396     1.0  0.90918  0.16459  0.29656  1.0000
  H   H1096     1.0  0.72012  0.38986  0.03589  1.0000
  H   H1097     1.0  0.80813  0.16957  0.00093  1.0000
  C   C1397     1.0  0.92350  0.19024  0.25130  1.0000
  C   C1398     1.0  0.91722  0.16370  0.25089  1.0000
  H   H1098     1.0  0.85006  0.12679  0.19406  1.0000
  H   H1099     1.0  0.86595  0.08546  0.17498  1.0000
  H   H1100     1.0  0.89637  0.05656  0.19952  1.0000
  H   H1101     1.0  0.91186  0.06935  0.24243  1.0000
  H   H1102     1.0  0.86563  0.14006  0.23684  1.0000
  H   H1103     1.0  0.95037  0.10621  0.24282  1.0000
  C   C1399     1.0  0.71769  0.40089  0.01832  1.0000
  H   H1104     1.0  0.83111  0.14989  0.43744  1.0000
  C   C1400     1.0  0.84453  0.41334  0.45041  1.0000
  H   H1105     1.0  0.92623  0.09826  0.32164  1.0000
  H   H1106     1.0  0.85686  0.14479  0.29503  1.0000
  H   H1107     1.0  0.82295  0.13249  0.32724  1.0000
  H   H1108     1.0  0.82294  0.08839  0.34628  1.0000
  H   H1109     1.0  0.85678  0.05593  0.33289  1.0000
  H   H1110     1.0  0.89089  0.06767  0.30072  1.0000
  H   H1111     1.0  0.90479  0.15469  0.31441  1.0000
  H   H1112     1.0  0.68491  0.16563  0.28734  1.0000
  S   S174      1.0  0.68029  0.12344  0.37844  1.0000
  C   C1401     1.0  0.87574  0.18694  0.97826  1.0000
  H   H1113     1.0  0.91935  0.15320  0.23311  1.0000
  C   C1402     1.0  0.92516  0.28503  0.45123  1.0000
  H   H1114     1.0  0.92905  0.21539  0.39119  1.0000
  H   H1115     1.0  0.75253  0.17070  0.97201  1.0000
  S   S175      1.0  0.96977  0.25229  0.07852  1.0000
  H   H1116     1.0  0.92400  0.29657  0.43388  1.0000
  Fe  Fe88      1.0  0.98708  0.16823  0.12715  1.0000
  C   C1403     1.0  0.73192  0.42404  0.01466  1.0000
  H   H1117     1.0  0.89377  0.24915  0.39410  1.0000
  C   C1404     1.0  0.73924  0.97078  0.00058  1.0000
  S   S176      1.0  0.98802  0.22299  0.41194  1.0000
  H   H1118     1.0  0.71096  0.20654  0.00340  1.0000
  C   C1405     1.0  0.90366  0.19403  0.01553  1.0000
  H   H1119     1.0  0.68948  0.37400  0.00269  1.0000
  H   H1120     1.0  0.70314  0.24977  0.44371  1.0000
  C   C1406     1.0  0.70032  0.39193  0.99938  1.0000
  S   S177      1.0  0.98539  0.15285  0.16853  1.0000
  H   H1121     1.0  0.91556  0.20164  0.31477  1.0000
  C   C1407     1.0  0.87176  0.41925  0.44934  1.0000
  C   C1408     1.0  0.97946  0.09005  0.26848  1.0000
  C   C1409     1.0  0.92032  0.16830  0.98036  1.0000
  Fe  Fe89      1.0  0.74118  0.07845  0.44773  1.0000
  S   S178      1.0  0.99297  0.13730  0.09691  1.0000
  H   H1122     1.0  0.74984  0.20666  0.39454  1.0000
  H   H1123     1.0  0.88278  0.41537  0.43196  1.0000
  C   C1410     1.0  0.91544  0.19115  0.29687  1.0000
  C   C1411     1.0  0.96549  0.37348  0.42541  1.0000
  H   H1124     1.0  0.73926  0.96582  0.02070  1.0000
  C   C1412     1.0  0.98670  0.26755  0.05289  1.0000
  H   H1125     1.0  0.97032  0.08064  0.33235  1.0000
  H   H1126     1.0  0.92346  0.45484  0.41576  1.0000
  C   C1413     1.0  0.76572  0.21565  0.43172  1.0000
  H   H1127     1.0  0.69402  0.25206  0.00302  1.0000
  H   H1128     1.0  0.93904  0.38505  0.05124  1.0000
  C   C1414     1.0  0.93390  0.25925  0.45015  1.0000
  C   C1415     1.0  0.93720  0.28435  0.96712  1.0000
  C   C1416     1.0  0.68053  0.23608  0.00717  1.0000
  C   C1417     1.0  0.96484  0.24314  0.99003  1.0000
  H   H1129     1.0  0.92690  0.30029  0.95772  1.0000
  C   C1418     1.0  0.98716  0.16734  0.19941  1.0000
  C   C1419     1.0  0.98935  0.20482  0.22778  1.0000
  C   C1420     1.0  0.78199  0.22892  0.01476  1.0000
  C   C1421     1.0  0.81985  0.20565  0.98252  1.0000
  H   H1130     1.0  0.83795  0.09476  0.97304  1.0000
  H   H1131     1.0  0.91180  0.35456  0.07744  1.0000
  H   H1132     1.0  0.77510  0.18999  0.02921  1.0000
  H   H1133     1.0  0.94002  0.25102  0.43205  1.0000
  H   H1134     1.0  0.97592  0.22760  0.99927  1.0000
  C   C1422     1.0  0.93672  0.36154  0.01738  1.0000
  C   C1423     1.0  0.91089  0.19035  0.41933  1.0000
  H   H1135     1.0  0.69747  0.16762  0.43151  1.0000
  H   H1136     1.0  0.93595  0.15644  0.97211  1.0000
  C   C1424     1.0  0.97668  0.29085  0.04243  1.0000
  C   C1425     1.0  0.88604  0.10480  0.10818  1.0000
  C   C1426     1.0  0.88877  0.12807  0.12165  1.0000
  C   C1427     1.0  0.86696  0.13835  0.13484  1.0000
  C   C1428     1.0  0.84238  0.12539  0.13450  1.0000
  C   C1429     1.0  0.83932  0.10228  0.12053  1.0000
  C   C1430     1.0  0.86150  0.09183  0.10773  1.0000
  P   P50       1.0  0.80845  0.08421  0.12254  1.0000
  C   C1431     1.0  0.80931  0.06854  0.15341  1.0000
  C   C1432     1.0  0.77926  0.10439  0.11859  1.0000
  C   C1433     1.0  0.78117  0.12924  0.10743  1.0000
  C   C1434     1.0  0.75809  0.14336  0.10153  1.0000
  C   C1435     1.0  0.73295  0.13278  0.10668  1.0000
  C   C1436     1.0  0.73087  0.10807  0.11786  1.0000
  C   C1437     1.0  0.75392  0.09385  0.12369  1.0000
  C   C1438     1.0  0.79532  0.07913  0.17416  1.0000
  C   C1439     1.0  0.79752  0.06782  0.19846  1.0000
  C   C1440     1.0  0.81384  0.04605  0.20222  1.0000
  C   C1441     1.0  0.82809  0.03563  0.18170  1.0000
  C   C1442     1.0  0.82601  0.04694  0.15740  1.0000
  C   C1443     1.0  0.80563  0.06108  0.09685  1.0000
  C   C1444     1.0  0.81113  0.06917  0.07176  1.0000
  C   C1445     1.0  0.80750  0.05209  0.05134  1.0000
  C   C1446     1.0  0.79797  0.02689  0.05582  1.0000
  C   C1447     1.0  0.79181  0.01886  0.08069  1.0000
  C   C1448     1.0  0.79544  0.03593  0.10117  1.0000
  H   H1137     1.0  0.90294  0.09709  0.09767  1.0000
  H   H1138     1.0  0.90778  0.13820  0.12157  1.0000
  H   H1139     1.0  0.86920  0.15641  0.14526  1.0000
  H   H1140     1.0  0.82576  0.13337  0.14514  1.0000
  H   H1141     1.0  0.86003  0.07369  0.09737  1.0000
  H   H1142     1.0  0.80033  0.13727  0.10201  1.0000
  H   H1143     1.0  0.75973  0.16201  0.09186  1.0000
  H   H1144     1.0  0.71506  0.14332  0.10121  1.0000
  H   H1145     1.0  0.71133  0.09959  0.12103  1.0000
  H   H1146     1.0  0.75194  0.07427  0.13127  1.0000
  H   H1147     1.0  0.78297  0.09628  0.17171  1.0000
  H   H1148     1.0  0.78665  0.07602  0.21444  1.0000
  H   H1149     1.0  0.88852  0.16901  0.44713  1.0000
  H   H1150     1.0  0.84090  0.01886  0.18466  1.0000
  H   H1151     1.0  0.83760  0.03900  0.14177  1.0000
  H   H1152     1.0  0.81765  0.08891  0.06796  1.0000
  H   H1153     1.0  0.81134  0.05861  0.03196  1.0000
  H   H1154     1.0  0.79453  0.01387  0.03990  1.0000
  C   C1449     1.0  0.87121  0.28194  0.96313  1.0000
  H   H1155     1.0  0.78961  0.02965  0.12013  1.0000
  C   C1450     1.0  0.89143  0.24519  0.07153  1.0000
  C   C1451     1.0  0.86551  0.23558  0.06897  1.0000
  C   C1452     1.0  0.84988  0.24332  0.04817  1.0000
  C   C1453     1.0  0.86043  0.26011  0.02951  1.0000
  C   C1454     1.0  0.88668  0.26938  0.03166  1.0000
  C   C1455     1.0  0.90181  0.26224  0.05314  1.0000
  P   P51       1.0  0.90100  0.29047  0.00736  1.0000
  C   C1456     1.0  0.92870  0.27486  0.99106  1.0000
  C   C1457     1.0  0.87622  0.29885  0.98360  1.0000
  C   C1458     1.0  0.98776  0.19433  0.20292  1.0000
  C   C1459     1.0  0.96569  0.08534  0.31260  1.0000
  H   H1156     1.0  0.74537  0.43095  0.02937  1.0000
  H   H1157     1.0  0.82671  0.24486  0.96847  1.0000
  C   C1460     1.0  0.86219  0.32251  0.98505  1.0000
  C   C1461     1.0  0.99464  0.45715  0.96183  1.0000
  Fe  Fe90      1.0  0.99343  0.18381  0.32006  1.0000
  H   H1158     1.0  0.88177  0.26359  0.96159  1.0000
  S   S179      1.0  0.98578  0.18275  0.05408  1.0000
  C   C1462     1.0  0.94248  0.25375  0.00212  1.0000
  C   C1463     1.0  0.91263  0.32054  0.02154  1.0000
  C   C1464     1.0  0.90649  0.32692  0.04698  1.0000
  C   C1465     1.0  0.91602  0.35009  0.05764  1.0000
  C   C1466     1.0  0.93128  0.36731  0.04289  1.0000
  C   C1467     1.0  0.98516  0.08270  0.29365  1.0000
  H   H1159     1.0  0.98690  0.20712  0.18648  1.0000
  H   H1160     1.0  0.90373  0.23936  0.08764  1.0000
  H   H1161     1.0  0.85758  0.22212  0.08309  1.0000
  H   H1162     1.0  0.82980  0.23579  0.04623  1.0000
  H   H1163     1.0  0.84815  0.26562  0.01343  1.0000
  H   H1164     1.0  0.92181  0.26973  0.05561  1.0000
  H   H1165     1.0  0.98721  0.13015  0.21869  1.0000
  C   C1468     1.0  0.87138  0.22861  0.42311  1.0000
  C   C1469     1.0  0.81562  0.23270  0.98164  1.0000
  H   H1166     1.0  0.85561  0.13819  0.98280  1.0000
  H   H1167     1.0  0.86559  0.33588  0.00064  1.0000
  H   H1168     1.0  0.79231  0.18807  0.37854  1.0000
  C   C1470     1.0  0.73985  0.00329  0.96704  1.0000
  C   C1471     1.0  0.66917  0.36043  0.95546  1.0000
  H   H1169     1.0  0.93173  0.33427  0.98697  1.0000
  H   H1170     1.0  0.93682  0.24570  0.02038  1.0000
  H   H1171     1.0  0.78350  0.99962  0.08391  1.0000
  H   H1172     1.0  0.90044  0.42491  0.02984  1.0000
  H   H1173     1.0  0.90397  0.41058  0.98470  1.0000
  H   H1174     1.0  0.75714  0.00780  0.43400  1.0000
  H   H1175     1.0  0.94859  0.37488  0.00590  1.0000
  H   H1176     1.0  0.92865  0.22424  0.27472  1.0000
  C   C1472     1.0  0.79663  0.24425  0.99760  1.0000
  H   H1177     1.0  0.98163  0.32071  0.01342  1.0000
  C   C1473     1.0  0.92262  0.20396  0.27427  1.0000
  C   C1474     1.0  0.78634  0.20204  0.01594  1.0000
  H   H1178     1.0  0.90637  0.20191  0.03452  1.0000
  C   C1475     1.0  0.69012  0.21053  0.00747  1.0000
  C   C1476     1.0  0.95954  0.41896  0.43636  1.0000
  Fe  Fe91      1.0  0.98058  0.21029  0.08663  1.0000
  C   C1477     1.0  0.97352  0.25325  0.96665  1.0000
  C   C1478     1.0  0.90026  0.43922  0.01456  1.0000
  C   C1479     1.0  0.87957  0.19769  0.00256  1.0000
  H   H1179     1.0  0.98920  0.14876  0.26257  1.0000
  C   C1480     1.0  0.98766  0.15104  0.22117  1.0000
  H   H1180     1.0  0.83364  0.34794  0.96673  1.0000
  H   H1181     1.0  0.81555  0.03735  0.22107  1.0000
  C   C1481     1.0  0.92398  0.17926  0.00448  1.0000
  C   C1482     1.0  0.80516  0.19045  0.99986  1.0000
  C   C1483     1.0  0.76733  0.20656  0.40666  1.0000
  C   C1484     1.0  0.94341  0.36693  0.44045  1.0000
  C   C1485     1.0  0.97356  0.39949  0.42340  1.0000
  H   H1182     1.0  0.89454  0.31411  0.05878  1.0000
  H   H1183     1.0  0.85593  0.24335  0.42400  1.0000
  S   S180      1.0  0.99178  0.20303  0.28038  1.0000
  C   C1486     1.0  0.75340  0.99636  0.45105  1.0000
  C   C1487     1.0  0.98987  0.18855  0.24953  1.0000
  S   S181      1.0  0.97316  0.35562  0.95508  1.0000
  H   H1184     1.0  0.93799  0.34666  0.44299  1.0000
  H   H1185     1.0  0.99131  0.40439  0.41255  1.0000
  Fe  Fe92      1.0  0.99480  0.19738  0.37734  1.0000
  H   H1186     1.0  0.68282  0.13565  0.97535  1.0000
  H   H1187     1.0  0.68057  0.17030  0.01455  1.0000
  C   C1488     1.0  0.67290  0.19001  0.01348  1.0000
  C   C1489     1.0  0.75890  0.96929  0.45132  1.0000
  H   H1188     1.0  0.74694  0.22272  0.43918  1.0000
  C   C1490     1.0  0.88964  0.18699  0.43639  1.0000
  C   C1491     1.0  0.78795  0.21428  0.44779  1.0000
  C   C1492     1.0  0.86985  0.20627  0.43867  1.0000
  S   S182      1.0  0.70727  0.10774  0.44982  1.0000
  C   C1493     1.0  0.92924  0.38637  0.45332  1.0000
  C   C1494     1.0  0.95950  0.27360  0.95506  1.0000
  C   C1495     1.0  0.83190  0.15825  0.95404  1.0000
  C   C1496     1.0  0.74704  0.17943  0.95400  1.0000
  C   C1497     1.0  0.70487  0.24132  0.70294  1.0000
  Fe  Fe93      1.0  0.97129  0.33985  0.91513  1.0000
  S   S183      1.0  0.93658  0.31534  0.89979  1.0000
  Fe  Fe94      1.0  0.76303  0.26195  0.59197  1.0000
  S   S184      1.0  0.77145  0.29345  0.56313  1.0000
  S   S185      1.0  0.76815  0.21905  0.58270  1.0000
  Fe  Fe95      1.0  0.75105  0.30037  0.63537  1.0000
  S   S186      1.0  0.75822  0.33454  0.60894  1.0000
  S   S187      1.0  0.73748  0.31141  0.67587  1.0000
  Fe  Fe96      1.0  0.73436  0.31227  0.57969  1.0000
  S   S188      1.0  0.70364  0.33158  0.55307  1.0000
  Fe  Fe97      1.0  0.79448  0.31281  0.59481  1.0000
  S   S189      1.0  0.83638  0.33098  0.59663  1.0000
  S   S190      1.0  0.72485  0.27955  0.60685  1.0000
  S   S191      1.0  0.78838  0.27983  0.62285  1.0000
  Fe  Fe98      1.0  0.78245  0.32291  0.86575  1.0000
  S   S192      1.0  0.78621  0.28046  0.85702  1.0000
  S   S193      1.0  0.81695  0.35042  0.87461  1.0000
  Fe  Fe99      1.0  0.72078  0.32062  0.86398  1.0000
  S   S194      1.0  0.72035  0.27775  0.85506  1.0000
  S   S195      1.0  0.68534  0.34780  0.86936  1.0000
  Fe  Fe100     1.0  0.75258  0.27463  0.88493  1.0000
  S   S196      1.0  0.75622  0.25018  0.92098  1.0000
  Fe  Fe101     1.0  0.75390  0.28743  0.82760  1.0000
  S   S197      1.0  0.75897  0.26783  0.78875  1.0000
  S   S198      1.0  0.75074  0.31697  0.89544  1.0000
  S   S199      1.0  0.75223  0.33049  0.83463  1.0000
  Fe  Fe102     1.0  0.97819  0.35927  0.52013  1.0000
  C   C1498     1.0  0.96561  0.45168  0.53267  1.0000
  S   S200      1.0  0.93382  0.34762  0.51896  1.0000
  H   H1189     1.0  0.89080  0.28706  0.88274  1.0000
  C   C1499     1.0  0.92171  0.16384  0.49823  1.0000
  H   H1190     1.0  0.84400  0.29989  0.87285  1.0000
  H   H1191     1.0  0.81828  0.03608  0.90264  1.0000
  C   C1500     1.0  0.69474  0.18942  0.84430  1.0000
  C   C1501     1.0  0.73849  0.99312  0.49478  1.0000
  S   S201      1.0  0.73235  0.17688  0.47403  1.0000
  S   S202      1.0  0.72763  0.13114  0.94055  1.0000
  H   H1192     1.0  0.80276  0.17148  0.92616  1.0000
  C   C1502     1.0  0.85725  0.34800  0.71225  1.0000
  H   H1193     1.0  0.96617  0.28148  0.93689  1.0000
  H   H1194     1.0  0.75855  0.39141  0.80428  1.0000
  H   H1195     1.0  0.72144  0.41601  0.85489  1.0000
  H   H1196     1.0  0.86275  0.37897  0.89220  1.0000
  H   H1197     1.0  0.93291  0.39804  0.55466  1.0000
  H   H1198     1.0  0.85516  0.18090  0.51048  1.0000
  H   H1199     1.0  0.92236  0.28149  0.55937  1.0000
  H   H1200     1.0  0.69336  0.24350  0.95028  1.0000
  C   C1503     1.0  0.74713  0.21728  0.92566  1.0000
  C   C1504     1.0  0.73475  0.20245  0.90674  1.0000
  H   H1201     1.0  0.83123  0.43362  0.51091  1.0000
  P   P52       1.0  0.66793  0.23231  0.78336  1.0000
  H   H1202     1.0  0.68228  0.98818  0.47771  1.0000
  H   H1203     1.0  0.72995  0.21141  0.88860  1.0000
  H   H1204     1.0  0.80436  0.23832  0.53924  1.0000
  H   H1205     1.0  0.69893  0.19696  0.75103  1.0000
  C   C1505     1.0  0.75932  0.20750  0.55207  1.0000
  C   C1506     1.0  0.74857  0.22424  0.53364  1.0000
  C   C1507     1.0  0.74109  0.21451  0.50965  1.0000
  C   C1508     1.0  0.74435  0.18805  0.50374  1.0000
  C   C1509     1.0  0.75575  0.17136  0.52189  1.0000
  C   C1510     1.0  0.76316  0.18109  0.54602  1.0000
  H   H1206     1.0  0.74558  0.24462  0.53799  1.0000
  H   H1207     1.0  0.73249  0.22754  0.49567  1.0000
  H   H1208     1.0  0.75835  0.15092  0.51753  1.0000
  H   H1209     1.0  0.77160  0.16803  0.56015  1.0000
  C   C1511     1.0  0.86301  0.33570  0.57450  1.0000
  C   C1512     1.0  0.86015  0.33142  0.54827  1.0000
  C   C1513     1.0  0.88203  0.33530  0.53166  1.0000
  C   C1514     1.0  0.90711  0.34313  0.54102  1.0000
  C   C1515     1.0  0.91005  0.34715  0.56727  1.0000
  C   C1516     1.0  0.88806  0.34372  0.58383  1.0000
  H   H1210     1.0  0.84099  0.32554  0.54077  1.0000
  H   H1211     1.0  0.87943  0.33234  0.51138  1.0000
  H   H1212     1.0  0.92920  0.35300  0.57482  1.0000
  H   H1213     1.0  0.89052  0.34705  0.60408  1.0000
  C   C1517     1.0  0.74585  0.29985  0.70702  1.0000
  C   C1518     1.0  0.75953  0.27642  0.71113  1.0000
  C   C1519     1.0  0.76373  0.26714  0.73628  1.0000
  C   C1520     1.0  0.75478  0.28133  0.75760  1.0000
  C   C1521     1.0  0.74180  0.30510  0.75350  1.0000
  C   C1522     1.0  0.73719  0.31415  0.72837  1.0000
  H   H1214     1.0  0.76625  0.26514  0.69496  1.0000
  H   H1215     1.0  0.77379  0.24872  0.73922  1.0000
  H   H1216     1.0  0.73485  0.31627  0.76965  1.0000
  H   H1217     1.0  0.72658  0.33228  0.72543  1.0000
  C   C1523     1.0  0.90336  0.32563  0.89334  1.0000
  C   C1524     1.0  0.89524  0.35156  0.89604  1.0000
  C   C1525     1.0  0.86875  0.35883  0.89022  1.0000
  C   C1526     1.0  0.85005  0.34028  0.88184  1.0000
  C   C1527     1.0  0.85813  0.31432  0.87931  1.0000
  C   C1528     1.0  0.88465  0.30710  0.88496  1.0000
  H   H1218     1.0  0.90942  0.36605  0.90239  1.0000
  C   C1529     1.0  0.86682  0.22954  0.56841  1.0000
  C   C1530     1.0  0.86608  0.25274  0.58221  1.0000
  C   C1531     1.0  0.88628  0.27119  0.57895  1.0000
  C   C1532     1.0  0.90707  0.26670  0.56168  1.0000
  C   C1533     1.0  0.90815  0.24332  0.54781  1.0000
  C   C1534     1.0  0.88769  0.22483  0.55124  1.0000
  P   P53       1.0  0.93537  0.23742  0.52569  1.0000
  C   C1535     1.0  0.92992  0.25541  0.49634  1.0000
  H   H1219     1.0  0.69224  0.32280  0.80499  1.0000
  C   C1536     1.0  0.83939  0.31267  0.94544  1.0000
  C   C1537     1.0  0.94225  0.14927  0.50925  1.0000
  C   C1538     1.0  0.71649  0.39776  0.91729  1.0000
  C   C1539     1.0  0.92158  0.28150  0.49724  1.0000
  C   C1540     1.0  0.93808  0.20287  0.51932  1.0000
  H   H1220     1.0  0.73901  0.98810  0.92861  1.0000
  H   H1221     1.0  0.75467  0.20039  0.81551  1.0000
  C   C1541     1.0  0.73483  0.16442  0.93516  1.0000
  C   C1542     1.0  0.93425  0.43585  0.50092  1.0000
  H   H1222     1.0  0.85094  0.21536  0.57081  1.0000
  H   H1223     1.0  0.84973  0.25657  0.59528  1.0000
  H   H1224     1.0  0.88570  0.28907  0.58983  1.0000
  H   H1225     1.0  0.88761  0.20675  0.54084  1.0000
  H   H1226     1.0  0.68716  0.18946  0.51944  1.0000
  H   H1227     1.0  0.83513  0.10556  0.45467  1.0000
  Fe  Fe103     1.0  0.99596  0.38934  0.93751  1.0000
  C   C1543     1.0  0.85026  0.16476  0.49816  1.0000
  H   H1228     1.0  0.91767  0.29090  0.51528  1.0000
  C   C1544     1.0  0.91898  0.29614  0.47478  1.0000
  H   H1229     1.0  0.87773  0.97716  0.91465  1.0000
  C   C1545     1.0  0.73328  0.20060  0.81856  1.0000
  H   H1230     1.0  0.66643  0.30109  0.58480  1.0000
  S   S203      1.0  0.98185  0.43147  0.94265  1.0000
  H   H1231     1.0  0.70733  0.22181  0.59246  1.0000
  H   H1232     1.0  0.97306  0.19683  0.54305  1.0000
  H   H1233     1.0  0.70026  0.27957  0.78593  1.0000
  H   H1234     1.0  0.73099  0.00237  0.51183  1.0000
  C   C1546     1.0  0.85209  0.13941  0.50800  1.0000
  C   C1547     1.0  0.71682  0.21384  0.80132  1.0000
  H   H1235     1.0  0.67443  0.37850  0.57912  1.0000
  C   C1548     1.0  0.71030  0.27681  0.47419  1.0000
  C   C1549     1.0  0.85701  0.98302  0.91533  1.0000
  H   H1236     1.0  0.72539  0.28766  0.46381  1.0000
  H   H1237     1.0  0.94444  0.22497  0.47108  1.0000
  H   H1238     1.0  0.83391  0.33920  0.65170  1.0000
  H   H1239     1.0  0.72585  0.22372  0.78517  1.0000
  C   C1550     1.0  0.67933  0.25926  0.73800  1.0000
  H   H1240     1.0  0.87290  0.35838  0.72209  1.0000
  C   C1551     1.0  0.72808  0.40275  0.89345  1.0000
  H   H1241     1.0  0.68632  0.18032  0.86122  1.0000
  H   H1242     1.0  0.91237  0.40118  0.51211  1.0000
  C   C1552     1.0  0.69773  0.25547  0.46287  1.0000
  H   H1243     1.0  0.69205  0.30232  0.93315  1.0000
  H   H1244     1.0  0.80787  0.20527  0.50532  1.0000
  C   C1553     1.0  0.85294  0.28895  0.94411  1.0000
  H   H1245     1.0  0.84961  0.27627  0.92799  1.0000
  C   C1554     1.0  0.81740  0.32137  0.68552  1.0000
  C   C1555     1.0  0.83487  0.26301  0.52340  1.0000
  H   H1246     1.0  0.67945  0.27588  0.53195  1.0000
  H   H1247     1.0  0.90364  0.20162  0.49434  1.0000
  C   C1556     1.0  0.77395  0.37937  0.79588  1.0000
  H   H1248     1.0  0.95470  0.24243  0.57871  1.0000
  C   C1557     1.0  0.87342  0.21639  0.92344  1.0000
  H   H1249     1.0  0.86619  0.28340  0.50378  1.0000
  C   C1558     1.0  0.81020  0.97308  0.92176  1.0000
  C   C1559     1.0  0.75286  0.20575  0.94934  1.0000
  C   C1560     1.0  0.66959  0.15579  0.50289  1.0000
  C   C1561     1.0  0.67184  0.24826  0.50155  1.0000
  C   C1562     1.0  0.82354  0.01634  0.90812  1.0000
  C   C1563     1.0  0.68921  0.40264  0.92135  1.0000
  C   C1564     1.0  0.68915  0.21463  0.80520  1.0000
  H   H1250     1.0  0.67219  0.25088  0.87112  1.0000
  H   H1251     1.0  0.84790  0.09840  0.49994  1.0000
  C   C1565     1.0  0.92685  0.41572  0.51776  1.0000
  C   C1566     1.0  0.95856  0.18798  0.53048  1.0000
  C   C1567     1.0  0.83693  0.14737  0.45718  1.0000
  C   C1568     1.0  0.84234  0.16897  0.47270  1.0000
  H   H1252     1.0  0.74892  0.39808  0.89018  1.0000
  H   H1253     1.0  0.69566  0.22023  0.54714  1.0000
  C   C1569     1.0  0.72223  0.18813  0.83987  1.0000
  C   C1570     1.0  0.68424  0.34259  0.94119  1.0000
  H   H1254     1.0  0.71966  0.98834  0.56376  1.0000
  C   C1571     1.0  0.83705  0.96530  0.92277  1.0000
  C   C1572     1.0  0.97030  0.24902  0.56589  1.0000
  C   C1573     1.0  0.67824  0.20279  0.82712  1.0000
  H   H1255     1.0  0.69871  0.34911  0.92721  1.0000
  H   H1256     1.0  0.80172  0.31129  0.67522  1.0000
  H   H1257     1.0  0.80890  0.41362  0.47354  1.0000
  C   C1574     1.0  0.96064  0.16132  0.52539  1.0000
  H   H1258     1.0  0.96734  0.43001  0.56795  1.0000
  H   H1259     1.0  0.97660  0.14998  0.53389  1.0000
  H   H1260     1.0  0.71903  0.20208  0.70816  1.0000
  H   H1261     1.0  0.72868  0.38942  0.93232  1.0000
  C   C1575     1.0  0.91961  0.19055  0.50316  1.0000
  H   H1262     1.0  0.80557  0.21560  0.92785  1.0000
  S   S204      1.0  0.77315  0.10885  0.45586  1.0000
  C   C1576     1.0  0.69660  0.21524  0.74086  1.0000
  C   C1577     1.0  0.66912  0.24196  0.88969  1.0000
  H   H1263     1.0  0.73511  0.17789  0.85318  1.0000
  H   H1264     1.0  0.90380  0.44326  0.94976  1.0000
  C   C1578     1.0  0.93636  0.24447  0.47254  1.0000
  C   C1579     1.0  0.70367  0.28395  0.49911  1.0000
  S   S205      1.0  0.99197  0.37421  0.89709  1.0000
  C   C1580     1.0  0.84634  0.24949  0.75804  1.0000
  C   C1581     1.0  0.83474  0.24179  0.78115  1.0000
  C   C1582     1.0  0.82479  0.26054  0.79788  1.0000
  C   C1583     1.0  0.82591  0.28701  0.79139  1.0000
  C   C1584     1.0  0.83707  0.29486  0.76800  1.0000
  C   C1585     1.0  0.84778  0.27593  0.75159  1.0000
  P   P54       1.0  0.84050  0.32899  0.76014  1.0000
  C   C1586     1.0  0.81368  0.34760  0.77439  1.0000
  C   C1587     1.0  0.87135  0.34122  0.77339  1.0000
  C   C1588     1.0  0.87620  0.36819  0.77364  1.0000
  C   C1589     1.0  0.89867  0.37816  0.78606  1.0000
  C   C1590     1.0  0.91635  0.36131  0.79852  1.0000
  C   C1591     1.0  0.91173  0.33446  0.79832  1.0000
  C   C1592     1.0  0.88938  0.32440  0.78576  1.0000
  C   C1593     1.0  0.79045  0.35365  0.76054  1.0000
  C   C1594     1.0  0.77067  0.36938  0.77131  1.0000
  C   C1595     1.0  0.79681  0.37321  0.80992  1.0000
  C   C1596     1.0  0.81644  0.35717  0.79939  1.0000
  C   C1597     1.0  0.83900  0.33231  0.72570  1.0000
  C   C1598     1.0  0.81931  0.31875  0.71204  1.0000
  H   H1265     1.0  0.85413  0.23497  0.74506  1.0000
  H   H1266     1.0  0.83330  0.22130  0.78604  1.0000
  H   H1267     1.0  0.81544  0.25450  0.81558  1.0000
  H   H1268     1.0  0.81774  0.30119  0.80450  1.0000
  H   H1269     1.0  0.85720  0.28154  0.73376  1.0000
  H   H1270     1.0  0.86220  0.38155  0.76478  1.0000
  H   H1271     1.0  0.90208  0.39901  0.78654  1.0000
  H   H1272     1.0  0.93342  0.36907  0.80869  1.0000
  H   H1273     1.0  0.92519  0.32149  0.80845  1.0000
  H   H1274     1.0  0.88597  0.30358  0.78641  1.0000
  H   H1275     1.0  0.78732  0.34638  0.74146  1.0000
  H   H1276     1.0  0.75274  0.37372  0.76054  1.0000
  H   H1277     1.0  0.79915  0.38043  0.82923  1.0000
  H   H1278     1.0  0.83375  0.35234  0.81088  1.0000
  H   H1279     1.0  0.80514  0.30640  0.72200  1.0000
  C   C1599     1.0  0.70781  0.21796  0.71649  1.0000
  C   C1600     1.0  0.80353  0.99858  0.91475  1.0000
  H   H1280     1.0  0.71406  0.24373  0.68430  1.0000
  C   C1601     1.0  0.85614  0.24746  0.48475  1.0000
  C   C1602     1.0  0.82088  0.22218  0.50468  1.0000
  C   C1603     1.0  0.81142  0.15503  0.93599  1.0000
  C   C1604     1.0  0.68278  0.23609  0.75206  1.0000
  H   H1281     1.0  0.85774  0.13627  0.52775  1.0000
  H   H1282     1.0  0.71350  0.30039  0.50802  1.0000
  C   C1605     1.0  0.68180  0.28309  0.79615  1.0000
  C   C1606     1.0  0.95788  0.43181  0.54943  1.0000
  H   H1283     1.0  0.67401  0.23660  0.62435  1.0000
  H   H1284     1.0  0.89143  0.21054  0.93320  1.0000
  C   C1607     1.0  0.73920  0.98319  0.94872  1.0000
  H   H1285     1.0  0.68759  0.14424  0.50521  1.0000
  H   H1286     1.0  0.83305  0.27747  0.53835  1.0000
  C   C1608     1.0  0.81867  0.24090  0.52389  1.0000
  H   H1287     1.0  0.86945  0.36255  0.67522  1.0000
  H   H1288     1.0  0.78572  0.22082  0.46722  1.0000
  C   C1609     1.0  0.83943  0.22543  0.48470  1.0000
  C   C1610     1.0  0.96647  0.24873  0.53929  1.0000
  C   C1611     1.0  0.82533  0.21916  0.92027  1.0000
  C   C1612     1.0  0.82781  0.23357  0.89771  1.0000
  C   C1613     1.0  0.85305  0.23942  0.88791  1.0000
  C   C1614     1.0  0.87585  0.23110  0.90095  1.0000
  C   C1615     1.0  0.69116  0.97082  0.53827  1.0000
  C   C1616     1.0  0.93851  0.41383  0.54196  1.0000
  C   C1617     1.0  0.95399  0.45360  0.50847  1.0000
  C   C1618     1.0  0.67386  0.41303  0.90133  1.0000
  C   C1619     1.0  0.74314  0.00851  0.47284  1.0000
  C   C1620     1.0  0.88464  0.43001  0.47064  1.0000
  H   H1289     1.0  0.70060  0.26359  0.90784  1.0000
  H   H1290     1.0  0.91301  0.31641  0.47584  1.0000
  C   C1621     1.0  0.80113  0.13026  0.93093  1.0000
  C   C1622     1.0  0.68556  0.41813  0.87753  1.0000
  C   C1623     1.0  0.71261  0.41287  0.87356  1.0000
  C   C1624     1.0  0.68721  0.22677  0.58649  1.0000
  H   H1291     1.0  0.80269  0.08939  0.94020  1.0000
  C   C1625     1.0  0.85026  0.00851  0.90824  1.0000
  C   C1626     1.0  0.83546  0.33718  0.67230  1.0000
  H   H1292     1.0  0.71892  0.16452  0.89698  1.0000
  C   C1627     1.0  0.66836  0.32709  0.55248  1.0000
  H   H1293     1.0  0.81001  0.24041  0.88811  1.0000
  H   H1294     1.0  0.85492  0.25085  0.87052  1.0000
  H   H1295     1.0  0.89546  0.23626  0.89373  1.0000
  C   C1628     1.0  0.72851  0.17605  0.91154  1.0000
  C   C1629     1.0  0.66846  0.23511  0.60441  1.0000
  H   H1296     1.0  0.86573  0.02215  0.90265  1.0000
  C   C1630     1.0  0.83931  0.12207  0.46691  1.0000
  C   C1631     1.0  0.85545  0.35039  0.68562  1.0000
  S   S206      1.0  0.73522  0.04253  0.47387  1.0000
  C   C1632     1.0  0.85364  0.26623  0.50393  1.0000
  H   H1297     1.0  0.82565  0.31826  0.93034  1.0000
  C   C1633     1.0  0.84660  0.11807  0.49237  1.0000
  P   P55       1.0  0.84119  0.20153  0.45931  1.0000
  H   H1298     1.0  0.66815  0.27543  0.74575  1.0000
  H   H1299     1.0  0.87909  0.44461  0.50907  1.0000
  C   C1634     1.0  0.67867  0.24111  0.47654  1.0000
  H   H1300     1.0  0.68865  0.28011  0.70318  1.0000
  C   C1635     1.0  0.86973  0.43565  0.49265  1.0000
  H   H1301     1.0  0.99725  0.24821  0.89598  1.0000
  H   H1302     1.0  0.90752  0.15433  0.48578  1.0000
  H   H1303     1.0  0.78279  0.00450  0.91437  1.0000
  H   H1304     1.0  0.87104  0.25039  0.47008  1.0000
  H   H1305     1.0  0.68641  0.98934  0.52951  1.0000
  C   C1636     1.0  0.84805  0.20985  0.93307  1.0000
  P   P56       1.0  0.91982  0.43731  0.46931  1.0000
  C   C1637     1.0  0.68038  0.22552  0.56066  1.0000
  H   H1306     1.0  0.67188  0.03383  0.46730  1.0000
  C   C1638     1.0  0.68487  0.24934  0.91042  1.0000
  H   H1307     1.0  0.94396  0.12863  0.50520  1.0000
  H   H1308     1.0  0.99026  0.25081  0.45823  1.0000
  H   H1309     1.0  0.78485  0.12805  0.91747  1.0000
  C   C1639     1.0  0.68042  0.31580  0.94444  1.0000
  C   C1640     1.0  0.69053  0.26189  0.71364  1.0000
  H   H1310     1.0  0.67167  0.16392  0.93909  1.0000
  C   C1641     1.0  0.68443  0.26985  0.51272  1.0000
  C   C1642     1.0  0.84254  0.42962  0.49370  1.0000
  C   C1643     1.0  0.82996  0.41837  0.47264  1.0000
  C   C1644     1.0  0.81108  0.10849  0.94385  1.0000
  H   H1311     1.0  0.68186  0.34966  0.61637  1.0000
  H   H1312     1.0  0.98513  0.25645  0.50268  1.0000
  H   H1313     1.0  0.67345  0.42533  0.86189  1.0000
  Fe  Fe104     1.0  0.73950  0.13781  0.45463  1.0000
  C   C1645     1.0  0.66922  0.18166  0.51109  1.0000
  S   S207      1.0  0.99071  0.38351  0.48604  1.0000
  C   C1646     1.0  0.68068  0.23804  0.93442  1.0000
  C   C1647     1.0  0.70994  0.97043  0.55801  1.0000
  C   C1648     1.0  0.67736  0.30757  0.80693  1.0000
  H   H1314     1.0  0.66949  0.22433  0.46769  1.0000
  C   C1649     1.0  0.98744  0.25666  0.52321  1.0000
  C   C1650     1.0  0.74385  0.96605  0.49501  1.0000
  H   H1315     1.0  0.91295  0.38075  0.46581  1.0000
  C   C1651     1.0  0.99435  0.25809  0.57618  1.0000
  H   H1316     1.0  0.99695  0.25888  0.59670  1.0000
  P   P57       1.0  0.67439  0.39517  0.95204  1.0000
  H   H1317     1.0  0.89353  0.16305  0.94881  1.0000
  H   H1318     1.0  0.70092  0.60284  0.32130  1.0000
  C   C1652     1.0  0.94918  0.50596  0.03267  1.0000
  H   H1319     1.0  0.67735  0.72007  0.07071  1.0000
  C   C1653     1.0  0.67249  0.62363  0.29818  1.0000
  C   C1654     1.0  0.81412  0.79877  0.01380  1.0000
  Fe  Fe105     1.0  0.97333  0.63414  0.42913  1.0000
  S   S208      1.0  0.93804  0.65786  0.41320  1.0000
  Fe  Fe106     1.0  0.75036  0.66040  0.12457  1.0000
  S   S209      1.0  0.75052  0.61825  0.11216  1.0000
  S   S210      1.0  0.75675  0.67683  0.16512  1.0000
  Fe  Fe107     1.0  0.74084  0.68029  0.06986  1.0000
  S   S211      1.0  0.74027  0.63958  0.05466  1.0000
  S   S212      1.0  0.73289  0.70613  0.03554  1.0000
  Fe  Fe108     1.0  0.71466  0.62947  0.08808  1.0000
  C   C1655     1.0  0.89894  0.46581  0.02027  1.0000
  Fe  Fe109     1.0  0.77625  0.63228  0.07913  1.0000
  S   S213      1.0  0.80856  0.61101  0.05616  1.0000
  S   S214      1.0  0.71300  0.67061  0.10229  1.0000
  S   S215      1.0  0.77826  0.67372  0.09261  1.0000
  Fe  Fe110     1.0  0.78142  0.64777  0.36894  1.0000
  S   S216      1.0  0.78064  0.67662  0.33619  1.0000
  S   S217      1.0  0.81661  0.62658  0.38820  1.0000
  Fe  Fe111     1.0  0.71918  0.64836  0.37438  1.0000
  S   S218      1.0  0.71442  0.67714  0.34220  1.0000
  H   H1320     1.0  0.70154  0.65985  0.17193  1.0000
  Fe  Fe112     1.0  0.74558  0.65369  0.32102  1.0000
  S   S219      1.0  0.73787  0.63757  0.28065  1.0000
  Fe  Fe113     1.0  0.74958  0.69771  0.35978  1.0000
  S   S220      1.0  0.74864  0.74161  0.36544  1.0000
  S   S221      1.0  0.74806  0.62330  0.35255  1.0000
  S   S222      1.0  0.75266  0.67040  0.39304  1.0000
  H   H1321     1.0  0.92998  0.66001  0.00301  1.0000
  S   S223      1.0  0.98905  0.64038  0.00943  1.0000
  C   C1656     1.0  0.99720  0.62198  0.10589  1.0000
  C   C1657     1.0  0.91735  0.79493  0.95990  1.0000
  C   C1658     1.0  0.97025  0.51031  0.04960  1.0000
  C   C1659     1.0  0.91441  0.80155  0.43613  1.0000
  Fe  Fe114     1.0  0.96785  0.60842  0.03043  1.0000
  S   S224      1.0  0.93555  0.62227  0.05822  1.0000
  S   S225      1.0  0.96686  0.58159  0.99652  1.0000
  S   S226      1.0  0.74393  0.82730  0.01305  1.0000
  H   H1322     1.0  0.92902  0.49839  0.39618  1.0000
  H   H1323     1.0  0.89408  0.68686  0.39197  1.0000
  C   C1660     1.0  0.82884  0.89559  0.96754  1.0000
  H   H1324     1.0  0.91406  0.56172  0.04330  1.0000
  H   H1325     1.0  0.78266  0.66907  0.01977  1.0000
  C   C1661     1.0  0.74656  0.75420  0.39680  1.0000
  C   C1662     1.0  0.74280  0.73770  0.41783  1.0000
  H   H1326     1.0  0.95130  0.56919  0.07295  1.0000
  C   C1663     1.0  0.74769  0.79148  0.42576  1.0000
  C   C1664     1.0  0.74885  0.78118  0.40085  1.0000
  H   H1327     1.0  0.74065  0.71707  0.41511  1.0000
  H   H1328     1.0  0.74984  0.81220  0.42877  1.0000
  H   H1329     1.0  0.75186  0.79410  0.38470  1.0000
  C   C1665     1.0  0.73807  0.73973  0.03050  1.0000
  C   C1666     1.0  0.73499  0.74918  0.00556  1.0000
  C   C1667     1.0  0.73715  0.77581  0.00018  1.0000
  C   C1668     1.0  0.74241  0.79350  0.01967  1.0000
  C   C1669     1.0  0.74601  0.78411  0.04474  1.0000
  C   C1670     1.0  0.74389  0.75719  0.05019  1.0000
  H   H1330     1.0  0.73066  0.73583  0.99025  1.0000
  H   H1331     1.0  0.73459  0.78252  0.98090  1.0000
  H   H1332     1.0  0.75017  0.79767  0.05998  1.0000
  H   H1333     1.0  0.74630  0.75007  0.06954  1.0000
  C   C1671     1.0  0.84366  0.61634  0.05598  1.0000
  C   C1672     1.0  0.85663  0.62953  0.07572  1.0000
  C   C1673     1.0  0.88470  0.63163  0.07575  1.0000
  C   C1674     1.0  0.90015  0.62088  0.05596  1.0000
  C   C1675     1.0  0.88712  0.60872  0.03563  1.0000
  C   C1676     1.0  0.85906  0.60616  0.03583  1.0000
  H   H1334     1.0  0.84510  0.63747  0.09134  1.0000
  H   H1335     1.0  0.89453  0.64124  0.09151  1.0000
  H   H1336     1.0  0.89874  0.60079  0.02010  1.0000
  H   H1337     1.0  0.84924  0.59595  0.02046  1.0000
  C   C1677     1.0  0.75296  0.66472  0.19710  1.0000
  C   C1678     1.0  0.74209  0.64016  0.20257  1.0000
  C   C1679     1.0  0.73774  0.63228  0.22817  1.0000
  C   C1680     1.0  0.74473  0.64847  0.24878  1.0000
  C   C1681     1.0  0.75635  0.67270  0.24336  1.0000
  C   C1682     1.0  0.76018  0.68082  0.21773  1.0000
  H   H1338     1.0  0.73696  0.62728  0.18708  1.0000
  H   H1339     1.0  0.72903  0.61338  0.23206  1.0000
  H   H1340     1.0  0.76204  0.68534  0.25891  1.0000
  H   H1341     1.0  0.76878  0.69977  0.21386  1.0000
  C   C1683     1.0  0.90421  0.64883  0.40678  1.0000
  C   C1684     1.0  0.89428  0.62390  0.41214  1.0000
  C   C1685     1.0  0.86745  0.61763  0.40652  1.0000
  C   C1686     1.0  0.85010  0.63609  0.39540  1.0000
  C   C1687     1.0  0.85988  0.66120  0.39048  1.0000
  C   C1688     1.0  0.88672  0.66749  0.39616  1.0000
  H   H1342     1.0  0.90734  0.60935  0.42039  1.0000
  H   H1343     1.0  0.86017  0.59819  0.41049  1.0000
  H   H1344     1.0  0.84687  0.67566  0.38201  1.0000
  C   C1689     1.0  0.80244  0.90508  0.00516  1.0000
  C   C1690     1.0  0.92720  0.51873  0.43194  1.0000
  H   H1345     1.0  0.69932  0.61309  0.16026  1.0000
  H   H1346     1.0  0.98680  0.49672  0.05036  1.0000
  C   C1691     1.0  0.74360  0.77484  0.44664  1.0000
  S   S227      1.0  0.99295  0.53955  0.44386  1.0000
  C   C1692     1.0  0.68522  0.81783  0.44395  1.0000
  H   H1347     1.0  0.66836  0.58514  0.02450  1.0000
  C   C1693     1.0  0.69257  0.69437  0.23088  1.0000
  C   C1694     1.0  0.97092  0.53294  0.06429  1.0000
  S   S228      1.0  0.67804  0.60327  0.08261  1.0000
  H   H1348     1.0  0.71616  0.89937  0.44973  1.0000
  H   H1349     1.0  0.71255  0.54713  0.37003  1.0000
  H   H1350     1.0  0.82130  0.79547  0.44244  1.0000
  H   H1351     1.0  0.81001  0.78138  0.39842  1.0000
  C   C1695     1.0  0.81020  0.74052  0.40792  1.0000
  H   H1352     1.0  0.88608  0.80657  0.98559  1.0000
  C   C1696     1.0  0.80380  0.80380  0.98950  1.0000
  C   C1697     1.0  0.66947  0.84348  0.01626  1.0000
  H   H1353     1.0  0.67577  0.56120  0.32015  1.0000
  C   C1698     1.0  0.82828  0.92200  0.96042  1.0000
  H   H1354     1.0  0.70395  0.85576  0.39351  1.0000
  C   C1699     1.0  0.88099  0.75973  0.42405  1.0000
  C   C1700     1.0  0.88433  0.78018  0.40663  1.0000
  C   C1701     1.0  0.90081  0.80122  0.41278  1.0000
  C   C1702     1.0  0.80279  0.78403  0.97129  1.0000
  H   H1355     1.0  0.68288  0.80381  0.01283  1.0000
  C   C1703     1.0  0.92390  0.47182  0.42793  1.0000
  H   H1356     1.0  0.88265  0.96218  0.96255  1.0000
  C   C1704     1.0  0.68279  0.62596  0.15585  1.0000
  H   H1357     1.0  0.79180  0.94538  0.01037  1.0000
  C   C1705     1.0  0.84673  0.52944  0.00562  1.0000
  H   H1358     1.0  0.89819  0.47187  0.04006  1.0000
  C   C1706     1.0  0.70331  0.70929  0.25061  1.0000
  H   H1359     1.0  0.76699  0.96022  0.43439  1.0000
  C   C1707     1.0  0.96938  0.68698  0.05423  1.0000
  C   C1708     1.0  0.84110  0.54089  0.05751  1.0000
  C   C1709     1.0  0.82961  0.68238  0.96210  1.0000
  C   C1710     1.0  0.67363  0.56009  0.38186  1.0000
  H   H1360     1.0  0.95000  0.48898  0.02050  1.0000
  C   C1711     1.0  0.86560  0.53203  0.04814  1.0000
  H   H1361     1.0  0.87412  0.77969  0.38838  1.0000
  H   H1362     1.0  0.90330  0.81714  0.39930  1.0000
  H   H1363     1.0  0.90021  0.48996  0.95939  1.0000
  H   H1364     1.0  0.69070  0.71331  0.38951  1.0000
  C   C1712     1.0  0.89510  0.56248  0.97683  1.0000
  H   H1365     1.0  0.68390  0.64144  0.29922  1.0000
  C   C1713     1.0  0.93048  0.53255  0.96562  1.0000
  C   C1714     1.0  0.67107  0.71651  0.99141  1.0000
  H   H1366     1.0  0.84413  0.64330  0.96854  1.0000
  H   H1367     1.0  0.71984  0.72238  0.24675  1.0000
  Fe  Fe115     1.0  0.73721  0.84020  0.97190  1.0000
  H   H1368     1.0  0.80543  0.54085  0.00233  1.0000
  H   H1369     1.0  0.83899  0.54590  0.07751  1.0000
  H   H1370     1.0  0.73807  0.93049  0.98829  1.0000
  H   H1371     1.0  0.79187  0.89843  0.02206  1.0000
  P   P58       1.0  0.90105  0.51874  0.00866  1.0000
  H   H1372     1.0  0.92740  0.81782  0.44031  1.0000
  C   C1715     1.0  0.81288  0.72193  0.42736  1.0000
  C   C1716     1.0  0.89378  0.76046  0.44774  1.0000
  H   H1373     1.0  0.81511  0.96058  0.97182  1.0000
  H   H1374     1.0  0.71325  0.84936  0.43957  1.0000
  C   C1717     1.0  0.90240  0.57864  0.95638  1.0000
  C   C1718     1.0  0.92929  0.54693  0.04527  1.0000
  H   H1375     1.0  0.83155  0.73537  0.00641  1.0000
  H   H1376     1.0  0.75661  0.70860  0.95921  1.0000
  C   C1719     1.0  0.68406  0.65225  0.16240  1.0000
  C   C1720     1.0  0.82420  0.77408  0.01970  1.0000
  H   H1377     1.0  0.98371  0.58975  0.12895  1.0000
  H   H1378     1.0  0.70251  0.71751  0.29090  1.0000
  C   C1721     1.0  0.77995  0.63113  0.44960  1.0000
  H   H1379     1.0  0.81376  0.81391  0.02816  1.0000
  H   H1380     1.0  0.67620  0.57956  0.37403  1.0000
  H   H1381     1.0  0.79560  0.82281  0.98504  1.0000
  C   C1722     1.0  0.81313  0.65332  0.99521  1.0000
  H   H1382     1.0  0.93019  0.95588  0.97353  1.0000
  C   C1723     1.0  0.90035  0.47615  0.97506  1.0000
  C   C1724     1.0  0.81951  0.54421  0.04097  1.0000
  C   C1725     1.0  0.66742  0.73700  0.97408  1.0000
  S   S229      1.0  0.99772  0.60480  0.40742  1.0000
  C   C1726     1.0  0.81600  0.88720  0.98987  1.0000
  C   C1727     1.0  0.68222  0.60163  0.31099  1.0000
  H   H1383     1.0  0.88192  0.52953  0.06142  1.0000
  H   H1384     1.0  0.86845  0.74327  0.41921  1.0000
  C   C1728     1.0  0.89952  0.79104  0.98010  1.0000
  C   C1729     1.0  0.95045  0.55127  0.06209  1.0000
  C   C1730     1.0  0.69080  0.51673  0.38973  1.0000
  C   C1731     1.0  0.92676  0.49647  0.41669  1.0000
  H   H1385     1.0  0.87918  0.56870  0.98934  1.0000
  H   H1386     1.0  0.81028  0.70154  0.42264  1.0000
  C   C1732     1.0  0.81304  0.76700  0.41338  1.0000
  H   H1387     1.0  0.83200  0.77011  0.03861  1.0000
  H   H1388     1.0  0.77049  0.61416  0.44130  1.0000
  C   C1733     1.0  0.82221  0.53816  0.01509  1.0000
  H   H1389     1.0  0.84870  0.52526  0.98544  1.0000
  C   C1734     1.0  0.86886  0.52714  0.02192  1.0000
  C   C1735     1.0  0.74124  0.74798  0.44255  1.0000
  H   H1390     1.0  0.68802  0.90430  0.41126  1.0000
  H   H1391     1.0  0.67551  0.68375  0.44779  1.0000
  C   C1736     1.0  0.85022  0.68957  0.04251  1.0000
  C   C1737     1.0  0.84912  0.70687  0.06297  1.0000
  C   C1738     1.0  0.86782  0.72698  0.06478  1.0000
  C   C1739     1.0  0.88759  0.72979  0.04607  1.0000
  C   C1740     1.0  0.88843  0.71288  0.02505  1.0000
  C   C1741     1.0  0.86972  0.69253  0.02357  1.0000
  P   P59       1.0  0.91550  0.71546  0.00225  1.0000
  C   C1742     1.0  0.91610  0.74676  0.98585  1.0000
  C   C1743     1.0  0.94619  0.70930  0.01959  1.0000
  C   C1744     1.0  0.97096  0.71782  0.01005  1.0000
  C   C1745     1.0  0.82357  0.75431  0.00142  1.0000
  C   C1746     1.0  0.92800  0.52384  0.03102  1.0000
  H   H1392     1.0  0.68464  0.84845  0.03020  1.0000
  C   C1747     1.0  0.94568  0.69376  0.04183  1.0000
  H   H1393     1.0  0.67104  0.95947  0.96217  1.0000
  C   C1748     1.0  0.69412  0.54181  0.37963  1.0000
  C   C1749     1.0  0.67450  0.82517  0.39198  1.0000
  H   H1394     1.0  0.68998  0.75244  0.41665  1.0000
  C   C1750     1.0  0.89880  0.76706  0.99298  1.0000
  C   C1751     1.0  0.91278  0.69002  0.97869  1.0000
  C   C1752     1.0  0.69836  0.83745  0.43020  1.0000
  H   H1395     1.0  0.81361  0.63464  0.00500  1.0000
  S   S230      1.0  0.68657  0.63542  0.40262  1.0000
  H   H1396     1.0  0.81875  0.61326  0.45123  1.0000
  C   C1753     1.0  0.92203  0.66482  0.98434  1.0000
  H   H1397     1.0  0.83630  0.67343  0.04175  1.0000
  H   H1398     1.0  0.83409  0.70430  0.07772  1.0000
  H   H1399     1.0  0.86731  0.73999  0.08101  1.0000
  H   H1400     1.0  0.90256  0.74487  0.04821  1.0000
  H   H1401     1.0  0.87052  0.67844  0.00830  1.0000
  H   H1402     1.0  0.97236  0.72915  0.99270  1.0000
  C   C1754     1.0  0.93330  0.75066  0.96491  1.0000
  C   C1755     1.0  0.67208  0.67658  0.23598  1.0000
  H   H1403     1.0  0.68269  0.75188  0.97202  1.0000
  H   H1404     1.0  0.92715  0.68577  0.04914  1.0000
  H   H1405     1.0  0.70661  0.50249  0.38767  1.0000
  H   H1406     1.0  0.96872  0.67416  0.07075  1.0000
  H   H1407     1.0  0.98768  0.48426  0.43948  1.0000
  H   H1408     1.0  0.80508  0.73443  0.38871  1.0000
  H   H1409     1.0  0.88447  0.76454  0.00818  1.0000
  C   C1756     1.0  0.79569  0.67272  0.00355  1.0000
  H   H1410     1.0  0.70088  0.69595  0.21179  1.0000
  C   C1757     1.0  0.79523  0.69696  0.99128  1.0000
  C   C1758     1.0  0.67244  0.71873  0.39935  1.0000
  H   H1411     1.0  0.93035  0.62662  0.96977  1.0000
  C   C1759     1.0  0.69356  0.70650  0.27548  1.0000
  C   C1760     1.0  0.69317  0.84100  0.40421  1.0000
  C   C1761     1.0  0.73849  0.95069  0.98225  1.0000
  C   C1762     1.0  0.83023  0.65821  0.97462  1.0000
  H   H1412     1.0  0.78178  0.71185  0.99833  1.0000
  C   C1763     1.0  0.81225  0.75897  0.97725  1.0000
  H   H1413     1.0  0.98943  0.52360  0.96700  1.0000
  S   S231      1.0  0.70327  0.86694  0.96164  1.0000
  C   C1764     1.0  0.67203  0.74084  0.41481  1.0000
  C   C1765     1.0  0.99465  0.71085  0.02243  1.0000
  H   H1414     1.0  0.68901  0.71542  0.00284  1.0000
  C   C1766     1.0  0.99529  0.50387  0.97162  1.0000
  H   H1415     1.0  0.81603  0.86674  0.99501  1.0000
  C   C1767     1.0  0.81928  0.77491  0.43819  1.0000
  H   H1416     1.0  0.97718  0.62836  0.10103  1.0000
  C   C1768     1.0  0.90889  0.53907  0.98139  1.0000
  C   C1769     1.0  0.89963  0.48452  0.00058  1.0000
  C   C1770     1.0  0.67294  0.68887  0.28063  1.0000
  H   H1417     1.0  0.80083  0.55194  0.04820  1.0000
  Fe  Fe116     1.0  0.99070  0.61288  0.97647  1.0000
  C   C1771     1.0  0.66854  0.81826  0.00641  1.0000
  H   H1418     1.0  0.93796  0.73422  0.44808  1.0000
  C   C1772     1.0  0.99386  0.69540  0.04448  1.0000
  H   H1419     1.0  0.98781  0.53669  0.07664  1.0000
  H   H1420     1.0  0.94184  0.51505  0.96940  1.0000
  C   C1773     1.0  0.68136  0.91225  0.42930  1.0000
  C   C1774     1.0  0.81537  0.94001  0.97636  1.0000
  C   C1775     1.0  0.80232  0.93149  0.99852  1.0000
  C   C1776     1.0  0.92186  0.64559  0.96559  1.0000
  C   C1777     1.0  0.98659  0.48288  0.95644  1.0000
  C   C1778     1.0  0.81186  0.70191  0.97014  1.0000
  H   H1421     1.0  0.93031  0.53779  0.42337  1.0000
  C   C1779     1.0  0.73875  0.95680  0.95619  1.0000
  H   H1422     1.0  0.94596  0.73506  0.95801  1.0000
  H   H1423     1.0  0.86509  0.68752  0.44590  1.0000
  H   H1424     1.0  0.74418  0.65427  0.44895  1.0000
  H   H1425     1.0  0.97161  0.70014  0.44629  1.0000
  C   C1780     1.0  0.92018  0.94198  0.96132  1.0000
  C   C1781     1.0  0.89332  0.94558  0.95492  1.0000
  C   C1782     1.0  0.90208  0.69527  0.95439  1.0000
  C   C1783     1.0  0.91124  0.78094  0.45364  1.0000
  H   H1426     1.0  0.95490  0.91748  0.95706  1.0000
  H   H1427     1.0  0.66593  0.68670  0.30012  1.0000
  H   H1428     1.0  0.83894  0.88146  0.95566  1.0000
  C   C1784     1.0  0.66814  0.57817  0.31017  1.0000
  C   C1785     1.0  0.66720  0.51007  0.40256  1.0000
  H   H1429     1.0  0.67070  0.82773  0.37176  1.0000
  C   C1786     1.0  0.66667  0.80160  0.43176  1.0000
  C   C1787     1.0  0.76518  0.65379  0.45380  1.0000
  C   C1788     1.0  0.69723  0.90945  0.45104  1.0000
  C   C1789     1.0  0.81856  0.72977  0.45247  1.0000
  H   H1430     1.0  0.68403  0.73138  0.46474  1.0000
  H   H1431     1.0  0.98120  0.46522  0.53812  1.0000
  S   S232      1.0  0.76196  0.91986  0.47253  1.0000
  S   S233      1.0  0.73000  0.81313  0.93922  1.0000
  H   H1432     1.0  0.92447  0.53376  0.47011  1.0000
  S   S234      1.0  0.72528  0.86421  0.90251  1.0000
  C   C1790     1.0  0.71641  0.94697  0.57011  1.0000
  Fe  Fe117     1.0  0.69737  0.84080  0.92746  1.0000
  H   H1433     1.0  0.97335  0.66163  0.51808  1.0000
  Fe  Fe118     1.0  0.75839  0.83838  0.91713  1.0000
  S   S235      1.0  0.78848  0.81940  0.89033  1.0000
  H   H1434     1.0  0.96083  0.46875  0.49566  1.0000
  H   H1435     1.0  0.84396  0.78481  0.52854  1.0000
  C   C1791     1.0  0.97510  0.85707  0.49528  1.0000
  H   H1436     1.0  0.87046  0.91751  0.88292  1.0000
  H   H1437     1.0  0.88455  0.89087  0.91914  1.0000
  C   C1792     1.0  0.77194  0.74491  0.52753  1.0000
  Fe  Fe119     1.0  0.96891  0.82513  0.59082  1.0000
  S   S236      1.0  0.93791  0.85292  0.57411  1.0000
  S   S237      1.0  0.96232  0.79446  0.62076  1.0000
  C   C1793     1.0  0.81679  0.88211  0.86410  1.0000
  C   C1794     1.0  0.69597  0.73933  0.50312  1.0000
  C   C1795     1.0  0.98531  0.83846  0.47850  1.0000
  C   C1796     1.0  0.98585  0.78342  0.71315  1.0000
  C   C1797     1.0  0.78527  0.73708  0.50540  1.0000
  C   C1798     1.0  0.98402  0.65982  0.93142  1.0000
  Fe  Fe120     1.0  0.94833  0.81868  0.87620  1.0000
  S   S238      1.0  0.91401  0.83781  0.89805  1.0000
  S   S239      1.0  0.94991  0.77741  0.86217  1.0000
  Fe  Fe121     1.0  0.71957  0.85673  0.53883  1.0000
  S   S240      1.0  0.71762  0.85999  0.49606  1.0000
  S   S241      1.0  0.68463  0.85581  0.56714  1.0000
  Fe  Fe122     1.0  0.78117  0.84814  0.53876  1.0000
  S   S242      1.0  0.78332  0.85071  0.49589  1.0000
  S   S243      1.0  0.81268  0.83154  0.56607  1.0000
  Fe  Fe123     1.0  0.75480  0.88501  0.49967  1.0000
  H   H1438     1.0  0.91817  0.49055  0.49012  1.0000
  Fe  Fe124     1.0  0.74624  0.82619  0.49536  1.0000
  C   C1799     1.0  0.97327  0.71526  0.46063  1.0000
  S   S244      1.0  0.75508  0.88383  0.54287  1.0000
  S   S245      1.0  0.74564  0.82154  0.53791  1.0000
  C   C1800     1.0  0.68915  0.92017  0.47434  1.0000
  H   H1439     1.0  0.71414  0.71651  0.93739  1.0000
  H   H1440     1.0  0.79462  0.76570  0.91023  1.0000
  C   C1801     1.0  0.85082  0.90876  0.88384  1.0000
  C   C1802     1.0  0.69503  0.75687  0.52346  1.0000
  C   C1803     1.0  0.90339  0.84585  0.57092  1.0000
  C   C1804     1.0  0.89139  0.82540  0.58440  1.0000
  C   C1805     1.0  0.86360  0.82150  0.58284  1.0000
  C   C1806     1.0  0.84763  0.83731  0.56700  1.0000
  C   C1807     1.0  0.85974  0.85734  0.55296  1.0000
  C   C1808     1.0  0.88743  0.86178  0.55519  1.0000
  H   H1441     1.0  0.90352  0.81289  0.59627  1.0000
  H   H1442     1.0  0.85442  0.80609  0.59392  1.0000
  H   H1443     1.0  0.84770  0.86976  0.54082  1.0000
  H   H1444     1.0  0.89649  0.87774  0.54476  1.0000
  S   S246      1.0  0.97940  0.62612  0.93657  1.0000
  H   H1445     1.0  0.91913  0.82560  0.51505  1.0000
  H   H1446     1.0  0.86119  0.76441  0.56816  1.0000
  C   C1809     1.0  0.90102  0.75940  0.55343  1.0000
  C   C1810     1.0  0.70400  0.92391  0.56256  1.0000
  H   H1447     1.0  0.91787  0.81345  0.94979  1.0000
  H   H1448     1.0  0.74048  0.95462  0.51212  1.0000
  H   H1449     1.0  0.94324  0.86674  0.52118  1.0000
  C   C1811     1.0  0.82353  0.82294  0.89365  1.0000
  C   C1812     1.0  0.83477  0.83544  0.91473  1.0000
  C   C1813     1.0  0.86259  0.83901  0.91614  1.0000
  C   C1814     1.0  0.87947  0.83033  0.89646  1.0000
  C   C1815     1.0  0.86833  0.81704  0.87578  1.0000
  C   C1816     1.0  0.84047  0.81334  0.87443  1.0000
  H   H1450     1.0  0.82198  0.84262  0.92976  1.0000
  H   H1451     1.0  0.87105  0.84873  0.93251  1.0000
  H   H1452     1.0  0.88110  0.81014  0.86057  1.0000
  H   H1453     1.0  0.83196  0.80346  0.85815  1.0000
  C   C1817     1.0  0.99846  0.67459  0.94897  1.0000
  C   C1818     1.0  0.86448  0.77806  0.52935  1.0000
  C   C1819     1.0  0.66696  0.64068  0.49671  1.0000
  C   C1820     1.0  0.80833  0.90235  0.90502  1.0000
  C   C1821     1.0  0.75615  0.72258  0.94376  1.0000
  C   C1822     1.0  0.97169  0.81499  0.47478  1.0000
  S   S247      1.0  0.96811  0.73054  0.58268  1.0000
  C   C1823     1.0  0.93410  0.77469  0.95223  1.0000
  H   H1454     1.0  0.75192  0.77307  0.88848  1.0000
  H   H1455     1.0  0.76555  0.73768  0.56760  1.0000
  C   C1824     1.0  0.87423  0.76675  0.55180  1.0000
  P   P60       1.0  0.82119  0.70597  0.47787  1.0000
  Fe  Fe125     1.0  0.73371  0.88840  0.93776  1.0000
  C   C1825     1.0  0.67912  0.94757  0.53005  1.0000
  H   H1456     1.0  0.75879  0.76170  0.52684  1.0000
  H   H1457     1.0  0.90891  0.75120  0.57099  1.0000
  H   H1458     1.0  0.91290  0.68032  0.45435  1.0000
  H   H1459     1.0  0.91351  0.63663  0.92629  1.0000
  C   C1826     1.0  0.68561  0.92410  0.54248  1.0000
  H   H1460     1.0  0.78137  0.74759  0.48786  1.0000
  H   H1461     1.0  0.89493  0.68046  0.91656  1.0000
  H   H1462     1.0  0.69029  0.81508  0.46385  1.0000
  H   H1463     1.0  0.79466  0.90618  0.92060  1.0000
  H   H1464     1.0  0.96972  0.75566  0.74028  1.0000
  C   C1827     1.0  0.79968  0.88714  0.88457  1.0000
  H   H1465     1.0  0.89434  0.71437  0.94964  1.0000
  C   C1828     1.0  0.93749  0.82885  0.50457  1.0000
  C   C1829     1.0  0.86785  0.70867  0.50756  1.0000
  C   C1830     1.0  0.97845  0.77480  0.73789  1.0000
  H   H1466     1.0  0.81861  0.68465  0.52965  1.0000
  H   H1467     1.0  0.67629  0.90593  0.53688  1.0000
  H   H1468     1.0  0.70216  0.91832  0.49075  1.0000
  H   H1469     1.0  0.97977  0.80077  0.46164  1.0000
  C   C1831     1.0  0.77908  0.73662  0.93659  1.0000
  C   C1832     1.0  0.84229  0.89311  0.86362  1.0000
  H   H1470     1.0  0.67689  0.62431  0.50576  1.0000
  C   C1833     1.0  0.89497  0.70425  0.51217  1.0000
  C   C1834     1.0  0.90826  0.77375  0.50963  1.0000
  C   C1835     1.0  0.92092  0.49184  0.46964  1.0000
  S   S248      1.0  0.99107  0.79882  0.56426  1.0000
  C   C1836     1.0  0.92104  0.90210  0.93687  1.0000
  H   H1471     1.0  0.93866  0.75733  0.53456  1.0000
  H   H1472     1.0  0.89085  0.74460  0.46115  1.0000
  H   H1473     1.0  0.93163  0.88505  0.92996  1.0000
  C   C1837     1.0  0.95384  0.73471  0.46194  1.0000
  S   S249      1.0  0.97469  0.61200  0.46650  1.0000
  H   H1474     1.0  0.94760  0.77752  0.93623  1.0000
  H   H1475     1.0  0.67130  0.90366  0.90139  1.0000
  S   S250      1.0  0.99626  0.74744  0.92014  1.0000
  C   C1838     1.0  0.97657  0.69909  0.90581  1.0000
  C   C1839     1.0  0.87313  0.69223  0.46456  1.0000
  C   C1840     1.0  0.82260  0.75633  0.45756  1.0000
  C   C1841     1.0  0.99096  0.71374  0.92358  1.0000
  C   C1842     1.0  0.67206  0.93389  0.92975  1.0000
  C   C1843     1.0  0.97115  0.69245  0.54613  1.0000
  H   H1476     1.0  0.73108  0.94659  0.58531  1.0000
  H   H1477     1.0  0.85605  0.71751  0.52246  1.0000
  C   C1844     1.0  0.91116  0.69388  0.49306  1.0000
  H   H1478     1.0  0.96205  0.66072  0.89604  1.0000
  C   C1845     1.0  0.81982  0.65287  0.46466  1.0000
  H   H1479     1.0  0.70643  0.75312  0.54066  1.0000
  S   S251      1.0  0.98378  0.81359  0.90173  1.0000
  H   H1480     1.0  0.84317  0.68567  0.94638  1.0000
  S   S252      1.0  0.76817  0.86360  0.95068  1.0000
  S   S253      1.0  0.97308  0.77823  0.79032  1.0000
  C   C1846     1.0  0.95113  0.85233  0.50811  1.0000
  C   C1847     1.0  0.92394  0.57194  0.94074  1.0000
  C   C1848     1.0  0.80312  0.71598  0.50613  1.0000
  C   C1849     1.0  0.99446  0.71510  0.47791  1.0000
  C   C1850     1.0  0.86012  0.81649  0.75558  1.0000
  C   C1851     1.0  0.88100  0.81198  0.77273  1.0000
  C   C1852     1.0  0.90698  0.80889  0.76361  1.0000
  C   C1853     1.0  0.91212  0.81025  0.73739  1.0000
  C   C1854     1.0  0.89129  0.81469  0.71990  1.0000
  C   C1855     1.0  0.86519  0.81784  0.72929  1.0000
  P   P61       1.0  0.89795  0.81614  0.68580  1.0000
  C   C1856     1.0  0.92395  0.83941  0.67793  1.0000
  C   C1857     1.0  0.90831  0.78459  0.67370  1.0000
  C   C1858     1.0  0.92181  0.76648  0.68924  1.0000
  C   C1859     1.0  0.93083  0.74286  0.67915  1.0000
  C   C1860     1.0  0.92627  0.73694  0.65351  1.0000
  C   C1861     1.0  0.91237  0.75448  0.63803  1.0000
  C   C1862     1.0  0.90354  0.77821  0.64799  1.0000
  C   C1863     1.0  0.93065  0.84365  0.65218  1.0000
  C   C1864     1.0  0.95048  0.86158  0.64550  1.0000
  C   C1865     1.0  0.96423  0.87508  0.66444  1.0000
  C   C1866     1.0  0.95746  0.87137  0.69009  1.0000
  C   C1867     1.0  0.93711  0.85398  0.69682  1.0000
  C   C1868     1.0  0.86806  0.82520  0.66840  1.0000
  C   C1869     1.0  0.84797  0.80657  0.66428  1.0000
  C   C1870     1.0  0.82618  0.81242  0.64856  1.0000
  C   C1871     1.0  0.82419  0.83693  0.63697  1.0000
  C   C1872     1.0  0.84366  0.85581  0.64155  1.0000
  C   C1873     1.0  0.86537  0.85012  0.65740  1.0000
  H   H1481     1.0  0.83997  0.81897  0.76269  1.0000
  H   H1482     1.0  0.87710  0.81093  0.79309  1.0000
  H   H1483     1.0  0.92324  0.80543  0.77688  1.0000
  H   H1484     1.0  0.93251  0.80815  0.73084  1.0000
  H   H1485     1.0  0.84869  0.82148  0.71648  1.0000
  H   H1486     1.0  0.92595  0.77042  0.70902  1.0000
  C   C1874     1.0  0.91799  0.76294  0.53251  1.0000
  S   S254      1.0  0.73930  0.93235  0.93221  1.0000
  H   H1487     1.0  0.90937  0.75009  0.61803  1.0000
  H   H1488     1.0  0.89355  0.79179  0.63536  1.0000
  H   H1489     1.0  0.92037  0.83335  0.63712  1.0000
  H   H1490     1.0  0.95536  0.86480  0.62557  1.0000
  C   C1875     1.0  0.80531  0.67605  0.46802  1.0000
  C   C1876     1.0  0.88028  0.92776  0.93892  1.0000
  H   H1491     1.0  0.93198  0.85219  0.71675  1.0000
  H   H1492     1.0  0.84958  0.78726  0.67261  1.0000
  H   H1493     1.0  0.81114  0.79778  0.64476  1.0000
  H   H1494     1.0  0.80784  0.84116  0.62400  1.0000
  H   H1495     1.0  0.84225  0.87467  0.63220  1.0000
  H   H1496     1.0  0.88029  0.86505  0.66039  1.0000
  P   P62       1.0  0.93036  0.77961  0.48287  1.0000
  C   C1877     1.0  0.90028  0.68815  0.46921  1.0000
  C   C1878     1.0  0.85647  0.70177  0.48398  1.0000
  H   H1497     1.0  0.85554  0.88927  0.84772  1.0000
  H   H1498     1.0  0.68605  0.94595  0.91920  1.0000
  C   C1879     1.0  0.94783  0.80990  0.48802  1.0000
  S   S255      1.0  0.97405  0.83496  0.84437  1.0000
  H   H1499     1.0  0.70821  0.72200  0.50454  1.0000
  C   C1880     1.0  0.95515  0.75401  0.48092  1.0000
  C   C1881     1.0  0.80583  0.70168  0.52894  1.0000
  C   C1882     1.0  0.88140  0.78161  0.50834  1.0000
  S   S256      1.0  0.74026  0.78618  0.47821  1.0000
  C   C1883     1.0  0.99372  0.81531  0.75600  1.0000
  H   H1500     1.0  0.93391  0.71898  0.64547  1.0000
  C   C1884     1.0  0.66588  0.78496  0.49888  1.0000
  C   C1885     1.0  0.83677  0.73712  0.93078  1.0000
  C   C1886     1.0  0.85603  0.75684  0.93343  1.0000
  C   C1887     1.0  0.87549  0.76054  0.91457  1.0000
  C   C1888     1.0  0.87603  0.74458  0.89307  1.0000
  C   C1889     1.0  0.85688  0.72501  0.89020  1.0000
  C   C1890     1.0  0.83717  0.72144  0.90885  1.0000
  C   C1891     1.0  0.97672  0.75381  0.49801  1.0000
  C   C1892     1.0  0.98453  0.67533  0.52950  1.0000
  H   H1501     1.0  0.93033  0.58493  0.92550  1.0000
  H   H1502     1.0  0.98296  0.77090  0.69682  1.0000
  Fe  Fe126     1.0  0.98678  0.76873  0.59499  1.0000
  H   H1503     1.0  0.79436  0.95944  0.92650  1.0000
  H   H1504     1.0  0.70876  0.90578  0.57223  1.0000
  H   H1505     1.0  0.98020  0.88829  0.65921  1.0000
  C   C1893     1.0  0.73027  0.74514  0.91141  1.0000
  C   C1894     1.0  0.73184  0.72696  0.93131  1.0000
  H   H1506     1.0  0.98572  0.87516  0.49846  1.0000
  H   H1507     1.0  0.93219  0.69042  0.49666  1.0000
  C   C1895     1.0  0.79240  0.70951  0.55107  1.0000
  C   C1896     1.0  0.68223  0.74481  0.48045  1.0000
  C   C1897     1.0  0.98549  0.71022  0.56117  1.0000
  H   H1508     1.0  0.87362  0.79109  0.49139  1.0000
  H   H1509     1.0  0.96820  0.88178  0.70479  1.0000
  H   H1510     1.0  0.88986  0.77622  0.91626  1.0000
  H   H1511     1.0  0.89103  0.74775  0.87843  1.0000
  H   H1512     1.0  0.85703  0.71297  0.87326  1.0000
  H   H1513     1.0  0.82201  0.70667  0.90606  1.0000
  H   H1514     1.0  0.94184  0.72936  0.69114  1.0000
  H   H1515     1.0  0.79505  0.69875  0.56874  1.0000
  H   H1516     1.0  0.67971  0.79361  0.53689  1.0000
  H   H1517     1.0  0.90354  0.70882  0.53061  1.0000
  C   C1898     1.0  0.93790  0.54883  0.94531  1.0000
  P   P63       1.0  0.84530  0.93224  0.93163  1.0000
  C   C1899     1.0  0.89421  0.90563  0.93049  1.0000
  H   H1518     1.0  0.71134  0.74904  0.90215  1.0000
  C   C1900     1.0  0.98247  0.79056  0.75953  1.0000
  H   H1519     1.0  0.69786  0.64625  0.46843  1.0000
  C   C1901     1.0  0.67895  0.65316  0.47585  1.0000
  H   H1520     1.0  0.95501  0.54390  0.93359  1.0000
  C   C1902     1.0  0.66724  0.76783  0.47807  1.0000
  C   C1903     1.0  0.77569  0.73132  0.55043  1.0000
  C   C1904     1.0  0.77737  0.75444  0.91617  1.0000
  H   H1521     1.0  0.84090  0.65179  0.46870  1.0000
  C   C1905     1.0  0.77783  0.67624  0.46277  1.0000
  H   H1522     1.0  0.77986  0.87878  0.88478  1.0000
  Fe  Fe127     1.0  0.98678  0.77323  0.88623  1.0000
  H   H1523     1.0  0.97840  0.76850  0.51273  1.0000
  C   C1906     1.0  0.93409  0.92032  0.95216  1.0000
  C   C1907     1.0  0.75309  0.75867  0.90369  1.0000
  C   C1908     1.0  0.83434  0.91245  0.90525  1.0000
  Fe  Fe128     1.0  0.97808  0.79319  0.83152  1.0000
  H   H1524     1.0  0.94964  0.69180  0.54747  1.0000
  H   H1525     1.0  0.97370  0.48659  0.94027  1.0000
  C   C1909     1.0  0.68004  0.77972  0.52131  1.0000
  H   H1526     1.0  0.81028  0.86951  0.84877  1.0000
  H   H1527     1.0  0.73809  0.73501  0.45861  1.0000
  H   H1528     1.0  0.96818  0.70852  0.88913  1.0000
  H   H1529     1.0  0.85583  0.76980  0.94964  1.0000
  H   H1530     1.0  0.76636  0.69399  0.46492  1.0000
  C   C1910     1.0  0.97316  0.67209  0.90973  1.0000
  C   C1911     1.0  0.75417  0.95391  0.47327  1.0000
  H   H1531     1.0  0.82761  0.76276  0.47665  1.0000
  C   C1912     1.0  0.90208  0.67598  0.93561  1.0000
  H   H1532     1.0  0.79431  0.78843  0.95276  1.0000
  C   C1913     1.0  0.99624  0.73446  0.49644  1.0000
  H   H1533     1.0  0.68873  0.49897  0.94700  1.0000
  C   C1914     1.0  0.80718  0.63063  0.45520  1.0000
  C   C1915     1.0  0.91228  0.65124  0.94112  1.0000
  C   C1916     1.0  0.92204  0.46924  0.45462  1.0000
  H   H1534     1.0  0.66755  0.46691  0.91808  1.0000
  H   H1535     1.0  0.89178  0.59670  0.95309  1.0000
  C   C1917     1.0  0.92399  0.51643  0.45836  1.0000
  C   C1918     1.0  0.66756  0.50023  0.94296  1.0000
  C   C1919     1.0  0.66633  0.67435  0.46422  1.0000
  H   H1536     1.0  0.99680  0.82781  0.77232  1.0000
  C   C1920     1.0  0.99763  0.80792  0.70970  1.0000
  P   P64       1.0  0.81019  0.73319  0.95392  1.0000
