data_image0
_chemical_formula_structural       HFeS2CFeSC7H7PC4HC3H2C2H2CHC3SHCH6CH2C3SHC2HCHC3HC6H5C2H3SC2H3CHC2HCHC7HC2HCHCH3FeHCHSHC2PCHC2HC2H2C4HSHC2H3CHCHCHC2SHC10H2SC2HCHC3PC4HC10H2CFeCH10CH5CHC3HCH2CH2CH2CH2C3HC2HCH3PHCH3C2FeHSH2C2FeS2FeS2FeSFeS2C3SHC7H4CH5C2SC2SC3HCH3C3HC2HC2H2C4HC6H3CH2CPH4CHCHC2HPHC2HC2PC3HFeHCH2CH4C3SHC2HCHC2HSH4C2HC4FeCHCH2CHC2SCH3C2HFeHC3H2CHC3FeHC4H3PHCHCSC2H2CH2C2HSFeSHFeSFeSCSC4H2CFeC6H5CHSHC3HC2HCHCHC3SC3HCHC2HPH2CH3CHC5HCSH3C2HC2H2C4HCSC2FeSHSCH2SHCHC2H2CHC7H4CHCH4C2SCPC2HCHCHCHCH2C4H2CH2CHC4H2CHC3SCHC2SCH2C4H3C3HC2H3PFeCHCH2CHCFe2SH3CHCH2CH2C2HSHCHCHCHC3SC2HC3H2CH2CHFeCSH3S4HC2HC6H5FeCHCHCHCHCHFeHC7PC2H2CFeC3HCH4CHCSH2C4SCSHSCFeHCHC2HCFeC6H2CH4CH3CHSCHFeH2C7SH3PC5SCH4CHC4H2C3H2SHCSFeS2FeSCH2C6H2SCHC2HFeC3HCH4C5HCHC5H5CHCH2SCPC2H3CHCSH2C5HCH3CHCFePCHCHC2H2CHCHC4HC4HCH3C2HC2HSCH2C5PCH3CHC2H2
_chemical_formula_sum              "H384 Fe32 S64 C480 P16"
_cell_length_a       30.8729
_cell_length_b       31.1334
_cell_length_c       37.0689
_cell_angle_alpha    89.7068
_cell_angle_beta     89.7155
_cell_angle_gamma    80.7516

_space_group_name_H-M_alt    "P 1"
_space_group_IT_number       1

loop_
  _space_group_symop_operation_xyz
  'x, y, z'

loop_
  _atom_site_type_symbol
  _atom_site_label
  _atom_site_symmetry_multiplicity
  _atom_site_fract_x
  _atom_site_fract_y
  _atom_site_fract_z
  _atom_site_occupancy
  H   H1        1.0  0.34338  0.00995  0.17231  1.0000
  Fe  Fe1       1.0  0.04884  0.15275  0.28541  1.0000
  S   S1        1.0  0.10759  0.09750  0.28443  1.0000
  S   S2        1.0  0.22401  0.02423  0.14837  1.0000
  C   C1        1.0  0.02028  0.06386  0.15379  1.0000
  Fe  Fe2       1.0  0.01155  0.25094  0.27957  1.0000
  S   S3        1.0  0.03777  0.31520  0.26793  1.0000
  C   C2        1.0  0.04315  0.13461  0.15899  1.0000
  C   C3        1.0  0.13987  0.07803  0.24628  1.0000
  C   C4        1.0  0.16504  0.03616  0.24755  1.0000
  C   C5        1.0  0.19013  0.01890  0.21757  1.0000
  C   C6        1.0  0.19183  0.04412  0.18643  1.0000
  C   C7        1.0  0.16810  0.08665  0.18564  1.0000
  C   C8        1.0  0.14189  0.10339  0.21527  1.0000
  H   H2        1.0  0.16453  0.01662  0.27170  1.0000
  H   H3        1.0  0.03694  0.04113  0.22654  1.0000
  H   H4        1.0  0.16955  0.10661  0.16184  1.0000
  H   H5        1.0  0.12355  0.13603  0.21428  1.0000
  H   H6        1.0  0.07269  0.01093  0.28224  1.0000
  H   H7        1.0  0.30395  0.99081  0.30060  1.0000
  H   H8        1.0  0.08601  0.07368  0.16637  1.0000
  P   P1        1.0  0.03488  0.00554  0.15309  1.0000
  C   C9        1.0  0.05297  0.08922  0.16028  1.0000
  C   C10       1.0  0.04421  0.40251  0.26474  1.0000
  C   C11       1.0  0.33600  0.00655  0.20069  1.0000
  C   C12       1.0  0.01737  0.37175  0.27455  1.0000
  H   H9        1.0  0.01336  0.00453  0.07619  1.0000
  C   C13       1.0  0.04871  0.99754  0.07879  1.0000
  C   C14       1.0  0.30189  0.03516  0.21667  1.0000
  C   C15       1.0  0.14314  0.42108  0.30453  1.0000
  H   H10       1.0  0.06835  0.15404  0.16485  1.0000
  H   H11       1.0  0.05940  0.99461  0.02127  1.0000
  C   C16       1.0  0.13197  0.45561  0.21941  1.0000
  C   C17       1.0  0.02981  0.44763  0.26916  1.0000
  H   H12       1.0  0.28304  0.06083  0.20072  1.0000
  H   H13       1.0  0.42463  0.04745  0.01718  1.0000
  C   C18       1.0  0.18356  0.43245  0.29397  1.0000
  H   H14       1.0  0.08962  0.43260  0.18034  1.0000
  C   C19       1.0  0.09803  0.46076  0.19411  1.0000
  C   C20       1.0  0.22207  0.40214  0.29860  1.0000
  C   C21       1.0  0.31408  0.99550  0.27307  1.0000
  S   S4        1.0  0.02169  0.19558  0.23926  1.0000
  H   H15       1.0  0.11314  0.44398  0.30113  1.0000
  C   C22       1.0  0.29077  0.02950  0.25277  1.0000
  H   H16       1.0  0.25367  0.40980  0.29053  1.0000
  H   H17       1.0  0.07626  0.39128  0.25325  1.0000
  H   H18       1.0  0.05056  0.47088  0.26125  1.0000
  H   H19       1.0  0.14985  0.42329  0.22450  1.0000
  H   H20       1.0  0.26315  0.05080  0.26461  1.0000
  H   H21       1.0  0.28840  0.47203  0.16905  1.0000
  C   C23       1.0  0.14100  0.37970  0.31856  1.0000
  H   H22       1.0  0.36289  0.01997  0.04815  1.0000
  H   H23       1.0  0.99258  0.19010  0.15089  1.0000
  C   C24       1.0  0.05739  0.00940  0.22573  1.0000
  C   C25       1.0  0.07471  0.99271  0.04757  1.0000
  C   C26       1.0  0.21990  0.36090  0.31308  1.0000
  S   S5        1.0  0.04341  0.20850  0.32488  1.0000
  H   H24       1.0  0.20857  0.98631  0.21877  1.0000
  C   C27       1.0  0.24328  0.47681  0.21393  1.0000
  C   C28       1.0  0.06832  0.99491  0.11301  1.0000
  H   H25       1.0  0.21650  0.46990  0.19736  1.0000
  C   C29       1.0  0.00064  0.15492  0.15078  1.0000
  H   H26       1.0  0.24957  0.33734  0.31613  1.0000
  C   C30       1.0  0.17936  0.34958  0.32278  1.0000
  C   C31       1.0  0.41063  0.02096  0.00550  1.0000
  C   C32       1.0  0.28410  0.47797  0.19773  1.0000
  H   H27       1.0  0.38772  0.99686  0.32626  1.0000
  C   C33       1.0  0.37575  0.00569  0.02287  1.0000
  C   C34       1.0  0.07721  0.99207  0.25759  1.0000
  C   C35       1.0  0.06404  0.98585  0.19344  1.0000
  C   C36       1.0  0.14006  0.98666  0.08413  1.0000
  C   C37       1.0  0.11424  0.99048  0.11540  1.0000
  C   C38       1.0  0.12042  0.98705  0.05026  1.0000
  H   H28       1.0  0.13032  0.99155  0.14125  1.0000
  H   H29       1.0  0.14068  0.98411  0.02614  1.0000
  H   H30       1.0  0.17537  0.98448  0.08628  1.0000
  H   H31       1.0  0.10943  0.37059  0.32524  1.0000
  H   H32       1.0  0.02315  0.46266  0.56831  1.0000
  C   C39       1.0  0.04746  0.30233  0.43420  1.0000
  C   C40       1.0  0.00475  0.19291  0.50272  1.0000
  H   H33       1.0  0.07124  0.28695  0.45360  1.0000
  H   H34       1.0  0.08459  0.27500  0.38798  1.0000
  H   H35       1.0  0.16182  0.16988  0.58288  1.0000
  S   S6        1.0  0.02241  0.22915  0.64133  1.0000
  C   C41       1.0  0.00462  0.44904  0.65193  1.0000
  C   C42       1.0  0.10767  0.32809  0.53236  1.0000
  H   H36       1.0  0.06591  0.18960  0.47371  1.0000
  H   H37       1.0  0.09974  0.99392  0.62489  1.0000
  H   H38       1.0  0.09724  0.22825  0.58158  1.0000
  C   C43       1.0  0.06303  0.34518  0.53401  1.0000
  H   H39       1.0  0.11202  0.05921  0.59093  1.0000
  C   C44       1.0  0.07520  0.00849  0.60572  1.0000
  C   C45       1.0  0.15928  0.19632  0.60211  1.0000
  H   H40       1.0  0.14673  0.41643  0.49904  1.0000
  C   C46       1.0  0.12310  0.39701  0.50905  1.0000
  H   H41       1.0  0.17226  0.34050  0.51820  1.0000
  C   C47       1.0  0.00506  0.01122  0.57591  1.0000
  C   C48       1.0  0.18802  0.23086  0.65322  1.0000
  C   C49       1.0  0.15119  0.26393  0.65280  1.0000
  C   C50       1.0  0.01241  0.04826  0.55679  1.0000
  C   C51       1.0  0.02346  0.31384  0.37242  1.0000
  C   C52       1.0  0.05496  0.29549  0.39732  1.0000
  C   C53       1.0  0.05578  0.43103  0.42709  1.0000
  H   H42       1.0  0.08978  0.28776  0.62612  1.0000
  C   C54       1.0  0.12289  0.22933  0.60130  1.0000
  C   C55       1.0  0.00239  0.37108  0.64299  1.0000
  H   H43       1.0  0.00291  0.33120  0.47487  1.0000
  C   C56       1.0  0.19192  0.19714  0.62798  1.0000
  H   H44       1.0  0.05340  0.40195  0.37453  1.0000
  C   C57       1.0  0.13769  0.35395  0.51981  1.0000
  H   H45       1.0  0.03179  0.19251  0.41293  1.0000
  H   H46       1.0  0.38321  0.01013  0.39195  1.0000
  H   H47       1.0  0.11886  0.29465  0.54047  1.0000
  Fe  Fe3       1.0  0.99357  0.19099  0.59884  1.0000
  H   H48       1.0  0.14677  0.33761  0.61060  1.0000
  C   C58       1.0  0.01147  0.19375  0.43687  1.0000
  H   H49       1.0  0.14563  0.47413  0.62487  1.0000
  S   S7        1.0  0.03067  0.18879  0.54542  1.0000
  H   H50       1.0  0.14608  0.41059  0.58489  1.0000
  C   C59       1.0  0.05514  0.46986  0.44639  1.0000
  C   C60       1.0  0.04840  0.38806  0.52297  1.0000
  P   P2        1.0  0.05937  0.46947  0.49513  1.0000
  C   C61       1.0  0.08240  0.04548  0.58649  1.0000
  H   H51       1.0  0.05785  0.40014  0.44098  1.0000
  C   C62       1.0  0.03070  0.19213  0.47136  1.0000
  C   C63       1.0  0.07834  0.41463  0.51103  1.0000
  H   H52       1.0  0.05628  0.09447  0.54758  1.0000
  C   C64       1.0  0.05353  0.43185  0.38936  1.0000
  C   C65       1.0  0.11873  0.26290  0.62661  1.0000
  H   H53       1.0  0.02880  0.30774  0.34387  1.0000
  H   H54       1.0  0.01835  0.33935  0.63430  1.0000
  C   C66       1.0  0.14749  0.40593  0.61384  1.0000
  C   C67       1.0  0.05103  0.06536  0.56207  1.0000
  C   C68       1.0  0.14756  0.36450  0.62870  1.0000
  C   C69       1.0  0.14756  0.44176  0.63633  1.0000
  H   H55       1.0  0.05713  0.40333  0.62898  1.0000
  S   S8        1.0  0.99145  0.13334  0.63555  1.0000
  H   H56       1.0  0.03963  0.32502  0.54348  1.0000
  C   C70       1.0  0.00845  0.32750  0.44618  1.0000
  C   C71       1.0  0.02442  0.40747  0.64015  1.0000
  H   H57       1.0  0.01372  0.40033  0.52374  1.0000
  H   H58       1.0  0.21999  0.17131  0.62868  1.0000
  H   H59       1.0  0.16245  0.04200  0.64953  1.0000
  C   C72       1.0  0.03637  0.99108  0.60067  1.0000
  H   H60       1.0  0.04718  0.47231  0.34160  1.0000
  C   C73       1.0  0.05013  0.47140  0.37072  1.0000
  H   H61       1.0  0.17752  0.31725  0.33308  1.0000
  C   C74       1.0  0.99884  0.48298  0.55206  1.0000
  H   H62       1.0  0.10304  0.10569  0.65735  1.0000
  C   C75       1.0  0.35408  0.03197  0.83044  1.0000
  C   C76       1.0  0.39938  0.03068  0.83336  1.0000
  S   S9        1.0  0.06323  0.14777  0.72260  1.0000
  H   H63       1.0  0.28443  0.03459  0.74642  1.0000
  C   C77       1.0  0.25270  0.27157  0.77163  1.0000
  C   C78       1.0  0.07524  0.26732  0.71407  1.0000
  C   C79       1.0  0.10181  0.10013  0.71524  1.0000
  C   C80       1.0  0.11659  0.08721  0.68062  1.0000
  C   C81       1.0  0.15022  0.05119  0.67624  1.0000
  C   C82       1.0  0.16866  0.02743  0.70631  1.0000
  C   C83       1.0  0.15273  0.03951  0.74069  1.0000
  C   C84       1.0  0.11969  0.07589  0.74516  1.0000
  C   C85       1.0  0.06315  0.34610  0.71570  1.0000
  C   C86       1.0  0.14942  0.39467  0.68869  1.0000
  H   H64       1.0  0.16670  0.02119  0.76375  1.0000
  H   H65       1.0  0.10798  0.08540  0.77187  1.0000
  S   S10       1.0  0.21285  0.98423  0.70024  1.0000
  C   C87       1.0  0.29602  0.08411  0.91466  1.0000
  C   C88       1.0  0.14891  0.43607  0.67371  1.0000
  H   H66       1.0  0.05373  0.02697  0.73588  1.0000
  C   C89       1.0  0.33248  0.00697  0.85376  1.0000
  H   H67       1.0  0.20797  0.23531  0.79831  1.0000
  C   C90       1.0  0.26386  0.12276  0.86187  1.0000
  C   C91       1.0  0.22551  0.10437  0.86656  1.0000
  C   C92       1.0  0.22271  0.07602  0.89583  1.0000
  P   P3        1.0  0.18146  0.11615  0.83414  1.0000
  C   C93       1.0  0.15332  0.17172  0.83786  1.0000
  C   C94       1.0  0.20698  0.10702  0.79000  1.0000
  C   C95       1.0  0.24026  0.07112  0.78467  1.0000
  C   C96       1.0  0.25996  0.06321  0.75077  1.0000
  H   H68       1.0  0.27861  0.26294  0.79124  1.0000
  C   C97       1.0  0.03387  0.26726  0.72958  1.0000
  C   C98       1.0  0.19473  0.13545  0.76081  1.0000
  C   C99       1.0  0.16759  0.20075  0.86233  1.0000
  C   C100      1.0  0.14589  0.24375  0.86457  1.0000
  C   C101      1.0  0.10969  0.25801  0.84260  1.0000
  C   C102      1.0  0.09488  0.22919  0.81860  1.0000
  C   C103      1.0  0.11638  0.18622  0.81634  1.0000
  C   C104      1.0  0.14300  0.07850  0.84138  1.0000
  C   C105      1.0  0.10005  0.09316  0.85389  1.0000
  C   C106      1.0  0.07089  0.06373  0.85977  1.0000
  H   H69       1.0  0.01908  0.01775  0.67760  1.0000
  H   H70       1.0  0.32866  0.12649  0.88188  1.0000
  C   C107      1.0  0.15653  0.03365  0.83647  1.0000
  Fe  Fe4       1.0  0.01441  0.17415  0.67884  1.0000
  C   C108      1.0  0.02171  0.34582  0.73100  1.0000
  H   H71       1.0  0.14818  0.46408  0.69108  1.0000
  H   H72       1.0  0.26686  0.14437  0.83932  1.0000
  H   H73       1.0  0.19392  0.06086  0.90014  1.0000
  H   H74       1.0  0.25054  0.04868  0.80647  1.0000
  H   H75       1.0  0.03785  0.07537  0.86925  1.0000
  H   H76       1.0  0.07268  0.37725  0.70980  1.0000
  H   H77       1.0  0.47048  0.99144  0.76624  1.0000
  H   H78       1.0  0.16936  0.16334  0.76330  1.0000
  H   H79       1.0  0.19521  0.19039  0.87990  1.0000
  H   H80       1.0  0.15697  0.26600  0.88355  1.0000
  C   C109      1.0  0.14754  0.35868  0.66637  1.0000
  H   H81       1.0  0.06652  0.24003  0.80180  1.0000
  H   H82       1.0  0.10414  0.16426  0.79768  1.0000
  H   H83       1.0  0.08887  0.12710  0.85968  1.0000
  H   H84       1.0  0.45804  0.00439  0.86144  1.0000
  H   H85       1.0  0.02215  0.23678  0.73443  1.0000
  C   C110      1.0  0.22594  0.30901  0.71668  1.0000
  H   H86       1.0  0.18982  0.02096  0.82843  1.0000
  C   C111      1.0  0.00693  0.30646  0.73768  1.0000
  C   C112      1.0  0.21416  0.12712  0.72688  1.0000
  C   C113      1.0  0.29889  0.11275  0.88591  1.0000
  H   H87       1.0  0.25611  0.04284  0.94142  1.0000
  C   C114      1.0  0.24662  0.09092  0.72183  1.0000
  H   H88       1.0  0.29731  0.00807  0.85200  1.0000
  H   H89       1.0  0.09507  0.23644  0.70723  1.0000
  C   C115      1.0  0.25799  0.06576  0.91957  1.0000
  H   H90       1.0  0.14964  0.39104  0.71777  1.0000
  H   H91       1.0  0.29020  0.30978  0.73889  1.0000
  C   C116      1.0  0.17947  0.26720  0.75035  1.0000
  H   H92       1.0  0.01028  0.09121  0.79580  1.0000
  H   H93       1.0  0.33579  0.05223  0.81007  1.0000
  C   C117      1.0  0.09020  0.30680  0.70672  1.0000
  H   H94       1.0  0.41630  0.04982  0.81517  1.0000
  H   H95       1.0  0.14916  0.25446  0.75392  1.0000
  C   C118      1.0  0.18566  0.29395  0.72073  1.0000
  C   C119      1.0  0.12748  0.00428  0.84287  1.0000
  C   C120      1.0  0.21290  0.25610  0.77566  1.0000
  H   H96       1.0  0.20287  0.14787  0.70417  1.0000
  C   C121      1.0  0.08455  0.01930  0.85411  1.0000
  C   C122      1.0  0.42730  0.00225  0.97300  1.0000
  H   H97       1.0  0.00019  0.37627  0.73621  1.0000
  C   C123      1.0  0.25921  0.29801  0.74215  1.0000
  H   H98       1.0  0.26051  0.08340  0.69525  1.0000
  H   H99       1.0  0.32351  0.07550  0.93282  1.0000
  H   H100      1.0  0.23187  0.32889  0.69367  1.0000
  P   P4        1.0  0.14389  0.30620  0.68657  1.0000
  H   H101      1.0  0.06224  0.99638  0.85912  1.0000
  C   C124      1.0  0.42314  0.00424  0.85946  1.0000
  H   H102      1.0  0.09283  0.29129  0.84441  1.0000
  H   H103      1.0  0.45344  0.01536  0.95936  1.0000
  H   H104      1.0  0.21351  0.23054  0.67318  1.0000
  C   C125      1.0  0.06018  0.99579  0.72254  1.0000
  C   C126      1.0  0.04023  0.99023  0.68956  1.0000
  Fe  Fe5       1.0  0.06366  0.64532  0.26645  1.0000
  H   H105      1.0  0.99930  0.94162  0.10682  1.0000
  S   S11       1.0  0.12319  0.65439  0.23109  1.0000
  H   H106      1.0  0.01169  0.91803  0.24700  1.0000
  H   H107      1.0  0.00347  0.86902  0.29879  1.0000
  C   C127      1.0  0.27281  0.49399  0.27161  1.0000
  C   C128      1.0  0.10408  0.95138  0.25737  1.0000
  Fe  Fe6       1.0  0.34505  0.88981  0.15329  1.0000
  S   S12       1.0  0.31991  0.93712  0.10943  1.0000
  S   S13       1.0  0.41893  0.87094  0.16554  1.0000
  Fe  Fe7       1.0  0.25292  0.85985  0.16389  1.0000
  S   S14       1.0  0.22382  0.90449  0.11899  1.0000
  S   S15       1.0  0.20449  0.82927  0.20026  1.0000
  Fe  Fe8       1.0  0.28656  0.88364  0.08813  1.0000
  S   S16       1.0  0.29867  0.86093  0.03004  1.0000
  Fe  Fe9       1.0  0.25927  0.95426  0.14430  1.0000
  S   S17       1.0  0.31344  0.83490  0.13099  1.0000
  S   S18       1.0  0.28667  0.91104  0.19015  1.0000
  C   C129      1.0  0.46600  0.89777  0.16265  1.0000
  C   C130      1.0  0.46265  0.94297  0.15900  1.0000
  C   C131      1.0  0.43277  0.87399  0.04763  1.0000
  S   S19       1.0  0.03583  0.69472  0.30746  1.0000
  H   H108      1.0  0.18249  0.63618  0.31118  1.0000
  C   C132      1.0  0.00080  0.71688  0.16024  1.0000
  C   C133      1.0  0.14467  0.70366  0.22229  1.0000
  C   C134      1.0  0.17970  0.70310  0.19761  1.0000
  C   C135      1.0  0.19804  0.74108  0.19009  1.0000
  C   C136      1.0  0.18206  0.78023  0.20759  1.0000
  C   C137      1.0  0.14694  0.78080  0.23218  1.0000
  C   C138      1.0  0.12816  0.74302  0.23926  1.0000
  H   H109      1.0  0.19283  0.67300  0.18423  1.0000
  H   H110      1.0  0.22490  0.73990  0.17109  1.0000
  H   H111      1.0  0.13397  0.81078  0.24583  1.0000
  H   H112      1.0  0.10118  0.74431  0.25815  1.0000
  C   C139      1.0  0.30607  0.81018  0.24627  1.0000
  H   H113      1.0  0.28812  0.78551  0.23624  1.0000
  H   H114      1.0  0.40472  0.89630  0.03785  1.0000
  H   H115      1.0  0.06657  0.61934  0.14807  1.0000
  H   H116      1.0  0.38451  0.94954  0.20783  1.0000
  H   H117      1.0  0.43069  0.96274  0.15626  1.0000
  C   C140      1.0  0.35128  0.87603  0.27028  1.0000
  C   C141      1.0  0.00632  0.85623  0.27162  1.0000
  S   S20       1.0  0.06512  0.58881  0.30543  1.0000
  C   C142      1.0  0.01092  0.88379  0.24248  1.0000
  C   C143      1.0  0.07387  0.50197  0.18752  1.0000
  S   S21       1.0  0.99772  0.63555  0.24406  1.0000
  C   C144      1.0  0.03176  0.74482  0.15455  1.0000
  C   C145      1.0  0.18523  0.56940  0.29520  1.0000
  C   C146      1.0  0.30783  0.87527  0.28141  1.0000
  H   H118      1.0  0.19719  0.57546  0.26840  1.0000
  C   C147      1.0  0.35696  0.97230  0.00739  1.0000
  H   H119      1.0  0.12550  0.56170  0.24440  1.0000
  H   H120      1.0  0.13174  0.89626  0.22508  1.0000
  H   H121      1.0  0.39322  0.83891  0.08118  1.0000
  C   C148      1.0  0.46169  0.87243  0.28168  1.0000
  C   C149      1.0  0.17614  0.52803  0.30488  1.0000
  C   C150      1.0  0.46203  0.81289  0.08552  1.0000
  H   H122      1.0  0.09532  0.92573  0.16914  1.0000
  C   C151      1.0  0.01396  0.86731  0.20739  1.0000
  C   C152      1.0  0.17718  0.60397  0.31950  1.0000
  H   H123      1.0  0.12019  0.93848  0.28191  1.0000
  C   C153      1.0  0.28545  0.84231  0.26958  1.0000
  C   C154      1.0  0.05668  0.65424  0.14950  1.0000
  H   H124      1.0  0.24148  0.94393  0.01466  1.0000
  H   H125      1.0  0.40406  0.84474  0.23604  1.0000
  C   C155      1.0  0.07549  0.72679  0.14688  1.0000
  C   C156      1.0  0.08779  0.68169  0.14436  1.0000
  C   C157      1.0  0.09044  0.94471  0.19357  1.0000
  C   C158      1.0  0.08420  0.53813  0.20576  1.0000
  H   H126      1.0  0.01669  0.88927  0.18509  1.0000
  C   C159      1.0  0.05169  0.83065  0.13015  1.0000
  C   C160      1.0  0.09310  0.83328  0.14453  1.0000
  C   C161      1.0  0.12288  0.85398  0.12532  1.0000
  C   C162      1.0  0.11119  0.87352  0.09205  1.0000
  C   C163      1.0  0.06960  0.87213  0.07787  1.0000
  C   C164      1.0  0.03991  0.85071  0.09677  1.0000
  H   H127      1.0  0.29079  0.90087  0.29833  1.0000
  H   H128      1.0  0.47992  0.90407  0.01811  1.0000
  H   H129      1.0  0.06545  0.57013  0.20095  1.0000
  C   C165      1.0  0.37150  0.84390  0.24650  1.0000
  H   H130      1.0  0.10049  0.74702  0.14322  1.0000
  H   H131      1.0  0.12180  0.66796  0.13946  1.0000
  C   C166      1.0  0.00466  0.81223  0.26565  1.0000
  P   P5        1.0  0.37770  0.92158  0.28252  1.0000
  H   H132      1.0  0.10260  0.81895  0.17057  1.0000
  H   H133      1.0  0.15502  0.85493  0.13649  1.0000
  H   H134      1.0  0.13444  0.88975  0.07738  1.0000
  H   H135      1.0  0.06047  0.88762  0.05219  1.0000
  C   C167      1.0  0.11074  0.92773  0.22534  1.0000
  H   H136      1.0  0.00562  0.76157  0.22667  1.0000
  C   C168      1.0  0.42616  0.84144  0.07208  1.0000
  H   H137      1.0  0.36451  0.78711  0.21554  1.0000
  C   C169      1.0  0.43596  0.91250  0.27293  1.0000
  C   C170      1.0  0.34904  0.81104  0.23468  1.0000
  H   H138      1.0  0.25149  0.84247  0.27726  1.0000
  P   P6        1.0  0.01413  0.80304  0.15555  1.0000
  H   H139      1.0  0.00786  0.85039  0.08536  1.0000
  C   C171      1.0  0.11827  0.53312  0.23085  1.0000
  C   C172      1.0  0.00780  0.79560  0.23059  1.0000
  H   H140      1.0  0.04681  0.50581  0.16865  1.0000
  C   C173      1.0  0.34914  0.96725  0.25741  1.0000
  C   C174      1.0  0.47529  0.87806  0.03649  1.0000
  P   P7        1.0  0.18463  0.48442  0.27223  1.0000
  C   C175      1.0  0.45656  0.94608  0.25881  1.0000
  C   C176      1.0  0.31357  0.49514  0.25531  1.0000
  C   C177      1.0  0.01296  0.82298  0.20123  1.0000
  H   H141      1.0  0.32948  0.96076  0.02055  1.0000
  Fe  Fe10      1.0  0.99717  0.58326  0.28712  1.0000
  H   H142      1.0  0.44680  0.84657  0.29374  1.0000
  C   C178      1.0  0.23731  0.48496  0.25100  1.0000
  H   H143      1.0  0.43801  0.97784  0.25300  1.0000
  H   H144      1.0  0.45675  0.78865  0.10545  1.0000
  C   C179      1.0  0.14193  0.49173  0.23844  1.0000
  H   H145      1.0  0.35071  0.48841  0.20571  1.0000
  H   H146      1.0  0.26890  0.50041  0.30024  1.0000
  H   H147      1.0  0.00005  0.79100  0.28812  1.0000
  H   H148      1.0  0.34072  0.50253  0.27129  1.0000
  C   C180      1.0  0.35934  0.97252  0.22090  1.0000
  C   C181      1.0  0.31920  0.48720  0.21838  1.0000
  C   C182      1.0  0.01319  0.67184  0.15738  1.0000
  S   S22       1.0  0.05973  0.63180  0.40185  1.0000
  H   H149      1.0  0.00408  0.76886  0.55967  1.0000
  C   C183      1.0  0.05209  0.50935  0.42732  1.0000
  C   C184      1.0  0.12776  0.54895  0.55245  1.0000
  H   H150      1.0  0.18365  0.57755  0.53571  1.0000
  C   C185      1.0  0.06318  0.81556  0.60562  1.0000
  H   H151      1.0  0.10421  0.92327  0.58042  1.0000
  C   C186      1.0  0.04419  0.62327  0.47408  1.0000
  C   C187      1.0  0.01157  0.76261  0.50166  1.0000
  H   H152      1.0  0.03329  0.61955  0.53140  1.0000
  S   S23       1.0  0.09317  0.70317  0.64939  1.0000
  H   H153      1.0  0.03036  0.74901  0.44581  1.0000
  H   H154      1.0  0.07944  0.61463  0.47634  1.0000
  H   H155      1.0  0.01079  0.85503  0.63402  1.0000
  H   H156      1.0  0.15285  0.62463  0.37224  1.0000
  C   C188      1.0  0.02412  0.75386  0.53769  1.0000
  C   C189      1.0  0.07756  0.71486  0.48199  1.0000
  H   H157      1.0  0.36171  0.86632  0.34442  1.0000
  C   C190      1.0  0.36576  0.89808  0.35434  1.0000
  C   C191      1.0  0.02514  0.63270  0.44006  1.0000
  C   C192      1.0  0.06218  0.72457  0.54570  1.0000
  C   C193      1.0  0.16041  0.55656  0.52816  1.0000
  Fe  Fe11      1.0  0.03232  0.63827  0.34487  1.0000
  C   C194      1.0  0.03895  0.74321  0.47386  1.0000
  H   H158      1.0  0.07211  0.51754  0.56201  1.0000
  C   C195      1.0  0.01807  0.62602  0.50540  1.0000
  H   H159      1.0  0.05304  0.78521  0.61392  1.0000
  H   H160      1.0  0.09770  0.69905  0.46028  1.0000
  C   C196      1.0  0.16301  0.53715  0.49416  1.0000
  H   H161      1.0  0.11808  0.68203  0.52413  1.0000
  C   C197      1.0  0.08895  0.70516  0.51788  1.0000
  C   C198      1.0  0.16048  0.59747  0.35384  1.0000
  S   S24       1.0  0.03889  0.60619  0.60815  1.0000
  C   C199      1.0  0.11518  0.85383  0.57518  1.0000
  H   H162      1.0  0.13742  0.55200  0.39014  1.0000
  H   H163      1.0  0.07075  0.71647  0.57351  1.0000
  H   H164      1.0  0.14914  0.76867  0.64802  1.0000
  C   C200      1.0  0.09177  0.89358  0.58693  1.0000
  C   C201      1.0  0.15176  0.55637  0.36389  1.0000
  H   H165      1.0  0.14504  0.85316  0.55954  1.0000
  Fe  Fe12      1.0  0.03988  0.65915  0.64959  1.0000
  H   H166      1.0  0.11988  0.78395  0.57652  1.0000
  C   C202      1.0  0.10101  0.81484  0.58467  1.0000
  C   C203      1.0  0.00713  0.49157  0.51559  1.0000
  C   C204      1.0  0.00748  0.86713  0.50895  1.0000
  H   H167      1.0  0.05151  0.53973  0.44153  1.0000
  H   H168      1.0  0.13569  0.49540  0.45798  1.0000
  C   C205      1.0  0.05339  0.89456  0.60760  1.0000
  H   H169      1.0  0.12583  0.56393  0.57887  1.0000
  C   C206      1.0  0.04937  0.51010  0.38972  1.0000
  C   C207      1.0  0.03935  0.85520  0.61695  1.0000
  C   C208      1.0  0.37360  0.93114  0.33043  1.0000
  Fe  Fe13      1.0  0.00974  0.56734  0.65094  1.0000
  H   H170      1.0  0.04197  0.91960  0.52324  1.0000
  C   C209      1.0  0.36346  0.90571  0.39151  1.0000
  C   C210      1.0  0.37816  0.97891  0.38144  1.0000
  C   C211      1.0  0.01515  0.91024  0.50803  1.0000
  C   C212      1.0  0.09720  0.52249  0.54266  1.0000
  H   H171      1.0  0.04612  0.54091  0.37536  1.0000
  H   H172      1.0  0.35719  0.88018  0.40985  1.0000
  H   H173      1.0  0.02847  0.84361  0.52532  1.0000
  P   P8        1.0  0.02628  0.94476  0.62724  1.0000
  H   H174      1.0  0.18831  0.54311  0.47528  1.0000
  C   C213      1.0  0.13280  0.51032  0.48437  1.0000
  H   H175      1.0  0.15138  0.49061  0.34773  1.0000
  C   C214      1.0  0.09913  0.50329  0.50832  1.0000
  S   S25       1.0  0.03500  0.49341  0.64960  1.0000
  C   C215      1.0  0.36950  0.94615  0.40506  1.0000
  C   C216      1.0  0.15940  0.52174  0.33953  1.0000
  H   H176      1.0  0.99444  0.97473  0.48655  1.0000
  H   H177      1.0  0.36774  0.95200  0.43387  1.0000
  C   C217      1.0  0.38051  0.97136  0.34426  1.0000
  H   H178      1.0  0.05086  0.81324  0.68707  1.0000
  H   H179      1.0  0.31485  0.83737  0.95633  1.0000
  C   C218      1.0  0.40177  0.97797  0.88221  1.0000
  C   C219      1.0  0.43780  0.93538  0.77261  1.0000
  H   H180      1.0  0.01760  0.93162  0.76884  1.0000
  S   S26       1.0  0.27440  0.87203  0.73255  1.0000
  Fe  Fe14      1.0  0.24866  0.92181  0.82776  1.0000
  S   S27       1.0  0.28190  0.85322  0.81909  1.0000
  H   H181      1.0  0.04080  0.81444  0.80216  1.0000
  Fe  Fe15      1.0  0.32219  0.88239  0.77696  1.0000
  S   S28       1.0  0.39751  0.86080  0.77761  1.0000
  Fe  Fe16      1.0  0.23115  0.84946  0.77556  1.0000
  S   S29       1.0  0.18693  0.79630  0.77487  1.0000
  C   C220      1.0  0.07769  0.76387  0.90631  1.0000
  S   S30       1.0  0.19520  0.91654  0.78765  1.0000
  C   C221      1.0  0.25160  0.92869  0.92322  1.0000
  C   C222      1.0  0.02039  0.90910  0.87175  1.0000
  C   C223      1.0  0.05107  0.72431  0.85722  1.0000
  C   C224      1.0  0.27969  0.88871  0.92350  1.0000
  H   H182      1.0  0.12372  0.89634  0.73052  1.0000
  H   H183      1.0  0.29062  0.87311  0.89834  1.0000
  C   C225      1.0  0.44290  0.89030  0.77804  1.0000
  Fe  Fe17      1.0  0.23972  0.93943  0.74648  1.0000
  C   C226      1.0  0.11852  0.72879  0.68491  1.0000
  C   C227      1.0  0.11349  0.71855  0.72136  1.0000
  C   C228      1.0  0.13471  0.73944  0.74835  1.0000
  C   C229      1.0  0.16101  0.77108  0.73944  1.0000
  C   C230      1.0  0.16554  0.78173  0.70302  1.0000
  C   C231      1.0  0.14469  0.76054  0.67603  1.0000
  H   H184      1.0  0.09344  0.69441  0.72877  1.0000
  H   H185      1.0  0.13071  0.73102  0.77637  1.0000
  H   H186      1.0  0.18565  0.80585  0.69561  1.0000
  H   H187      1.0  0.38771  0.77305  0.90222  1.0000
  H   H188      1.0  0.10947  0.70120  0.88775  1.0000
  C   C232      1.0  0.41845  0.88884  0.91145  1.0000
  H   H189      1.0  0.07314  0.83831  0.74630  1.0000
  S   S31       1.0  0.01742  0.61767  0.69362  1.0000
  H   H190      1.0  0.08613  0.89515  0.79756  1.0000
  C   C233      1.0  0.39533  0.83239  0.87461  1.0000
  C   C234      1.0  0.40620  0.87409  0.87785  1.0000
  C   C235      1.0  0.05669  0.90442  0.81366  1.0000
  H   H191      1.0  0.43054  0.87141  0.96747  1.0000
  C   C236      1.0  0.35619  0.97986  0.87935  1.0000
  C   C237      1.0  0.05801  0.89664  0.85078  1.0000
  H   H192      1.0  0.38522  0.82153  0.84866  1.0000
  C   C238      1.0  0.01561  0.75815  0.85202  1.0000
  H   H193      1.0  0.48870  0.92291  0.85363  1.0000
  C   C239      1.0  0.04271  0.79779  0.90125  1.0000
  H   H194      1.0  0.40464  0.89473  0.85410  1.0000
  C   C240      1.0  0.37374  0.95335  0.97508  1.0000
  C   C241      1.0  0.03502  0.80413  0.71139  1.0000
  C   C242      1.0  0.29355  0.86855  0.95647  1.0000
  S   S32       1.0  0.23278  0.95472  0.88220  1.0000
  C   C243      1.0  0.39696  0.80503  0.90473  1.0000
  C   C244      1.0  0.23813  0.94859  0.95631  1.0000
  C   C245      1.0  0.41005  0.81914  0.93809  1.0000
  H   H195      1.0  0.21629  0.97944  0.95639  1.0000
  C   C246      1.0  0.04893  0.95015  0.67161  1.0000
  H   H196      1.0  0.08842  0.88144  0.86326  1.0000
  C   C247      1.0  0.41013  0.96710  0.95826  1.0000
  C   C248      1.0  0.01209  0.79528  0.87394  1.0000
  H   H197      1.0  0.02171  0.90421  0.90070  1.0000
  P   P9        1.0  0.43120  0.94312  0.91604  1.0000
  H   H198      1.0  0.40529  0.95367  0.76867  1.0000
  H   H199      1.0  0.03078  0.68146  0.78027  1.0000
  C   C249      1.0  0.09940  0.92215  0.71960  1.0000
  H   H200      1.0  0.41074  0.79818  0.96160  1.0000
  H   H201      1.0  0.49022  0.83258  0.78774  1.0000
  H   H202      1.0  0.10179  0.76608  0.92712  1.0000
  C   C250      1.0  0.02955  0.80409  0.77654  1.0000
  H   H203      1.0  0.05556  0.69583  0.84028  1.0000
  C   C251      1.0  0.08194  0.72724  0.88421  1.0000
  C   C252      1.0  0.47495  0.95676  0.77126  1.0000
  C   C253      1.0  0.01772  0.92444  0.79746  1.0000
  C   C254      1.0  0.07866  0.91602  0.68701  1.0000
  C   C255      1.0  0.42107  0.86078  0.94139  1.0000
  H   H204      1.0  0.03964  0.82617  0.91839  1.0000
  C   C256      1.0  0.04764  0.81822  0.74485  1.0000
  S   S33       1.0  0.29027  0.95124  0.78738  1.0000
  H   H205      1.0  0.35791  0.92819  0.96328  1.0000
  H   H206      1.0  0.33883  0.96017  0.89674  1.0000
  H   H207      1.0  0.08741  0.88510  0.67355  1.0000
  C   C257      1.0  0.09013  0.96204  0.73735  1.0000
  C   C258      1.0  0.00162  0.67061  0.79096  1.0000
  H   H208      1.0  0.10685  0.96718  0.76219  1.0000
  C   C259      1.0  0.99860  0.77566  0.77493  1.0000
  C   C260      1.0  0.00400  0.77613  0.70951  1.0000
  H   H209      1.0  0.13873  0.96970  0.83988  1.0000
  H   H210      1.0  0.02163  0.60483  0.77262  1.0000
  C   C261      1.0  0.48569  0.86736  0.78331  1.0000
  C   C262      1.0  0.99650  0.62716  0.78639  1.0000
  C   C263      1.0  0.27989  0.88818  0.98955  1.0000
  C   C264      1.0  0.25223  0.92848  0.98937  1.0000
  H   H211      1.0  0.99519  0.76420  0.68359  1.0000
  C   C265      1.0  0.49009  0.93875  0.91045  1.0000
  S   S34       1.0  0.94307  0.23962  0.29336  1.0000
  C   C266      1.0  0.72945  0.10903  0.16440  1.0000
  C   C267      1.0  0.69066  0.01922  0.25370  1.0000
  Fe  Fe18      1.0  0.95547  0.18053  0.25713  1.0000
  S   S35       1.0  0.90663  0.16312  0.21506  1.0000
  H   H212      1.0  0.78832  0.17862  0.22763  1.0000
  S   S36       1.0  0.69871  0.00068  0.13673  1.0000
  C   C268      1.0  0.59052  0.26183  0.24341  1.0000
  H   H213      1.0  0.74717  0.08137  0.11218  1.0000
  H   H214      1.0  0.72976  0.21506  0.18678  1.0000
  S   S37       1.0  0.79646  0.00500  0.21278  1.0000
  H   H215      1.0  0.72355  0.07821  0.17539  1.0000
  C   C269      1.0  0.63261  0.20590  0.20655  1.0000
  H   H216      1.0  0.63791  0.18984  0.18066  1.0000
  C   C270      1.0  0.74312  0.11064  0.12845  1.0000
  C   C271      1.0  0.72436  0.14659  0.18583  1.0000
  H   H217      1.0  0.93507  0.14568  0.13744  1.0000
  H   H218      1.0  0.73940  0.06000  0.26150  1.0000
  C   C272      1.0  0.64927  0.01604  0.23994  1.0000
  H   H219      1.0  0.95447  0.36385  0.29643  1.0000
  C   C273      1.0  0.74810  0.18695  0.13504  1.0000
  C   C274      1.0  0.82857  0.04794  0.21202  1.0000
  C   C275      1.0  0.84982  0.05746  0.24385  1.0000
  C   C276      1.0  0.87561  0.09105  0.24478  1.0000
  C   C277      1.0  0.87923  0.11674  0.21416  1.0000
  C   C278      1.0  0.85844  0.10685  0.18219  1.0000
  C   C279      1.0  0.83420  0.07206  0.18090  1.0000
  H   H220      1.0  0.84629  0.03875  0.26805  1.0000
  H   H221      1.0  0.89133  0.09809  0.26959  1.0000
  H   H222      1.0  0.86097  0.12629  0.15826  1.0000
  H   H223      1.0  0.81962  0.06410  0.15590  1.0000
  C   C280      1.0  0.73360  0.18565  0.17079  1.0000
  H   H224      1.0  0.59373  0.02872  0.06600  1.0000
  C   C281      1.0  0.96125  0.43212  0.29317  1.0000
  H   H225      1.0  0.95202  0.06576  0.13886  1.0000
  H   H226      1.0  0.76407  0.15036  0.08618  1.0000
  H   H227      1.0  0.59181  0.04967  0.21349  1.0000
  H   H228      1.0  0.75587  0.21699  0.12379  1.0000
  C   C282      1.0  0.75273  0.14948  0.11385  1.0000
  C   C283      1.0  0.59833  0.24092  0.21020  1.0000
  S   S38       1.0  0.98325  0.13502  0.30124  1.0000
  C   C284      1.0  0.70630  0.05893  0.25242  1.0000
  P   P10       1.0  0.70312  0.14562  0.23135  1.0000
  C   C285      1.0  0.78260  0.16874  0.25498  1.0000
  C   C286      1.0  0.63881  0.09254  0.22393  1.0000
  H   H229      1.0  0.61874  0.12004  0.21124  1.0000
  C   C287      1.0  0.81387  0.17396  0.28110  1.0000
  H   H230      1.0  0.49739  0.99794  0.15854  1.0000
  C   C288      1.0  0.65961  0.19167  0.23609  1.0000
  H   H231      1.0  0.63777  0.98490  0.23975  1.0000
  C   C289      1.0  0.68051  0.09597  0.23758  1.0000
  H   H232      1.0  0.57777  0.25178  0.18725  1.0000
  C   C290      1.0  0.74545  0.15016  0.26425  1.0000
  H   H233      1.0  0.84276  0.18778  0.27357  1.0000
  H   H234      1.0  0.56397  0.28898  0.24622  1.0000
  C   C291      1.0  0.74053  0.13658  0.30007  1.0000
  C   C292      1.0  0.62333  0.05270  0.22513  1.0000
  C   C293      1.0  0.61688  0.24759  0.27304  1.0000
  C   C294      1.0  0.65117  0.21254  0.26949  1.0000
  H   H235      1.0  0.67096  0.20205  0.29285  1.0000
  H   H236      1.0  0.71159  0.99048  0.26396  1.0000
  C   C295      1.0  0.95666  0.99101  0.18389  1.0000
  H   H237      1.0  0.71213  0.12235  0.30802  1.0000
  H   H238      1.0  0.92876  0.44340  0.30386  1.0000
  C   C296      1.0  0.96818  0.12981  0.14321  1.0000
  H   H239      1.0  0.96320  0.01339  0.20475  1.0000
  C   C297      1.0  0.98810  0.46284  0.28311  1.0000
  C   C298      1.0  0.97578  0.38690  0.28906  1.0000
  C   C299      1.0  0.97785  0.08440  0.14463  1.0000
  C   C300      1.0  0.58774  0.99632  0.05942  1.0000
  H   H240      1.0  0.53326  0.99871  0.09598  1.0000
  H   H241      1.0  0.61075  0.26369  0.29884  1.0000
  C   C301      1.0  0.80897  0.15989  0.31647  1.0000
  H   H242      1.0  0.64211  0.98387  0.02253  1.0000
  C   C302      1.0  0.77230  0.14117  0.32596  1.0000
  C   C303      1.0  0.81722  0.31935  0.37351  1.0000
  C   C304      1.0  0.88200  0.35344  0.41210  1.0000
  S   S39       1.0  0.92388  0.22131  0.61040  1.0000
  C   C305      1.0  0.90840  0.31364  0.53262  1.0000
  H   H243      1.0  0.90487  0.19971  0.46248  1.0000
  C   C306      1.0  0.96605  0.19609  0.43349  1.0000
  C   C307      1.0  0.94004  0.19781  0.46486  1.0000
  S   S40       1.0  0.94035  0.19623  0.39085  1.0000
  C   C308      1.0  0.90936  0.32368  0.49584  1.0000
  H   H244      1.0  0.83656  0.41428  0.40975  1.0000
  H   H245      1.0  0.91802  0.28765  0.40985  1.0000
  C   C309      1.0  0.91868  0.36432  0.48433  1.0000
  C   C310      1.0  0.84256  0.38022  0.40265  1.0000
  C   C311      1.0  0.88818  0.30924  0.40262  1.0000
  C   C312      1.0  0.91681  0.34394  0.55826  1.0000
  H   H246      1.0  0.91609  0.33599  0.58678  1.0000
  H   H247      1.0  0.93702  0.42516  0.50239  1.0000
  H   H248      1.0  0.95961  0.35119  0.36455  1.0000
  C   C313      1.0  0.88924  0.46302  0.44602  1.0000
  C   C314      1.0  0.92656  0.38426  0.54713  1.0000
  C   C315      1.0  0.92785  0.39435  0.51032  1.0000
  H   H249      1.0  0.86147  0.25832  0.37572  1.0000
  C   C316      1.0  0.85602  0.29239  0.38328  1.0000
  C   C317      1.0  0.97653  0.34603  0.42127  1.0000
  H   H250      1.0  0.93358  0.40742  0.56720  1.0000
  H   H251      1.0  0.96363  0.42547  0.38066  1.0000
  H   H252      1.0  0.90158  0.28206  0.54127  1.0000
  P   P11       1.0  0.92419  0.37507  0.43659  1.0000
  Fe  Fe19      1.0  0.92324  0.16625  0.65092  1.0000
  C   C318      1.0  0.91899  0.43276  0.42646  1.0000
  H   H253      1.0  0.90380  0.29918  0.47654  1.0000
  C   C319      1.0  0.81042  0.36322  0.38330  1.0000
  H   H254      1.0  0.81586  0.05481  0.65408  1.0000
  H   H255      1.0  0.86961  0.45231  0.46755  1.0000
  C   C320      1.0  0.94196  0.44772  0.39738  1.0000
  H   H256      1.0  0.93893  0.19679  0.52325  1.0000
  C   C321      1.0  0.95925  0.19620  0.49934  1.0000
  Fe  Fe20      1.0  0.97563  0.19441  0.33661  1.0000
  Fe  Fe21      1.0  0.95305  0.25719  0.65475  1.0000
  S   S41       1.0  0.87089  0.12107  0.65277  1.0000
  H   H257      1.0  0.78032  0.38414  0.37570  1.0000
  H   H258      1.0  0.76868  0.13001  0.35337  1.0000
  H   H259      1.0  0.79254  0.30618  0.35830  1.0000
  C   C322      1.0  0.98430  0.33869  0.38427  1.0000
  H   H260      1.0  0.83397  0.16306  0.33633  1.0000
  C   C323      1.0  0.96020  0.37564  0.65803  1.0000
  H   H261      1.0  0.98779  0.06444  0.53836  1.0000
  H   H262      1.0  0.97453  0.99916  0.57174  1.0000
  C   C324      1.0  0.93141  0.02888  0.74354  1.0000
  H   H263      1.0  0.81449  0.06806  0.85874  1.0000
  H   H264      1.0  0.81911  0.10935  0.77899  1.0000
  C   C325      1.0  0.94698  0.01351  0.77746  1.0000
  C   C326      1.0  0.81709  0.06647  0.68144  1.0000
  H   H265      1.0  0.87814  0.04983  0.81844  1.0000
  S   S42       1.0  0.76301  0.04403  0.77999  1.0000
  H   H266      1.0  0.97403  0.30642  0.74804  1.0000
  C   C327      1.0  0.86692  0.02402  0.83376  1.0000
  H   H267      1.0  0.72581  0.00948  0.96422  1.0000
  C   C328      1.0  0.94550  0.06535  0.72818  1.0000
  H   H268      1.0  0.77446  0.02323  0.70263  1.0000
  C   C329      1.0  0.98836  0.07355  0.78134  1.0000
  H   H269      1.0  0.86124  0.14025  0.73064  1.0000
  C   C330      1.0  0.97518  0.03644  0.79650  1.0000
  C   C331      1.0  0.81371  0.00184  0.87534  1.0000
  C   C332      1.0  0.81873  0.09694  0.75182  1.0000
  S   S43       1.0  0.94633  0.20472  0.69621  1.0000
  C   C333      1.0  0.79381  0.06389  0.74434  1.0000
  C   C334      1.0  0.79360  0.04839  0.70896  1.0000
  H   H270      1.0  0.93404  0.07674  0.70171  1.0000
  C   C335      1.0  0.83067  0.03458  0.85667  1.0000
  C   C336      1.0  0.84180  0.09971  0.68885  1.0000
  C   C337      1.0  0.84264  0.11465  0.72438  1.0000
  H   H271      1.0  0.90731  0.42151  0.68044  1.0000
  H   H272      1.0  0.98349  0.11666  0.73533  1.0000
  C   C338      1.0  0.97353  0.08791  0.74716  1.0000
  H   H273      1.0  0.90813  0.01325  0.72894  1.0000
  H   H274      1.0  0.78498  0.01011  0.89240  1.0000
  C   C339      1.0  0.94000  0.41740  0.66897  1.0000
  H   H275      1.0  0.98683  0.02573  0.82304  1.0000
  Fe  Fe22      1.0  0.72522  0.98610  0.78256  1.0000
  C   C340      1.0  0.96193  0.45381  0.66592  1.0000
  S   S44       1.0  0.93165  0.33051  0.66471  1.0000
  H   H276      1.0  0.87562  0.98714  0.67561  1.0000
  H   H277      1.0  0.95560  0.98406  0.67663  1.0000
  H   H278      1.0  0.92846  0.84739  0.18289  1.0000
  S   S45       1.0  0.58938  0.96546  0.16727  1.0000
  S   S46       1.0  0.92066  0.74595  0.28012  1.0000
  S   S47       1.0  0.69255  0.90060  0.11144  1.0000
  S   S48       1.0  0.77913  0.80850  0.15727  1.0000
  H   H279      1.0  0.60478  0.86610  0.10669  1.0000
  C   C341      1.0  0.54632  0.89267  0.16619  1.0000
  C   C342      1.0  0.50461  0.81650  0.07424  1.0000
  H   H280      1.0  0.57821  0.87300  0.16976  1.0000
  C   C343      1.0  0.88263  0.76251  0.24484  1.0000
  C   C344      1.0  0.85838  0.80480  0.24576  1.0000
  C   C345      1.0  0.82676  0.81919  0.21920  1.0000
  C   C346      1.0  0.81881  0.79136  0.19133  1.0000
  C   C347      1.0  0.84338  0.74916  0.19015  1.0000
  C   C348      1.0  0.87528  0.73481  0.21666  1.0000
  H   H281      1.0  0.86384  0.82653  0.26735  1.0000
  H   H282      1.0  0.80830  0.85178  0.22047  1.0000
  H   H283      1.0  0.83768  0.72744  0.16864  1.0000
  H   H284      1.0  0.89362  0.70218  0.21561  1.0000
  H   H285      1.0  0.73098  0.88900  0.02213  1.0000
  Fe  Fe23      1.0  0.72993  0.95346  0.09456  1.0000
  C   C349      1.0  0.50817  0.87285  0.16599  1.0000
  H   H286      1.0  0.85490  0.85853  0.15648  1.0000
  C   C350      1.0  0.54289  0.93797  0.16360  1.0000
  H   H287      1.0  0.52627  0.83383  0.28019  1.0000
  C   C351      1.0  0.93746  0.93427  0.13030  1.0000
  H   H288      1.0  0.98911  0.65058  0.16190  1.0000
  C   C352      1.0  0.98577  0.98110  0.15477  1.0000
  H   H289      1.0  0.51132  0.83792  0.16905  1.0000
  C   C353      1.0  0.95229  0.79518  0.10269  1.0000
  H   H290      1.0  0.51728  0.96443  0.23995  1.0000
  Fe  Fe24      1.0  0.74883  0.87993  0.15009  1.0000
  H   H291      1.0  0.89635  0.97984  0.20890  1.0000
  C   C354      1.0  0.50678  0.86521  0.27436  1.0000
  C   C355      1.0  0.64886  0.80700  0.11781  1.0000
  C   C356      1.0  0.66729  0.76586  0.10531  1.0000
  C   C357      1.0  0.65437  0.75129  0.07204  1.0000
  C   C358      1.0  0.62363  0.77823  0.05095  1.0000
  C   C359      1.0  0.60633  0.82036  0.06273  1.0000
  C   C360      1.0  0.61835  0.83411  0.09670  1.0000
  P   P12       1.0  0.56661  0.85542  0.03584  1.0000
  C   C361      1.0  0.57417  0.91110  0.04408  1.0000
  C   C362      1.0  0.52670  0.89831  0.25916  1.0000
  H   H292      1.0  0.90420  0.78747  0.06218  1.0000
  H   H293      1.0  0.96701  0.72985  0.16702  1.0000
  C   C363      1.0  0.72841  0.90698  0.99696  1.0000
  Fe  Fe25      1.0  0.96994  0.68338  0.28679  1.0000
  C   C364      1.0  0.54697  0.93692  0.06888  1.0000
  C   C365      1.0  0.60879  0.92837  0.02769  1.0000
  C   C366      1.0  0.61516  0.97089  0.03506  1.0000
  H   H294      1.0  0.87789  0.93204  0.16065  1.0000
  C   C367      1.0  0.87502  0.82459  0.10736  1.0000
  H   H295      1.0  0.56147  0.89257  0.25281  1.0000
  H   H296      1.0  0.69172  0.74546  0.12147  1.0000
  H   H297      1.0  0.66838  0.71917  0.06259  1.0000
  H   H298      1.0  0.61367  0.76625  0.02543  1.0000
  C   C368      1.0  0.97657  0.95153  0.12852  1.0000
  H   H299      1.0  0.92967  0.91239  0.10955  1.0000
  C   C369      1.0  0.88225  0.84143  0.14122  1.0000
  S   S49       1.0  0.78876  0.92910  0.12896  1.0000
  H   H300      1.0  0.65898  0.81825  0.14363  1.0000
  H   H301      1.0  0.63160  0.90932  0.00965  1.0000
  C   C370      1.0  0.51159  0.84905  0.04946  1.0000
  C   C371      1.0  0.50070  0.96287  0.16012  1.0000
  C   C372      1.0  0.90834  0.94502  0.15906  1.0000
  C   C373      1.0  0.95977  0.81263  0.13657  1.0000
  S   S50       1.0  0.96774  0.51964  0.28788  1.0000
  C   C374      1.0  0.91004  0.80132  0.08810  1.0000
  S   S51       1.0  0.73438  0.98062  0.03768  1.0000
  H   H302      1.0  0.84197  0.82879  0.09660  1.0000
  S   S52       1.0  0.71769  0.92204  0.19521  1.0000
  C   C375      1.0  0.92424  0.83505  0.15609  1.0000
  Fe  Fe26      1.0  0.66364  0.94603  0.15551  1.0000
  H   H303      1.0  0.52148  0.92405  0.08361  1.0000
  C   C376      1.0  0.55359  0.97940  0.07621  1.0000
  H   H304      1.0  0.53184  0.79438  0.08551  1.0000
  C   C377      1.0  0.72902  0.95183  0.99720  1.0000
  C   C378      1.0  0.50169  0.93885  0.25180  1.0000
  H   H305      1.0  0.97910  0.77638  0.08783  1.0000
  C   C379      1.0  0.91848  0.97251  0.18621  1.0000
  Fe  Fe27      1.0  0.75542  0.97278  0.17232  1.0000
  C   C380      1.0  0.94756  0.92397  0.60110  1.0000
  C   C381      1.0  0.94618  0.88635  0.46820  1.0000
  C   C382      1.0  0.87616  0.94816  0.62792  1.0000
  C   C383      1.0  0.90202  0.92559  0.60094  1.0000
  C   C384      1.0  0.88381  0.50737  0.43742  1.0000
  C   C385      1.0  0.85344  0.79036  0.57594  1.0000
  H   H306      1.0  0.89882  0.54606  0.56195  1.0000
  H   H307      1.0  0.86081  0.53048  0.45258  1.0000
  C   C386      1.0  0.94154  0.78313  0.44840  1.0000
  H   H308      1.0  0.90096  0.73957  0.47219  1.0000
  H   H309      1.0  0.91804  0.65381  0.46659  1.0000
  H   H310      1.0  0.96445  0.65026  0.41132  1.0000
  H   H311      1.0  0.90340  0.55627  0.40213  1.0000
  C   C387      1.0  0.90765  0.52194  0.40900  1.0000
  H   H312      1.0  0.87610  0.71488  0.41404  1.0000
  H   H313      1.0  0.94279  0.72931  0.53808  1.0000
  H   H314      1.0  0.98039  0.82059  0.41552  1.0000
  C   C388      1.0  0.88575  0.75449  0.56910  1.0000
  H   H315      1.0  0.88511  0.72386  0.58305  1.0000
  S   S53       1.0  0.93868  0.64285  0.54180  1.0000
  C   C389      1.0  0.92838  0.52987  0.54880  1.0000
  H   H316      1.0  0.91906  0.87777  0.45283  1.0000
  Fe  Fe28      1.0  0.96949  0.63646  0.59739  1.0000
  H   H317      1.0  0.88645  0.86281  0.51722  1.0000
  H   H318      1.0  0.95473  0.79506  0.35742  1.0000
  C   C390      1.0  0.85404  0.82937  0.55726  1.0000
  C   C391      1.0  0.95686  0.79829  0.41567  1.0000
  C   C392      1.0  0.91341  0.75396  0.38220  1.0000
  C   C393      1.0  0.89824  0.73855  0.41456  1.0000
  C   C394      1.0  0.88708  0.83257  0.53180  1.0000
  C   C395      1.0  0.93616  0.53842  0.51257  1.0000
  C   C396      1.0  0.91863  0.75763  0.54364  1.0000
  S   S54       1.0  0.94002  0.59632  0.63863  1.0000
  H   H319      1.0  0.82762  0.78767  0.59534  1.0000
  H   H320      1.0  0.91275  0.56159  0.49783  1.0000
  H   H321      1.0  0.82852  0.85695  0.56222  1.0000
  P   P13       1.0  0.96175  0.79964  0.49107  1.0000
  C   C397      1.0  0.97950  0.64315  0.43741  1.0000
  C   C398      1.0  0.95330  0.64537  0.46876  1.0000
  C   C399      1.0  0.97253  0.63761  0.50292  1.0000
  C   C400      1.0  0.95959  0.50199  0.56846  1.0000
  C   C401      1.0  0.91232  0.75290  0.44754  1.0000
  S   S55       1.0  0.97194  0.69254  0.63505  1.0000
  C   C402      1.0  0.91989  0.79668  0.52497  1.0000
  H   H322      1.0  0.74741  0.70455  0.63911  1.0000
  H   H323      1.0  0.95383  0.50328  0.36604  1.0000
  H   H324      1.0  0.95394  0.49631  0.59680  1.0000
  H   H325      1.0  0.90279  0.74246  0.35665  1.0000
  C   C403      1.0  0.94271  0.78377  0.38273  1.0000
  H   H326      1.0  0.88666  0.91000  0.57957  1.0000
  C   C404      1.0  0.89585  0.96908  0.65507  1.0000
  C   C405      1.0  0.97522  0.51936  0.49594  1.0000
  C   C406      1.0  0.97300  0.85482  0.48888  1.0000
  C   C407      1.0  0.93638  0.49206  0.38882  1.0000
  H   H327      1.0  0.93323  0.95357  0.45128  1.0000
  H   H328      1.0  0.98051  0.52765  0.46814  1.0000
  C   C408      1.0  0.94139  0.96719  0.65556  1.0000
  C   C409      1.0  0.96769  0.94460  0.62859  1.0000
  C   C410      1.0  0.95392  0.92941  0.46742  1.0000
  H   H329      1.0  0.96685  0.90731  0.57939  1.0000
  H   H330      1.0  0.84079  0.94992  0.62768  1.0000
  S   S56       1.0  0.96425  0.63124  0.32829  1.0000
  H   H331      1.0  0.82241  0.80477  0.65959  1.0000
  C   C411      1.0  0.98838  0.94136  0.48732  1.0000
  S   S57       1.0  0.76528  0.92221  0.79847  1.0000
  Fe  Fe29      1.0  0.94919  0.64964  0.67751  1.0000
  S   S58       1.0  0.90150  0.67580  0.72230  1.0000
  S   S59       1.0  0.67463  0.87923  0.79382  1.0000
  Fe  Fe30      1.0  0.72794  0.89332  0.75578  1.0000
  S   S60       1.0  0.76502  0.85216  0.71119  1.0000
  C   C412      1.0  0.52279  0.88886  0.78245  1.0000
  H   H332      1.0  0.85336  0.81269  0.89719  1.0000
  H   H333      1.0  0.55532  0.87059  0.78634  1.0000
  C   C413      1.0  0.86544  0.72606  0.71933  1.0000
  C   C414      1.0  0.84157  0.74246  0.75007  1.0000
  C   C415      1.0  0.81088  0.78116  0.74823  1.0000
  C   C416      1.0  0.80376  0.80378  0.71556  1.0000
  C   C417      1.0  0.82783  0.78748  0.68493  1.0000
  C   C418      1.0  0.85875  0.74901  0.68679  1.0000
  H   H334      1.0  0.84648  0.72486  0.77533  1.0000
  H   H335      1.0  0.79264  0.79329  0.77200  1.0000
  S   S61       1.0  0.68946  0.95781  0.73809  1.0000
  C   C419      1.0  0.72542  0.88526  0.96400  1.0000
  H   H336      1.0  0.50855  0.83971  0.97544  1.0000
  C   C420      1.0  0.51782  0.93370  0.77572  1.0000
  C   C421      1.0  0.63428  0.78477  0.72927  1.0000
  H   H337      1.0  0.56856  0.91918  0.84464  1.0000
  Fe  Fe31      1.0  0.70954  0.91344  0.83556  1.0000
  C   C422      1.0  0.61666  0.69614  0.74901  1.0000
  C   C423      1.0  0.67471  0.72733  0.85965  1.0000
  C   C424      1.0  0.66285  0.81239  0.71667  1.0000
  H   H338      1.0  0.57329  0.73279  0.78807  1.0000
  C   C425      1.0  0.64644  0.85352  0.70262  1.0000
  H   H339      1.0  0.94603  0.48543  0.67504  1.0000
  H   H340      1.0  0.53730  0.85056  0.71031  1.0000
  H   H341      1.0  0.95393  0.57943  0.79399  1.0000
  H   H342      1.0  0.88289  0.91379  0.84419  1.0000
  C   C426      1.0  0.72559  0.97476  0.96428  1.0000
  C   C427      1.0  0.92583  0.64158  0.81616  1.0000
  C   C428      1.0  0.59207  0.82457  0.91482  1.0000
  C   C429      1.0  0.90794  0.93457  0.76281  1.0000
  C   C430      1.0  0.66087  0.71908  0.82479  1.0000
  H   H343      1.0  0.64034  0.69442  0.82137  1.0000
  C   C431      1.0  0.57870  0.70459  0.77060  1.0000
  H   H344      1.0  0.95291  0.93869  0.87258  1.0000
  C   C432      1.0  0.86908  0.94765  0.84809  1.0000
  C   C433      1.0  0.70340  0.77154  0.80071  1.0000
  C   C434      1.0  0.60123  0.86743  0.70070  1.0000
  C   C435      1.0  0.71735  0.77956  0.83549  1.0000
  C   C436      1.0  0.70264  0.75786  0.86501  1.0000
  H   H345      1.0  0.71552  0.78846  0.77823  1.0000
  H   H346      1.0  0.73922  0.80309  0.83960  1.0000
  H   H347      1.0  0.71320  0.76463  0.89195  1.0000
  H   H348      1.0  0.85640  0.87086  0.68857  1.0000
  H   H349      1.0  0.74065  0.68017  0.77125  1.0000
  C   C437      1.0  0.61934  0.83692  0.97442  1.0000
  H   H350      1.0  0.65995  0.82615  0.92680  1.0000
  C   C438      1.0  0.74135  0.68554  0.74241  1.0000
  H   H351      1.0  0.50477  0.94883  0.96674  1.0000
  H   H352      1.0  0.83964  0.85440  0.78658  1.0000
  S   S62       1.0  0.67166  0.97965  0.82361  1.0000
  C   C439      1.0  0.58875  0.79862  0.72622  1.0000
  P   P14       1.0  0.65664  0.73278  0.74957  1.0000
  C   C440      1.0  0.72195  0.95316  0.93139  1.0000
  C   C441      1.0  0.72233  0.90822  0.93108  1.0000
  H   H353      1.0  0.56540  0.77844  0.73494  1.0000
  H   H354      1.0  0.61627  0.93112  0.89587  1.0000
  H   H355      1.0  0.93410  0.84830  0.70590  1.0000
  C   C442      1.0  0.86388  0.94701  0.75256  1.0000
  H   H356      1.0  0.72594  0.85046  0.96402  1.0000
  C   C443      1.0  0.84547  0.92395  0.72604  1.0000
  S   S63       1.0  0.72005  0.87944  0.89018  1.0000
  H   H357      1.0  0.58407  0.94612  0.95661  1.0000
  H   H358      1.0  0.58849  0.89983  0.69083  1.0000
  C   C444      1.0  0.90765  0.78849  0.86191  1.0000
  C   C445      1.0  0.86657  0.81272  0.87003  1.0000
  C   C446      1.0  0.84205  0.83659  0.84297  1.0000
  C   C447      1.0  0.85872  0.83642  0.80783  1.0000
  C   C448      1.0  0.89953  0.81197  0.79958  1.0000
  H   H359      1.0  0.92586  0.76941  0.88302  1.0000
  C   C449      1.0  0.57244  0.83968  0.71190  1.0000
  H   H360      1.0  0.59802  0.81896  0.88624  1.0000
  H   H361      1.0  0.96185  0.74005  0.73916  1.0000
  H   H362      1.0  0.80997  0.85490  0.84927  1.0000
  C   C450      1.0  0.67414  0.74213  0.79506  1.0000
  H   H363      1.0  0.66393  0.70993  0.88252  1.0000
  C   C451      1.0  0.54949  0.82842  0.92875  1.0000
  Fe  Fe32      1.0  0.63877  0.94573  0.78000  1.0000
  P   P15       1.0  0.93047  0.96552  0.79729  1.0000
  C   C452      1.0  0.93318  0.89861  0.74587  1.0000
  H   H364      1.0  0.71928  0.97123  0.90628  1.0000
  C   C453      1.0  0.98119  0.92848  0.85556  1.0000
  H   H365      1.0  0.66890  0.87485  0.69367  1.0000
  C   C454      1.0  0.87087  0.88854  0.70918  1.0000
  C   C455      1.0  0.55332  0.64068  0.74701  1.0000
  H   H366      1.0  0.90517  0.70651  0.83469  1.0000
  H   H367      1.0  0.81886  0.93303  0.88492  1.0000
  C   C456      1.0  0.83291  0.95837  0.87108  1.0000
  H   H368      1.0  0.59563  0.60386  0.70790  1.0000
  C   C457      1.0  0.92457  0.78817  0.82661  1.0000
  H   H369      1.0  0.52235  0.82542  0.91097  1.0000
  C   C458      1.0  0.70522  0.70955  0.72456  1.0000
  C   C459      1.0  0.62697  0.82866  0.93768  1.0000
  C   C460      1.0  0.74550  0.69895  0.66789  1.0000
  C   C461      1.0  0.58118  0.93287  0.90003  1.0000
  H   H370      1.0  0.96679  0.88745  0.75333  1.0000
  C   C462      1.0  0.55428  0.92595  0.87118  1.0000
  C   C463      1.0  0.59096  0.63197  0.72547  1.0000
  C   C464      1.0  0.62248  0.65960  0.72634  1.0000
  C   C465      1.0  0.78154  0.67575  0.68597  1.0000
  H   H371      1.0  0.65118  0.65229  0.70921  1.0000
  C   C466      1.0  0.91471  0.87599  0.71895  1.0000
  H   H372      1.0  0.91075  0.81098  0.77191  1.0000
  H   H373      1.0  0.80767  0.65133  0.73706  1.0000
  H   H374      1.0  0.81131  0.93355  0.71858  1.0000
  C   C467      1.0  0.56293  0.94136  0.93430  1.0000
  C   C468      1.0  0.93120  0.68485  0.82146  1.0000
  H   H375      1.0  0.89596  0.63057  0.82499  1.0000
  C   C469      1.0  0.54718  0.67701  0.76955  1.0000
  C   C470      1.0  0.97933  0.93582  0.81811  1.0000
  H   H376      1.0  0.69798  0.80229  0.71785  1.0000
  S   S64       1.0  0.56355  0.96259  0.77234  1.0000
  C   C471      1.0  0.50903  0.92835  0.87640  1.0000
  H   H377      1.0  0.84351  0.97470  0.76498  1.0000
  H   H378      1.0  0.87666  0.73661  0.66289  1.0000
  C   C472      1.0  0.51770  0.94355  0.93972  1.0000
  C   C473      1.0  0.77931  0.66878  0.72312  1.0000
  C   C474      1.0  0.70734  0.71556  0.68703  1.0000
  C   C475      1.0  0.95847  0.61274  0.79866  1.0000
  C   C476      1.0  0.96915  0.69979  0.80881  1.0000
  P   P16       1.0  0.97689  0.75550  0.81589  1.0000
  C   C477      1.0  0.54170  0.83710  0.96544  1.0000
  H   H379      1.0  0.51779  0.68401  0.78601  1.0000
  H   H380      1.0  0.98603  0.82252  0.86971  1.0000
  H   H381      1.0  0.67979  0.73363  0.67261  1.0000
  C   C478      1.0  0.98559  0.76211  0.74113  1.0000
  H   H382      1.0  0.52878  0.61941  0.74611  1.0000
  C   C479      1.0  0.88664  0.98043  0.82955  1.0000
  C   C480      1.0  0.57644  0.84238  0.98852  1.0000
  H   H383      1.0  0.81154  0.66367  0.67138  1.0000
  H   H384      1.0  0.64705  0.83922  0.99171  1.0000
