data_image0
_chemical_formula_structural       H2CHFeC2HPH2CSC2HC3H2SPCH2C2H3CHCH2SHCHCHC4H3C3H2C2HC2H2SCHC2H2C3H2C2H2C3H3CH3CSH2CHSCHPCPC3HC2H2CH2CH2CHC2HSHPSCH2SC2H2CHCFeCFeC5H2CH3CHCH2C2H2CH2CH4FeHC2H2SHC2HC6HFeC3HCHC3SCSH2CHCH2C2HC6HCHC3SC3FeCH2CHCHC2H2C6HCHFeCHCFeCHC2HC3H3CH2C3H2C3HC2HCH2C2HC3HCHC3HC2H2C3H4C5HCSCSCSHC4H2C2H3CFeCSCH2CHSHCH2CSCHCSCHC2HC2HC4SCHCH3C2HC5HCFeH2SC3H2FeSC3HSH2C3H2CPHCHC2H3CHC2HC2HCH6C2Fe2H2C3HCPHC3HPC2H3CH3C5HC4HCHC10SC2SHCHC2HC2H2C2HC2H2C2HCSC3HCHC8HCSCFeHSH4SCHC2HCHCH2C3HC2S2CHCH2CHSCHC3PCHC2H2C3HCHC3SH7C2HCHCHCHSHC2HCFeHCHCSCH7PHC2SC3FeCHC3H4SHCHS2CHCHSHCH2C3H3CHCSHCHCHCHC2HC4HCHC5H3CHC3H2CHFeH2C3H2SHFeCSC2HC2HCHC2H2SH3C2H2C3SC2HCH4C6HC4H2C2HC2HFeHCHC3HC5H2C3SHC2H5C5H2SHC3HSCHCHCHSH2CHC3HCHCHC3HC3HFeHC2SCHPHC2H3C2HFeC2HCHC2HC2H2CHSHCFeHC2HCH4CH2SH7C2H2C3SC2HCH2FeCHS2HC6HC3H3C2H3SC3HCHC4HCHCH3C2HFeHCSH2C3HCH3SC4H3C2HC2H6CFeSCPHCHSFeCHCHCHFeC2H2CH3CSHC7H2C2SC5FeCS2C3H4CFeH4CH2PCHFeC2H2C2HS2CH2C2FeHCHC2HCSCHCHCHCHCH2SCHC3HCHCHS2CHC2HCFeHCH2CPHC3HPSCHCH2CPHCHCHCHC7HC3HCPFeHC6HCHC2HCHCHC6SH2C3HCH6C5HCH2C4HC2H2FeC2HC2H2CH3SFeSC2SH5SHCH2CHC3HCH2C2HCHSCFeC3HC3FeHCHCHSH2SCFeC3H2C2SHC2SH3SHCHCHSCHC2HC4HCHC2HSCHCFeHCH2C3HCH2C4SCHCHCHC3HCHSHC2H2PC2FeHC5SC2HCH2CSCHCSHC4PH5C3HCHC4H2C3SHCHSCHCH3FeHC3HFeHC3HC2H4C2FeCH4C2HC4HSCHFeH3C2HCHFeC2H3CHCHC2HC5HCFeC2HC2HCHCHCHCHSH2C2H2C4FeHSHCHSCHC2HC4HPHCSC2H4C2HSHCSH2C2H2CH2C3H3C2SCSHC4H3CH2CHC2SH2C4HC2H2CSC2HC3PH2C3HC2HCH2CHC3H2CHCHSCHCHC5H3CHSFeHC3H3CH2CSH2SCPH2CFeH3CPHSHPC2HCSCSH4C3HC2FeSH2CH2C2H2CH3C2FeC3HCHCHFeHPCSC5HFeCH2C4HCHC2HC4PHCH4CFeHCH4CHCHC2H2C4HCHCH2PC4HCHC3SC4H2CHSH2CSH2CH2CHCH3CH2C2H2C2H5CHC2SPH2C2H2CHSFeC2HCHC2FeHC2HC2HCHCHCH2CH2FeHFeHC4HCHC4H3CHCH2C3HCH2SCHCHC2HCHCHCFeC7HC2HC2HC3HCS2HC2H2C3HC3SCH3CHC3FeCH3C2HCHCSCSHCPC2HC2HCH2C2H5CHC5SFeSCHCHFeH2SHSCHSC2HPC6FeHPH4C2HCHCHC2HCHCHFeCHCHCH2C3SCH2CFeHC4HCH2CH3CSC3SC3SH3CHCHC2FeH4SC2H2C3HC2HC2PHC2FeCH2CH3C2H3C3HC5HCHC8HCHC6HPCHC2SH2CHCFeHC3H3CHCHC5HCHC5HC2SHCSC2H3CSCPH2C2H6CHCHCPHSC6HCH2CHCHFeH2S2FeH2C3HFeHC2HCHC4HSC2SCSHCHC4FeCH2CH2CHCHFeHC2H2PCH3C2HSC2H2CH4CSFeH2CH3CH2SHC2HC2HCHC3H2CH2PC3FeC2H2CHC3HC2HC3H4SC2HCHC4H2CSCHSCSCSC3HCH2SCPH2C5H2CH2C10PHCHSH4CSHPC2H2SC5HC4H2CHCSCPC4H3CSHCHCHCFeH2C2H4CHCHC2SH2CH3C2H2FeHC2HCH3CHCH2C2H2C2H3CHCHC2PCHC5HCHC5H2CH2C4HCHFeCFeHC2HFeCHC2H3CH2C2HCH2C2HC2HCHCHC4SCSC4H3CHC2HCHCH4C2H3PC2H4CH4SCSCHCHCFeHCHCHC5SHCHC3FeC4SCHC2HC3HC3H2C5HC2FeCHC2HCH3C3H2C2HSHCHCHFeCHC2HCH2SC2FeH2C2PC2HC6SC2SFeC3HPCHC3HSC2HCFeC6PSHCHCHC3HCHCHSH3CH3CSC2HCH2CH2C2FeCHCH3CHSCHC3H2CHC2HCFe2HC2H2CH2C2HS2HC3HCHC3H3C2H2CPHC2SC6HCH2C2HSCHC2HCH3CHSC2H3C4H3CSCHCH3CH2C2HC2H2C2HC3HC2PHC2HC4HCH2C2HS2CHSCH2C4HPHCH3FeC2H2C3HCHC3H2CHSCSH3PH2CH3C2HCHCHCHCH2SH2C2HSH2CH3FeC5HCH4C2HCHCHCHCHCH2CH3CH2CH3C4H2CSCHCH2C2HSH4CH2C6SH2CHCH2C2H2PCSHFeCH2CHCFeCHCHC2HC6HCHC2HC3FeC2HCH2C3HC5HCFeC4FeCH3SHC2HFePHC6PSHCHC3HCHCSH2CH5PC3HCH2CHC3HC2H2C6SH3CHCH3CH2CHFeC2HC2HSC2SC6HC2H3PHC2HCSHCFeCHC2HC3SC2HC2FeSPH2CH4C2H2CHC3H3C2FeCHCHCHFeH4C2HC2H2CH2FeCH2C5HC2SH2CHSCHSCHCH2CHC3HC4H2CHFeHFeHCSH2C5HC2H2C2SC4HCHC3HCPCH3C4H3SC2SCSH2CH2CSCHS2CSC7H2C2HCH2SCHC3H7CSC2HC3HSCHSCHCH3C2HCSC2HC2HC3HC3HCHC4HC3HCPCFeHSCHC10PCH5CH2CHCH2CHCHCH2CHSH4CHC3SFeH2C5SC4HCFeCH2CSCHPSC3H5CH2CHC2SCHCHC4HCHCFeC2HC2HS2H2PC3H3C2SHCH2CPC2HSH2SC2H2C3HCHCSC3H2S2H2C2HC2FeHCH2C2HCFeCH2S2C2H4C4HC3H2SHC2FeH2C3HFeHCFeH2CHCSCH2C5HC3FeC2HCH4C2HC2HCHCHC2SHCHC2SC3H4C2H2C9HC3HCHCHPH2PCH2C3H2CHCHFeC2HC2HC3HC3FeH3CHSC2HCHCH2SC2H2PSC2HC2S2HFeCHC3HPCHS2CHC3HC2SH2CH2CFeCH3CHCHC2HSCSHSHC2HCHC3H2CHCHPHC5H2C2HCHCH2C2HCPHCHCHCH4CH3C2HCHC2H4C2HSHC3HC3SCFeH4CHSCH6C4H4SH4CHC2HCPC2HPC5HC4HFeC3FeHC2H3C2FeHSHC3HSHCH3CFeHCHC7HCSC5H2CHCHPHFeHSHCHC2H2C2HCH2CHC2HC2HCFe2CHC3H3FeS2CH2SH3CHPC2HSPCH2C2HCS2C3HFeHCHC2HCSC3HCHCHSCH3C2HCH3CHCHFeC4H2C8SCHSCFeH4CFeC4HCHC2H4CH2CH4CHC6HC2HC2H3CH2CHCHC2H2CHCH4C2H2SCHC4H2CHCH2SFeH2C2HC2HC4HCHCH2C2HC3HSFeH4CHC3HCH3C2HCH2C2HCHC3H2C2H2SHC2SH2C5HCSH3C3HC2SC5FePCSHSFeHCH2CSHCHC5HCHC2HCH3C2HCHCH3C4S2CHC2HCHCSFeHCHCHCHCHCPHCHC7HSCHC3HC3HCSCHC2H2C2H2C3PC3H2CHCH2CPSC3HFeH4C4HCH3C2SCH2C4HCHPC2H2C2HSHC2HC2PH2C5HFeH4CS2H3CHSCH4C2HCHC3H5CHSHCHC2PCSC2HC3HC3H4C4HC2H2CH2FeH2C2HCH2C5H2C5H2C2H2SC2HCHCFeCSCHCHFeC4H2C2H2C2H3CHCH2C5Fe2C2HC3FeHPFeH3SCHCHCH2CH2FeH3C4SC3FeCH2C2H3C2HCH4CH4C2HCS2HC2HFeH2SH2C5S2HC2PH2CHCSH2CH3CFeCH3CHFeC4HC4HCHCFeC3H2CHC2H2C2HCHSHCH2C2SHSC3HC3HC2H3C2HC2HCHCHCH4C2HCH3C2SH3CHC2H3C2SC3H2SC8H2C2FeCPC2HC3HFeSHC2HCH4CHSC4H2C3HC3HCHC2FePC4PC2HC2SC4HCHC2HCH2C2HCFeCH3CSH2CH2CSC3HCSC3HCH3FeCHPHCH3CHSHCH2C2H4SC7SHCH2CHC3H2PC2SFeCSC2H2SC2H2CHC2H2CH2CHCHCS3HCSH2C2HC2H3FeSHCH2CH3CHFeC2FeHFeCH3FeC8HC2HFeHC3SCSHC6HC2PC3H4FeHC2HC2H2CFeC3SCH2C3FeC2PC2H4SCSCHSC2HC3H3C2H5CFeCSCFeHCSC4HC3HC2H2PHSHC2HC4HCH3SC4HCSC2H2C4FeC4HC2HCHCH4C5SCFeC3H10CHCH2FeHC3HCSH2C7H4SH2C2H4C3HCHSCSCH2C4H2CHFeHCHC2SC2HPHC3SCHC2H2C2HPHCH2CHC4H4CHCHCHCHCHC2FeHSFeCH6C4HCH4CHCHC2HC2HCH2SCHCHC3FeC3HCSCHSC3HSHC4HSC2HCH2CSH2SH2C2S2H2S2CHC4HCH2C13FeC4H2PSHC2PCHCH2CHCH2C2HC3H3CH2C3HCHFeCH3CSCH2C2HSHFeC2PCHPC3H5CHC4H3CSCSC2H2CH2CH2CSH2C3S3H4SFeC2SH2SCHCHCHCHCHFeH2CFeHC2H2C2HC3HC2H2CH2C2HCH2C3HC2HSHCH3CPH2CH2CHC4HPH2C2H2C2FeC2H2SH2CHCHCH3C2HC4H2SHC2HSH2CH3CFeCHC2H2CHC6HC2H2C2H3C3FeCHC2SH4C2H3PHSHC2HC2HSC2H2SH2C2HC3H4SCHC2H2CFeSC2HCSH2CHC2HC5SCSC2PHC2FeHCFeHC2HC4HC3H2SHC3HSHCHCHFeHCHC2HC3HCH4C2H2SCH2C2HCHCHC2H2CHCHC2SHSC3H4C2HC2HCHC8HC2H4PH2C3HC2H2CSC5HCHSCH2C4FeCHSCH2CHSC3PC2HC2H5CHCH2PC2H3CHC5SHC2HC3H2C2H2SH2CH2CH3CHC3HSC6HCHCHC2HC3H6CH3C5H2C2HC2FeHCFeCHS3CH2CH2CH2CHC3H2C2FeCHCFeHC3H2CH7C3HCHC2SHC2SHCHCH2C2HCSHCHCHC5HFe2CHPCH2C2HC5H3CHCH2C3HC2HC4H2C2HC3HC3H2SC5HCH2CSC2H2S2CHCFeHCH4CH3C2FeC2HSH2CHC3HCH4C2H2FeCH2CHC3HC4HCHC2SH2CH2C2HC6PH2CH3CHSH5CH2CH5C5FeHCPSCH4SCHCHPCHCH2FeCHC3HCHCHCH2FeHCH2C2SCHCHCHPSH2SC7HSHC3SCHCHCH4CH2C2HCHC3H2CHFeCH3SHC2SHC4H3CSCHC2HCHFePHC5SC3SC5FeHCH2C3HC6HC3HCHSHC2HSC2FeC2HC2HCPC2HCHCH2SHCH2C2FeCPCHC3SCHFeCH3CFeH2C3HCH2CHC2HC10HC3H6CFeHCHCH2CSCFeSHC3HCH2CHC2HFeCHSCHC4HCSCHFeH2C6H2FeCHC7HSC3SH2CHS2HCHC2H3CHC2HCSCH2SH2C2HCHCHC3FeC3H2CH3SHCHCHSC2HSHCHCSHC4HCH4C2HC2HCH3CHC3HSCHC3H6C3HCH2CH2CHCHC2HCH3FeSCSH2C11H2FeHC2HCSCH2PH2C2HC2HCSPHCSC6H2C2HC2SC2HC3HCHCFeC3SCH3C2SH3CHC2FeCHCH2CSC2HC3H2C2SHCH2SHC3HC2HCHCH3SCHC3HCFeSHSPFeHC2HCHCH2CHC2FeCHC2HC2HCHCH2CHFeCHPH2C2HCHC3HCH2CHC3H2CHSHC5H2CSHC5SCPS2C2HC4HCSC2HFeH2PCHSC2H2CFeC5H2CH3C3HC2HCSPHCSH2C3SCHC3FeC2SCH2SCH2CH4CHC3H2C3H2C2HSC2H3C5SC2HC2H2CH2CHCHCH2C2FeH2CH3C2HFeC3HCHCHCHCHC3H2C2HSCHCH3SC2HCHC3HCSH3CHC2HCHC2H2C2HC3H2CH2C4HCH2C5H2S2H2C3FeHCSHCH3PC2HCH2C2HSC5H3C5SCHC4SC2HC2HCPHC3HC4H3CHS2HCH2C2H3CHCH3Fe2CHC2HFeC5FeHCHC4H3SHC5HS2H2CS2H4SHSCFeHC3HPCHC4H2FeC2HSH2C2HC2SCFe2CHCH2CHCHSHCHCH4CH3CHC3HCH2S2CHCH3C2H2PH2CHC2SCHCHFeCHCFeC3H3C7H3C2HFeCH2C2H3PC2HC2H2CH3C3H3C2HCSHC3SHC3H2CFeH2C3SH2FeC3HFeHCH3CHC2HCHCSH2C3HCHSCHSCPH3C2HCFeHSHCHC2H3C2SC5HCH3C2H3CS2C4H2C5H3SHCHCHC3HCH2C2HCHCHC2H3C2H2CFeC3HSCHC2SH2C2H3C5H3CSH3CSH4C2HC2SHC2HC3H2CHC2HFeC2HC8HC2HC3HC4PHC3HC2HC3FeCPHCHFeH2FeHCH2CHC2SC3HCHCH4FeHCH2SCSC2HSHCHPHC2HC2PC7HFeCHFeC2H2CH3CH2C2HFeHC2H4C3H2C2HCH2PHC2HCHC2SC4H5CHCH4CHCH2CFeHFeH4FeH2CHCHC3HC2HPH2CSHS2HCH2C2HC3H2CSCSC2H2C3H3SC4HC2FeHC4H7FeSHCH3CSHC3HCHFeHC4PSPC4HCHCHC2HCHSH2CSC4H6CHC2SHCHC2H3CHCSC3HCHCS2C4FeHC3HC7SCHCHSH2C3H2C4HCHC3HSC2HC3HCH2CFeC3SHCSC7HSC2H2SC2HFeHCH3CH2CHCFeH2C
_chemical_formula_sum              "H3168 C3960 Fe264 P132 S528"
_cell_length_a       68.7034
_cell_length_b       67.1088
_cell_length_c       32.1713
_cell_angle_alpha    77.7469
_cell_angle_beta     79.5841
_cell_angle_gamma    115.61

_space_group_name_H-M_alt    "P 1"
_space_group_IT_number       1

loop_
  _space_group_symop_operation_xyz
  'x, y, z'

loop_
  _atom_site_type_symbol
  _atom_site_label
  _atom_site_symmetry_multiplicity
  _atom_site_fract_x
  _atom_site_fract_y
  _atom_site_fract_z
  _atom_site_occupancy
  H   H1        1.0  0.15246  0.01997  0.77281  1.0000
  H   H2        1.0  0.38534  0.11262  0.43259  1.0000
  C   C1        1.0  0.18237  0.06199  0.67088  1.0000
  H   H3        1.0  0.34841  0.14058  0.43246  1.0000
  Fe  Fe1       1.0  0.33633  0.22966  0.65785  1.0000
  C   C2        1.0  0.41415  0.17243  0.39229  1.0000
  C   C3        1.0  0.19497  0.17213  0.35004  1.0000
  H   H4        1.0  0.22513  0.05731  0.49574  1.0000
  P   P1        1.0  0.35134  0.07085  0.50671  1.0000
  H   H5        1.0  0.12808  0.19357  0.75673  1.0000
  H   H6        1.0  0.05218  0.11829  0.65520  1.0000
  C   C4        1.0  0.24952  0.01986  0.52675  1.0000
  S   S1        1.0  0.31516  0.09777  0.36847  1.0000
  C   C5        1.0  0.23235  0.18193  0.52513  1.0000
  C   C6        1.0  0.40303  0.20889  0.47617  1.0000
  H   H7        1.0  0.49779  0.16094  0.78601  1.0000
  C   C7        1.0  0.02179  0.11017  0.37899  1.0000
  C   C8        1.0  0.27828  0.23840  0.37971  1.0000
  C   C9        1.0  0.27389  0.02245  0.63655  1.0000
  H   H8        1.0  0.17545  0.09091  0.53416  1.0000
  H   H9        1.0  0.45570  0.19856  0.74995  1.0000
  S   S2        1.0  0.01427  0.14450  0.82017  1.0000
  P   P2        1.0  0.17547  0.06849  0.40994  1.0000
  C   C10       1.0  0.10954  0.23888  0.41852  1.0000
  H   H10       1.0  0.36784  0.18564  0.73850  1.0000
  H   H11       1.0  0.46900  0.09186  0.57820  1.0000
  C   C11       1.0  0.16715  0.03746  0.58996  1.0000
  C   C12       1.0  0.05417  0.01026  0.78550  1.0000
  H   H12       1.0  0.29158  0.02825  0.62109  1.0000
  H   H13       1.0  0.42852  0.06117  0.60425  1.0000
  H   H14       1.0  0.17137  0.09783  0.33470  1.0000
  C   C13       1.0  0.10883  0.24357  0.55238  1.0000
  H   H15       1.0  0.05954  0.19595  0.37866  1.0000
  C   C14       1.0  0.31558  0.08684  0.59753  1.0000
  H   H16       1.0  0.41114  0.11849  0.56447  1.0000
  H   H17       1.0  0.06795  0.07946  0.74734  1.0000
  S   S3        1.0  0.30076  0.20352  0.66514  1.0000
  H   H18       1.0  0.29757  0.22302  0.40296  1.0000
  C   C15       1.0  0.01894  0.07123  0.65861  1.0000
  H   H19       1.0  0.30351  0.03717  0.52796  1.0000
  C   C16       1.0  0.11695  0.16057  0.48354  1.0000
  H   H20       1.0  0.48937  0.06445  0.42984  1.0000
  C   C17       1.0  0.02223  0.15829  0.53620  1.0000
  C   C18       1.0  0.38322  0.12434  0.64256  1.0000
  C   C19       1.0  0.47442  0.22895  0.66721  1.0000
  C   C20       1.0  0.49593  0.17113  0.80675  1.0000
  H   H21       1.0  0.03757  0.03557  0.82127  1.0000
  H   H22       1.0  0.11098  0.22781  0.44628  1.0000
  H   H23       1.0  0.04688  0.04716  0.41155  1.0000
  C   C21       1.0  0.29843  0.23887  0.38363  1.0000
  C   C22       1.0  0.20929  0.02877  0.47119  1.0000
  C   C23       1.0  0.02391  0.24138  0.50014  1.0000
  H   H24       1.0  0.15122  0.21421  0.80346  1.0000
  H   H25       1.0  0.13371  0.06791  0.55176  1.0000
  C   C24       1.0  0.27447  0.19432  0.53927  1.0000
  C   C25       1.0  0.03591  0.08570  0.52830  1.0000
  H   H26       1.0  0.01037  0.11736  0.63353  1.0000
  C   C26       1.0  0.43946  0.17125  0.59365  1.0000
  C   C27       1.0  0.01054  0.24681  0.72055  1.0000
  H   H27       1.0  0.27393  0.04960  0.58649  1.0000
  H   H28       1.0  0.44039  0.13894  0.60725  1.0000
  S   S4        1.0  0.43594  0.13293  0.38082  1.0000
  C   C28       1.0  0.04156  0.05386  0.51629  1.0000
  H   H29       1.0  0.30730  0.11300  0.50473  1.0000
  C   C29       1.0  0.24953  0.09172  0.61612  1.0000
  C   C30       1.0  0.09730  0.12632  0.80173  1.0000
  H   H30       1.0  0.03379  0.22803  0.75987  1.0000
  H   H31       1.0  0.39266  0.12370  0.35114  1.0000
  C   C31       1.0  0.38300  0.13734  0.70719  1.0000
  C   C32       1.0  0.42881  0.23840  0.57233  1.0000
  C   C33       1.0  0.32054  0.16613  0.61459  1.0000
  H   H32       1.0  0.20029  0.17803  0.37674  1.0000
  H   H33       1.0  0.22309  0.14515  0.42433  1.0000
  C   C34       1.0  0.16204  0.24354  0.70700  1.0000
  C   C35       1.0  0.39840  0.20326  0.62967  1.0000
  H   H34       1.0  0.40144  0.06033  0.66690  1.0000
  H   H35       1.0  0.11366  0.10660  0.36627  1.0000
  C   C36       1.0  0.24270  0.10504  0.54692  1.0000
  C   C37       1.0  0.34099  0.23099  0.38732  1.0000
  C   C38       1.0  0.39650  0.10974  0.70079  1.0000
  H   H36       1.0  0.19054  0.00251  0.44394  1.0000
  H   H37       1.0  0.31095  0.08333  0.63341  1.0000
  H   H38       1.0  0.02436  0.09215  0.44053  1.0000
  C   C39       1.0  0.34273  0.06305  0.42806  1.0000
  H   H39       1.0  0.35790  0.21865  0.79670  1.0000
  H   H40       1.0  0.20554  0.03098  0.76549  1.0000
  H   H41       1.0  0.11425  0.22232  0.74839  1.0000
  C   C40       1.0  0.10116  0.16925  0.81817  1.0000
  S   S5        1.0  0.46710  0.13650  0.44809  1.0000
  H   H42       1.0  0.10701  0.00481  0.76508  1.0000
  H   H43       1.0  0.44161  0.20474  0.57046  1.0000
  C   C41       1.0  0.09643  0.15970  0.67533  1.0000
  H   H44       1.0  0.37899  0.14734  0.72629  1.0000
  S   S6        1.0  0.11733  0.11054  0.66073  1.0000
  C   C42       1.0  0.42137  0.10010  0.76294  1.0000
  H   H45       1.0  0.08818  0.06394  0.40105  1.0000
  P   P3        1.0  0.40644  0.09032  0.72413  1.0000
  C   C43       1.0  0.09554  0.09941  0.37227  1.0000
  P   P4        1.0  0.16471  0.18968  0.36069  1.0000
  C   C44       1.0  0.04327  0.24076  0.47924  1.0000
  C   C45       1.0  0.02124  0.03780  0.55012  1.0000
  C   C46       1.0  0.17277  0.22594  0.65539  1.0000
  H   H46       1.0  0.16232  0.24809  0.73731  1.0000
  C   C47       1.0  0.27080  0.18868  0.50094  1.0000
  C   C48       1.0  0.10653  0.13671  0.48900  1.0000
  H   H47       1.0  0.30489  0.23749  0.79007  1.0000
  H   H48       1.0  0.09881  0.22452  0.67907  1.0000
  C   C49       1.0  0.04131  0.22494  0.45574  1.0000
  H   H49       1.0  0.45556  0.12090  0.67912  1.0000
  H   H50       1.0  0.38113  0.18898  0.64146  1.0000
  C   C50       1.0  0.18064  0.24221  0.49574  1.0000
  H   H51       1.0  0.25579  0.17194  0.75433  1.0000
  H   H52       1.0  0.04245  0.10432  0.52064  1.0000
  C   C51       1.0  0.02044  0.06708  0.70211  1.0000
  H   H53       1.0  0.27225  0.15043  0.72219  1.0000
  C   C52       1.0  0.08168  0.24344  0.69475  1.0000
  C   C53       1.0  0.29813  0.11978  0.67171  1.0000
  H   H54       1.0  0.32390  0.03517  0.78976  1.0000
  S   S7        1.0  0.16948  0.15313  0.64063  1.0000
  H   H55       1.0  0.18223  0.18015  0.70231  1.0000
  P   P5        1.0  0.11125  0.14835  0.82627  1.0000
  S   S8        1.0  0.47603  0.18409  0.37477  1.0000
  C   C54       1.0  0.17258  0.21866  0.51897  1.0000
  H   H56       1.0  0.29464  0.05336  0.43254  1.0000
  H   H57       1.0  0.08159  0.23221  0.52350  1.0000
  S   S9        1.0  0.44951  0.08163  0.40820  1.0000
  C   C55       1.0  0.42562  0.18074  0.80599  1.0000
  C   C56       1.0  0.50818  0.23096  0.42439  1.0000
  H   H58       1.0  0.27705  0.23363  0.47289  1.0000
  H   H59       1.0  0.03134  0.07270  0.38613  1.0000
  C   C57       1.0  0.15627  0.17376  0.82498  1.0000
  H   H60       1.0  0.10429  0.08615  0.76106  1.0000
  C   C58       1.0  0.24357  0.13161  0.70033  1.0000
  Fe  Fe2       1.0  0.28111  0.13123  0.36405  1.0000
  C   C59       1.0  0.08119  0.07531  0.39160  1.0000
  Fe  Fe3       1.0  0.12808  0.11238  0.58951  1.0000
  C   C60       1.0  0.34920  0.03887  0.66626  1.0000
  C   C61       1.0  0.44735  0.11544  0.81921  1.0000
  C   C62       1.0  0.20814  0.22381  0.42521  1.0000
  C   C63       1.0  0.30827  0.09982  0.57106  1.0000
  C   C64       1.0  0.34301  0.01709  0.78300  1.0000
  H   H61       1.0  0.14474  0.05179  0.35692  1.0000
  H   H62       1.0  0.29121  0.01469  0.43646  1.0000
  C   C65       1.0  0.13455  0.17665  0.44448  1.0000
  H   H63       1.0  0.09407  0.13725  0.63535  1.0000
  H   H64       1.0  0.21396  0.22436  0.56719  1.0000
  H   H65       1.0  0.41114  0.06526  0.80528  1.0000
  C   C66       1.0  0.25564  0.14746  0.72055  1.0000
  H   H66       1.0  0.11154  0.16650  0.50992  1.0000
  C   C67       1.0  0.34296  0.21860  0.35828  1.0000
  H   H67       1.0  0.40480  0.19313  0.69100  1.0000
  H   H68       1.0  0.42672  0.07752  0.49303  1.0000
  C   C68       1.0  0.33302  0.15517  0.62587  1.0000
  C   C69       1.0  0.25685  0.19307  0.57132  1.0000
  H   H69       1.0  0.14066  0.15898  0.73648  1.0000
  H   H70       1.0  0.11330  0.05261  0.69719  1.0000
  C   C70       1.0  0.01238  0.23301  0.81020  1.0000
  H   H71       1.0  0.26519  0.10711  0.76334  1.0000
  H   H72       1.0  0.02047  0.15209  0.47365  1.0000
  C   C71       1.0  0.22473  0.15578  0.73811  1.0000
  H   H73       1.0  0.38036  0.18995  0.81638  1.0000
  H   H74       1.0  0.36341  0.03482  0.54606  1.0000
  H   H75       1.0  0.33339  0.16886  0.43397  1.0000
  H   H76       1.0  0.33133  0.12334  0.66338  1.0000
  Fe  Fe4       1.0  0.44620  0.15280  0.42793  1.0000
  H   H77       1.0  0.13032  0.01751  0.68690  1.0000
  C   C72       1.0  0.10516  0.20618  0.77611  1.0000
  C   C73       1.0  0.46433  0.18147  0.50559  1.0000
  H   H78       1.0  0.37676  0.01946  0.41577  1.0000
  H   H79       1.0  0.39059  0.06502  0.47573  1.0000
  S   S10       1.0  0.41789  0.15446  0.47237  1.0000
  H   H80       1.0  0.50603  0.08074  0.34789  1.0000
  C   C74       1.0  0.39699  0.19220  0.80188  1.0000
  C   C75       1.0  0.01151  0.23223  0.64508  1.0000
  H   H81       1.0  0.07590  0.19192  0.53831  1.0000
  C   C76       1.0  0.33453  0.08238  0.53137  1.0000
  C   C77       1.0  0.36269  0.23700  0.78642  1.0000
  C   C78       1.0  0.17499  0.17832  0.73663  1.0000
  C   C79       1.0  0.14303  0.05931  0.56205  1.0000
  C   C80       1.0  0.18716  0.05219  0.43808  1.0000
  C   C81       1.0  0.50921  0.09254  0.36724  1.0000
  H   H82       1.0  0.09352  0.18058  0.71578  1.0000
  Fe  Fe5       1.0  0.30835  0.22287  0.59375  1.0000
  C   C82       1.0  0.11301  0.19000  0.78149  1.0000
  C   C83       1.0  0.09238  0.22737  0.53895  1.0000
  C   C84       1.0  0.03985  0.01127  0.35677  1.0000
  H   H83       1.0  0.03499  0.06614  0.70855  1.0000
  C   C85       1.0  0.25682  0.04460  0.33948  1.0000
  H   H84       1.0  0.43692  0.10392  0.53818  1.0000
  C   C86       1.0  0.18239  0.03038  0.43326  1.0000
  C   C87       1.0  0.04761  0.01922  0.62375  1.0000
  C   C88       1.0  0.33533  0.03951  0.53344  1.0000
  S   S11       1.0  0.14395  0.15134  0.56324  1.0000
  C   C89       1.0  0.36673  0.14972  0.42138  1.0000
  S   S12       1.0  0.01958  0.12278  0.71433  1.0000
  H   H85       1.0  0.26220  0.22235  0.39593  1.0000
  H   H86       1.0  0.28978  0.10170  0.69305  1.0000
  C   C90       1.0  0.08529  0.06395  0.58051  1.0000
  H   H87       1.0  0.49207  0.19434  0.75563  1.0000
  C   C91       1.0  0.15430  0.22085  0.83074  1.0000
  H   H88       1.0  0.18477  0.18832  0.43383  1.0000
  H   H89       1.0  0.16380  0.23082  0.59508  1.0000
  C   C92       1.0  0.01882  0.14455  0.50830  1.0000
  C   C93       1.0  0.45878  0.19781  0.51701  1.0000
  H   H90       1.0  0.06845  0.13215  0.80291  1.0000
  C   C94       1.0  0.17655  0.23442  0.83027  1.0000
  C   C95       1.0  0.40234  0.17425  0.36185  1.0000
  C   C96       1.0  0.18515  0.21246  0.37627  1.0000
  C   C97       1.0  0.23223  0.00263  0.79833  1.0000
  C   C98       1.0  0.15139  0.16619  0.75626  1.0000
  C   C99       1.0  0.24682  0.08938  0.57507  1.0000
  H   H91       1.0  0.42965  0.16722  0.62763  1.0000
  C   C100      1.0  0.11379  0.12891  0.45549  1.0000
  H   H92       1.0  0.21893  0.02053  0.48132  1.0000
  C   C101      1.0  0.25211  0.09056  0.76349  1.0000
  C   C102      1.0  0.23568  0.02429  0.35963  1.0000
  C   C103      1.0  0.22620  0.04932  0.80224  1.0000
  S   S13       1.0  0.16058  0.11296  0.59296  1.0000
  C   C104      1.0  0.41497  0.08296  0.50658  1.0000
  C   C105      1.0  0.11153  0.02908  0.40384  1.0000
  C   C106      1.0  0.45783  0.16038  0.53830  1.0000
  Fe  Fe6       1.0  0.45896  0.11910  0.39661  1.0000
  C   C107      1.0  0.44357  0.22774  0.46702  1.0000
  H   H93       1.0  0.14421  0.08299  0.45372  1.0000
  H   H94       1.0  0.28432  0.18937  0.47641  1.0000
  C   C108      1.0  0.47460  0.21366  0.64368  1.0000
  H   H95       1.0  0.17858  0.19431  0.56280  1.0000
  C   C109      1.0  0.37902  0.13810  0.66598  1.0000
  H   H96       1.0  0.09823  0.13274  0.34299  1.0000
  C   C110      1.0  0.04888  0.07778  0.50535  1.0000
  C   C111      1.0  0.40584  0.10541  0.54824  1.0000
  H   H97       1.0  0.19078  0.19430  0.82372  1.0000
  H   H98       1.0  0.38654  0.19325  0.48908  1.0000
  C   C112      1.0  0.40241  0.15921  0.43728  1.0000
  C   C113      1.0  0.10933  0.23370  0.37880  1.0000
  C   C114      1.0  0.05895  0.16612  0.36303  1.0000
  C   C115      1.0  0.01518  0.06964  0.56180  1.0000
  C   C116      1.0  0.08449  0.16678  0.70318  1.0000
  C   C117      1.0  0.10223  0.19818  0.56958  1.0000
  H   H99       1.0  0.20585  0.07793  0.46722  1.0000
  C   C118      1.0  0.44762  0.13171  0.78358  1.0000
  H   H100      1.0  0.49575  0.09076  0.47555  1.0000
  Fe  Fe7       1.0  0.13640  0.14967  0.63484  1.0000
  C   C119      1.0  0.49333  0.21011  0.63428  1.0000
  H   H101      1.0  0.18039  0.22484  0.71763  1.0000
  C   C120      1.0  0.34317  0.19694  0.73391  1.0000
  Fe  Fe8       1.0  0.29128  0.22983  0.68056  1.0000
  C   C121      1.0  0.10906  0.02255  0.48192  1.0000
  H   H102      1.0  0.12686  0.20821  0.60377  1.0000
  C   C122      1.0  0.22165  0.12734  0.70065  1.0000
  C   C123      1.0  0.48765  0.23081  0.42453  1.0000
  H   H103      1.0  0.33224  0.22894  0.45679  1.0000
  C   C124      1.0  0.43291  0.01596  0.39390  1.0000
  C   C125      1.0  0.49303  0.24033  0.68179  1.0000
  C   C126      1.0  0.35114  0.18275  0.75418  1.0000
  H   H104      1.0  0.23075  0.21503  0.81377  1.0000
  H   H105      1.0  0.33010  0.09755  0.46967  1.0000
  H   H106      1.0  0.08160  0.02648  0.67465  1.0000
  C   C127      1.0  0.17516  0.07805  0.67693  1.0000
  H   H107      1.0  0.43770  0.02456  0.41825  1.0000
  H   H108      1.0  0.34120  0.18646  0.35293  1.0000
  C   C128      1.0  0.39035  0.03688  0.39674  1.0000
  C   C129      1.0  0.14180  0.16361  0.80082  1.0000
  C   C130      1.0  0.39444  0.07585  0.49702  1.0000
  H   H109      1.0  0.31584  0.20495  0.74021  1.0000
  H   H110      1.0  0.18166  0.09430  0.65031  1.0000
  C   C131      1.0  0.19188  0.20645  0.41366  1.0000
  C   C132      1.0  0.42717  0.24946  0.43050  1.0000
  C   C133      1.0  0.24388  0.12544  0.60098  1.0000
  H   H111      1.0  0.23824  0.13536  0.53791  1.0000
  C   C134      1.0  0.15901  0.03625  0.74623  1.0000
  C   C135      1.0  0.30959  0.02787  0.69287  1.0000
  H   H112      1.0  0.29057  0.17140  0.80918  1.0000
  C   C136      1.0  0.07598  0.09234  0.76293  1.0000
  H   H113      1.0  0.05152  0.16840  0.33709  1.0000
  H   H114      1.0  0.28738  0.16251  0.62197  1.0000
  C   C137      1.0  0.08912  0.20468  0.54744  1.0000
  C   C138      1.0  0.18473  0.21243  0.54453  1.0000
  H   H115      1.0  0.25774  0.03191  0.74083  1.0000
  C   C139      1.0  0.39169  0.10999  0.66018  1.0000
  C   C140      1.0  0.08675  0.11413  0.35872  1.0000
  C   C141      1.0  0.08512  0.20145  0.80612  1.0000
  H   H116      1.0  0.24738  0.17934  0.46302  1.0000
  C   C142      1.0  0.31531  0.16014  0.81396  1.0000
  H   H117      1.0  0.36685  0.05163  0.65795  1.0000
  C   C143      1.0  0.13250  0.03720  0.46976  1.0000
  C   C144      1.0  0.05756  0.01102  0.74083  1.0000
  C   C145      1.0  0.49966  0.24158  0.34331  1.0000
  H   H118      1.0  0.39114  0.23027  0.44148  1.0000
  C   C146      1.0  0.40439  0.17817  0.82497  1.0000
  C   C147      1.0  0.45712  0.09152  0.60596  1.0000
  H   H119      1.0  0.48230  0.12169  0.61581  1.0000
  H   H120      1.0  0.21360  0.21896  0.45344  1.0000
  C   C148      1.0  0.49851  0.24327  0.52376  1.0000
  C   C149      1.0  0.32162  0.19332  0.75460  1.0000
  C   C150      1.0  0.42664  0.06952  0.38781  1.0000
  H   H121      1.0  0.05199  0.04779  0.49961  1.0000
  H   H122      1.0  0.05617  0.22424  0.43978  1.0000
  H   H123      1.0  0.19546  0.13625  0.71883  1.0000
  H   H124      1.0  0.09915  0.18035  0.57792  1.0000
  C   C151      1.0  0.17982  0.18620  0.80501  1.0000
  C   C152      1.0  0.37873  0.08215  0.51573  1.0000
  C   C153      1.0  0.10707  0.11295  0.79001  1.0000
  C   C154      1.0  0.06251  0.14689  0.37468  1.0000
  C   C155      1.0  0.40566  0.22969  0.44910  1.0000
  H   H125      1.0  0.47344  0.18483  0.47151  1.0000
  C   C156      1.0  0.05798  0.06586  0.39727  1.0000
  S   S14       1.0  0.48671  0.22703  0.79141  1.0000
  C   C157      1.0  0.37446  0.10042  0.41882  1.0000
  S   S15       1.0  0.36608  0.03605  0.33829  1.0000
  C   C158      1.0  0.44551  0.15533  0.58226  1.0000
  S   S16       1.0  0.10883  0.09149  0.55050  1.0000
  H   H126      1.0  0.11068  0.21861  0.37567  1.0000
  C   C159      1.0  0.34309  0.01694  0.66144  1.0000
  C   C160      1.0  0.32655  0.09479  0.50523  1.0000
  C   C161      1.0  0.06076  0.15555  0.71556  1.0000
  C   C162      1.0  0.24625  0.15954  0.73923  1.0000
  H   H127      1.0  0.21119  0.06320  0.35300  1.0000
  H   H128      1.0  0.35758  0.07419  0.76195  1.0000
  C   C163      1.0  0.06928  0.14291  0.41305  1.0000
  C   C164      1.0  0.18750  0.13341  0.45199  1.0000
  H   H129      1.0  0.09380  0.04964  0.53065  1.0000
  H   H130      1.0  0.23057  0.01488  0.39488  1.0000
  H   H131      1.0  0.39553  0.24800  0.74222  1.0000
  C   C165      1.0  0.37870  0.10674  0.37250  1.0000
  Fe  Fe9       1.0  0.30703  0.07171  0.82444  1.0000
  C   C166      1.0  0.02522  0.22293  0.79507  1.0000
  S   S17       1.0  0.25944  0.21784  0.73570  1.0000
  C   C167      1.0  0.12184  0.23709  0.57541  1.0000
  H   H132      1.0  0.19661  0.07164  0.56053  1.0000
  H   H133      1.0  0.20751  0.19812  0.74542  1.0000
  C   C168      1.0  0.38488  0.09757  0.54033  1.0000
  H   H134      1.0  0.07233  0.07332  0.63496  1.0000
  S   S18       1.0  0.36487  0.16316  0.33514  1.0000
  H   H135      1.0  0.25967  0.19732  0.60109  1.0000
  C   C169      1.0  0.08483  0.14239  0.65765  1.0000
  H   H136      1.0  0.50168  0.17141  0.48146  1.0000
  H   H137      1.0  0.34378  0.15412  0.81106  1.0000
  C   C170      1.0  0.25794  0.24009  0.75403  1.0000
  S   S19       1.0  0.18266  0.02082  0.69678  1.0000
  C   C171      1.0  0.24154  0.23335  0.79458  1.0000
  H   H138      1.0  0.03565  0.19724  0.81317  1.0000
  C   C172      1.0  0.05065  0.03716  0.64195  1.0000
  S   S20       1.0  0.26446  0.09260  0.37793  1.0000
  C   C173      1.0  0.41175  0.20613  0.65829  1.0000
  H   H139      1.0  0.22202  0.18573  0.58902  1.0000
  C   C174      1.0  0.20588  0.13142  0.43086  1.0000
  C   C175      1.0  0.32853  0.07802  0.57776  1.0000
  H   H140      1.0  0.01189  0.22665  0.61583  1.0000
  C   C176      1.0  0.43485  0.12412  0.75537  1.0000
  C   C177      1.0  0.33485  0.22014  0.43357  1.0000
  H   H141      1.0  0.29678  0.03222  0.70583  1.0000
  C   C178      1.0  0.01338  0.09603  0.42414  1.0000
  C   C179      1.0  0.33229  0.19787  0.45030  1.0000
  C   C180      1.0  0.44618  0.19245  0.56121  1.0000
  C   C181      1.0  0.19347  0.01876  0.44972  1.0000
  S   S21       1.0  0.12583  0.17229  0.66289  1.0000
  C   C182      1.0  0.07263  0.15799  0.43838  1.0000
  H   H142      1.0  0.46752  0.23511  0.38201  1.0000
  C   C183      1.0  0.34737  0.24407  0.80283  1.0000
  H   H143      1.0  0.06111  0.00990  0.56988  1.0000
  H   H144      1.0  0.17104  0.02291  0.41469  1.0000
  H   H145      1.0  0.10357  0.02514  0.37829  1.0000
  C   C184      1.0  0.06603  0.10542  0.77476  1.0000
  C   C185      1.0  0.30326  0.00606  0.68671  1.0000
  H   H146      1.0  0.26786  0.05081  0.35934  1.0000
  C   C186      1.0  0.21236  0.13957  0.71906  1.0000
  C   C187      1.0  0.43943  0.19718  0.76377  1.0000
  C   C188      1.0  0.09858  0.01834  0.44894  1.0000
  C   C189      1.0  0.32181  0.13201  0.65453  1.0000
  C   C190      1.0  0.16537  0.11591  0.45990  1.0000
  H   H147      1.0  0.21768  0.16539  0.75220  1.0000
  C   C191      1.0  0.13490  0.04411  0.39174  1.0000
  Fe  Fe10      1.0  0.49615  0.16637  0.39120  1.0000
  H   H148      1.0  0.40933  0.03735  0.44319  1.0000
  H   H149      1.0  0.10769  0.05098  0.77547  1.0000
  S   S22       1.0  0.30048  0.13122  0.41287  1.0000
  C   C192      1.0  0.34567  0.02663  0.54891  1.0000
  C   C193      1.0  0.43432  0.07425  0.62064  1.0000
  C   C194      1.0  0.35994  0.05911  0.76419  1.0000
  H   H150      1.0  0.14062  0.03984  0.49536  1.0000
  H   H151      1.0  0.21661  0.11099  0.39977  1.0000
  Fe  Fe11      1.0  0.15106  0.11406  0.66262  1.0000
  S   S23       1.0  0.33156  0.10979  0.80627  1.0000
  C   C195      1.0  0.24097  0.02710  0.63542  1.0000
  C   C196      1.0  0.20208  0.06145  0.46207  1.0000
  C   C197      1.0  0.09350  0.03970  0.76652  1.0000
  H   H152      1.0  0.18102  0.21626  0.64615  1.0000
  S   S24       1.0  0.01711  0.19117  0.42176  1.0000
  H   H153      1.0  0.21003  0.00107  0.68656  1.0000
  H   H154      1.0  0.07065  0.12743  0.42529  1.0000
  C   C198      1.0  0.40687  0.21940  0.58676  1.0000
  C   C199      1.0  0.14376  0.02396  0.59713  1.0000
  C   C200      1.0  0.22793  0.00721  0.67314  1.0000
  H   H155      1.0  0.29820  0.10666  0.58614  1.0000
  H   H156      1.0  0.07655  0.15409  0.46914  1.0000
  C   C201      1.0  0.26666  0.03990  0.49216  1.0000
  P   P6        1.0  0.25501  0.11486  0.67907  1.0000
  H   H157      1.0  0.19038  0.14862  0.46183  1.0000
  C   C202      1.0  0.15236  0.05262  0.75275  1.0000
  H   H158      1.0  0.17673  0.02968  0.60248  1.0000
  C   C203      1.0  0.25363  0.02252  0.77575  1.0000
  C   C204      1.0  0.26921  0.03083  0.79892  1.0000
  H   H159      1.0  0.02254  0.23599  0.36424  1.0000
  H   H160      1.0  0.33667  0.05712  0.36726  1.0000
  H   H161      1.0  0.04398  0.00831  0.44309  1.0000
  C   C205      1.0  0.01290  0.12465  0.59838  1.0000
  H   H162      1.0  0.10620  0.11034  0.46044  1.0000
  C   C206      1.0  0.13162  0.03520  0.58440  1.0000
  C   C207      1.0  0.35656  0.07846  0.44695  1.0000
  H   H163      1.0  0.15688  0.20524  0.51748  1.0000
  C   C208      1.0  0.27937  0.01607  0.46131  1.0000
  C   C209      1.0  0.22705  0.06737  0.72779  1.0000
  H   H164      1.0  0.37977  0.12470  0.61091  1.0000
  C   C210      1.0  0.14549  0.04852  0.42458  1.0000
  H   H165      1.0  0.37231  0.14904  0.65259  1.0000
  H   H166      1.0  0.40054  0.04260  0.74947  1.0000
  H   H167      1.0  0.39416  0.09882  0.64256  1.0000
  H   H168      1.0  0.43569  0.13707  0.72752  1.0000
  H   H169      1.0  0.33394  0.06778  0.59847  1.0000
  H   H170      1.0  0.32783  0.18971  0.48603  1.0000
  C   C211      1.0  0.44198  0.24172  0.60135  1.0000
  C   C212      1.0  0.37867  0.14848  0.45226  1.0000
  Fe  Fe12      1.0  0.32804  0.13613  0.35568  1.0000
  Fe  Fe13      1.0  0.17586  0.15191  0.57085  1.0000
  H   H171      1.0  0.39379  0.12214  0.75727  1.0000
  H   H172      1.0  0.49365  0.19855  0.61554  1.0000
  C   C213      1.0  0.28553  0.13078  0.66065  1.0000
  C   C214      1.0  0.36512  0.09113  0.35389  1.0000
  C   C215      1.0  0.49258  0.18997  0.78963  1.0000
  H   H173      1.0  0.46219  0.14785  0.52945  1.0000
  C   C216      1.0  0.49994  0.08318  0.41383  1.0000
  P   P7        1.0  0.46816  0.22596  0.47667  1.0000
  H   H174      1.0  0.08061  0.00613  0.45820  1.0000
  C   C217      1.0  0.31197  0.02768  0.53930  1.0000
  C   C218      1.0  0.06294  0.18153  0.38760  1.0000
  C   C219      1.0  0.06333  0.02374  0.58385  1.0000
  H   H175      1.0  0.24372  0.14019  0.60929  1.0000
  P   P8        1.0  0.44946  0.23175  0.68409  1.0000
  C   C220      1.0  0.11828  0.21421  0.58396  1.0000
  C   C221      1.0  0.43219  0.21142  0.74013  1.0000
  H   H176      1.0  0.35132  0.16463  0.61207  1.0000
  H   H177      1.0  0.15116  0.11756  0.47627  1.0000
  H   H178      1.0  0.24955  0.07207  0.82949  1.0000
  C   C222      1.0  0.37861  0.16229  0.37598  1.0000
  H   H179      1.0  0.03263  0.07368  0.63175  1.0000
  H   H180      1.0  0.41928  0.19141  0.50542  1.0000
  H   H181      1.0  0.32873  0.04613  0.44874  1.0000
  C   C223      1.0  0.42182  0.20794  0.48532  1.0000
  C   C224      1.0  0.38174  0.06155  0.75076  1.0000
  C   C225      1.0  0.04915  0.08046  0.38329  1.0000
  C   C226      1.0  0.16654  0.07231  0.55224  1.0000
  C   C227      1.0  0.39156  0.12310  0.72466  1.0000
  H   H182      1.0  0.11885  0.18370  0.36576  1.0000
  C   C228      1.0  0.31360  0.10362  0.52505  1.0000
  C   C229      1.0  0.34068  0.03695  0.78015  1.0000
  C   C230      1.0  0.20215  0.11198  0.41724  1.0000
  C   C231      1.0  0.14218  0.16884  0.41110  1.0000
  H   H183      1.0  0.14242  0.19511  0.44059  1.0000
  C   C232      1.0  0.17852  0.06143  0.56671  1.0000
  H   H184      1.0  0.14079  0.04896  0.78438  1.0000
  C   C233      1.0  0.33512  0.18600  0.42106  1.0000
  C   C234      1.0  0.06119  0.13175  0.66872  1.0000
  C   C235      1.0  0.29555  0.23716  0.82144  1.0000
  C   C236      1.0  0.20488  0.22959  0.54693  1.0000
  C   C237      1.0  0.33988  0.19611  0.37523  1.0000
  C   C238      1.0  0.38946  0.04924  0.35691  1.0000
  C   C239      1.0  0.42062  0.09766  0.53237  1.0000
  C   C240      1.0  0.28132  0.03795  0.45903  1.0000
  C   C241      1.0  0.41895  0.07382  0.65635  1.0000
  C   C242      1.0  0.17997  0.09386  0.42650  1.0000
  S   S25       1.0  0.15136  0.09337  0.72679  1.0000
  C   C243      1.0  0.46459  0.10831  0.62716  1.0000
  C   C244      1.0  0.49041  0.20345  0.81594  1.0000
  S   S26       1.0  0.48906  0.14776  0.34106  1.0000
  H   H185      1.0  0.36640  0.00370  0.77692  1.0000
  C   C245      1.0  0.18939  0.07899  0.35029  1.0000
  H   H186      1.0  0.07113  0.18845  0.44620  1.0000
  C   C246      1.0  0.23560  0.18650  0.56454  1.0000
  C   C247      1.0  0.16027  0.07342  0.71803  1.0000
  H   H187      1.0  0.02199  0.15887  0.60316  1.0000
  C   C248      1.0  0.26396  0.03465  0.61684  1.0000
  C   C249      1.0  0.42629  0.09047  0.67824  1.0000
  H   H188      1.0  0.39636  0.21733  0.56490  1.0000
  H   H189      1.0  0.03851  0.03370  0.67278  1.0000
  C   C250      1.0  0.24315  0.07079  0.80125  1.0000
  C   C251      1.0  0.43337  0.22590  0.64503  1.0000
  H   H190      1.0  0.06798  0.22853  0.72201  1.0000
  C   C252      1.0  0.09677  0.04070  0.72182  1.0000
  C   C253      1.0  0.04913  0.13790  0.69859  1.0000
  H   H191      1.0  0.36951  0.13816  0.48706  1.0000
  H   H192      1.0  0.25362  0.07996  0.63662  1.0000
  C   C254      1.0  0.27854  0.24738  0.48666  1.0000
  C   C255      1.0  0.42572  0.08216  0.34822  1.0000
  H   H193      1.0  0.23803  0.02132  0.55210  1.0000
  C   C256      1.0  0.15081  0.24523  0.63942  1.0000
  S   S27       1.0  0.29529  0.05667  0.77191  1.0000
  C   C257      1.0  0.13154  0.14490  0.41662  1.0000
  C   C258      1.0  0.01262  0.12095  0.52529  1.0000
  C   C259      1.0  0.06949  0.17731  0.42562  1.0000
  H   H194      1.0  0.49936  0.22724  0.52847  1.0000
  C   C260      1.0  0.16155  0.09619  0.44723  1.0000
  H   H195      1.0  0.05148  0.16067  0.73784  1.0000
  C   C261      1.0  0.38394  0.04135  0.75704  1.0000
  C   C262      1.0  0.17400  0.04094  0.70526  1.0000
  C   C263      1.0  0.44930  0.10775  0.66324  1.0000
  C   C264      1.0  0.21831  0.04763  0.76536  1.0000
  C   C265      1.0  0.33244  0.04422  0.68253  1.0000
  C   C266      1.0  0.34710  0.06933  0.38169  1.0000
  C   C267      1.0  0.48436  0.24743  0.50064  1.0000
  C   C268      1.0  0.07891  0.02608  0.70912  1.0000
  H   H196      1.0  0.32909  0.18406  0.59233  1.0000
  C   C269      1.0  0.21306  0.04972  0.47857  1.0000
  S   S28       1.0  0.20713  0.17617  0.51269  1.0000
  C   C270      1.0  0.24993  0.18303  0.49337  1.0000
  Fe  Fe14      1.0  0.28611  0.09297  0.42241  1.0000
  H   H197      1.0  0.13718  0.13850  0.39139  1.0000
  S   S29       1.0  0.26978  0.06719  0.49187  1.0000
  H   H198      1.0  0.06492  0.09015  0.47990  1.0000
  H   H199      1.0  0.19462  0.06599  0.63983  1.0000
  H   H200      1.0  0.24118  0.10352  0.51462  1.0000
  H   H201      1.0  0.24843  0.07573  0.56456  1.0000
  S   S30       1.0  0.30175  0.20416  0.54401  1.0000
  C   C271      1.0  0.24108  0.12297  0.56002  1.0000
  H   H202      1.0  0.46021  0.20434  0.63317  1.0000
  C   C272      1.0  0.08189  0.04615  0.56186  1.0000
  C   C273      1.0  0.36462  0.01924  0.77249  1.0000
  H   H203      1.0  0.45753  0.15021  0.77813  1.0000
  C   C274      1.0  0.29687  0.15394  0.63170  1.0000
  H   H204      1.0  0.40431  0.21856  0.74126  1.0000
  C   C275      1.0  0.06978  0.05950  0.62069  1.0000
  H   H205      1.0  0.43242  0.18098  0.38075  1.0000
  H   H206      1.0  0.22020  0.06568  0.70029  1.0000
  C   C276      1.0  0.24766  0.10951  0.62984  1.0000
  C   C277      1.0  0.30753  0.17466  0.79415  1.0000
  C   C278      1.0  0.19410  0.23623  0.35227  1.0000
  H   H207      1.0  0.09318  0.12416  0.51971  1.0000
  C   C279      1.0  0.09931  0.24130  0.67063  1.0000
  C   C280      1.0  0.43390  0.09157  0.82719  1.0000
  S   S31       1.0  0.29636  0.24748  0.60913  1.0000
  S   S32       1.0  0.36004  0.21935  0.68306  1.0000
  C   C281      1.0  0.06336  0.10479  0.36500  1.0000
  H   H208      1.0  0.21167  0.11443  0.68702  1.0000
  C   C282      1.0  0.41074  0.20862  0.75956  1.0000
  H   H209      1.0  0.11343  0.02537  0.59112  1.0000
  H   H210      1.0  0.33703  0.06091  0.68778  1.0000
  C   C283      1.0  0.18922  0.18840  0.76091  1.0000
  H   H211      1.0  0.23304  0.03626  0.62017  1.0000
  S   S33       1.0  0.26287  0.15181  0.35668  1.0000
  C   C284      1.0  0.48330  0.23565  0.38351  1.0000
  H   H212      1.0  0.09914  0.01413  0.51690  1.0000
  C   C285      1.0  0.24425  0.08891  0.72628  1.0000
  C   C286      1.0  0.42107  0.08386  0.79902  1.0000
  C   C287      1.0  0.40890  0.04697  0.41211  1.0000
  P   P9        1.0  0.05194  0.12407  0.34968  1.0000
  C   C288      1.0  0.44608  0.24836  0.43870  1.0000
  H   H213      1.0  0.06209  0.24651  0.35822  1.0000
  C   C289      1.0  0.50346  0.09801  0.43960  1.0000
  C   C290      1.0  0.07228  0.02426  0.79896  1.0000
  H   H214      1.0  0.37412  0.10449  0.55156  1.0000
  H   H215      1.0  0.21818  0.15867  0.34188  1.0000
  C   C291      1.0  0.16259  0.23379  0.62681  1.0000
  C   C292      1.0  0.17228  0.23061  0.69575  1.0000
  C   C293      1.0  0.02011  0.21033  0.45233  1.0000
  H   H216      1.0  0.05023  0.10268  0.76842  1.0000
  C   C294      1.0  0.09638  0.09599  0.77092  1.0000
  H   H217      1.0  0.02655  0.17647  0.52317  1.0000
  C   C295      1.0  0.33735  0.16460  0.79467  1.0000
  C   C296      1.0  0.01953  0.14839  0.58113  1.0000
  C   C297      1.0  0.07654  0.12225  0.79433  1.0000
  S   S34       1.0  0.34469  0.24699  0.58489  1.0000
  H   H218      1.0  0.12310  0.11576  0.79507  1.0000
  H   H219      1.0  0.07916  0.21409  0.80172  1.0000
  H   H220      1.0  0.17024  0.00350  0.55173  1.0000
  H   H221      1.0  0.50722  0.18846  0.54275  1.0000
  H   H222      1.0  0.19073  0.23830  0.80266  1.0000
  H   H223      1.0  0.21951  0.03389  0.83116  1.0000
  H   H224      1.0  0.43133  0.16980  0.82391  1.0000
  C   C298      1.0  0.02649  0.20560  0.82517  1.0000
  C   C299      1.0  0.21714  0.24733  0.40078  1.0000
  H   H225      1.0  0.24520  0.24132  0.48839  1.0000
  C   C300      1.0  0.10732  0.24797  0.34322  1.0000
  H   H226      1.0  0.01597  0.01929  0.55998  1.0000
  C   C301      1.0  0.17816  0.17530  0.33531  1.0000
  H   H227      1.0  0.26557  0.20577  0.82791  1.0000
  C   C302      1.0  0.44753  0.02532  0.35021  1.0000
  H   H228      1.0  0.17121  0.24708  0.47599  1.0000
  S   S35       1.0  0.32916  0.00165  0.46287  1.0000
  H   H229      1.0  0.46363  0.04118  0.34086  1.0000
  C   C303      1.0  0.22109  0.01633  0.33447  1.0000
  C   C304      1.0  0.29940  0.00339  0.55891  1.0000
  H   H230      1.0  0.33106  0.23097  0.82614  1.0000
  C   C305      1.0  0.23985  0.25024  0.81162  1.0000
  Fe  Fe15      1.0  0.34099  0.00221  0.39288  1.0000
  H   H231      1.0  0.28913  0.00202  0.33838  1.0000
  C   C306      1.0  0.26099  0.00283  0.67550  1.0000
  H   H232      1.0  0.35608  0.01262  0.64955  1.0000
  C   C307      1.0  0.33306  0.00238  0.56813  1.0000
  S   S36       1.0  0.15464  0.01414  0.33332  1.0000
  C   C308      1.0  0.40921  0.01009  0.88225  1.0000
  H   H233      1.0  0.17023  0.14987  0.88933  1.0000
  H   H234      1.0  0.09503  0.02716  0.16338  1.0000
  H   H235      1.0  0.07753  0.16431  0.98290  1.0000
  H   H236      1.0  0.24272  0.20557  0.89785  1.0000
  H   H237      1.0  0.46476  0.24467  0.28932  1.0000
  H   H238      1.0  0.40149  0.15603  0.28250  1.0000
  H   H239      1.0  0.26866  0.09074  0.95428  1.0000
  P   P10       1.0  0.42006  0.14694  0.13414  1.0000
  H   H240      1.0  0.10002  0.03332  0.27688  1.0000
  C   C309      1.0  0.12071  0.06302  0.13900  1.0000
  C   C310      1.0  0.18061  0.24378  0.86464  1.0000
  S   S37       1.0  0.16814  0.05113  0.20499  1.0000
  C   C311      1.0  0.39705  0.09774  0.98125  1.0000
  C   C312      1.0  0.04120  0.04326  0.84714  1.0000
  C   C313      1.0  0.26974  0.23714  0.89931  1.0000
  Fe  Fe16      1.0  0.29451  0.10020  0.32298  1.0000
  C   C314      1.0  0.39317  0.22679  0.27111  1.0000
  H   H241      1.0  0.02951  0.18475  0.95132  1.0000
  C   C315      1.0  0.16960  0.02919  0.10581  1.0000
  C   C316      1.0  0.20535  0.16117  0.33013  1.0000
  C   C317      1.0  0.25946  0.07407  0.06709  1.0000
  H   H242      1.0  0.45715  0.07737  0.28102  1.0000
  H   H243      1.0  0.35276  0.06039  0.14237  1.0000
  H   H244      1.0  0.31638  0.02876  0.94596  1.0000
  H   H245      1.0  0.45718  0.12127  0.84131  1.0000
  S   S38       1.0  0.27206  0.21417  0.05551  1.0000
  H   H246      1.0  0.39047  0.21775  0.30565  1.0000
  C   C318      1.0  0.06168  0.24378  0.23021  1.0000
  H   H247      1.0  0.11277  0.00243  0.15781  1.0000
  S   S39       1.0  0.29735  0.13645  0.86266  1.0000
  S   S40       1.0  0.39240  0.00447  0.84652  1.0000
  C   C319      1.0  0.22285  0.01164  0.01186  1.0000
  H   H248      1.0  0.20834  0.00432  0.17912  1.0000
  C   C320      1.0  0.41461  0.24515  0.24472  1.0000
  H   H249      1.0  0.49001  0.20844  0.88006  1.0000
  S   S41       1.0  0.09825  0.09322  0.18440  1.0000
  H   H250      1.0  0.18920  0.11123  0.25304  1.0000
  C   C321      1.0  0.06453  0.14546  0.07324  1.0000
  H   H251      1.0  0.33055  0.07190  0.27154  1.0000
  H   H252      1.0  0.07040  0.14763  0.87390  1.0000
  C   C322      1.0  0.22806  0.02834  0.28861  1.0000
  C   C323      1.0  0.09735  0.10166  0.94784  1.0000
  C   C324      1.0  0.18381  0.09308  0.32148  1.0000
  H   H253      1.0  0.21009  0.00650  0.91594  1.0000
  H   H254      1.0  0.32093  0.01524  0.04484  1.0000
  H   H255      1.0  0.25732  0.18580  0.29585  1.0000
  C   C325      1.0  0.30280  0.01254  0.96983  1.0000
  H   H256      1.0  0.18877  0.18355  0.09366  1.0000
  C   C326      1.0  0.20488  0.15812  0.88258  1.0000
  S   S42       1.0  0.10989  0.14493  0.19065  1.0000
  H   H257      1.0  0.02675  0.07622  0.89923  1.0000
  C   C327      1.0  0.46199  0.18589  0.08267  1.0000
  H   H258      1.0  0.01502  0.18404  0.89304  1.0000
  C   C328      1.0  0.35457  0.04102  0.23634  1.0000
  H   H259      1.0  0.45405  0.05578  0.89240  1.0000
  C   C329      1.0  0.25977  0.16118  0.21429  1.0000
  H   H260      1.0  0.49657  0.24587  0.31178  1.0000
  C   C330      1.0  0.05973  0.05024  0.90388  1.0000
  C   C331      1.0  0.40600  0.22688  0.08004  1.0000
  H   H261      1.0  0.07056  0.04779  0.92260  1.0000
  C   C332      1.0  0.21270  0.09353  0.96895  1.0000
  C   C333      1.0  0.34361  0.02146  0.08520  1.0000
  C   C334      1.0  0.25294  0.09139  0.95888  1.0000
  C   C335      1.0  0.26370  0.01455  0.13166  1.0000
  H   H262      1.0  0.28596  0.23073  0.29201  1.0000
  C   C336      1.0  0.16182  0.08921  0.19275  1.0000
  H   H263      1.0  0.01934  0.19194  0.10993  1.0000
  C   C337      1.0  0.18150  0.18223  0.99248  1.0000
  C   C338      1.0  0.13451  0.21843  0.01490  1.0000
  C   C339      1.0  0.15671  0.16430  0.08324  1.0000
  C   C340      1.0  0.44499  0.15773  0.04601  1.0000
  C   C341      1.0  0.42715  0.01838  0.21218  1.0000
  H   H264      1.0  0.30770  0.04193  0.06326  1.0000
  H   H265      1.0  0.33747  0.09349  0.18186  1.0000
  H   H266      1.0  0.08522  0.24212  0.12911  1.0000
  C   C342      1.0  0.37464  0.00097  0.09455  1.0000
  H   H267      1.0  0.36090  0.07549  0.00949  1.0000
  C   C343      1.0  0.03488  0.06621  0.89121  1.0000
  C   C344      1.0  0.19175  0.24571  0.99496  1.0000
  C   C345      1.0  0.11033  0.05710  0.85644  1.0000
  H   H268      1.0  0.32481  0.12538  0.19826  1.0000
  H   H269      1.0  0.12627  0.06156  0.16839  1.0000
  C   C346      1.0  0.06735  0.15816  0.18958  1.0000
  H   H270      1.0  0.40647  0.08163  0.30192  1.0000
  Fe  Fe17      1.0  0.45725  0.06288  0.98412  1.0000
  H   H271      1.0  0.03332  0.18890  0.30501  1.0000
  H   H272      1.0  0.17044  0.23512  0.21265  1.0000
  C   C347      1.0  0.50657  0.09040  0.20705  1.0000
  C   C348      1.0  0.43491  0.02116  0.94082  1.0000
  C   C349      1.0  0.15784  0.16785  0.00634  1.0000
  H   H273      1.0  0.22867  0.07697  0.27202  1.0000
  H   H274      1.0  0.26127  0.12926  0.22226  1.0000
  S   S43       1.0  0.32444  0.06063  0.86942  1.0000
  H   H275      1.0  0.05862  0.05538  0.10764  1.0000
  Fe  Fe18      1.0  0.23842  0.22932  0.14060  1.0000
  C   C350      1.0  0.18865  0.13154  0.97326  1.0000
  S   S44       1.0  0.05082  0.16816  0.25681  1.0000
  C   C351      1.0  0.02654  0.21075  0.09950  1.0000
  C   C352      1.0  0.14805  0.02663  0.12146  1.0000
  H   H276      1.0  0.45314  0.19884  0.93637  1.0000
  C   C353      1.0  0.04338  0.00421  0.18298  1.0000
  C   C354      1.0  0.15325  0.10294  0.20735  1.0000
  H   H277      1.0  0.43189  0.14097  0.04689  1.0000
  C   C355      1.0  0.34528  0.04988  0.12239  1.0000
  H   H278      1.0  0.19692  0.09394  0.97297  1.0000
  C   C356      1.0  0.26023  0.21916  0.88170  1.0000
  C   C357      1.0  0.22694  0.12102  0.10984  1.0000
  H   H279      1.0  0.04633  0.04658  0.32667  1.0000
  H   H280      1.0  0.48004  0.01403  0.15965  1.0000
  S   S45       1.0  0.11601  0.13980  0.06851  1.0000
  H   H281      1.0  0.02572  0.23966  0.95110  1.0000
  H   H282      1.0  0.37020  0.24198  0.93919  1.0000
  H   H283      1.0  0.43178  0.21985  0.94742  1.0000
  C   C358      1.0  0.38409  0.24600  0.91087  1.0000
  C   C359      1.0  0.29893  0.22871  0.27164  1.0000
  H   H284      1.0  0.18519  0.21961  0.26814  1.0000
  H   H285      1.0  0.35675  0.00492  0.91308  1.0000
  C   C360      1.0  0.25228  0.11104  0.96546  1.0000
  C   C361      1.0  0.39018  0.14197  0.08287  1.0000
  C   C362      1.0  0.17376  0.13449  0.95135  1.0000
  S   S46       1.0  0.02153  0.11155  0.92892  1.0000
  C   C363      1.0  0.26371  0.05676  0.29383  1.0000
  C   C364      1.0  0.02799  0.11042  0.09727  1.0000
  H   H286      1.0  0.43938  0.09973  0.32953  1.0000
  C   C365      1.0  0.03582  0.17247  0.95370  1.0000
  H   H287      1.0  0.21120  0.16826  0.84733  1.0000
  H   H288      1.0  0.44001  0.04833  0.15304  1.0000
  H   H289      1.0  0.30800  0.18832  0.86720  1.0000
  H   H290      1.0  0.40607  0.09971  0.12945  1.0000
  C   C366      1.0  0.31256  0.03924  0.26009  1.0000
  C   C367      1.0  0.12598  0.02562  0.88137  1.0000
  C   C368      1.0  0.08094  0.23943  0.16466  1.0000
  C   C369      1.0  0.19389  0.10076  0.27519  1.0000
  C   C370      1.0  0.07261  0.18029  0.84116  1.0000
  C   C371      1.0  0.49400  0.17841  0.87751  1.0000
  H   H291      1.0  0.41168  0.18428  0.32702  1.0000
  C   C372      1.0  0.44124  0.01442  0.31860  1.0000
  C   C373      1.0  0.49750  0.15347  0.11013  1.0000
  C   C374      1.0  0.10331  0.13792  0.96004  1.0000
  C   C375      1.0  0.02838  0.17355  0.25274  1.0000
  H   H292      1.0  0.39355  0.16493  0.85717  1.0000
  H   H293      1.0  0.23569  0.01219  0.02734  1.0000
  C   C376      1.0  0.43505  0.19021  0.94116  1.0000
  C   C377      1.0  0.47525  0.08518  0.26502  1.0000
  H   H294      1.0  0.18196  0.12089  0.00817  1.0000
  C   C378      1.0  0.03017  0.14710  0.09980  1.0000
  C   C379      1.0  0.21192  0.14225  0.95008  1.0000
  H   H295      1.0  0.33681  0.00779  0.22811  1.0000
  Fe  Fe19      1.0  0.07839  0.23577  0.93083  1.0000
  H   H296      1.0  0.49383  0.21629  0.04283  1.0000
  C   C380      1.0  0.48085  0.19311  0.00551  1.0000
  H   H297      1.0  0.25682  0.19148  0.21759  1.0000
  C   C381      1.0  0.14008  0.22510  0.90096  1.0000
  C   C382      1.0  0.46663  0.23654  0.26442  1.0000
  C   C383      1.0  0.47070  0.21501  0.20039  1.0000
  H   H298      1.0  0.20522  0.15340  0.03253  1.0000
  C   C384      1.0  0.46444  0.21414  0.27726  1.0000
  C   C385      1.0  0.38088  0.03761  0.91611  1.0000
  C   C386      1.0  0.49136  0.19785  0.85981  1.0000
  C   C387      1.0  0.12194  0.20376  0.30107  1.0000
  C   C388      1.0  0.02687  0.04664  0.03682  1.0000
  H   H299      1.0  0.15628  0.11895  0.18397  1.0000
  H   H300      1.0  0.14951  0.17260  0.85898  1.0000
  C   C389      1.0  0.02601  0.22259  0.05878  1.0000
  C   C390      1.0  0.28491  0.01230  0.99901  1.0000
  C   C391      1.0  0.04257  0.02043  0.04324  1.0000
  S   S47       1.0  0.30967  0.13900  0.30594  1.0000
  H   H301      1.0  0.06015  0.11183  0.07288  1.0000
  C   C392      1.0  0.38859  0.10754  0.89915  1.0000
  C   C393      1.0  0.38318  0.03868  0.98978  1.0000
  H   H302      1.0  0.13222  0.01341  0.88940  1.0000
  H   H303      1.0  0.10990  0.16571  0.90283  1.0000
  H   H304      1.0  0.37571  0.19052  0.20004  1.0000
  H   H305      1.0  0.24073  0.11435  0.05252  1.0000
  H   H306      1.0  0.37032  0.15866  0.95835  1.0000
  C   C394      1.0  0.09588  0.03306  0.86628  1.0000
  C   C395      1.0  0.25806  0.17677  0.23546  1.0000
  C   C396      1.0  0.49058  0.10032  0.28194  1.0000
  C   C397      1.0  0.37060  0.09202  0.93825  1.0000
  C   C398      1.0  0.08386  0.22407  0.23695  1.0000
  H   H307      1.0  0.20064  0.03702  0.15808  1.0000
  H   H308      1.0  0.01817  0.09183  0.10349  1.0000
  S   S48       1.0  0.25114  0.24830  0.06699  1.0000
  H   H309      1.0  0.03568  0.07012  0.07483  1.0000
  C   C399      1.0  0.10286  0.04340  0.13593  1.0000
  C   C400      1.0  0.49637  0.16510  0.85079  1.0000
  C   C401      1.0  0.42097  0.08523  0.17124  1.0000
  H   H310      1.0  0.39975  0.00921  0.03263  1.0000
  S   S49       1.0  0.03610  0.04414  0.23733  1.0000
  C   C402      1.0  0.30706  0.16094  0.99382  1.0000
  H   H311      1.0  0.21221  0.13096  0.16114  1.0000
  C   C403      1.0  0.09504  0.04509  0.09857  1.0000
  H   H312      1.0  0.25483  0.05773  0.23280  1.0000
  C   C404      1.0  0.46145  0.03266  0.15154  1.0000
  H   H313      1.0  0.29203  0.21471  0.97078  1.0000
  S   S50       1.0  0.28263  0.03770  0.99405  1.0000
  H   H314      1.0  0.41162  0.19742  0.25165  1.0000
  H   H315      1.0  0.25817  0.01908  0.10330  1.0000
  C   C405      1.0  0.01141  0.24274  0.95374  1.0000
  H   H316      1.0  0.25368  0.18042  0.00225  1.0000
  C   C406      1.0  0.01550  0.16783  0.22370  1.0000
  C   C407      1.0  0.33914  0.18488  0.01503  1.0000
  C   C408      1.0  0.03607  0.22315  0.12695  1.0000
  H   H317      1.0  0.43226  0.12091  0.94330  1.0000
  C   C409      1.0  0.25468  0.08085  0.10415  1.0000
  H   H318      1.0  0.12695  0.01748  0.97722  1.0000
  C   C410      1.0  0.18234  0.15613  0.28061  1.0000
  H   H319      1.0  0.29977  0.14234  0.18789  1.0000
  C   C411      1.0  0.44011  0.03827  0.90081  1.0000
  C   C412      1.0  0.26064  0.14175  0.23809  1.0000
  C   C413      1.0  0.33199  0.05822  0.26064  1.0000
  H   H320      1.0  0.06992  0.16703  0.15525  1.0000
  C   C414      1.0  0.40717  0.16440  0.24660  1.0000
  C   C415      1.0  0.05908  0.13437  0.28836  1.0000
  C   C416      1.0  0.20588  0.07344  0.33205  1.0000
  H   H321      1.0  0.40507  0.13396  0.23230  1.0000
  Fe  Fe20      1.0  0.34662  0.09878  0.85686  1.0000
  H   H322      1.0  0.14735  0.15705  0.11837  1.0000
  C   C417      1.0  0.04087  0.12447  0.26616  1.0000
  C   C418      1.0  0.34985  0.11429  0.11230  1.0000
  S   S51       1.0  0.06886  0.20205  0.98267  1.0000
  C   C419      1.0  0.48325  0.08026  0.22751  1.0000
  H   H323      1.0  0.18384  0.04656  0.08785  1.0000
  P   P11       1.0  0.38448  0.20689  0.96098  1.0000
  H   H324      1.0  0.10417  0.19892  0.30999  1.0000
  C   C420      1.0  0.25823  0.17348  0.27982  1.0000
  C   C421      1.0  0.41504  0.11271  0.94201  1.0000
  H   H325      1.0  0.40447  0.15581  0.05503  1.0000
  H   H326      1.0  0.37522  0.11087  0.19284  1.0000
  H   H327      1.0  0.28891  0.15031  0.00142  1.0000
  C   C422      1.0  0.10397  0.01742  0.87835  1.0000
  C   C423      1.0  0.27424  0.16714  0.91365  1.0000
  H   H328      1.0  0.26759  0.12518  0.96626  1.0000
  Fe  Fe21      1.0  0.10519  0.11188  0.23420  1.0000
  C   C424      1.0  0.14014  0.04954  0.87214  1.0000
  C   C425      1.0  0.36881  0.13173  0.07670  1.0000
  H   H329      1.0  0.17745  0.14990  0.25367  1.0000
  C   C426      1.0  0.20837  0.00814  0.94905  1.0000
  H   H330      1.0  0.26944  0.15429  0.89664  1.0000
  C   C427      1.0  0.29602  0.18659  0.89646  1.0000
  C   C428      1.0  0.21696  0.04722  0.13218  1.0000
  H   H331      1.0  0.48404  0.10409  0.31084  1.0000
  C   C429      1.0  0.03296  0.13602  0.94657  1.0000
  C   C430      1.0  0.25895  0.16415  0.95290  1.0000
  H   H332      1.0  0.06362  0.17680  0.07595  1.0000
  H   H333      1.0  0.08454  0.06046  0.27764  1.0000
  C   C431      1.0  0.27700  0.02349  0.19369  1.0000
  H   H334      1.0  0.15746  0.05595  0.87290  1.0000
  S   S52       1.0  0.38385  0.11537  0.84785  1.0000
  H   H335      1.0  0.33330  0.10654  0.10750  1.0000
  C   C432      1.0  0.30479  0.21212  0.29016  1.0000
  Fe  Fe22      1.0  0.43604  0.09171  0.01135  1.0000
  H   H336      1.0  0.41396  0.06881  0.16452  1.0000
  C   C433      1.0  0.35327  0.22631  0.09694  1.0000
  C   C434      1.0  0.36390  0.01430  0.93472  1.0000
  H   H337      1.0  0.05090  0.24964  0.24607  1.0000
  C   C435      1.0  0.40937  0.15201  0.21789  1.0000
  H   H338      1.0  0.14058  0.04455  0.29014  1.0000
  H   H339      1.0  0.36270  0.14954  0.20508  1.0000
  H   H340      1.0  0.01902  0.21303  0.03717  1.0000
  H   H341      1.0  0.24072  0.01093  0.95051  1.0000
  C   C436      1.0  0.44457  0.11057  0.20613  1.0000
  H   H342      1.0  0.42845  0.25069  0.25895  1.0000
  H   H343      1.0  0.05665  0.17633  0.86326  1.0000
  S   S53       1.0  0.26174  0.16607  0.15773  1.0000
  H   H344      1.0  0.01069  0.14882  0.93006  1.0000
  H   H345      1.0  0.26820  0.04501  0.14971  1.0000
  H   H346      1.0  0.46093  0.20514  0.31192  1.0000
  H   H347      1.0  0.14421  0.09991  0.10831  1.0000
  H   H348      1.0  0.12619  0.06923  0.31657  1.0000
  H   H349      1.0  0.20814  0.14589  0.27864  1.0000
  H   H350      1.0  0.10491  0.06958  0.84463  1.0000
  C   C437      1.0  0.47265  0.23726  0.18770  1.0000
  C   C438      1.0  0.39279  0.20348  0.08400  1.0000
  H   H351      1.0  0.15818  0.16813  0.28961  1.0000
  H   H352      1.0  0.17124  0.09444  0.15802  1.0000
  C   C439      1.0  0.10556  0.06673  0.06421  1.0000
  C   C440      1.0  0.21983  0.15534  0.90441  1.0000
  C   C441      1.0  0.41280  0.18776  0.22919  1.0000
  S   S54       1.0  0.22255  0.20415  0.00597  1.0000
  C   C442      1.0  0.07109  0.00450  0.32930  1.0000
  C   C443      1.0  0.05166  0.12160  0.08018  1.0000
  H   H353      1.0  0.45765  0.23909  0.03864  1.0000
  C   C444      1.0  0.14090  0.09593  0.25233  1.0000
  H   H354      1.0  0.43343  0.07909  0.85544  1.0000
  H   H355      1.0  0.40362  0.06791  0.92901  1.0000
  Fe  Fe23      1.0  0.15556  0.01809  0.26171  1.0000
  C   C445      1.0  0.17155  0.16668  0.30102  1.0000
  H   H356      1.0  0.31507  0.15690  0.92922  1.0000
  S   S55       1.0  0.44699  0.08659  0.94627  1.0000
  S   S56       1.0  0.12954  0.11223  0.27140  1.0000
  H   H357      1.0  0.23363  0.11281  0.13147  1.0000
  C   C446      1.0  0.35793  0.23946  0.05274  1.0000
  C   C447      1.0  0.21598  0.08128  0.28577  1.0000
  C   C448      1.0  0.05577  0.04016  0.87002  1.0000
  C   C449      1.0  0.13644  0.07498  0.28222  1.0000
  C   C450      1.0  0.33512  0.02188  0.23617  1.0000
  C   C451      1.0  0.42291  0.20205  0.94719  1.0000
  H   H358      1.0  0.04078  0.01910  0.17320  1.0000
  C   C452      1.0  0.46518  0.01512  0.17428  1.0000
  C   C453      1.0  0.17277  0.00957  0.11438  1.0000
  C   C454      1.0  0.13037  0.19515  0.33273  1.0000
  H   H359      1.0  0.41280  0.02027  0.22631  1.0000
  H   H360      1.0  0.23435  0.05792  0.95109  1.0000
  H   H361      1.0  0.31954  0.21828  0.90486  1.0000
  C   C455      1.0  0.04468  0.13657  0.21757  1.0000
  C   C456      1.0  0.26366  0.01878  0.84425  1.0000
  H   H362      1.0  0.19109  0.18888  0.95738  1.0000
  H   H363      1.0  0.27600  0.08433  0.04189  1.0000
  H   H364      1.0  0.14307  0.20875  0.00704  1.0000
  S   S57       1.0  0.50136  0.14164  0.86878  1.0000
  C   C457      1.0  0.23227  0.11250  0.96974  1.0000
  C   C458      1.0  0.21340  0.07384  0.96250  1.0000
  C   C459      1.0  0.08053  0.16420  0.84718  1.0000
  H   H365      1.0  0.43828  0.07543  0.21417  1.0000
  C   C460      1.0  0.35412  0.18890  0.97419  1.0000
  H   H366      1.0  0.15594  0.12667  0.96945  1.0000
  C   C461      1.0  0.37862  0.23068  0.20784  1.0000
  C   C462      1.0  0.05067  0.04781  0.08452  1.0000
  C   C463      1.0  0.01488  0.19818  0.87051  1.0000
  C   C464      1.0  0.32180  0.16483  0.95312  1.0000
  H   H367      1.0  0.11879  0.20611  0.86594  1.0000
  C   C465      1.0  0.39061  0.04977  0.94356  1.0000
  H   H368      1.0  0.19714  0.15025  0.11206  1.0000
  C   C466      1.0  0.31571  0.17108  0.02462  1.0000
  H   H369      1.0  0.25368  0.24347  0.21767  1.0000
  H   H370      1.0  0.36662  0.03427  0.12327  1.0000
  H   H371      1.0  0.14923  0.16362  0.98185  1.0000
  C   C467      1.0  0.11031  0.24162  0.03330  1.0000
  C   C468      1.0  0.03765  0.05625  0.06608  1.0000
  H   H372      1.0  0.29623  0.20114  0.32490  1.0000
  Fe  Fe24      1.0  0.28342  0.24813  0.06898  1.0000
  H   H373      1.0  0.35941  0.20438  0.27329  1.0000
  C   C469      1.0  0.15761  0.06836  0.22290  1.0000
  S   S58       1.0  0.06291  0.11317  0.17319  1.0000
  H   H374      1.0  0.29637  0.03861  0.27101  1.0000
  H   H375      1.0  0.08921  0.21389  0.25781  1.0000
  C   C470      1.0  0.13232  0.06528  0.85959  1.0000
  C   C471      1.0  0.02371  0.18473  0.28197  1.0000
  C   C472      1.0  0.26016  0.15464  0.30298  1.0000
  H   H376      1.0  0.06542  0.22859  0.29228  1.0000
  C   C473      1.0  0.09862  0.11482  0.97664  1.0000
  H   H377      1.0  0.17585  0.23305  0.02018  1.0000
  H   H378      1.0  0.32294  0.06398  0.11339  1.0000
  H   H379      1.0  0.24733  0.04903  0.03371  1.0000
  S   S59       1.0  0.28187  0.07140  0.88006  1.0000
  C   C474      1.0  0.26098  0.13855  0.28231  1.0000
  C   C475      1.0  0.32087  0.20881  0.26349  1.0000
  C   C476      1.0  0.18186  0.14775  0.90611  1.0000
  C   C477      1.0  0.32574  0.23923  0.19998  1.0000
  H   H380      1.0  0.42042  0.22686  0.87350  1.0000
  H   H381      1.0  0.05747  0.12758  0.96639  1.0000
  H   H382      1.0  0.09478  0.16302  0.27565  1.0000
  C   C478      1.0  0.26953  0.02922  0.15754  1.0000
  C   C479      1.0  0.35224  0.10687  0.15411  1.0000
  H   H383      1.0  0.05260  0.07140  0.93975  1.0000
  C   C480      1.0  0.39433  0.23185  0.91188  1.0000
  C   C481      1.0  0.46341  0.17179  0.00700  1.0000
  H   H384      1.0  0.09356  0.08369  0.96070  1.0000
  H   H385      1.0  0.12990  0.22502  0.23330  1.0000
  H   H386      1.0  0.27578  0.02485  0.86214  1.0000
  H   H387      1.0  0.21694  0.02217  0.26897  1.0000
  H   H388      1.0  0.02832  0.06274  0.15613  1.0000
  H   H389      1.0  0.39065  0.04845  0.01077  1.0000
  C   C482      1.0  0.36212  0.23741  0.12693  1.0000
  Fe  Fe25      1.0  0.07155  0.13260  0.22584  1.0000
  S   S60       1.0  0.44321  0.06523  0.05025  1.0000
  C   C483      1.0  0.35300  0.05910  0.24882  1.0000
  P   P12       1.0  0.23138  0.13811  0.97736  1.0000
  H   H390      1.0  0.36695  0.13723  0.04421  1.0000
  C   C484      1.0  0.14460  0.06107  0.26736  1.0000
  H   H391      1.0  0.03594  0.21362  0.15879  1.0000
  S   S61       1.0  0.22380  0.19381  0.13285  1.0000
  Fe  Fe26      1.0  0.47776  0.09543  0.03533  1.0000
  C   C485      1.0  0.40053  0.15604  0.94772  1.0000
  H   H392      1.0  0.02093  0.02127  0.00264  1.0000
  C   C486      1.0  0.14245  0.24141  0.98747  1.0000
  H   H393      1.0  0.32396  0.19482  0.27805  1.0000
  C   C487      1.0  0.11531  0.20764  0.05255  1.0000
  H   H394      1.0  0.12564  0.22168  0.92739  1.0000
  Fe  Fe27      1.0  0.09976  0.12546  0.14325  1.0000
  C   C488      1.0  0.10648  0.14784  0.91482  1.0000
  C   C489      1.0  0.02935  0.02875  0.02537  1.0000
  H   H395      1.0  0.42581  0.00263  0.06962  1.0000
  H   H396      1.0  0.34700  0.22629  0.32264  1.0000
  C   C490      1.0  0.05287  0.03455  0.32814  1.0000
  H   H397      1.0  0.48725  0.16198  0.11015  1.0000
  H   H398      1.0  0.46259  0.19104  0.11230  1.0000
  H   H399      1.0  0.47327  0.04504  0.11920  1.0000
  C   C491      1.0  0.08580  0.16786  0.21121  1.0000
  S   S62       1.0  0.32425  0.10075  0.91393  1.0000
  H   H400      1.0  0.38779  0.00734  0.30065  1.0000
  C   C492      1.0  0.05135  0.14003  0.96293  1.0000
  C   C493      1.0  0.12939  0.00442  0.14462  1.0000
  C   C494      1.0  0.13608  0.21612  0.86609  1.0000
  C   C495      1.0  0.42756  0.03258  0.87112  1.0000
  C   C496      1.0  0.23358  0.07288  0.95707  1.0000
  C   C497      1.0  0.39521  0.00415  0.06878  1.0000
  C   C498      1.0  0.41199  0.24449  0.04024  1.0000
  H   H401      1.0  0.09591  0.10722  0.01188  1.0000
  H   H402      1.0  0.31190  0.18314  0.18522  1.0000
  C   C499      1.0  0.46689  0.20351  0.24516  1.0000
  C   C500      1.0  0.34496  0.19014  0.19159  1.0000
  S   S63       1.0  0.46552  0.17610  0.25930  1.0000
  C   C501      1.0  0.04948  0.06343  0.91401  1.0000
  C   C502      1.0  0.12316  0.08645  0.06787  1.0000
  C   C503      1.0  0.26537  0.18168  0.97301  1.0000
  C   C504      1.0  0.20983  0.09473  0.25732  1.0000
  C   C505      1.0  0.38837  0.16791  0.95307  1.0000
  Fe  Fe28      1.0  0.48109  0.11591  0.93808  1.0000
  C   C506      1.0  0.37479  0.08748  0.97942  1.0000
  S   S64       1.0  0.49232  0.09165  0.97117  1.0000
  S   S65       1.0  0.28957  0.08300  0.26983  1.0000
  C   C507      1.0  0.49006  0.13229  0.10114  1.0000
  C   C508      1.0  0.41078  0.11793  0.90122  1.0000
  C   C509      1.0  0.41224  0.23742  0.87441  1.0000
  H   H403      1.0  0.49490  0.17413  0.91121  1.0000
  H   H404      1.0  0.38652  0.04610  0.88037  1.0000
  H   H405      1.0  0.01570  0.23089  0.22057  1.0000
  H   H406      1.0  0.02465  0.10918  0.28526  1.0000
  C   C510      1.0  0.31640  0.15307  0.19014  1.0000
  Fe  Fe29      1.0  0.30102  0.06313  0.92415  1.0000
  H   H407      1.0  0.41180  0.23134  0.10757  1.0000
  H   H408      1.0  0.35638  0.18229  0.91091  1.0000
  H   H409      1.0  0.36794  0.07327  0.25107  1.0000
  H   H410      1.0  0.14604  0.04199  0.11658  1.0000
  C   C511      1.0  0.18026  0.17916  0.06926  1.0000
  H   H411      1.0  0.18915  0.24166  0.32380  1.0000
  H   H412      1.0  0.10431  0.14811  0.98242  1.0000
  P   P13       1.0  0.06850  0.02266  0.85708  1.0000
  C   C512      1.0  0.39155  0.21531  0.00812  1.0000
  H   H413      1.0  0.47258  0.20688  0.17540  1.0000
  Fe  Fe30      1.0  0.06195  0.08207  0.21680  1.0000
  C   C513      1.0  0.27313  0.21920  0.84268  1.0000
  C   C514      1.0  0.10330  0.21932  0.06194  1.0000
  H   H414      1.0  0.19841  0.05943  0.96113  1.0000
  H   H415      1.0  0.21084  0.23877  0.03654  1.0000
  C   C515      1.0  0.08924  0.22767  0.19106  1.0000
  C   C516      1.0  0.28712  0.20122  0.95535  1.0000
  H   H416      1.0  0.39169  0.13809  0.94870  1.0000
  S   S66       1.0  0.45028  0.02790  0.97854  1.0000
  S   S67       1.0  0.21654  0.23951  0.18169  1.0000
  C   C517      1.0  0.42030  0.19872  0.18297  1.0000
  H   H417      1.0  0.23753  0.16330  0.88537  1.0000
  H   H418      1.0  0.08282  0.15419  0.05952  1.0000
  C   C518      1.0  0.10085  0.11166  0.90240  1.0000
  C   C519      1.0  0.08353  0.02739  0.29982  1.0000
  Fe  Fe31      1.0  0.30747  0.10887  0.86477  1.0000
  H   H419      1.0  0.42509  0.21699  0.16985  1.0000
  C   C520      1.0  0.41738  0.16302  0.17133  1.0000
  H   H420      1.0  0.42465  0.13043  0.87151  1.0000
  C   C521      1.0  0.02496  0.15204  0.94256  1.0000
  C   C522      1.0  0.42563  0.12419  0.15985  1.0000
  H   H421      1.0  0.03117  0.12987  0.20292  1.0000
  C   C523      1.0  0.43484  0.08904  0.19886  1.0000
  S   S68       1.0  0.06573  0.24075  0.87202  1.0000
  C   C524      1.0  0.18891  0.00773  0.97245  1.0000
  H   H422      1.0  0.21756  0.10066  0.22147  1.0000
  C   C525      1.0  0.33062  0.14352  0.19565  1.0000
  H   H423      1.0  0.34241  0.20762  0.10754  1.0000
  C   C526      1.0  0.16241  0.23946  0.90005  1.0000
  H   H424      1.0  0.44824  0.14494  0.19176  1.0000
  C   C527      1.0  0.42390  0.16724  0.94118  1.0000
  H   H425      1.0  0.01948  0.15982  0.20015  1.0000
  C   C528      1.0  0.30916  0.24202  0.22639  1.0000
  H   H426      1.0  0.22772  0.24488  0.84387  1.0000
  H   H427      1.0  0.04297  0.00312  0.95274  1.0000
  S   S69       1.0  0.06879  0.09855  0.26961  1.0000
  C   C529      1.0  0.37363  0.11676  0.16021  1.0000
  H   H428      1.0  0.01893  0.05772  0.84095  1.0000
  C   C530      1.0  0.05485  0.17693  0.96813  1.0000
  C   C531      1.0  0.33224  0.22305  0.21854  1.0000
  C   C532      1.0  0.47132  0.24835  0.21945  1.0000
  H   H429      1.0  0.43347  0.15823  0.93620  1.0000
  C   C533      1.0  0.03058  0.05594  0.85812  1.0000
  H   H430      1.0  0.46424  0.16607  0.97802  1.0000
  C   C534      1.0  0.24302  0.05383  0.06257  1.0000
  H   H431      1.0  0.10157  0.18371  0.19215  1.0000
  S   S70       1.0  0.40299  0.09148  0.03164  1.0000
  S   S71       1.0  0.46965  0.12249  0.00117  1.0000
  C   C535      1.0  0.01639  0.24770  0.21226  1.0000
  H   H432      1.0  0.14366  0.08391  0.85027  1.0000
  C   C536      1.0  0.06259  0.16070  0.97262  1.0000
  C   C537      1.0  0.07466  0.04256  0.29996  1.0000
  H   H433      1.0  0.01654  0.05305  0.02310  1.0000
  C   C538      1.0  0.14545  0.15860  0.05185  1.0000
  Fe  Fe32      1.0  0.23876  0.21297  0.05920  1.0000
  H   H434      1.0  0.34530  0.19231  0.03969  1.0000
  C   C539      1.0  0.08185  0.15557  0.26020  1.0000
  H   H435      1.0  0.09992  0.10122  0.88069  1.0000
  H   H436      1.0  0.13041  0.10340  0.04268  1.0000
  C   C540      1.0  0.44366  0.16521  0.08354  1.0000
  P   P14       1.0  0.35393  0.00280  0.06880  1.0000
  H   H437      1.0  0.37580  0.17946  0.05153  1.0000
  C   C541      1.0  0.20649  0.14230  0.09892  1.0000
  C   C542      1.0  0.10309  0.01834  0.02962  1.0000
  C   C543      1.0  0.18660  0.00976  0.01528  1.0000
  H   H438      1.0  0.09975  0.06849  0.03525  1.0000
  P   P15       1.0  0.35494  0.22069  0.18517  1.0000
  S   S72       1.0  0.49528  0.09560  0.08777  1.0000
  C   C544      1.0  0.39957  0.19115  0.95225  1.0000
  H   H439      1.0  0.26745  0.09644  0.10784  1.0000
  C   C545      1.0  0.36569  0.01538  0.00884  1.0000
  H   H440      1.0  0.47403  0.12440  0.09447  1.0000
  H   H441      1.0  0.47603  0.24623  0.15307  1.0000
  C   C546      1.0  0.05376  0.15818  0.08293  1.0000
  P   P16       1.0  0.07133  0.01994  0.09518  1.0000
  H   H442      1.0  0.28112  0.03496  0.21355  1.0000
  C   C547      1.0  0.50336  0.12135  0.10117  1.0000
  H   H443      1.0  0.49512  0.20413  0.97527  1.0000
  C   C548      1.0  0.31387  0.02078  0.24805  1.0000
  H   H444      1.0  0.45292  0.02206  0.28505  1.0000
  C   C549      1.0  0.22544  0.01035  0.96862  1.0000
  H   H445      1.0  0.35348  0.08337  0.93678  1.0000
  C   C550      1.0  0.23088  0.12196  0.06508  1.0000
  C   C551      1.0  0.20371  0.01190  0.03526  1.0000
  C   C552      1.0  0.34521  0.17915  0.94291  1.0000
  C   C553      1.0  0.13086  0.08455  0.10506  1.0000
  C   C554      1.0  0.21072  0.14363  0.05400  1.0000
  C   C555      1.0  0.40502  0.23880  0.00410  1.0000
  C   C556      1.0  0.30255  0.20346  0.91763  1.0000
  H   H446      1.0  0.10951  0.19001  0.07376  1.0000
  C   C557      1.0  0.05333  0.02983  0.07318  1.0000
  C   C558      1.0  0.15918  0.22413  0.24623  1.0000
  C   C559      1.0  0.10537  0.13484  0.88549  1.0000
  H   H447      1.0  0.38833  0.18972  0.11450  1.0000
  C   C560      1.0  0.39282  0.13422  0.12455  1.0000
  P   P17       1.0  0.20044  0.01298  0.09176  1.0000
  Fe  Fe33      1.0  0.25800  0.19730  0.12967  1.0000
  H   H448      1.0  0.17132  0.00926  0.03273  1.0000
  C   C561      1.0  0.41644  0.10277  0.15158  1.0000
  C   C562      1.0  0.16758  0.21543  0.27772  1.0000
  C   C563      1.0  0.42222  0.18630  0.15408  1.0000
  C   C564      1.0  0.19277  0.18776  0.02400  1.0000
  C   C565      1.0  0.35292  0.03477  0.11188  1.0000
  C   C566      1.0  0.22160  0.04012  0.09518  1.0000
  H   H449      1.0  0.11527  0.03540  0.02908  1.0000
  C   C567      1.0  0.22277  0.13329  0.03673  1.0000
  H   H450      1.0  0.30420  0.16824  0.05602  1.0000
  C   C568      1.0  0.32868  0.05213  0.10564  1.0000
  C   C569      1.0  0.40061  0.24846  0.18106  1.0000
  H   H451      1.0  0.35049  0.23096  0.03021  1.0000
  C   C570      1.0  0.32335  0.17617  0.18880  1.0000
  H   H452      1.0  0.08812  0.21083  0.09046  1.0000
  C   C571      1.0  0.48015  0.20004  0.04348  1.0000
  H   H453      1.0  0.42792  0.19500  0.11835  1.0000
  C   C572      1.0  0.38565  0.19772  0.04822  1.0000
  C   C573      1.0  0.32746  0.02443  0.06739  1.0000
  C   C574      1.0  0.31995  0.03959  0.07776  1.0000
  C   C575      1.0  0.37539  0.21946  0.25269  1.0000
  C   C576      1.0  0.21489  0.13132  0.12666  1.0000
  C   C577      1.0  0.23341  0.06740  0.13668  1.0000
  S   S73       1.0  0.27172  0.23149  0.14347  1.0000
  H   H454      1.0  0.17935  0.23650  0.12453  1.0000
  H   H455      1.0  0.37076  0.04138  0.22884  1.0000
  C   C578      1.0  0.35914  0.18037  0.19714  1.0000
  C   C579      1.0  0.44258  0.03444  0.17066  1.0000
  C   C580      1.0  0.44017  0.12819  0.18638  1.0000
  H   H456      1.0  0.22956  0.07242  0.16571  1.0000
  C   C581      1.0  0.35192  0.15712  0.19950  1.0000
  H   H457      1.0  0.25955  0.23747  0.92882  1.0000
  H   H458      1.0  0.45575  0.11384  0.22669  1.0000
  H   H459      1.0  0.47146  0.06883  0.21381  1.0000
  H   H460      1.0  0.26193  0.12364  0.30035  1.0000
  H   H461      1.0  0.09933  0.22081  0.17623  1.0000
  H   H462      1.0  0.14843  0.23670  0.09462  1.0000
  C   C582      1.0  0.24955  0.04835  0.26813  1.0000
  C   C583      1.0  0.13636  0.21835  0.25790  1.0000
  C   C584      1.0  0.07024  0.23224  0.25644  1.0000
  C   C585      1.0  0.19940  0.15361  0.29488  1.0000
  C   C586      1.0  0.01708  0.12332  0.10550  1.0000
  H   H463      1.0  0.02220  0.15726  0.10733  1.0000
  C   C587      1.0  0.15338  0.20117  0.32131  1.0000
  H   H464      1.0  0.36861  0.09586  0.31800  1.0000
  H   H465      1.0  0.17556  0.00564  0.95738  1.0000
  C   C588      1.0  0.35612  0.00318  0.98093  1.0000
  C   C589      1.0  0.21175  0.24908  0.00465  1.0000
  C   C590      1.0  0.04545  0.24757  0.11342  1.0000
  C   C591      1.0  0.06697  0.24743  0.18413  1.0000
  H   H466      1.0  0.10665  0.24335  0.31306  1.0000
  C   C592      1.0  0.10983  0.00823  0.00015  1.0000
  C   C593      1.0  0.27869  0.00298  0.20421  1.0000
  H   H467      1.0  0.43190  0.04564  0.83977  1.0000
  H   H468      1.0  0.01372  0.12941  0.32787  1.0000
  Fe  Fe34      1.0  0.46678  0.16325  0.32870  1.0000
  C   C594      1.0  0.01151  0.03661  0.22129  1.0000
  C   C595      1.0  0.01245  0.04813  0.17877  1.0000
  H   H469      1.0  0.33316  0.24954  0.16501  1.0000
  C   C596      1.0  0.03437  0.24675  0.04617  1.0000
  C   C597      1.0  0.08081  0.00650  0.05896  1.0000
  H   H470      1.0  0.04415  0.00665  0.03347  1.0000
  H   H471      1.0  0.10029  0.25014  0.03892  1.0000
  C   C598      1.0  0.40719  0.07192  0.33252  1.0000
  H   H472      1.0  0.24508  0.39510  0.61664  1.0000
  H   H473      1.0  0.45195  0.43051  0.39936  1.0000
  H   H474      1.0  0.35082  0.31210  0.45809  1.0000
  S   S74       1.0  0.25890  0.39561  0.79484  1.0000
  Fe  Fe35      1.0  0.26329  0.37542  0.75081  1.0000
  S   S75       1.0  0.08675  0.36973  0.40647  1.0000
  C   C599      1.0  0.29963  0.27915  0.33350  1.0000
  C   C600      1.0  0.02485  0.38567  0.80017  1.0000
  S   S76       1.0  0.43517  0.31387  0.35752  1.0000
  H   H475      1.0  0.14758  0.34520  0.40678  1.0000
  H   H476      1.0  0.42254  0.41605  0.52620  1.0000
  H   H477      1.0  0.43749  0.47503  0.65508  1.0000
  H   H478      1.0  0.03808  0.26751  0.60879  1.0000
  H   H479      1.0  0.49852  0.31724  0.61108  1.0000
  S   S77       1.0  0.28808  0.36217  0.74991  1.0000
  H   H480      1.0  0.45427  0.43307  0.80927  1.0000
  C   C601      1.0  0.41037  0.48325  0.65202  1.0000
  H   H481      1.0  0.50107  0.43305  0.46583  1.0000
  H   H482      1.0  0.40716  0.29009  0.72142  1.0000
  C   C602      1.0  0.37852  0.39659  0.66812  1.0000
  H   H483      1.0  0.43534  0.25089  0.53899  1.0000
  C   C603      1.0  0.46192  0.36946  0.54737  1.0000
  C   C604      1.0  0.02105  0.34867  0.50871  1.0000
  C   C605      1.0  0.15960  0.40080  0.45182  1.0000
  H   H484      1.0  0.10676  0.28895  0.38983  1.0000
  C   C606      1.0  0.05869  0.41336  0.34087  1.0000
  H   H485      1.0  0.05626  0.26817  0.78100  1.0000
  H   H486      1.0  0.21500  0.34176  0.48368  1.0000
  C   C607      1.0  0.39851  0.30928  0.63609  1.0000
  C   C608      1.0  0.23779  0.40652  0.61184  1.0000
  H   H487      1.0  0.29470  0.43176  0.38472  1.0000
  C   C609      1.0  0.05564  0.28386  0.76635  1.0000
  H   H488      1.0  0.43854  0.28572  0.62263  1.0000
  S   S78       1.0  0.09080  0.33971  0.60964  1.0000
  C   C610      1.0  0.01126  0.28344  0.42031  1.0000
  Fe  Fe36      1.0  0.13646  0.46656  0.67391  1.0000
  C   C611      1.0  0.28213  0.28227  0.52399  1.0000
  C   C612      1.0  0.02754  0.37444  0.73345  1.0000
  C   C613      1.0  0.40676  0.40892  0.51830  1.0000
  H   H489      1.0  0.03798  0.37377  0.70482  1.0000
  C   C614      1.0  0.18881  0.38233  0.53877  1.0000
  C   C615      1.0  0.48408  0.30353  0.63895  1.0000
  C   C616      1.0  0.17480  0.30099  0.58069  1.0000
  Fe  Fe37      1.0  0.43655  0.37098  0.68677  1.0000
  H   H490      1.0  0.50880  0.41886  0.77037  1.0000
  C   C617      1.0  0.15448  0.31649  0.41345  1.0000
  H   H491      1.0  0.05962  0.25228  0.48158  1.0000
  C   C618      1.0  0.25225  0.32308  0.49739  1.0000
  H   H492      1.0  0.34333  0.42986  0.82061  1.0000
  S   S79       1.0  0.49678  0.28899  0.79130  1.0000
  H   H493      1.0  0.47453  0.36219  0.77717  1.0000
  H   H494      1.0  0.41365  0.36801  0.41649  1.0000
  S   S80       1.0  0.22320  0.43160  0.42768  1.0000
  C   C619      1.0  0.23201  0.27479  0.58529  1.0000
  Fe  Fe38      1.0  0.42004  0.40275  0.71516  1.0000
  C   C620      1.0  0.06085  0.36483  0.43920  1.0000
  C   C621      1.0  0.23079  0.44170  0.76257  1.0000
  C   C622      1.0  0.20984  0.25353  0.36488  1.0000
  H   H495      1.0  0.25517  0.29020  0.43147  1.0000
  H   H496      1.0  0.02424  0.41935  0.46267  1.0000
  C   C623      1.0  0.16871  0.28749  0.51777  1.0000
  C   C624      1.0  0.34034  0.30310  0.72746  1.0000
  S   S81       1.0  0.45859  0.38758  0.82306  1.0000
  H   H497      1.0  0.10786  0.26237  0.45329  1.0000
  C   C625      1.0  0.01261  0.42511  0.62400  1.0000
  C   C626      1.0  0.04183  0.31380  0.35492  1.0000
  S   S82       1.0  0.02492  0.26050  0.52990  1.0000
  H   H498      1.0  0.04475  0.28759  0.40157  1.0000
  H   H499      1.0  0.30945  0.44393  0.44821  1.0000
  H   H500      1.0  0.15900  0.27454  0.50390  1.0000
  S   S83       1.0  0.06420  0.44553  0.78644  1.0000
  H   H501      1.0  0.43336  0.25477  0.74035  1.0000
  C   C627      1.0  0.35983  0.45410  0.57286  1.0000
  H   H502      1.0  0.33750  0.29417  0.40212  1.0000
  C   C628      1.0  0.14356  0.28957  0.73729  1.0000
  H   H503      1.0  0.43502  0.26225  0.81013  1.0000
  S   S84       1.0  0.27764  0.49001  0.37083  1.0000
  C   C629      1.0  0.04078  0.36895  0.50419  1.0000
  H   H504      1.0  0.46278  0.26334  0.42135  1.0000
  C   C630      1.0  0.24951  0.30310  0.48619  1.0000
  C   C631      1.0  0.14740  0.43032  0.81009  1.0000
  H   H505      1.0  0.17405  0.38051  0.43053  1.0000
  C   C632      1.0  0.26033  0.25163  0.49622  1.0000
  C   C633      1.0  0.32226  0.34275  0.44791  1.0000
  C   C634      1.0  0.07509  0.32607  0.73591  1.0000
  C   C635      1.0  0.44610  0.32126  0.52099  1.0000
  H   H506      1.0  0.18738  0.48683  0.78567  1.0000
  C   C636      1.0  0.31977  0.27971  0.33748  1.0000
  H   H507      1.0  0.50169  0.37200  0.66673  1.0000
  C   C637      1.0  0.35928  0.37663  0.40778  1.0000
  C   C638      1.0  0.26996  0.28086  0.74600  1.0000
  H   H508      1.0  0.19769  0.37040  0.48507  1.0000
  S   S85       1.0  0.11655  0.34723  0.48488  1.0000
  C   C639      1.0  0.44181  0.43790  0.82165  1.0000
  H   H509      1.0  0.43813  0.38313  0.33786  1.0000
  C   C640      1.0  0.42282  0.47515  0.67379  1.0000
  Fe  Fe39      1.0  0.10048  0.45246  0.62703  1.0000
  H   H510      1.0  0.41797  0.45093  0.60123  1.0000
  C   C641      1.0  0.49288  0.34954  0.46501  1.0000
  H   H511      1.0  0.09331  0.37193  0.52885  1.0000
  H   H512      1.0  0.20172  0.43322  0.51412  1.0000
  C   C642      1.0  0.47914  0.43644  0.34431  1.0000
  C   C643      1.0  0.48403  0.26861  0.49529  1.0000
  C   C644      1.0  0.05526  0.32523  0.72910  1.0000
  H   H513      1.0  0.31052  0.31674  0.41545  1.0000
  C   C645      1.0  0.20091  0.25947  0.49789  1.0000
  H   H514      1.0  0.48387  0.42584  0.54587  1.0000
  H   H515      1.0  0.17006  0.29819  0.61619  1.0000
  C   C646      1.0  0.21391  0.48957  0.57163  1.0000
  C   C647      1.0  0.16132  0.28996  0.75325  1.0000
  C   C648      1.0  0.25011  0.44724  0.77669  1.0000
  C   C649      1.0  0.06868  0.48171  0.56003  1.0000
  S   S86       1.0  0.45322  0.42592  0.72240  1.0000
  C   C650      1.0  0.11724  0.26054  0.63534  1.0000
  H   H516      1.0  0.03411  0.37140  0.62793  1.0000
  C   C651      1.0  0.02048  0.31524  0.63806  1.0000
  H   H517      1.0  0.19266  0.31148  0.45333  1.0000
  C   C652      1.0  0.02638  0.25526  0.64115  1.0000
  H   H518      1.0  0.44474  0.29612  0.73030  1.0000
  C   C653      1.0  0.32505  0.34004  0.56960  1.0000
  C   C654      1.0  0.32296  0.33004  0.75753  1.0000
  C   C655      1.0  0.41926  0.42432  0.82408  1.0000
  H   H519      1.0  0.34467  0.43741  0.59141  1.0000
  C   C656      1.0  0.16387  0.45304  0.51372  1.0000
  H   H520      1.0  0.37882  0.26090  0.41171  1.0000
  S   S87       1.0  0.43603  0.40265  0.64798  1.0000
  H   H521      1.0  0.25709  0.47644  0.65339  1.0000
  C   C657      1.0  0.19418  0.45808  0.79110  1.0000
  C   C658      1.0  0.30170  0.44698  0.83043  1.0000
  H   H522      1.0  0.14890  0.33766  0.83073  1.0000
  H   H523      1.0  0.39499  0.27342  0.54030  1.0000
  P   P18       1.0  0.33792  0.37605  0.49091  1.0000
  C   C659      1.0  0.09170  0.37669  0.63228  1.0000
  C   C660      1.0  0.34367  0.34564  0.37623  1.0000
  Fe  Fe40      1.0  0.25876  0.32756  0.75885  1.0000
  H   H524      1.0  0.06475  0.42832  0.35217  1.0000
  C   C661      1.0  0.03300  0.49586  0.74341  1.0000
  C   C662      1.0  0.31501  0.43114  0.45636  1.0000
  C   C663      1.0  0.18019  0.46824  0.79224  1.0000
  C   C664      1.0  0.41636  0.46701  0.72048  1.0000
  C   C665      1.0  0.47767  0.28008  0.64443  1.0000
  S   S88       1.0  0.06141  0.32412  0.52030  1.0000
  C   C666      1.0  0.19135  0.47873  0.64836  1.0000
  C   C667      1.0  0.48059  0.41126  0.53373  1.0000
  H   H525      1.0  0.20351  0.33508  0.56555  1.0000
  C   C668      1.0  0.32138  0.45303  0.75462  1.0000
  H   H526      1.0  0.15904  0.44632  0.38315  1.0000
  H   H527      1.0  0.20681  0.27762  0.47994  1.0000
  C   C669      1.0  0.26181  0.26876  0.51604  1.0000
  S   S89       1.0  0.25034  0.29422  0.80994  1.0000
  C   C670      1.0  0.45081  0.31333  0.56001  1.0000
  H   H528      1.0  0.34283  0.34537  0.56331  1.0000
  C   C671      1.0  0.36408  0.39194  0.64172  1.0000
  S   S90       1.0  0.16566  0.46450  0.69159  1.0000
  H   H529      1.0  0.38044  0.30288  0.74978  1.0000
  C   C672      1.0  0.22161  0.27484  0.67382  1.0000
  C   C673      1.0  0.07528  0.30538  0.75432  1.0000
  C   C674      1.0  0.18062  0.31909  0.34816  1.0000
  C   C675      1.0  0.06132  0.46513  0.36870  1.0000
  P   P19       1.0  0.34561  0.26030  0.36580  1.0000
  H   H530      1.0  0.04057  0.44137  0.71824  1.0000
  H   H531      1.0  0.03503  0.38954  0.40559  1.0000
  H   H532      1.0  0.21669  0.27184  0.34633  1.0000
  H   H533      1.0  0.15975  0.48367  0.39749  1.0000
  H   H534      1.0  0.24783  0.32247  0.53169  1.0000
  C   C676      1.0  0.50432  0.44687  0.73604  1.0000
  C   C677      1.0  0.27031  0.40878  0.35988  1.0000
  C   C678      1.0  0.16223  0.43184  0.39284  1.0000
  H   H535      1.0  0.45067  0.35198  0.57058  1.0000
  C   C679      1.0  0.31933  0.25956  0.36254  1.0000
  H   H536      1.0  0.09217  0.36813  0.66407  1.0000
  C   C680      1.0  0.28317  0.42692  0.83060  1.0000
  C   C681      1.0  0.39666  0.48484  0.56850  1.0000
  C   C682      1.0  0.24024  0.42094  0.40437  1.0000
  C   C683      1.0  0.04212  0.39146  0.37105  1.0000
  H   H537      1.0  0.02047  0.30334  0.73553  1.0000
  H   H538      1.0  0.16031  0.46491  0.49217  1.0000
  C   C684      1.0  0.04103  0.34475  0.44352  1.0000
  C   C685      1.0  0.14902  0.43973  0.55690  1.0000
  C   C686      1.0  0.14953  0.36023  0.58516  1.0000
  S   S91       1.0  0.08441  0.29245  0.55052  1.0000
  H   H539      1.0  0.20089  0.37170  0.70361  1.0000
  C   C687      1.0  0.24785  0.39892  0.35891  1.0000
  H   H540      1.0  0.14373  0.26097  0.68810  1.0000
  S   S92       1.0  0.12377  0.48733  0.70423  1.0000
  C   C688      1.0  0.40078  0.39015  0.50179  1.0000
  H   H541      1.0  0.01599  0.43893  0.55469  1.0000
  C   C689      1.0  0.05274  0.45030  0.41299  1.0000
  H   H542      1.0  0.20542  0.37886  0.61671  1.0000
  H   H543      1.0  0.39136  0.27840  0.46791  1.0000
  H   H544      1.0  0.42542  0.35229  0.47804  1.0000
  Fe  Fe41      1.0  0.29193  0.36954  0.67656  1.0000
  H   H545      1.0  0.39237  0.46044  0.78189  1.0000
  C   C690      1.0  0.39039  0.27721  0.74383  1.0000
  C   C691      1.0  0.44943  0.45814  0.55711  1.0000
  C   C692      1.0  0.20176  0.39337  0.74488  1.0000
  H   H546      1.0  0.26307  0.35993  0.47230  1.0000
  Fe  Fe42      1.0  0.45246  0.39280  0.75656  1.0000
  H   H547      1.0  0.37103  0.47567  0.74416  1.0000
  C   C693      1.0  0.17355  0.35261  0.76542  1.0000
  C   C694      1.0  0.32688  0.42697  0.42222  1.0000
  C   C695      1.0  0.31013  0.41864  0.50097  1.0000
  H   H548      1.0  0.29095  0.48490  0.67821  1.0000
  C   C696      1.0  0.47004  0.36604  0.38962  1.0000
  C   C697      1.0  0.31777  0.35226  0.54108  1.0000
  H   H549      1.0  0.41186  0.38266  0.49728  1.0000
  H   H550      1.0  0.47365  0.27274  0.47778  1.0000
  H   H551      1.0  0.28512  0.26915  0.69852  1.0000
  H   H552      1.0  0.35976  0.41484  0.52499  1.0000
  C   C698      1.0  0.29451  0.34499  0.55080  1.0000
  C   C699      1.0  0.09003  0.40878  0.58474  1.0000
  Fe  Fe43      1.0  0.33238  0.27021  0.60596  1.0000
  C   C700      1.0  0.49785  0.28537  0.51169  1.0000
  H   H553      1.0  0.35415  0.41779  0.73550  1.0000
  H   H554      1.0  0.21493  0.48956  0.53771  1.0000
  H   H555      1.0  0.38404  0.49664  0.47129  1.0000
  H   H556      1.0  0.37289  0.39351  0.40482  1.0000
  C   C701      1.0  0.03104  0.43083  0.42830  1.0000
  C   C702      1.0  0.42614  0.30647  0.51340  1.0000
  H   H557      1.0  0.31204  0.25612  0.49053  1.0000
  C   C703      1.0  0.47610  0.49884  0.51537  1.0000
  C   C704      1.0  0.02597  0.26260  0.67868  1.0000
  C   C705      1.0  0.15276  0.42357  0.58463  1.0000
  C   C706      1.0  0.14846  0.36524  0.68661  1.0000
  H   H558      1.0  0.33577  0.46352  0.72467  1.0000
  S   S93       1.0  0.21637  0.34300  0.65313  1.0000
  C   C707      1.0  0.38541  0.47547  0.72438  1.0000
  H   H559      1.0  0.34521  0.33852  0.34929  1.0000
  Fe  Fe44      1.0  0.29743  0.49330  0.41938  1.0000
  H   H560      1.0  0.34266  0.40723  0.40534  1.0000
  H   H561      1.0  0.02688  0.30559  0.62236  1.0000
  H   H562      1.0  0.46626  0.32424  0.56628  1.0000
  C   C708      1.0  0.37490  0.40579  0.70205  1.0000
  C   C709      1.0  0.15487  0.41893  0.43820  1.0000
  H   H563      1.0  0.37571  0.37729  0.34325  1.0000
  C   C710      1.0  0.35322  0.26777  0.78892  1.0000
  H   H564      1.0  0.38463  0.34630  0.34234  1.0000
  Fe  Fe45      1.0  0.46928  0.42301  0.65857  1.0000
  C   C711      1.0  0.02092  0.33715  0.47722  1.0000
  C   C712      1.0  0.25506  0.46837  0.68785  1.0000
  H   H565      1.0  0.15053  0.35285  0.67229  1.0000
  H   H566      1.0  0.15769  0.27678  0.78393  1.0000
  H   H567      1.0  0.31497  0.31106  0.62835  1.0000
  C   C713      1.0  0.27735  0.42384  0.38451  1.0000
  H   H568      1.0  0.01738  0.44166  0.62986  1.0000
  C   C714      1.0  0.47040  0.47530  0.52628  1.0000
  H   H569      1.0  0.05556  0.38972  0.75902  1.0000
  C   C715      1.0  0.30826  0.49558  0.57374  1.0000
  C   C716      1.0  0.13251  0.37301  0.75089  1.0000
  H   H570      1.0  0.48737  0.27602  0.62051  1.0000
  C   C717      1.0  0.16196  0.28378  0.56377  1.0000
  C   C718      1.0  0.24118  0.44484  0.59914  1.0000
  C   C719      1.0  0.10798  0.25847  0.42242  1.0000
  C   C720      1.0  0.09274  0.37908  0.55587  1.0000
  C   C721      1.0  0.42953  0.36772  0.40913  1.0000
  H   H571      1.0  0.21865  0.44898  0.70660  1.0000
  C   C722      1.0  0.27170  0.46303  0.74642  1.0000
  Fe  Fe46      1.0  0.24772  0.46578  0.43217  1.0000
  C   C723      1.0  0.37130  0.29579  0.46784  1.0000
  C   C724      1.0  0.18784  0.30836  0.48903  1.0000
  H   H572      1.0  0.14607  0.46224  0.80068  1.0000
  C   C725      1.0  0.02450  0.35247  0.64138  1.0000
  C   C726      1.0  0.45639  0.35751  0.43429  1.0000
  H   H573      1.0  0.40932  0.36496  0.62291  1.0000
  C   C727      1.0  0.37127  0.40815  0.51724  1.0000
  H   H574      1.0  0.34696  0.29280  0.71500  1.0000
  C   C728      1.0  0.01172  0.42355  0.58170  1.0000
  H   H575      1.0  0.37169  0.32345  0.80155  1.0000
  C   C729      1.0  0.45890  0.26206  0.68031  1.0000
  H   H576      1.0  0.42553  0.46000  0.73707  1.0000
  C   C730      1.0  0.37232  0.27181  0.42178  1.0000
  H   H577      1.0  0.28649  0.46685  0.75744  1.0000
  S   S94       1.0  0.11576  0.26672  0.76396  1.0000
  H   H578      1.0  0.12806  0.33093  0.56780  1.0000
  H   H579      1.0  0.13435  0.44161  0.56872  1.0000
  C   C731      1.0  0.34216  0.40546  0.68359  1.0000
  C   C732      1.0  0.03492  0.37183  0.35709  1.0000
  H   H580      1.0  0.03789  0.28046  0.67480  1.0000
  H   H581      1.0  0.16647  0.33657  0.75740  1.0000
  C   C733      1.0  0.02750  0.32262  0.34424  1.0000
  C   C734      1.0  0.43411  0.46446  0.57698  1.0000
  C   C735      1.0  0.27233  0.26388  0.72980  1.0000
  C   C736      1.0  0.37533  0.31844  0.59566  1.0000
  Fe  Fe47      1.0  0.24160  0.34923  0.69092  1.0000
  H   H582      1.0  0.26337  0.25813  0.35076  1.0000
  S   S95       1.0  0.26798  0.46807  0.48022  1.0000
  H   H583      1.0  0.33055  0.43654  0.38766  1.0000
  C   C737      1.0  0.21530  0.39735  0.61163  1.0000
  H   H584      1.0  0.23833  0.25441  0.68580  1.0000
  S   S96       1.0  0.49864  0.45122  0.59969  1.0000
  C   C738      1.0  0.34560  0.39583  0.65028  1.0000
  H   H585      1.0  0.15451  0.39127  0.48712  1.0000
  C   C739      1.0  0.17377  0.42621  0.36049  1.0000
  C   C740      1.0  0.02636  0.44072  0.35487  1.0000
  H   H586      1.0  0.45873  0.25675  0.58968  1.0000
  C   C741      1.0  0.34004  0.36416  0.44588  1.0000
  C   C742      1.0  0.19147  0.39433  0.78586  1.0000
  C   C743      1.0  0.09006  0.39708  0.62609  1.0000
  C   C744      1.0  0.32419  0.33341  0.41342  1.0000
  H   H587      1.0  0.44587  0.49212  0.76939  1.0000
  P   P20       1.0  0.33474  0.27751  0.81391  1.0000
  H   H588      1.0  0.19763  0.30638  0.73958  1.0000
  C   C745      1.0  0.43606  0.35845  0.44375  1.0000
  S   S97       1.0  0.34116  0.48788  0.79109  1.0000
  C   C746      1.0  0.02989  0.44066  0.74820  1.0000
  C   C747      1.0  0.43986  0.48813  0.56657  1.0000
  H   H589      1.0  0.37483  0.45338  0.62571  1.0000
  H   H590      1.0  0.27442  0.29928  0.64640  1.0000
  H   H591      1.0  0.27038  0.32797  0.37249  1.0000
  H   H592      1.0  0.12673  0.33888  0.75038  1.0000
  C   C748      1.0  0.10702  0.27341  0.38630  1.0000
  C   C749      1.0  0.46637  0.35186  0.81218  1.0000
  H   H593      1.0  0.26819  0.43736  0.60592  1.0000
  S   S98       1.0  0.13617  0.48211  0.60551  1.0000
  H   H594      1.0  0.21139  0.44711  0.59438  1.0000
  C   C750      1.0  0.16258  0.34823  0.52489  1.0000
  S   S99       1.0  0.08914  0.43508  0.57653  1.0000
  H   H595      1.0  0.48416  0.33064  0.41851  1.0000
  H   H596      1.0  0.48833  0.44081  0.76065  1.0000
  C   C751      1.0  0.18486  0.43393  0.79863  1.0000
  C   C752      1.0  0.20569  0.41194  0.60472  1.0000
  H   H597      1.0  0.36628  0.38381  0.61689  1.0000
  H   H598      1.0  0.16463  0.29048  0.41034  1.0000
  C   C753      1.0  0.40191  0.34767  0.62031  1.0000
  H   H599      1.0  0.03278  0.39313  0.82340  1.0000
  H   H600      1.0  0.47659  0.32737  0.66502  1.0000
  C   C754      1.0  0.18267  0.45036  0.49832  1.0000
  C   C755      1.0  0.49014  0.41530  0.48860  1.0000
  C   C756      1.0  0.03618  0.25178  0.33843  1.0000
  H   H601      1.0  0.48257  0.47044  0.51210  1.0000
  H   H602      1.0  0.06805  0.26643  0.70196  1.0000
  H   H603      1.0  0.30080  0.42174  0.52749  1.0000
  C   C757      1.0  0.44734  0.26806  0.71168  1.0000
  C   C758      1.0  0.17061  0.39475  0.41993  1.0000
  S   S100      1.0  0.41812  0.36963  0.75316  1.0000
  C   C759      1.0  0.33354  0.29972  0.77339  1.0000
  S   S101      1.0  0.39205  0.41046  0.73679  1.0000
  H   H604      1.0  0.47885  0.42036  0.36018  1.0000
  C   C760      1.0  0.03766  0.38367  0.76391  1.0000
  C   C761      1.0  0.46335  0.37508  0.35507  1.0000
  C   C762      1.0  0.32885  0.39753  0.47726  1.0000
  C   C763      1.0  0.06070  0.49501  0.57797  1.0000
  H   H605      1.0  0.20566  0.39729  0.52860  1.0000
  H   H606      1.0  0.28371  0.29572  0.53885  1.0000
  H   H607      1.0  0.49766  0.30172  0.50679  1.0000
  C   C764      1.0  0.26245  0.43002  0.40641  1.0000
  H   H608      1.0  0.24766  0.25433  0.60834  1.0000
  H   H609      1.0  0.07612  0.39219  0.46670  1.0000
  C   C765      1.0  0.14388  0.39684  0.72639  1.0000
  H   H610      1.0  0.50571  0.36536  0.51344  1.0000
  C   C766      1.0  0.25076  0.43028  0.60570  1.0000
  C   C767      1.0  0.37935  0.28159  0.45417  1.0000
  S   S102      1.0  0.32526  0.38591  0.62334  1.0000
  H   H611      1.0  0.20441  0.29356  0.65281  1.0000
  H   H612      1.0  0.13048  0.29661  0.59626  1.0000
  C   C768      1.0  0.09108  0.49220  0.53278  1.0000
  C   C769      1.0  0.46390  0.44218  0.36670  1.0000
  C   C770      1.0  0.27890  0.25852  0.35454  1.0000
  C   C771      1.0  0.15929  0.38905  0.66141  1.0000
  H   H613      1.0  0.38220  0.49025  0.66168  1.0000
  C   C772      1.0  0.19263  0.47980  0.60393  1.0000
  C   C773      1.0  0.26748  0.34619  0.41890  1.0000
  H   H614      1.0  0.30345  0.42665  0.72630  1.0000
  H   H615      1.0  0.02569  0.48632  0.77889  1.0000
  C   C774      1.0  0.32484  0.31331  0.78819  1.0000
  S   S103      1.0  0.33063  0.49358  0.40456  1.0000
  C   C775      1.0  0.38402  0.25353  0.75624  1.0000
  C   C776      1.0  0.21865  0.43569  0.59907  1.0000
  H   H616      1.0  0.05505  0.34120  0.71449  1.0000
  C   C777      1.0  0.49688  0.33880  0.43407  1.0000
  C   C778      1.0  0.18436  0.36712  0.51378  1.0000
  C   C779      1.0  0.21123  0.48845  0.66003  1.0000
  P   P21       1.0  0.23885  0.27510  0.52812  1.0000
  H   H617      1.0  0.21682  0.40839  0.72075  1.0000
  H   H618      1.0  0.49489  0.49541  0.38663  1.0000
  C   C780      1.0  0.39760  0.46707  0.74576  1.0000
  C   C781      1.0  0.08176  0.26477  0.68360  1.0000
  C   C782      1.0  0.41507  0.27724  0.58488  1.0000
  H   H619      1.0  0.08797  0.30968  0.35145  1.0000
  C   C783      1.0  0.06061  0.37723  0.46894  1.0000
  C   C784      1.0  0.02307  0.44006  0.82506  1.0000
  H   H620      1.0  0.26113  0.32111  0.59740  1.0000
  C   C785      1.0  0.16654  0.30714  0.39255  1.0000
  H   H621      1.0  0.04370  0.48620  0.60120  1.0000
  H   H622      1.0  0.06284  0.45382  0.43554  1.0000
  C   C786      1.0  0.36240  0.46614  0.52931  1.0000
  H   H623      1.0  0.16669  0.42352  0.66421  1.0000
  C   C787      1.0  0.17073  0.32288  0.67202  1.0000
  C   C788      1.0  0.03368  0.29424  0.39282  1.0000
  C   C789      1.0  0.23310  0.26314  0.66142  1.0000
  H   H624      1.0  0.21181  0.29171  0.57613  1.0000
  H   H625      1.0  0.45954  0.38519  0.59820  1.0000
  C   C790      1.0  0.19391  0.32179  0.55204  1.0000
  H   H626      1.0  0.24874  0.43919  0.81075  1.0000
  C   C791      1.0  0.11716  0.28184  0.62411  1.0000
  H   H627      1.0  0.09943  0.30045  0.64005  1.0000
  S   S104      1.0  0.23352  0.34026  0.76506  1.0000
  C   C792      1.0  0.37692  0.46333  0.59237  1.0000
  H   H628      1.0  0.17725  0.47229  0.59492  1.0000
  C   C793      1.0  0.17255  0.37397  0.81683  1.0000
  H   H629      1.0  0.37402  0.28504  0.61326  1.0000
  C   C794      1.0  0.36100  0.36744  0.37302  1.0000
  C   C795      1.0  0.46402  0.46292  0.34686  1.0000
  C   C796      1.0  0.09951  0.28397  0.64848  1.0000
  C   C797      1.0  0.28370  0.41962  0.79309  1.0000
  C   C798      1.0  0.32044  0.46062  0.79198  1.0000
  H   H630      1.0  0.30690  0.33316  0.47602  1.0000
  H   H631      1.0  0.32777  0.34590  0.68821  1.0000
  H   H632      1.0  0.46614  0.46926  0.82874  1.0000
  C   C799      1.0  0.18856  0.32295  0.68726  1.0000
  H   H633      1.0  0.07811  0.48031  0.35673  1.0000
  S   S105      1.0  0.35337  0.30895  0.57178  1.0000
  Fe  Fe48      1.0  0.49759  0.25596  0.82042  1.0000
  H   H634      1.0  0.05793  0.46298  0.56901  1.0000
  C   C800      1.0  0.39203  0.41793  0.52598  1.0000
  C   C801      1.0  0.48566  0.48154  0.62421  1.0000
  C   C802      1.0  0.09162  0.39990  0.54941  1.0000
  H   H635      1.0  0.02191  0.35508  0.38091  1.0000
  H   H636      1.0  0.04280  0.32909  0.81158  1.0000
  H   H637      1.0  0.42247  0.31167  0.48287  1.0000
  C   C803      1.0  0.30307  0.43226  0.75544  1.0000
  H   H638      1.0  0.34383  0.32254  0.66156  1.0000
  H   H639      1.0  0.50428  0.47671  0.69492  1.0000
  C   C804      1.0  0.36517  0.38938  0.50040  1.0000
  S   S106      1.0  0.26447  0.33370  0.68562  1.0000
  H   H640      1.0  0.29363  0.48466  0.56513  1.0000
  H   H641      1.0  0.31326  0.39258  0.54615  1.0000
  S   S107      1.0  0.08451  0.30772  0.44593  1.0000
  C   C805      1.0  0.30932  0.32066  0.60682  1.0000
  P   P22       1.0  0.20278  0.42072  0.80077  1.0000
  H   H642      1.0  0.28098  0.29924  0.72730  1.0000
  H   H643      1.0  0.09746  0.48157  0.52074  1.0000
  C   C806      1.0  0.25382  0.27401  0.78716  1.0000
  Fe  Fe49      1.0  0.26362  0.49874  0.48577  1.0000
  H   H644      1.0  0.04096  0.37776  0.52879  1.0000
  H   H645      1.0  0.39811  0.32202  0.38311  1.0000
  H   H646      1.0  0.32526  0.47582  0.56301  1.0000
  C   C807      1.0  0.50893  0.35459  0.72105  1.0000
  P   P23       1.0  0.17681  0.39997  0.60397  1.0000
  H   H647      1.0  0.21027  0.48783  0.69425  1.0000
  S   S108      1.0  0.13645  0.30115  0.46814  1.0000
  H   H648      1.0  0.06445  0.49539  0.73915  1.0000
  P   P24       1.0  0.46632  0.34962  0.48022  1.0000
  C   C808      1.0  0.15686  0.45438  0.80124  1.0000
  C   C809      1.0  0.30042  0.27820  0.51368  1.0000
  H   H649      1.0  0.15906  0.33653  0.50529  1.0000
  C   C810      1.0  0.15766  0.40490  0.68228  1.0000
  S   S109      1.0  0.26949  0.38567  0.67689  1.0000
  C   C811      1.0  0.03726  0.44163  0.78598  1.0000
  S   S110      1.0  0.47093  0.39141  0.69333  1.0000
  H   H650      1.0  0.39628  0.43200  0.54009  1.0000
  H   H651      1.0  0.37681  0.30340  0.49294  1.0000
  H   H652      1.0  0.40271  0.26054  0.61019  1.0000
  H   H653      1.0  0.46039  0.49217  0.43537  1.0000
  C   C812      1.0  0.37509  0.28436  0.75999  1.0000
  C   C813      1.0  0.10675  0.26833  0.34629  1.0000
  C   C814      1.0  0.38210  0.48742  0.50514  1.0000
  H   H654      1.0  0.42934  0.26545  0.40842  1.0000
  C   C815      1.0  0.03574  0.28285  0.75905  1.0000
  C   C816      1.0  0.23845  0.26323  0.61725  1.0000
  Fe  Fe50      1.0  0.08891  0.32755  0.55034  1.0000
  S   S111      1.0  0.32635  0.25447  0.67910  1.0000
  H   H655      1.0  0.12208  0.36680  0.78537  1.0000
  H   H656      1.0  0.28845  0.35415  0.52940  1.0000
  C   C817      1.0  0.03265  0.33960  0.62244  1.0000
  H   H657      1.0  0.44534  0.44000  0.56655  1.0000
  H   H658      1.0  0.31576  0.28816  0.52147  1.0000
  C   C818      1.0  0.26113  0.34453  0.46375  1.0000
  C   C819      1.0  0.35658  0.30062  0.44820  1.0000
  H   H659      1.0  0.13456  0.30585  0.68461  1.0000
  H   H660      1.0  0.19202  0.49213  0.42836  1.0000
  C   C820      1.0  0.16349  0.35328  0.80649  1.0000
  H   H661      1.0  0.08837  0.40345  0.65361  1.0000
  H   H662      1.0  0.31658  0.37535  0.34705  1.0000
  H   H663      1.0  0.40351  0.29690  0.65040  1.0000
  C   C821      1.0  0.23273  0.40487  0.38154  1.0000
  C   C822      1.0  0.34928  0.29061  0.41603  1.0000
  Fe  Fe51      1.0  0.08892  0.45770  0.71854  1.0000
  C   C823      1.0  0.48562  0.39639  0.47289  1.0000
  C   C824      1.0  0.14827  0.30613  0.69691  1.0000
  C   C825      1.0  0.15678  0.33791  0.39053  1.0000
  H   H664      1.0  0.37522  0.36510  0.48223  1.0000
  C   C826      1.0  0.32617  0.49074  0.57223  1.0000
  H   H665      1.0  0.17430  0.33541  0.64038  1.0000
  C   C827      1.0  0.25643  0.30515  0.44093  1.0000
  H   H666      1.0  0.49295  0.39968  0.43780  1.0000
  Fe  Fe52      1.0  0.11011  0.31186  0.48266  1.0000
  H   H667      1.0  0.47245  0.32356  0.80518  1.0000
  P   P25       1.0  0.41963  0.49581  0.59193  1.0000
  C   C828      1.0  0.17121  0.35005  0.34655  1.0000
  S   S112      1.0  0.08507  0.47254  0.65320  1.0000
  C   C829      1.0  0.31714  0.40202  0.51140  1.0000
  C   C830      1.0  0.45383  0.29155  0.70623  1.0000
  C   C831      1.0  0.40838  0.33169  0.63956  1.0000
  C   C832      1.0  0.17757  0.40730  0.37444  1.0000
  C   C833      1.0  0.21854  0.28445  0.59920  1.0000
  H   H668      1.0  0.04798  0.34849  0.59434  1.0000
  Fe  Fe53      1.0  0.08873  0.34155  0.45414  1.0000
  C   C834      1.0  0.44330  0.37625  0.36484  1.0000
  H   H669      1.0  0.26835  0.44222  0.42413  1.0000
  H   H670      1.0  0.20558  0.46898  0.36114  1.0000
  C   C835      1.0  0.27890  0.32597  0.58874  1.0000
  C   C836      1.0  0.47196  0.30925  0.66955  1.0000
  C   C837      1.0  0.16129  0.42006  0.80922  1.0000
  C   C838      1.0  0.09234  0.36721  0.59777  1.0000
  H   H671      1.0  0.31620  0.34044  0.76915  1.0000
  C   C839      1.0  0.19281  0.37252  0.73489  1.0000
  H   H672      1.0  0.09191  0.40906  0.51716  1.0000
  C   C840      1.0  0.38002  0.38030  0.49313  1.0000
  C   C841      1.0  0.46670  0.38838  0.56311  1.0000
  H   H673      1.0  0.22971  0.26078  0.40966  1.0000
  C   C842      1.0  0.20042  0.32549  0.50613  1.0000
  C   C843      1.0  0.17219  0.42158  0.57009  1.0000
  C   C844      1.0  0.38183  0.30257  0.61484  1.0000
  C   C845      1.0  0.50060  0.47862  0.59357  1.0000
  P   P26       1.0  0.01090  0.25515  0.77025  1.0000
  H   H674      1.0  0.18623  0.40235  0.35071  1.0000
  C   C846      1.0  0.26529  0.32657  0.40742  1.0000
  H   H675      1.0  0.48594  0.36605  0.38114  1.0000
  H   H676      1.0  0.41433  0.40928  0.81265  1.0000
  H   H677      1.0  0.34919  0.45889  0.51414  1.0000
  H   H678      1.0  0.21558  0.39769  0.37993  1.0000
  C   C847      1.0  0.18706  0.43505  0.52664  1.0000
  Fe  Fe54      1.0  0.05926  0.29085  0.51414  1.0000
  H   H679      1.0  0.09065  0.30589  0.75908  1.0000
  C   C848      1.0  0.33370  0.41020  0.43250  1.0000
  H   H680      1.0  0.14207  0.40924  0.74126  1.0000
  H   H681      1.0  0.04147  0.33450  0.42207  1.0000
  H   H682      1.0  0.19362  0.45953  0.46417  1.0000
  H   H683      1.0  0.37059  0.50043  0.34261  1.0000
  C   C849      1.0  0.13497  0.35726  0.73106  1.0000
  H   H684      1.0  0.45220  0.46743  0.36394  1.0000
  C   C850      1.0  0.33848  0.31991  0.69691  1.0000
  H   H685      1.0  0.49812  0.33720  0.72076  1.0000
  C   C851      1.0  0.23235  0.49879  0.62768  1.0000
  C   C852      1.0  0.47152  0.37336  0.50217  1.0000
  H   H686      1.0  0.13564  0.35802  0.61117  1.0000
  H   H687      1.0  0.27409  0.36269  0.39303  1.0000
  C   C853      1.0  0.18388  0.30664  0.72811  1.0000
  C   C854      1.0  0.23338  0.45280  0.71808  1.0000
  C   C855      1.0  0.14518  0.34490  0.56038  1.0000
  C   C856      1.0  0.43528  0.29147  0.59189  1.0000
  H   H688      1.0  0.38015  0.35329  0.58419  1.0000
  C   C857      1.0  0.41066  0.28460  0.54546  1.0000
  H   H689      1.0  0.14020  0.41253  0.61691  1.0000
  C   C858      1.0  0.39932  0.49662  0.52440  1.0000
  H   H690      1.0  0.21815  0.27546  0.70765  1.0000
  H   H691      1.0  0.10390  0.34972  0.35480  1.0000
  P   P27       1.0  0.13846  0.25647  0.60215  1.0000
  C   C859      1.0  0.29843  0.26034  0.49602  1.0000
  C   C860      1.0  0.35685  0.27581  0.40305  1.0000
  C   C861      1.0  0.40696  0.33206  0.34849  1.0000
  C   C862      1.0  0.27420  0.47331  0.70190  1.0000
  H   H692      1.0  0.32786  0.40853  0.69004  1.0000
  C   C863      1.0  0.21404  0.28519  0.64284  1.0000
  H   H693      1.0  0.14558  0.42295  0.46301  1.0000
  C   C864      1.0  0.35697  0.41066  0.70926  1.0000
  C   C865      1.0  0.03564  0.30370  0.74084  1.0000
  C   C866      1.0  0.28632  0.31372  0.61652  1.0000
  S   S113      1.0  0.10186  0.43557  0.69405  1.0000
  C   C867      1.0  0.32962  0.33323  0.71190  1.0000
  C   C868      1.0  0.01784  0.42623  0.39956  1.0000
  C   C869      1.0  0.39174  0.48358  0.67768  1.0000
  C   C870      1.0  0.38558  0.34114  0.59788  1.0000
  H   H694      1.0  0.25122  0.46330  0.59348  1.0000
  H   H695      1.0  0.11046  0.26079  0.54715  1.0000
  C   C871      1.0  0.17148  0.37873  0.57524  1.0000
  H   H696      1.0  0.09033  0.34270  0.72675  1.0000
  S   S114      1.0  0.42881  0.33870  0.66781  1.0000
  H   H697      1.0  0.47210  0.46665  0.65123  1.0000
  H   H698      1.0  0.39174  0.39200  0.66364  1.0000
  C   C872      1.0  0.23375  0.49867  0.58385  1.0000
  S   S115      1.0  0.24037  0.49397  0.44367  1.0000
  H   H699      1.0  0.21220  0.46907  0.78444  1.0000
  H   H700      1.0  0.12921  0.41954  0.81819  1.0000
  C   C873      1.0  0.17621  0.49889  0.37918  1.0000
  H   H701      1.0  0.31937  0.31088  0.82343  1.0000
  H   H702      1.0  0.18321  0.32121  0.81042  1.0000
  C   C874      1.0  0.21325  0.25320  0.52323  1.0000
  H   H703      1.0  0.41710  0.28746  0.80915  1.0000
  C   C875      1.0  0.50879  0.35799  0.48777  1.0000
  H   H704      1.0  0.15340  0.40134  0.81718  1.0000
  H   H705      1.0  0.04665  0.49615  0.46432  1.0000
  H   H706      1.0  0.24229  0.38723  0.33984  1.0000
  C   C876      1.0  0.15145  0.25087  0.67888  1.0000
  H   H707      1.0  0.10350  0.47581  0.81788  1.0000
  H   H708      1.0  0.02978  0.49923  0.40289  1.0000
  C   C877      1.0  0.46534  0.33013  0.82801  1.0000
  C   C878      1.0  0.11845  0.48171  0.82894  1.0000
  H   H709      1.0  0.05935  0.32213  0.33470  1.0000
  H   H710      1.0  0.50463  0.43899  0.83114  1.0000
  C   C879      1.0  0.05877  0.25785  0.33474  1.0000
  C   C880      1.0  0.04826  0.46033  0.33968  1.0000
  H   H711      1.0  0.49267  0.25124  0.70195  1.0000
  H   H712      1.0  0.13466  0.42196  0.33538  1.0000
  H   H713      1.0  0.39567  0.28415  0.33308  1.0000
  H   H714      1.0  0.30308  0.36358  0.91387  1.0000
  H   H715      1.0  0.02417  0.48503  0.31916  1.0000
  C   C881      1.0  0.49456  0.47212  0.28220  1.0000
  H   H716      1.0  0.10625  0.36673  0.88265  1.0000
  C   C882      1.0  0.01346  0.26243  0.92372  1.0000
  C   C883      1.0  0.01139  0.39591  0.95856  1.0000
  S   S116      1.0  0.39985  0.43108  0.04477  1.0000
  P   P28       1.0  0.05757  0.26362  0.14875  1.0000
  H   H717      1.0  0.37925  0.40266  0.97671  1.0000
  H   H718      1.0  0.11964  0.36739  0.17337  1.0000
  C   C884      1.0  0.02675  0.44900  0.26210  1.0000
  C   C885      1.0  0.46642  0.49701  0.88049  1.0000
  H   H719      1.0  0.03129  0.41000  0.13089  1.0000
  H   H720      1.0  0.14904  0.28759  0.27742  1.0000
  C   C886      1.0  0.37424  0.28351  0.22973  1.0000
  H   H721      1.0  0.47039  0.32947  0.12846  1.0000
  S   S117      1.0  0.05342  0.35129  0.11547  1.0000
  Fe  Fe55      1.0  0.27474  0.38165  0.28896  1.0000
  C   C887      1.0  0.43853  0.34591  0.28300  1.0000
  C   C888      1.0  0.02587  0.39265  0.12856  1.0000
  H   H722      1.0  0.43647  0.31450  0.93758  1.0000
  C   C889      1.0  0.05678  0.46764  0.17489  1.0000
  H   H723      1.0  0.02217  0.41004  0.03852  1.0000
  C   C890      1.0  0.34099  0.35541  0.03696  1.0000
  C   C891      1.0  0.07656  0.27832  0.30149  1.0000
  Fe  Fe56      1.0  0.08769  0.38281  0.08218  1.0000
  H   H724      1.0  0.32054  0.34942  0.30534  1.0000
  C   C892      1.0  0.35543  0.46256  0.28393  1.0000
  C   C893      1.0  0.13527  0.36284  0.30328  1.0000
  H   H725      1.0  0.16310  0.49914  0.22162  1.0000
  C   C894      1.0  0.41838  0.25581  0.19960  1.0000
  C   C895      1.0  0.01581  0.34442  0.27037  1.0000
  H   H726      1.0  0.37671  0.40888  0.20135  1.0000
  C   C896      1.0  0.39748  0.29411  0.22426  1.0000
  H   H727      1.0  0.44494  0.44687  0.26950  1.0000
  C   C897      1.0  0.34364  0.42593  0.85491  1.0000
  H   H728      1.0  0.19796  0.25514  0.86229  1.0000
  C   C898      1.0  0.47809  0.42317  0.23657  1.0000
  H   H729      1.0  0.21655  0.42669  0.28416  1.0000
  H   H730      1.0  0.14238  0.38030  0.30561  1.0000
  C   C899      1.0  0.30653  0.34915  0.91661  1.0000
  H   H731      1.0  0.44049  0.37046  0.22575  1.0000
  H   H732      1.0  0.17007  0.28282  0.21304  1.0000
  Fe  Fe57      1.0  0.26282  0.33600  0.27013  1.0000
  H   H733      1.0  0.40134  0.49612  0.86062  1.0000
  Fe  Fe58      1.0  0.12187  0.40684  0.98935  1.0000
  H   H734      1.0  0.21404  0.27319  0.11014  1.0000
  C   C900      1.0  0.46739  0.35978  0.04678  1.0000
  C   C901      1.0  0.37868  0.48857  0.11583  1.0000
  C   C902      1.0  0.33658  0.40317  0.12882  1.0000
  C   C903      1.0  0.26811  0.30521  0.12613  1.0000
  H   H735      1.0  0.05517  0.47221  0.30564  1.0000
  C   C904      1.0  0.44783  0.34013  0.07747  1.0000
  H   H736      1.0  0.05858  0.39505  0.12294  1.0000
  C   C905      1.0  0.24436  0.34122  0.92375  1.0000
  C   C906      1.0  0.43870  0.45114  0.24226  1.0000
  C   C907      1.0  0.14778  0.35742  0.27274  1.0000
  C   C908      1.0  0.34445  0.40687  0.29772  1.0000
  H   H737      1.0  0.46786  0.42686  0.26011  1.0000
  H   H738      1.0  0.47355  0.38091  0.32055  1.0000
  H   H739      1.0  0.47781  0.44809  0.87427  1.0000
  C   C909      1.0  0.06844  0.34430  0.00488  1.0000
  H   H740      1.0  0.40229  0.49073  0.15252  1.0000
  C   C910      1.0  0.23850  0.49657  0.31971  1.0000
  H   H741      1.0  0.26821  0.41727  0.85969  1.0000
  H   H742      1.0  0.47437  0.33608  0.96522  1.0000
  C   C911      1.0  0.12774  0.37826  0.92336  1.0000
  C   C912      1.0  0.41154  0.36013  0.28077  1.0000
  C   C913      1.0  0.50371  0.41344  0.17415  1.0000
  H   H743      1.0  0.35120  0.36630  0.23332  1.0000
  C   C914      1.0  0.06304  0.34643  0.21981  1.0000
  H   H744      1.0  0.34048  0.45099  0.27689  1.0000
  H   H745      1.0  0.22400  0.47423  0.22190  1.0000
  S   S118      1.0  0.40290  0.37898  0.25315  1.0000
  C   C915      1.0  0.15703  0.48253  0.24712  1.0000
  H   H746      1.0  0.10272  0.45213  0.88959  1.0000
  C   C916      1.0  0.14689  0.28218  0.17557  1.0000
  H   H747      1.0  0.08520  0.47392  0.97211  1.0000
  C   C917      1.0  0.48403  0.29606  0.97305  1.0000
  C   C918      1.0  0.04329  0.38484  0.91852  1.0000
  H   H748      1.0  0.47594  0.40377  0.14721  1.0000
  C   C919      1.0  0.38560  0.48004  0.15060  1.0000
  H   H749      1.0  0.05571  0.38079  0.90224  1.0000
  C   C920      1.0  0.48492  0.26744  0.04874  1.0000
  H   H750      1.0  0.07984  0.43299  0.27257  1.0000
  C   C921      1.0  0.34211  0.39939  0.92160  1.0000
  Fe  Fe59      1.0  0.48232  0.28577  0.86223  1.0000
  C   C922      1.0  0.48725  0.33157  0.12103  1.0000
  C   C923      1.0  0.12769  0.28439  0.17416  1.0000
  C   C924      1.0  0.18390  0.47529  0.06745  1.0000
  C   C925      1.0  0.06753  0.41585  0.29629  1.0000
  C   C926      1.0  0.35700  0.47516  0.11336  1.0000
  C   C927      1.0  0.40795  0.45227  0.21625  1.0000
  C   C928      1.0  0.42222  0.46161  0.17198  1.0000
  H   H751      1.0  0.16476  0.37053  0.25174  1.0000
  C   C929      1.0  0.01664  0.29034  0.18919  1.0000
  C   C930      1.0  0.24789  0.25507  0.22654  1.0000
  H   H752      1.0  0.19275  0.38343  0.10779  1.0000
  C   C931      1.0  0.05482  0.44059  0.00377  1.0000
  C   C932      1.0  0.29230  0.25475  0.87881  1.0000
  H   H753      1.0  0.47454  0.37579  0.05498  1.0000
  C   C933      1.0  0.25851  0.26920  0.25093  1.0000
  C   C934      1.0  0.19428  0.41963  0.88991  1.0000
  C   C935      1.0  0.22780  0.48030  0.24958  1.0000
  H   H754      1.0  0.35477  0.35269  0.02284  1.0000
  C   C936      1.0  0.34209  0.27628  0.89700  1.0000
  S   S119      1.0  0.48853  0.42658  0.05431  1.0000
  S   S120      1.0  0.24927  0.34524  0.21491  1.0000
  H   H755      1.0  0.02995  0.30214  0.95262  1.0000
  C   C937      1.0  0.20071  0.41231  0.19598  1.0000
  C   C938      1.0  0.40268  0.48585  0.98303  1.0000
  H   H756      1.0  0.03672  0.43184  0.92291  1.0000
  H   H757      1.0  0.03065  0.41844  0.26542  1.0000
  C   C939      1.0  0.34438  0.41591  0.94329  1.0000
  C   C940      1.0  0.01178  0.34764  0.12344  1.0000
  C   C941      1.0  0.22322  0.43870  0.00233  1.0000
  H   H758      1.0  0.05367  0.49854  0.17124  1.0000
  C   C942      1.0  0.12626  0.33009  0.07262  1.0000
  C   C943      1.0  0.47742  0.35872  0.00580  1.0000
  C   C944      1.0  0.48177  0.43531  0.89113  1.0000
  S   S121      1.0  0.19864  0.35460  0.26871  1.0000
  C   C945      1.0  0.05862  0.31159  0.97720  1.0000
  H   H759      1.0  0.06082  0.49327  0.08032  1.0000
  H   H760      1.0  0.21081  0.37100  0.17375  1.0000
  H   H761      1.0  0.18769  0.41844  0.95853  1.0000
  C   C946      1.0  0.38042  0.37080  0.90737  1.0000
  H   H762      1.0  0.08175  0.30727  0.16705  1.0000
  C   C947      1.0  0.35743  0.31245  0.02576  1.0000
  C   C948      1.0  0.36647  0.31276  0.83612  1.0000
  C   C949      1.0  0.04838  0.48090  0.19166  1.0000
  Fe  Fe60      1.0  0.32570  0.49407  0.85163  1.0000
  C   C950      1.0  0.47945  0.47793  0.30479  1.0000
  H   H763      1.0  0.04725  0.33793  0.21251  1.0000
  H   H764      1.0  0.42314  0.30419  0.09206  1.0000
  H   H765      1.0  0.17392  0.41513  0.17437  1.0000
  C   C951      1.0  0.25122  0.28446  0.26199  1.0000
  C   C952      1.0  0.03536  0.43583  0.24500  1.0000
  H   H766      1.0  0.39633  0.45371  0.86901  1.0000
  C   C953      1.0  0.40812  0.39975  0.94767  1.0000
  H   H767      1.0  0.02247  0.38029  0.25557  1.0000
  C   C954      1.0  0.49272  0.40266  0.93513  1.0000
  S   S122      1.0  0.26022  0.43152  0.97954  1.0000
  C   C955      1.0  0.49458  0.45134  0.30180  1.0000
  S   S123      1.0  0.43312  0.42161  0.12484  1.0000
  H   H768      1.0  0.01353  0.26140  0.31279  1.0000
  C   C956      1.0  0.45193  0.49205  0.04076  1.0000
  P   P29       1.0  0.03784  0.34831  0.29625  1.0000
  C   C957      1.0  0.04127  0.38420  0.12414  1.0000
  C   C958      1.0  0.20344  0.41238  0.85741  1.0000
  H   H769      1.0  0.04822  0.36109  0.00066  1.0000
  C   C959      1.0  0.46968  0.41515  0.20356  1.0000
  C   C960      1.0  0.46887  0.27204  0.98878  1.0000
  H   H770      1.0  0.49758  0.49180  0.11092  1.0000
  C   C961      1.0  0.18289  0.31592  0.84475  1.0000
  H   H771      1.0  0.36785  0.40424  0.13312  1.0000
  H   H772      1.0  0.17735  0.48398  0.96632  1.0000
  C   C962      1.0  0.40302  0.43012  0.84117  1.0000
  C   C963      1.0  0.16504  0.49318  0.12365  1.0000
  H   H773      1.0  0.08469  0.30913  0.24800  1.0000
  H   H774      1.0  0.18348  0.29694  0.96650  1.0000
  H   H775      1.0  0.34158  0.39278  0.85848  1.0000
  H   H776      1.0  0.36159  0.31859  0.98991  1.0000
  H   H777      1.0  0.34329  0.28986  0.15441  1.0000
  C   C964      1.0  0.31297  0.31028  0.92711  1.0000
  H   H778      1.0  0.09098  0.27874  0.06150  1.0000
  C   C965      1.0  0.11366  0.34558  0.33126  1.0000
  C   C966      1.0  0.03267  0.41375  0.92990  1.0000
  C   C967      1.0  0.30327  0.46568  0.20218  1.0000
  C   C968      1.0  0.19271  0.25862  0.95337  1.0000
  C   C969      1.0  0.03121  0.33308  0.87419  1.0000
  S   S124      1.0  0.11508  0.25884  0.89062  1.0000
  Fe  Fe61      1.0  0.11593  0.43586  0.04645  1.0000
  S   S125      1.0  0.39049  0.32259  0.11681  1.0000
  C   C970      1.0  0.43830  0.31926  0.06801  1.0000
  H   H779      1.0  0.42306  0.30216  0.25769  1.0000
  C   C971      1.0  0.40504  0.29413  0.26176  1.0000
  H   H780      1.0  0.37202  0.49603  0.91787  1.0000
  Fe  Fe62      1.0  0.10224  0.26586  0.83318  1.0000
  H   H781      1.0  0.45402  0.34665  0.26681  1.0000
  H   H782      1.0  0.02631  0.48172  0.24650  1.0000
  S   S126      1.0  0.16260  0.40075  0.10266  1.0000
  H   H783      1.0  0.45313  0.41258  0.20225  1.0000
  S   S127      1.0  0.09205  0.40971  0.02151  1.0000
  C   C972      1.0  0.21370  0.39156  0.91308  1.0000
  H   H784      1.0  0.07898  0.35595  0.01981  1.0000
  S   S128      1.0  0.43263  0.37161  0.14692  1.0000
  C   C973      1.0  0.37209  0.26364  0.03759  1.0000
  C   C974      1.0  0.34921  0.37761  0.25124  1.0000
  H   H785      1.0  0.10915  0.33072  0.88869  1.0000
  P   P30       1.0  0.16748  0.25545  0.93918  1.0000
  C   C975      1.0  0.26021  0.37698  0.94195  1.0000
  C   C976      1.0  0.16928  0.46087  0.11058  1.0000
  C   C977      1.0  0.33099  0.36443  0.00939  1.0000
  C   C978      1.0  0.17456  0.28520  0.91177  1.0000
  C   C979      1.0  0.08441  0.36478  0.26588  1.0000
  C   C980      1.0  0.12237  0.28673  0.24930  1.0000
  Fe  Fe63      1.0  0.40668  0.36023  0.11170  1.0000
  H   H786      1.0  0.25404  0.37343  0.01119  1.0000
  P   P31       1.0  0.22905  0.32240  0.06006  1.0000
  H   H787      1.0  0.22576  0.41061  0.22601  1.0000
  H   H788      1.0  0.08663  0.32504  0.00361  1.0000
  H   H789      1.0  0.44000  0.34088  0.10895  1.0000
  H   H790      1.0  0.12191  0.47384  0.26125  1.0000
  C   C981      1.0  0.37233  0.49069  0.32074  1.0000
  C   C982      1.0  0.50015  0.30572  0.99424  1.0000
  H   H791      1.0  0.04691  0.33653  0.88145  1.0000
  C   C983      1.0  0.37147  0.42338  0.06700  1.0000
  H   H792      1.0  0.16487  0.37408  0.84918  1.0000
  C   C984      1.0  0.45318  0.46169  0.19828  1.0000
  H   H793      1.0  0.44059  0.30215  0.01932  1.0000
  C   C985      1.0  0.03416  0.46585  0.03089  1.0000
  C   C986      1.0  0.14265  0.28624  0.24908  1.0000
  H   H794      1.0  0.01173  0.49988  0.90015  1.0000
  C   C987      1.0  0.49976  0.42714  0.23764  1.0000
  H   H795      1.0  0.20779  0.27111  0.21708  1.0000
  C   C988      1.0  0.08311  0.29077  0.11648  1.0000
  H   H796      1.0  0.39162  0.29359  0.05539  1.0000
  Fe  Fe64      1.0  0.27954  0.38094  0.19340  1.0000
  C   C989      1.0  0.34908  0.44478  0.18066  1.0000
  H   H797      1.0  0.38573  0.41963  0.84216  1.0000
  C   C990      1.0  0.24913  0.49932  0.24211  1.0000
  H   H798      1.0  0.34068  0.26495  0.27591  1.0000
  C   C991      1.0  0.17706  0.42580  0.23249  1.0000
  H   H799      1.0  0.40959  0.30233  0.19097  1.0000
  H   H800      1.0  0.15599  0.27977  0.14768  1.0000
  C   C992      1.0  0.26524  0.31364  0.03917  1.0000
  C   C993      1.0  0.45459  0.31669  0.87320  1.0000
  C   C994      1.0  0.34589  0.43707  0.92138  1.0000
  S   S129      1.0  0.47629  0.27717  0.20122  1.0000
  C   C995      1.0  0.30561  0.25454  0.84047  1.0000
  H   H801      1.0  0.21974  0.39210  0.84498  1.0000
  H   H802      1.0  0.40450  0.25649  0.14578  1.0000
  C   C996      1.0  0.18300  0.41751  0.19867  1.0000
  Fe  Fe65      1.0  0.06559  0.27164  0.88794  1.0000
  H   H803      1.0  0.33576  0.29577  0.32046  1.0000
  C   C997      1.0  0.34216  0.45342  0.14606  1.0000
  C   C998      1.0  0.13379  0.46819  0.26927  1.0000
  C   C999      1.0  0.02164  0.44144  0.04245  1.0000
  C   C1000     1.0  0.32391  0.34878  0.93358  1.0000
  H   H804      1.0  0.10034  0.28774  0.20977  1.0000
  C   C1001     1.0  0.32989  0.38269  0.31548  1.0000
  H   H805      1.0  0.24119  0.31311  0.14230  1.0000
  H   H806      1.0  0.32532  0.49639  0.14604  1.0000
  C   C1002     1.0  0.16371  0.25298  0.08828  1.0000
  H   H807      1.0  0.21541  0.28548  0.88986  1.0000
  H   H808      1.0  0.43237  0.48314  0.96140  1.0000
  H   H809      1.0  0.04460  0.29771  0.25420  1.0000
  C   C1003     1.0  0.15466  0.28360  0.21261  1.0000
  S   S130      1.0  0.12491  0.40309  0.92159  1.0000
  C   C1004     1.0  0.47747  0.40796  0.95914  1.0000
  C   C1005     1.0  0.10883  0.47434  0.16282  1.0000
  C   C1006     1.0  0.25080  0.31605  0.07228  1.0000
  S   S131      1.0  0.32216  0.47505  0.92103  1.0000
  C   C1007     1.0  0.28097  0.30709  0.04962  1.0000
  C   C1008     1.0  0.18295  0.30206  0.93278  1.0000
  C   C1009     1.0  0.44490  0.46680  0.16319  1.0000
  S   S132      1.0  0.14645  0.43514  0.00915  1.0000
  H   H810      1.0  0.29922  0.26859  0.89276  1.0000
  H   H811      1.0  0.17891  0.33865  0.16286  1.0000
  H   H812      1.0  0.37028  0.36021  0.89028  1.0000
  C   C1010     1.0  0.48242  0.41011  0.17263  1.0000
  H   H813      1.0  0.34936  0.27511  0.95964  1.0000
  C   C1011     1.0  0.46634  0.47975  0.91418  1.0000
  H   H814      1.0  0.18611  0.42996  0.88220  1.0000
  C   C1012     1.0  0.39362  0.49356  0.30120  1.0000
  C   C1013     1.0  0.38092  0.27479  0.06701  1.0000
  Fe  Fe66      1.0  0.48539  0.29703  0.24912  1.0000
  H   H815      1.0  0.38464  0.27701  0.87285  1.0000
  H   H816      1.0  0.10797  0.43518  0.31861  1.0000
  H   H817      1.0  0.43957  0.35354  0.91024  1.0000
  H   H818      1.0  0.47967  0.49410  0.28944  1.0000
  S   S133      1.0  0.10917  0.40912  0.11045  1.0000
  C   C1014     1.0  0.20067  0.33211  0.11685  1.0000
  C   C1015     1.0  0.41951  0.48608  0.95086  1.0000
  H   H819      1.0  0.36837  0.28342  0.20071  1.0000
  H   H820      1.0  0.32949  0.43024  0.03533  1.0000
  C   C1016     1.0  0.03110  0.26611  0.30938  1.0000
  C   C1017     1.0  0.15710  0.49665  0.85708  1.0000
  C   C1018     1.0  0.19411  0.48678  0.95092  1.0000
  H   H821      1.0  0.15458  0.35063  0.96655  1.0000
  C   C1019     1.0  0.22310  0.33826  0.09502  1.0000
  C   C1020     1.0  0.23273  0.28487  0.25023  1.0000
  H   H822      1.0  0.16349  0.42997  0.23327  1.0000
  C   C1021     1.0  0.08320  0.35104  0.18996  1.0000
  C   C1022     1.0  0.28229  0.30270  0.09311  1.0000
  P   P32       1.0  0.18442  0.44406  0.30217  1.0000
  H   H823      1.0  0.37231  0.48874  0.99635  1.0000
  C   C1023     1.0  0.36877  0.31450  0.09236  1.0000
  C   C1024     1.0  0.20117  0.39883  0.07845  1.0000
  Fe  Fe67      1.0  0.41273  0.38643  0.17846  1.0000
  C   C1025     1.0  0.10915  0.46531  0.12715  1.0000
  H   H824      1.0  0.23092  0.39535  0.05945  1.0000
  H   H825      1.0  0.48605  0.47049  0.95158  1.0000
  C   C1026     1.0  0.03192  0.42892  0.02884  1.0000
  H   H826      1.0  0.32838  0.25840  0.91011  1.0000
  H   H827      1.0  0.06810  0.39829  0.24802  1.0000
  H   H828      1.0  0.25843  0.36223  0.08433  1.0000
  C   C1027     1.0  0.06734  0.46492  0.99115  1.0000
  C   C1028     1.0  0.31272  0.36711  0.02915  1.0000
  H   H829      1.0  0.47073  0.46565  0.19131  1.0000
  H   H830      1.0  0.31435  0.27134  0.11851  1.0000
  H   H831      1.0  0.50624  0.48402  0.24966  1.0000
  C   C1029     1.0  0.38565  0.39500  0.95510  1.0000
  C   C1030     1.0  0.11797  0.46838  0.86933  1.0000
  C   C1031     1.0  0.44810  0.31807  0.02737  1.0000
  H   H832      1.0  0.22635  0.30926  0.97915  1.0000
  C   C1032     1.0  0.34716  0.29628  0.11853  1.0000
  C   C1033     1.0  0.50023  0.45611  0.05131  1.0000
  C   C1034     1.0  0.23545  0.32817  0.96928  1.0000
  C   C1035     1.0  0.41670  0.38979  0.92066  1.0000
  C   C1036     1.0  0.09669  0.29254  0.07611  1.0000
  H   H833      1.0  0.19837  0.35100  0.84735  1.0000
  C   C1037     1.0  0.12593  0.44648  0.30130  1.0000
  H   H834      1.0  0.24167  0.33249  0.89885  1.0000
  C   C1038     1.0  0.20088  0.27382  0.09668  1.0000
  C   C1039     1.0  0.02207  0.36684  0.94788  1.0000
  C   C1040     1.0  0.37372  0.32315  0.04606  1.0000
  C   C1041     1.0  0.50099  0.29140  0.03180  1.0000
  C   C1042     1.0  0.43199  0.46355  0.85264  1.0000
  C   C1043     1.0  0.12981  0.25266  0.99627  1.0000
  C   C1044     1.0  0.07252  0.32670  0.99620  1.0000
  C   C1045     1.0  0.18873  0.49858  0.05181  1.0000
  H   H835      1.0  0.15282  0.27434  0.04992  1.0000
  C   C1046     1.0  0.22282  0.40566  0.05128  1.0000
  H   H836      1.0  0.22145  0.38093  0.92189  1.0000
  C   C1047     1.0  0.03490  0.28844  0.16675  1.0000
  C   C1048     1.0  0.10475  0.32286  0.32939  1.0000
  C   C1049     1.0  0.50257  0.41407  0.88875  1.0000
  C   C1050     1.0  0.20468  0.39895  0.94517  1.0000
  C   C1051     1.0  0.49699  0.43023  0.86687  1.0000
  C   C1052     1.0  0.06349  0.35323  0.25809  1.0000
  H   H837      1.0  0.24998  0.28993  0.90599  1.0000
  P   P33       1.0  0.34199  0.37296  0.94925  1.0000
  C   C1053     1.0  0.04075  0.31414  0.96681  1.0000
  H   H838      1.0  0.13467  0.26977  0.97420  1.0000
  C   C1054     1.0  0.13196  0.33815  0.92822  1.0000
  C   C1055     1.0  0.33217  0.36809  0.29211  1.0000
  S   S134      1.0  0.42701  0.39279  0.05231  1.0000
  H   H839      1.0  0.39382  0.33888  0.85022  1.0000
  H   H840      1.0  0.33711  0.42794  0.20574  1.0000
  C   C1056     1.0  0.22977  0.25595  0.21384  1.0000
  H   H841      1.0  0.38071  0.27125  0.13480  1.0000
  C   C1057     1.0  0.25691  0.36558  0.91013  1.0000
  Fe  Fe68      1.0  0.11088  0.28799  0.90608  1.0000
  H   H842      1.0  0.18655  0.31858  0.11169  1.0000
  C   C1058     1.0  0.33079  0.28577  0.09825  1.0000
  C   C1059     1.0  0.11836  0.34277  0.90448  1.0000
  C   C1060     1.0  0.10395  0.36303  0.19736  1.0000
  H   H843      1.0  0.23158  0.45385  0.97249  1.0000
  H   H844      1.0  0.06190  0.29817  0.96968  1.0000
  H   H845      1.0  0.05663  0.43478  0.18820  1.0000
  C   C1061     1.0  0.20098  0.43117  0.02858  1.0000
  H   H846      1.0  0.30125  0.45207  0.86001  1.0000
  C   C1062     1.0  0.17438  0.29231  0.86767  1.0000
  H   H847      1.0  0.10387  0.46307  0.19664  1.0000
  C   C1063     1.0  0.11814  0.31210  0.05438  1.0000
  C   C1064     1.0  0.10455  0.37010  0.23503  1.0000
  C   C1065     1.0  0.19133  0.32571  0.90979  1.0000
  C   C1066     1.0  0.21417  0.36182  0.15196  1.0000
  C   C1067     1.0  0.05700  0.47756  0.00398  1.0000
  H   H848      1.0  0.12213  0.28410  0.14475  1.0000
  C   C1068     1.0  0.19153  0.33267  0.86556  1.0000
  H   H849      1.0  0.48087  0.44972  0.11796  1.0000
  C   C1069     1.0  0.23284  0.26497  0.97270  1.0000
  C   C1070     1.0  0.36068  0.43081  0.03954  1.0000
  C   C1071     1.0  0.24099  0.35674  0.10134  1.0000
  C   C1072     1.0  0.37292  0.30813  0.90821  1.0000
  C   C1073     1.0  0.40293  0.37549  0.90034  1.0000
  H   H850      1.0  0.28073  0.33163  0.88775  1.0000
  C   C1074     1.0  0.19506  0.41304  0.93352  1.0000
  C   C1075     1.0  0.21232  0.41510  0.22759  1.0000
  S   S135      1.0  0.38577  0.37348  0.14538  1.0000
  H   H851      1.0  0.19773  0.33868  0.92607  1.0000
  C   C1076     1.0  0.11760  0.31709  0.30011  1.0000
  S   S136      1.0  0.11670  0.47032  0.03666  1.0000
  C   C1077     1.0  0.11303  0.32831  0.11313  1.0000
  C   C1078     1.0  0.04853  0.40821  0.90950  1.0000
  H   H852      1.0  0.34501  0.41245  0.97718  1.0000
  H   H853      1.0  0.18787  0.31137  0.03424  1.0000
  H   H854      1.0  0.26407  0.37564  0.87487  1.0000
  C   C1079     1.0  0.11670  0.36314  0.90112  1.0000
  S   S137      1.0  0.46966  0.28342  0.32333  1.0000
  C   C1080     1.0  0.37520  0.26193  0.11184  1.0000
  P   P34       1.0  0.37934  0.44785  0.22976  1.0000
  H   H855      1.0  0.36978  0.44090  0.00472  1.0000
  H   H856      1.0  0.26938  0.30209  0.15970  1.0000
  C   C1081     1.0  0.45722  0.36039  0.84187  1.0000
  C   C1082     1.0  0.03416  0.36167  0.12179  1.0000
  H   H857      1.0  0.14920  0.38487  0.96543  1.0000
  H   H858      1.0  0.44503  0.47366  0.05897  1.0000
  H   H859      1.0  0.30012  0.29465  0.31349  1.0000
  H   H860      1.0  0.11954  0.34227  0.12721  1.0000
  H   H861      1.0  0.28273  0.43746  0.26442  1.0000
  H   H862      1.0  0.14833  0.45860  0.17195  1.0000
  C   C1083     1.0  0.50291  0.48664  0.08330  1.0000
  H   H863      1.0  0.32738  0.39243  0.16314  1.0000
  C   C1084     1.0  0.34551  0.44209  0.87721  1.0000
  H   H864      1.0  0.34721  0.44945  0.93897  1.0000
  C   C1085     1.0  0.19005  0.41132  0.06697  1.0000
  P   P35       1.0  0.02105  0.48207  0.04967  1.0000
  H   H865      1.0  0.31047  0.35019  0.13830  1.0000
  S   S138      1.0  0.07516  0.26456  0.95028  1.0000
  C   C1086     1.0  0.38524  0.49309  0.92697  1.0000
  C   C1087     1.0  0.29341  0.33078  0.90263  1.0000
  C   C1088     1.0  0.34221  0.40474  0.87682  1.0000
  C   C1089     1.0  0.35857  0.27329  0.27255  1.0000
  C   C1090     1.0  0.48620  0.48373  0.92524  1.0000
  C   C1091     1.0  0.21402  0.27495  0.92202  1.0000
  H   H866      1.0  0.40237  0.48204  0.01763  1.0000
  C   C1092     1.0  0.19682  0.47527  0.92061  1.0000
  H   H867      1.0  0.45599  0.47444  0.12904  1.0000
  H   H868      1.0  0.48486  0.25601  0.07794  1.0000
  C   C1093     1.0  0.33785  0.42452  0.05673  1.0000
  H   H869      1.0  0.48005  0.30668  0.08607  1.0000
  C   C1094     1.0  0.23400  0.42567  0.01342  1.0000
  H   H870      1.0  0.08520  0.37009  0.29542  1.0000
  Fe  Fe69      1.0  0.45112  0.40577  0.09099  1.0000
  H   H871      1.0  0.10440  0.44711  0.13358  1.0000
  H   H872      1.0  0.20512  0.39372  0.97906  1.0000
  S   S139      1.0  0.28935  0.48609  0.86839  1.0000
  S   S140      1.0  0.11606  0.37822  0.04853  1.0000
  Fe  Fe70      1.0  0.40820  0.40726  0.08861  1.0000
  H   H873      1.0  0.16523  0.44274  0.12201  1.0000
  H   H874      1.0  0.14277  0.34549  0.05529  1.0000
  C   C1095     1.0  0.14122  0.43912  0.31118  1.0000
  C   C1096     1.0  0.34798  0.28995  0.85242  1.0000
  C   C1097     1.0  0.47199  0.42418  0.93725  1.0000
  H   H875      1.0  0.22062  0.47036  0.87617  1.0000
  Fe  Fe71      1.0  0.50472  0.30578  0.32536  1.0000
  H   H876      1.0  0.19024  0.48645  0.23963  1.0000
  C   C1098     1.0  0.29674  0.31140  0.90763  1.0000
  C   C1099     1.0  0.23649  0.36862  0.12925  1.0000
  H   H877      1.0  0.19152  0.46832  0.04653  1.0000
  C   C1100     1.0  0.41614  0.44629  0.25120  1.0000
  H   H878      1.0  0.25034  0.38319  0.13330  1.0000
  C   C1101     1.0  0.03738  0.33257  0.97328  1.0000
  C   C1102     1.0  0.21842  0.47928  0.89953  1.0000
  C   C1103     1.0  0.03308  0.47145  0.23480  1.0000
  C   C1104     1.0  0.33607  0.29343  0.05174  1.0000
  H   H879      1.0  0.12071  0.38004  0.23986  1.0000
  S   S141      1.0  0.45243  0.28926  0.89401  1.0000
  C   C1105     1.0  0.36602  0.27385  0.31042  1.0000
  C   C1106     1.0  0.19623  0.34359  0.14571  1.0000
  S   S142      1.0  0.10127  0.29711  0.84482  1.0000
  C   C1107     1.0  0.20670  0.42374  0.26110  1.0000
  S   S143      1.0  0.47914  0.32743  0.24164  1.0000
  H   H880      1.0  0.29611  0.45521  0.18184  1.0000
  C   C1108     1.0  0.36363  0.40178  0.23318  1.0000
  H   H881      1.0  0.41873  0.41105  0.96323  1.0000
  C   C1109     1.0  0.07129  0.29281  0.27273  1.0000
  C   C1110     1.0  0.38556  0.48934  0.97114  1.0000
  C   C1111     1.0  0.05012  0.44503  0.20141  1.0000
  C   C1112     1.0  0.11550  0.47991  0.08328  1.0000
  Fe  Fe72      1.0  0.46618  0.31547  0.31610  1.0000
  C   C1113     1.0  0.25114  0.36403  0.98749  1.0000
  H   H882      1.0  0.33875  0.32755  0.95551  1.0000
  H   H883      1.0  0.30440  0.37361  0.00885  1.0000
  C   C1114     1.0  0.15986  0.46981  0.13873  1.0000
  H   H884      1.0  0.34179  0.34378  0.10409  1.0000
  H   H885      1.0  0.48374  0.30710  0.94352  1.0000
  C   C1115     1.0  0.33366  0.35029  0.08324  1.0000
  H   H886      1.0  0.27272  0.26872  0.26018  1.0000
  C   C1116     1.0  0.32648  0.32887  0.94000  1.0000
  H   H887      1.0  0.26426  0.31645  0.00544  1.0000
  Fe  Fe73      1.0  0.23290  0.35803  0.26131  1.0000
  H   H888      1.0  0.38292  0.31505  0.92931  1.0000
  C   C1117     1.0  0.16624  0.27412  0.06285  1.0000
  C   C1118     1.0  0.01537  0.49157  0.96543  1.0000
  H   H889      1.0  0.41010  0.36861  0.87826  1.0000
  H   H890      1.0  0.30410  0.25439  0.21165  1.0000
  P   P36       1.0  0.10585  0.28756  0.29885  1.0000
  C   C1119     1.0  0.03512  0.26718  0.17893  1.0000
  H   H891      1.0  0.29936  0.46117  0.31076  1.0000
  H   H892      1.0  0.45095  0.46316  0.93171  1.0000
  H   H893      1.0  0.19223  0.44047  0.01869  1.0000
  C   C1120     1.0  0.25235  0.31177  0.11591  1.0000
  C   C1121     1.0  0.09157  0.30867  0.13514  1.0000
  H   H894      1.0  0.31501  0.29492  0.93286  1.0000
  S   S144      1.0  0.13483  0.31311  0.93275  1.0000
  C   C1122     1.0  0.16467  0.45382  0.29023  1.0000
  C   C1123     1.0  0.23869  0.33948  0.00160  1.0000
  H   H895      1.0  0.34216  0.41761  0.31659  1.0000
  H   H896      1.0  0.49196  0.36613  0.89255  1.0000
  C   C1124     1.0  0.49278  0.31850  0.09748  1.0000
  H   H897      1.0  0.06471  0.42199  0.88596  1.0000
  H   H898      1.0  0.40514  0.43829  0.28550  1.0000
  H   H899      1.0  0.29197  0.30507  0.02421  1.0000
  H   H900      1.0  0.05045  0.27794  0.06318  1.0000
  C   C1125     1.0  0.44667  0.34700  0.88720  1.0000
  S   S145      1.0  0.26210  0.39440  0.23579  1.0000
  Fe  Fe74      1.0  0.28638  0.46858  0.93859  1.0000
  H   H901      1.0  0.14971  0.33081  0.24880  1.0000
  H   H902      1.0  0.06701  0.49641  0.99329  1.0000
  C   C1126     1.0  0.13724  0.47589  0.88345  1.0000
  H   H903      1.0  0.02863  0.44073  0.85425  1.0000
  H   H904      1.0  0.06285  0.43075  0.99424  1.0000
  H   H905      1.0  0.06867  0.47493  0.14154  1.0000
  C   C1127     1.0  0.50775  0.36702  0.89553  1.0000
  H   H906      1.0  0.42241  0.26256  0.03710  1.0000
  H   H907      1.0  0.04844  0.30343  0.13934  1.0000
  S   S146      1.0  0.03929  0.28242  0.88239  1.0000
  H   H908      1.0  0.29177  0.36455  0.09076  1.0000
  C   C1128     1.0  0.21729  0.47740  0.32754  1.0000
  C   C1129     1.0  0.11542  0.28660  0.21098  1.0000
  H   H909      1.0  0.43526  0.26960  0.17894  1.0000
  C   C1130     1.0  0.30519  0.46894  0.27480  1.0000
  C   C1131     1.0  0.38939  0.28399  0.30467  1.0000
  H   H910      1.0  0.20525  0.40591  0.16963  1.0000
  C   C1132     1.0  0.04864  0.28658  0.27644  1.0000
  H   H911      1.0  0.29443  0.29752  0.10111  1.0000
  C   C1133     1.0  0.04418  0.25925  0.07324  1.0000
  C   C1134     1.0  0.20358  0.29512  0.07098  1.0000
  C   C1135     1.0  0.35424  0.28556  0.92503  1.0000
  H   H912      1.0  0.41272  0.48385  0.25819  1.0000
  H   H913      1.0  0.39053  0.33714  0.02570  1.0000
  C   C1136     1.0  0.41039  0.27162  0.83716  1.0000
  H   H914      1.0  0.26975  0.39595  0.93146  1.0000
  H   H915      1.0  0.16815  0.27984  0.85040  1.0000
  P   P37       1.0  0.50212  0.38440  0.96513  1.0000
  C   C1137     1.0  0.44497  0.32497  0.90267  1.0000
  C   C1138     1.0  0.14086  0.37333  0.94790  1.0000
  C   C1139     1.0  0.22191  0.27051  0.22652  1.0000
  Fe  Fe75      1.0  0.13819  0.40669  0.07130  1.0000
  C   C1140     1.0  0.37903  0.32165  0.86375  1.0000
  C   C1141     1.0  0.37144  0.38003  0.93588  1.0000
  H   H916      1.0  0.42319  0.49386  0.07486  1.0000
  H   H917      1.0  0.12846  0.31325  0.02332  1.0000
  C   C1142     1.0  0.39956  0.34619  0.32544  1.0000
  H   H918      1.0  0.32522  0.44315  0.14451  1.0000
  C   C1143     1.0  0.14360  0.35376  0.94909  1.0000
  C   C1144     1.0  0.43093  0.35970  0.25968  1.0000
  C   C1145     1.0  0.32574  0.41055  0.10134  1.0000
  H   H919      1.0  0.18215  0.46328  0.91345  1.0000
  C   C1146     1.0  0.49336  0.46284  0.08715  1.0000
  C   C1147     1.0  0.23389  0.27787  0.93140  1.0000
  H   H920      1.0  0.46042  0.42830  0.95635  1.0000
  C   C1148     1.0  0.18259  0.34035  0.32501  1.0000
  C   C1149     1.0  0.05096  0.34726  0.99358  1.0000
  C   C1150     1.0  0.21288  0.39806  0.86948  1.0000
  H   H921      1.0  0.47030  0.40013  0.99503  1.0000
  H   H922      1.0  0.43413  0.39342  0.91464  1.0000
  H   H923      1.0  0.03315  0.25580  0.01546  1.0000
  H   H924      1.0  0.13675  0.46548  0.91487  1.0000
  S   S147      1.0  0.50019  0.33699  0.32271  1.0000
  C   C1151     1.0  0.18613  0.29509  0.05400  1.0000
  C   C1152     1.0  0.44830  0.45789  0.83433  1.0000
  H   H925      1.0  0.37592  0.27385  0.00332  1.0000
  C   C1153     1.0  0.37104  0.45790  0.18282  1.0000
  H   H926      1.0  0.08287  0.34610  0.16010  1.0000
  C   C1154     1.0  0.35947  0.40969  0.11170  1.0000
  C   C1155     1.0  0.30544  0.36195  0.07551  1.0000
  C   C1156     1.0  0.21169  0.46912  0.29247  1.0000
  C   C1157     1.0  0.42639  0.33174  0.32734  1.0000
  H   H927      1.0  0.28668  0.29721  0.89666  1.0000
  H   H928      1.0  0.34665  0.45850  0.86031  1.0000
  C   C1158     1.0  0.31603  0.35382  0.10248  1.0000
  S   S148      1.0  0.29715  0.40277  0.12124  1.0000
  C   C1159     1.0  0.40920  0.44948  0.85608  1.0000
  H   H929      1.0  0.24831  0.26700  0.97961  1.0000
  S   S149      1.0  0.31694  0.27911  0.02475  1.0000
  C   C1160     1.0  0.46750  0.33765  0.99641  1.0000
  S   S150      1.0  0.26528  0.30322  0.29005  1.0000
  C   C1161     1.0  0.18902  0.42920  0.26380  1.0000
  S   S151      1.0  0.29450  0.37082  0.24485  1.0000
  C   C1162     1.0  0.37663  0.46449  0.26580  1.0000
  C   C1163     1.0  0.13917  0.33460  0.27148  1.0000
  C   C1164     1.0  0.17240  0.47536  0.25749  1.0000
  H   H930      1.0  0.01986  0.48520  0.14040  1.0000
  C   C1165     1.0  0.36120  0.41664  0.25597  1.0000
  H   H931      1.0  0.22657  0.29605  0.25994  1.0000
  H   H932      1.0  0.49928  0.35765  0.15314  1.0000
  S   S152      1.0  0.24401  0.34608  0.31852  1.0000
  C   C1166     1.0  0.29576  0.45562  0.24862  1.0000
  P   P38       1.0  0.01532  0.33684  0.95713  1.0000
  H   H933      1.0  0.41593  0.46459  0.14422  1.0000
  H   H934      1.0  0.41055  0.25271  0.97303  1.0000
  C   C1167     1.0  0.06082  0.39616  0.28256  1.0000
  C   C1168     1.0  0.32211  0.49229  0.25479  1.0000
  C   C1169     1.0  0.31994  0.48920  0.18199  1.0000
  C   C1170     1.0  0.01314  0.33212  0.90464  1.0000
  C   C1171     1.0  0.39584  0.48066  0.27367  1.0000
  H   H935      1.0  0.35159  0.48159  0.08631  1.0000
  H   H936      1.0  0.01655  0.30679  0.17960  1.0000
  C   C1172     1.0  0.35330  0.47534  0.31192  1.0000
  H   H937      1.0  0.17354  0.36694  0.32918  1.0000
  H   H938      1.0  0.02949  0.48881  0.95366  1.0000
  C   C1173     1.0  0.18105  0.25285  0.10514  1.0000
  C   C1174     1.0  0.50331  0.34693  0.13623  1.0000
  C   C1175     1.0  0.04509  0.37385  0.31343  1.0000
  C   C1176     1.0  0.39212  0.26578  0.87351  1.0000
  C   C1177     1.0  0.01192  0.36310  0.25440  1.0000
  C   C1178     1.0  0.11508  0.49800  0.15446  1.0000
  C   C1179     1.0  0.42036  0.25737  0.83753  1.0000
  C   C1180     1.0  0.40195  0.49321  0.89469  1.0000
  C   C1181     1.0  0.23729  0.49509  0.90813  1.0000
  C   C1182     1.0  0.41929  0.48973  0.90632  1.0000
  P   P39       1.0  0.44127  0.49094  0.86355  1.0000
  H   H939      1.0  0.15766  0.50017  0.14517  1.0000
  C   C1183     1.0  0.46918  0.25776  0.02683  1.0000
  H   H940      1.0  0.45709  0.26442  0.97113  1.0000
  S   S153      1.0  0.29063  0.40409  0.32863  1.0000
  H   H941      1.0  0.18956  0.31167  0.33155  1.0000
  H   H942      1.0  0.33683  0.47323  0.32735  1.0000
  H   H943      1.0  0.48308  0.49575  0.00269  1.0000
  H   H944      1.0  0.25410  0.49867  0.89102  1.0000
  C   C1184     1.0  0.02907  0.32921  0.83387  1.0000
  S   S154      1.0  0.48022  0.25121  0.89002  1.0000
  H   H945      1.0  0.05084  0.63901  0.48989  1.0000
  P   P40       1.0  0.02383  0.55910  0.80841  1.0000
  C   C1185     1.0  0.43441  0.70713  0.42046  1.0000
  C   C1186     1.0  0.07531  0.59835  0.33486  1.0000
  H   H946      1.0  0.01539  0.59379  0.42180  1.0000
  H   H947      1.0  0.19498  0.58693  0.63202  1.0000
  S   S155      1.0  0.19496  0.66323  0.63279  1.0000
  C   C1187     1.0  0.40952  0.59716  0.74963  1.0000
  C   C1188     1.0  0.29845  0.72685  0.77673  1.0000
  C   C1189     1.0  0.01693  0.68334  0.48080  1.0000
  C   C1190     1.0  0.13828  0.50250  0.80251  1.0000
  C   C1191     1.0  0.09898  0.58129  0.54003  1.0000
  H   H948      1.0  0.10914  0.74134  0.35687  1.0000
  C   C1192     1.0  0.50642  0.52330  0.58561  1.0000
  C   C1193     1.0  0.50870  0.59092  0.42058  1.0000
  C   C1194     1.0  0.36425  0.63868  0.62739  1.0000
  C   C1195     1.0  0.03065  0.60241  0.43062  1.0000
  H   H949      1.0  0.16647  0.56487  0.51457  1.0000
  H   H950      1.0  0.31739  0.57674  0.67127  1.0000
  C   C1196     1.0  0.21803  0.68965  0.50194  1.0000
  H   H951      1.0  0.06541  0.59495  0.61970  1.0000
  C   C1197     1.0  0.45299  0.55173  0.77600  1.0000
  S   S156      1.0  0.17242  0.67637  0.52683  1.0000
  C   C1198     1.0  0.18072  0.52549  0.70507  1.0000
  P   P41       1.0  0.04923  0.58168  0.38092  1.0000
  C   C1199     1.0  0.02545  0.57461  0.35911  1.0000
  C   C1200     1.0  0.20050  0.58026  0.79907  1.0000
  C   C1201     1.0  0.50366  0.59252  0.71564  1.0000
  C   C1202     1.0  0.35861  0.57821  0.58589  1.0000
  H   H952      1.0  0.22945  0.52618  0.38633  1.0000
  H   H953      1.0  0.07863  0.63214  0.33361  1.0000
  H   H954      1.0  0.23107  0.67218  0.81940  1.0000
  C   C1203     1.0  0.36530  0.65803  0.49061  1.0000
  S   S157      1.0  0.04345  0.74355  0.54055  1.0000
  H   H955      1.0  0.34765  0.66811  0.69990  1.0000
  C   C1204     1.0  0.37216  0.62736  0.69665  1.0000
  H   H956      1.0  0.14840  0.56424  0.45001  1.0000
  C   C1205     1.0  0.02519  0.69727  0.58848  1.0000
  H   H957      1.0  0.40742  0.53985  0.41432  1.0000
  C   C1206     1.0  0.05766  0.55259  0.44304  1.0000
  Fe  Fe76      1.0  0.40722  0.61580  0.36340  1.0000
  H   H958      1.0  0.47299  0.60223  0.43733  1.0000
  H   H959      1.0  0.36292  0.58516  0.64750  1.0000
  C   C1207     1.0  0.09750  0.52952  0.54038  1.0000
  C   C1208     1.0  0.11787  0.71054  0.49860  1.0000
  H   H960      1.0  0.50850  0.64030  0.76871  1.0000
  H   H961      1.0  0.46833  0.68286  0.39987  1.0000
  H   H962      1.0  0.31197  0.67881  0.82992  1.0000
  H   H963      1.0  0.29470  0.67165  0.59566  1.0000
  C   C1209     1.0  0.40531  0.73676  0.80087  1.0000
  H   H964      1.0  0.03803  0.60886  0.76276  1.0000
  C   C1210     1.0  0.13092  0.73442  0.59424  1.0000
  H   H965      1.0  0.25464  0.55010  0.62905  1.0000
  C   C1211     1.0  0.18984  0.56550  0.69760  1.0000
  C   C1212     1.0  0.03762  0.51416  0.41402  1.0000
  S   S158      1.0  0.11166  0.67182  0.70756  1.0000
  H   H966      1.0  0.09604  0.67631  0.49659  1.0000
  H   H967      1.0  0.22806  0.64468  0.68804  1.0000
  C   C1213     1.0  0.20342  0.62252  0.34411  1.0000
  H   H968      1.0  0.32938  0.62924  0.63334  1.0000
  H   H969      1.0  0.33081  0.70212  0.74934  1.0000
  H   H970      1.0  0.31246  0.50483  0.76521  1.0000
  C   C1214     1.0  0.02716  0.60335  0.79640  1.0000
  C   C1215     1.0  0.27478  0.70028  0.62908  1.0000
  H   H971      1.0  0.10024  0.74953  0.51424  1.0000
  H   H972      1.0  0.43443  0.59555  0.46850  1.0000
  Fe  Fe77      1.0  0.12086  0.50078  0.63721  1.0000
  H   H973      1.0  0.14568  0.70764  0.40185  1.0000
  C   C1216     1.0  0.09680  0.66436  0.66930  1.0000
  C   C1217     1.0  0.09603  0.68433  0.37690  1.0000
  H   H974      1.0  0.40294  0.61544  0.61348  1.0000
  C   C1218     1.0  0.09671  0.65861  0.59733  1.0000
  H   H975      1.0  0.06452  0.73003  0.40469  1.0000
  H   H976      1.0  0.08379  0.63308  0.46736  1.0000
  H   H977      1.0  0.06491  0.71866  0.51160  1.0000
  C   C1219     1.0  0.13131  0.70671  0.39110  1.0000
  H   H978      1.0  0.22062  0.69378  0.37878  1.0000
  C   C1220     1.0  0.26923  0.59328  0.42909  1.0000
  H   H979      1.0  0.42373  0.57470  0.76598  1.0000
  H   H980      1.0  0.32542  0.65291  0.33889  1.0000
  C   C1221     1.0  0.36655  0.56392  0.42157  1.0000
  C   C1222     1.0  0.18109  0.54302  0.50498  1.0000
  H   H981      1.0  0.23637  0.64996  0.40369  1.0000
  H   H982      1.0  0.43123  0.67320  0.44948  1.0000
  C   C1223     1.0  0.17767  0.74055  0.47432  1.0000
  C   C1224     1.0  0.02870  0.56361  0.53565  1.0000
  H   H983      1.0  0.38713  0.70539  0.38392  1.0000
  H   H984      1.0  0.27732  0.62058  0.36890  1.0000
  H   H985      1.0  0.50702  0.58985  0.52773  1.0000
  C   C1225     1.0  0.46219  0.57325  0.41130  1.0000
  H   H986      1.0  0.23199  0.73110  0.74946  1.0000
  C   C1226     1.0  0.45873  0.58766  0.43421  1.0000
  H   H987      1.0  0.17049  0.52977  0.53729  1.0000
  C   C1227     1.0  0.44182  0.69047  0.42484  1.0000
  C   C1228     1.0  0.37234  0.57879  0.73987  1.0000
  P   P42       1.0  0.19102  0.60704  0.43678  1.0000
  C   C1229     1.0  0.05760  0.53178  0.46226  1.0000
  H   H988      1.0  0.01637  0.51201  0.81613  1.0000
  C   C1230     1.0  0.12919  0.72675  0.37880  1.0000
  C   C1231     1.0  0.29916  0.64157  0.78751  1.0000
  C   C1232     1.0  0.28630  0.74487  0.48191  1.0000
  C   C1233     1.0  0.02117  0.71509  0.56804  1.0000
  C   C1234     1.0  0.13377  0.73012  0.63656  1.0000
  H   H989      1.0  0.37633  0.63685  0.39013  1.0000
  C   C1235     1.0  0.34526  0.50528  0.58223  1.0000
  H   H990      1.0  0.11916  0.71842  0.66586  1.0000
  C   C1236     1.0  0.46278  0.69585  0.39686  1.0000
  C   C1237     1.0  0.46529  0.68347  0.64082  1.0000
  C   C1238     1.0  0.47640  0.71778  0.36401  1.0000
  C   C1239     1.0  0.28313  0.72341  0.60285  1.0000
  C   C1240     1.0  0.32179  0.64978  0.76408  1.0000
  H   H991      1.0  0.08601  0.55933  0.65331  1.0000
  H   H992      1.0  0.24764  0.50621  0.63700  1.0000
  C   C1241     1.0  0.42125  0.53938  0.56915  1.0000
  H   H993      1.0  0.13777  0.63268  0.39672  1.0000
  H   H994      1.0  0.44307  0.74239  0.38327  1.0000
  C   C1242     1.0  0.21411  0.53939  0.82924  1.0000
  C   C1243     1.0  0.06915  0.62475  0.45636  1.0000
  C   C1244     1.0  0.19873  0.59806  0.81251  1.0000
  C   C1245     1.0  0.31452  0.57407  0.54675  1.0000
  H   H995      1.0  0.01027  0.66050  0.62371  1.0000
  C   C1246     1.0  0.01772  0.58040  0.82575  1.0000
  H   H996      1.0  0.06070  0.54901  0.77863  1.0000
  Fe  Fe78      1.0  0.49959  0.68890  0.80938  1.0000
  C   C1247     1.0  0.49995  0.58420  0.46727  1.0000
  Fe  Fe79      1.0  0.28656  0.69255  0.40799  1.0000
  H   H997      1.0  0.48276  0.69643  0.62199  1.0000
  C   C1248     1.0  0.38289  0.73539  0.38056  1.0000
  C   C1249     1.0  0.46083  0.50527  0.53500  1.0000
  H   H998      1.0  0.03566  0.71961  0.47500  1.0000
  Fe  Fe80      1.0  0.47336  0.65357  0.76644  1.0000
  C   C1250     1.0  0.07494  0.51915  0.56781  1.0000
  H   H999      1.0  0.26234  0.53531  0.80817  1.0000
  C   C1251     1.0  0.39896  0.72104  0.43315  1.0000
  C   C1252     1.0  0.19260  0.58042  0.45050  1.0000
  H   H1000     1.0  0.48737  0.53153  0.83120  1.0000
  H   H1001     1.0  0.04296  0.63627  0.66463  1.0000
  H   H1002     1.0  0.11396  0.72599  0.59156  1.0000
  C   C1253     1.0  0.31387  0.72266  0.75047  1.0000
  H   H1003     1.0  0.22496  0.55695  0.41537  1.0000
  H   H1004     1.0  0.43256  0.74664  0.74206  1.0000
  C   C1254     1.0  0.25039  0.60587  0.65329  1.0000
  C   C1255     1.0  0.25063  0.72848  0.79557  1.0000
  H   H1005     1.0  0.40487  0.67481  0.39085  1.0000
  C   C1256     1.0  0.28499  0.64603  0.76542  1.0000
  H   H1006     1.0  0.21382  0.61322  0.81154  1.0000
  H   H1007     1.0  0.36134  0.53582  0.60129  1.0000
  C   C1257     1.0  0.03803  0.53505  0.39408  1.0000
  C   C1258     1.0  0.16318  0.60180  0.43443  1.0000
  H   H1008     1.0  0.42411  0.61236  0.75025  1.0000
  C   C1259     1.0  0.30867  0.71200  0.65187  1.0000
  C   C1260     1.0  0.09418  0.70459  0.36345  1.0000
  H   H1009     1.0  0.14439  0.54435  0.81559  1.0000
  C   C1261     1.0  0.13988  0.61768  0.40944  1.0000
  H   H1010     1.0  0.32539  0.61869  0.38675  1.0000
  C   C1262     1.0  0.07826  0.69565  0.50320  1.0000
  H   H1011     1.0  0.45783  0.59257  0.57304  1.0000
  C   C1263     1.0  0.15791  0.50998  0.81598  1.0000
  C   C1264     1.0  0.28751  0.69434  0.65376  1.0000
  C   C1265     1.0  0.45612  0.66109  0.63726  1.0000
  C   C1266     1.0  0.01400  0.70720  0.71324  1.0000
  S   S159      1.0  0.44620  0.71229  0.75652  1.0000
  C   C1267     1.0  0.04784  0.55441  0.40875  1.0000
  S   S160      1.0  0.43378  0.60549  0.34599  1.0000
  C   C1268     1.0  0.18465  0.54327  0.72433  1.0000
  C   C1269     1.0  0.18223  0.52998  0.65977  1.0000
  C   C1270     1.0  0.15001  0.57964  0.61978  1.0000
  C   C1271     1.0  0.37856  0.65031  0.77751  1.0000
  H   H1012     1.0  0.17315  0.63861  0.41355  1.0000
  H   H1013     1.0  0.03008  0.70735  0.70920  1.0000
  H   H1014     1.0  0.38928  0.57456  0.35579  1.0000
  C   C1272     1.0  0.27417  0.60295  0.38288  1.0000
  H   H1015     1.0  0.27288  0.72795  0.58519  1.0000
  C   C1273     1.0  0.25009  0.66792  0.76421  1.0000
  C   C1274     1.0  0.01530  0.66632  0.46099  1.0000
  H   H1016     1.0  0.25809  0.68719  0.63088  1.0000
  C   C1275     1.0  0.31686  0.73518  0.62584  1.0000
  H   H1017     1.0  0.06871  0.59691  0.75046  1.0000
  C   C1276     1.0  0.39119  0.69859  0.58607  1.0000
  H   H1018     1.0  0.32309  0.74897  0.82958  1.0000
  H   H1019     1.0  0.37229  0.53515  0.34916  1.0000
  H   H1020     1.0  0.18128  0.63920  0.55918  1.0000
  H   H1021     1.0  0.27252  0.74887  0.66149  1.0000
  C   C1277     1.0  0.50631  0.62643  0.75519  1.0000
  C   C1278     1.0  0.20954  0.64886  0.74338  1.0000
  H   H1022     1.0  0.21825  0.53115  0.72758  1.0000
  H   H1023     1.0  0.19232  0.57943  0.71154  1.0000
  H   H1024     1.0  0.06225  0.68168  0.50411  1.0000
  P   P43       1.0  0.39195  0.62694  0.72658  1.0000
  C   C1279     1.0  0.15986  0.62098  0.41931  1.0000
  C   C1280     1.0  0.02231  0.61961  0.80996  1.0000
  H   H1025     1.0  0.10941  0.54764  0.53411  1.0000
  H   H1026     1.0  0.09424  0.57668  0.51174  1.0000
  H   H1027     1.0  0.28850  0.64449  0.55253  1.0000
  H   H1028     1.0  0.03027  0.65851  0.40674  1.0000
  C   C1281     1.0  0.45289  0.54683  0.73590  1.0000
  H   H1029     1.0  0.02228  0.72557  0.64368  1.0000
  H   H1030     1.0  0.36133  0.57498  0.51987  1.0000
  H   H1031     1.0  0.28894  0.73157  0.50160  1.0000
  H   H1032     1.0  0.34072  0.61247  0.45228  1.0000
  S   S161      1.0  0.26855  0.60865  0.46656  1.0000
  C   C1282     1.0  0.05766  0.58759  0.65566  1.0000
  S   S162      1.0  0.15388  0.60101  0.72756  1.0000
  C   C1283     1.0  0.49389  0.51100  0.38756  1.0000
  H   H1033     1.0  0.25344  0.69922  0.48072  1.0000
  C   C1284     1.0  0.05056  0.62809  0.46925  1.0000
  H   H1034     1.0  0.26585  0.67622  0.77178  1.0000
  C   C1285     1.0  0.17749  0.59644  0.82690  1.0000
  Fe  Fe81      1.0  0.19495  0.68959  0.66572  1.0000
  H   H1035     1.0  0.18801  0.55541  0.59863  1.0000
  C   C1286     1.0  0.24736  0.53577  0.80294  1.0000
  H   H1036     1.0  0.19389  0.64175  0.73496  1.0000
  C   C1287     1.0  0.20822  0.53660  0.79041  1.0000
  H   H1037     1.0  0.17629  0.50805  0.72498  1.0000
  C   C1288     1.0  0.47449  0.50922  0.41483  1.0000
  C   C1289     1.0  0.36988  0.58420  0.54045  1.0000
  C   C1290     1.0  0.45063  0.57425  0.57583  1.0000
  C   C1291     1.0  0.19141  0.56990  0.65228  1.0000
  C   C1292     1.0  0.02960  0.51434  0.67384  1.0000
  S   S163      1.0  0.05887  0.63468  0.57525  1.0000
  H   H1038     1.0  0.12460  0.61671  0.50006  1.0000
  C   C1293     1.0  0.07967  0.71638  0.50792  1.0000
  H   H1039     1.0  0.39748  0.64678  0.63133  1.0000
  C   C1294     1.0  0.38344  0.63196  0.77823  1.0000
  C   C1295     1.0  0.22224  0.53340  0.75783  1.0000
  C   C1296     1.0  0.40786  0.69868  0.51243  1.0000
  Fe  Fe82      1.0  0.31874  0.68904  0.46012  1.0000
  C   C1297     1.0  0.42658  0.69783  0.56974  1.0000
  C   C1298     1.0  0.06418  0.51291  0.67502  1.0000
  C   C1299     1.0  0.21164  0.55826  0.43620  1.0000
  C   C1300     1.0  0.45211  0.68898  0.66961  1.0000
  S   S164      1.0  0.27552  0.55074  0.33894  1.0000
  C   C1301     1.0  0.08778  0.56478  0.58332  1.0000
  H   H1040     1.0  0.06518  0.56700  0.45537  1.0000
  C   C1302     1.0  0.22314  0.62625  0.52803  1.0000
  C   C1303     1.0  0.04443  0.56107  0.55520  1.0000
  H   H1041     1.0  0.33065  0.58011  0.52258  1.0000
  C   C1304     1.0  0.48879  0.50394  0.62069  1.0000
  C   C1305     1.0  0.11610  0.60392  0.53323  1.0000
  C   C1306     1.0  0.32850  0.62175  0.35116  1.0000
  H   H1042     1.0  0.35907  0.50144  0.58118  1.0000
  C   C1307     1.0  0.18594  0.62644  0.50436  1.0000
  C   C1308     1.0  0.23900  0.73782  0.77427  1.0000
  C   C1309     1.0  0.19906  0.61912  0.47988  1.0000
  H   H1043     1.0  0.19534  0.65623  0.79971  1.0000
  H   H1044     1.0  0.02448  0.50277  0.57328  1.0000
  C   C1310     1.0  0.31650  0.56109  0.69151  1.0000
  C   C1311     1.0  0.12218  0.61025  0.56949  1.0000
  C   C1312     1.0  0.28760  0.55266  0.62120  1.0000
  C   C1313     1.0  0.04729  0.51247  0.44832  1.0000
  C   C1314     1.0  0.33365  0.61781  0.69733  1.0000
  H   H1045     1.0  0.46659  0.65663  0.61587  1.0000
  C   C1315     1.0  0.29345  0.65904  0.71958  1.0000
  C   C1316     1.0  0.46123  0.56170  0.59059  1.0000
  Fe  Fe83      1.0  0.17260  0.67178  0.59803  1.0000
  C   C1317     1.0  0.27244  0.56739  0.37260  1.0000
  H   H1046     1.0  0.50256  0.57934  0.70038  1.0000
  C   C1318     1.0  0.43219  0.52683  0.58278  1.0000
  C   C1319     1.0  0.31360  0.52053  0.74450  1.0000
  H   H1047     1.0  0.08346  0.60873  0.41915  1.0000
  C   C1320     1.0  0.40436  0.61338  0.54735  1.0000
  H   H1048     1.0  0.38039  0.66188  0.74621  1.0000
  H   H1049     1.0  0.30535  0.56593  0.75408  1.0000
  H   H1050     1.0  0.08726  0.54290  0.81442  1.0000
  C   C1321     1.0  0.03706  0.56981  0.74859  1.0000
  C   C1322     1.0  0.04932  0.59908  0.41705  1.0000
  C   C1323     1.0  0.03136  0.61693  0.45640  1.0000
  H   H1051     1.0  0.42045  0.67670  0.71858  1.0000
  H   H1052     1.0  0.04222  0.70102  0.58792  1.0000
  C   C1324     1.0  0.19318  0.73894  0.44247  1.0000
  C   C1325     1.0  0.26674  0.55770  0.41889  1.0000
  H   H1053     1.0  0.33295  0.62645  0.51597  1.0000
  S   S165      1.0  0.28104  0.66870  0.47453  1.0000
  H   H1054     1.0  0.43977  0.69829  0.50388  1.0000
  C   C1326     1.0  0.14729  0.58333  0.69369  1.0000
  H   H1055     1.0  0.08304  0.66769  0.37726  1.0000
  C   C1327     1.0  0.02539  0.55960  0.72064  1.0000
  H   H1056     1.0  0.25248  0.71461  0.78668  1.0000
  Fe  Fe84      1.0  0.27223  0.51861  0.38630  1.0000
  C   C1328     1.0  0.01174  0.54444  0.52957  1.0000
  H   H1057     1.0  0.30180  0.58739  0.49710  1.0000
  C   C1329     1.0  0.30961  0.55502  0.73810  1.0000
  C   C1330     1.0  0.26739  0.74717  0.49856  1.0000
  H   H1058     1.0  0.01672  0.61903  0.46748  1.0000
  C   C1331     1.0  0.13752  0.55531  0.63865  1.0000
  H   H1059     1.0  0.11598  0.59869  0.64067  1.0000
  H   H1060     1.0  0.06512  0.53041  0.48873  1.0000
  S   S166      1.0  0.37706  0.59230  0.42384  1.0000
  C   C1332     1.0  0.07296  0.64709  0.61125  1.0000
  C   C1333     1.0  0.27156  0.55726  0.60645  1.0000
  Fe  Fe85      1.0  0.45814  0.64256  0.33643  1.0000
  H   H1061     1.0  0.13228  0.70762  0.49602  1.0000
  H   H1062     1.0  0.18441  0.68229  0.43441  1.0000
  C   C1334     1.0  0.40931  0.69823  0.59948  1.0000
  C   C1335     1.0  0.19430  0.50347  0.39652  1.0000
  P   P44       1.0  0.27523  0.66460  0.69025  1.0000
  C   C1336     1.0  0.45206  0.53811  0.59409  1.0000
  C   C1337     1.0  0.18091  0.56040  0.80098  1.0000
  H   H1063     1.0  0.45534  0.55994  0.70619  1.0000
  C   C1338     1.0  0.11124  0.59393  0.61247  1.0000
  C   C1339     1.0  0.12305  0.59521  0.41470  1.0000
  C   C1340     1.0  0.39358  0.60701  0.59294  1.0000
  C   C1341     1.0  0.27689  0.57006  0.56188  1.0000
  C   C1342     1.0  0.21003  0.63353  0.55222  1.0000
  C   C1343     1.0  0.34899  0.61707  0.72011  1.0000
  S   S167      1.0  0.47771  0.63615  0.71541  1.0000
  C   C1344     1.0  0.03583  0.56832  0.67437  1.0000
  C   C1345     1.0  0.26494  0.57044  0.44699  1.0000
  S   S168      1.0  0.32359  0.71507  0.39694  1.0000
  Fe  Fe86      1.0  0.14410  0.67132  0.68267  1.0000
  C   C1346     1.0  0.43058  0.56306  0.56536  1.0000
  C   C1347     1.0  0.36627  0.53765  0.38003  1.0000
  C   C1348     1.0  0.39250  0.60196  0.52114  1.0000
  H   H1064     1.0  0.12692  0.67643  0.61493  1.0000
  P   P45       1.0  0.49057  0.57817  0.38834  1.0000
  C   C1349     1.0  0.42168  0.55259  0.42122  1.0000
  H   H1065     1.0  0.18728  0.60779  0.34824  1.0000
  C   C1350     1.0  0.45046  0.52534  0.73377  1.0000
  C   C1351     1.0  0.17922  0.51429  0.33872  1.0000
  C   C1352     1.0  0.21775  0.61916  0.49193  1.0000
  H   H1066     1.0  0.49262  0.51221  0.49234  1.0000
  S   S169      1.0  0.29509  0.52434  0.42891  1.0000
  C   C1353     1.0  0.40933  0.57576  0.75885  1.0000
  C   C1354     1.0  0.44833  0.72923  0.38763  1.0000
  H   H1067     1.0  0.15597  0.58764  0.58388  1.0000
  C   C1355     1.0  0.02026  0.50224  0.71982  1.0000
  Fe  Fe87      1.0  0.02079  0.61538  0.60246  1.0000
  C   C1356     1.0  0.21033  0.65693  0.78000  1.0000
  C   C1357     1.0  0.44766  0.50857  0.77199  1.0000
  C   C1358     1.0  0.19947  0.68612  0.44453  1.0000
  C   C1359     1.0  0.40224  0.73962  0.44979  1.0000
  C   C1360     1.0  0.47345  0.52945  0.41641  1.0000
  C   C1361     1.0  0.42990  0.67201  0.69567  1.0000
  P   P46       1.0  0.40696  0.69971  0.45602  1.0000
  S   S170      1.0  0.32644  0.66666  0.42481  1.0000
  H   H1068     1.0  0.05673  0.57611  0.56103  1.0000
  C   C1362     1.0  0.41825  0.56614  0.44620  1.0000
  H   H1069     1.0  0.26749  0.63922  0.78450  1.0000
  C   C1363     1.0  0.34839  0.54520  0.45684  1.0000
  H   H1070     1.0  0.02918  0.58033  0.52647  1.0000
  C   C1364     1.0  0.32190  0.54679  0.67110  1.0000
  C   C1365     1.0  0.33744  0.73852  0.49289  1.0000
  C   C1366     1.0  0.13455  0.55898  0.71275  1.0000
  H   H1071     1.0  0.10791  0.59270  0.40579  1.0000
  C   C1367     1.0  0.35318  0.62895  0.45352  1.0000
  H   H1072     1.0  0.32257  0.73345  0.71577  1.0000
  C   C1368     1.0  0.21552  0.52284  0.37271  1.0000
  H   H1073     1.0  0.40535  0.53094  0.56227  1.0000
  S   S171      1.0  0.48559  0.65028  0.36883  1.0000
  H   H1074     1.0  0.45864  0.52770  0.43896  1.0000
  H   H1075     1.0  0.23819  0.58745  0.66914  1.0000
  H   H1076     1.0  0.01940  0.51909  0.65630  1.0000
  C   C1369     1.0  0.42212  0.73404  0.77496  1.0000
  H   H1077     1.0  0.37645  0.69933  0.53269  1.0000
  H   H1078     1.0  0.28251  0.54154  0.65525  1.0000
  H   H1079     1.0  0.33128  0.59086  0.35355  1.0000
  C   C1370     1.0  0.24933  0.65945  0.72780  1.0000
  S   S172      1.0  0.29155  0.66968  0.37071  1.0000
  C   C1371     1.0  0.31864  0.70521  0.76942  1.0000
  C   C1372     1.0  0.30813  0.53473  0.76448  1.0000
  H   H1080     1.0  0.16438  0.61243  0.63267  1.0000
  C   C1373     1.0  0.10859  0.66747  0.62606  1.0000
  H   H1081     1.0  0.26065  0.56264  0.48270  1.0000
  H   H1082     1.0  0.29535  0.74073  0.76174  1.0000
  C   C1374     1.0  0.38964  0.66409  0.41923  1.0000
  H   H1083     1.0  0.30285  0.53004  0.80047  1.0000
  H   H1084     1.0  0.33270  0.64645  0.78161  1.0000
  C   C1375     1.0  0.20933  0.57815  0.42303  1.0000
  C   C1376     1.0  0.09998  0.73407  0.50872  1.0000
  Fe  Fe88      1.0  0.45758  0.68753  0.78701  1.0000
  C   C1377     1.0  0.19756  0.54069  0.47713  1.0000
  H   H1085     1.0  0.02978  0.63725  0.78712  1.0000
  C   C1378     1.0  0.23840  0.69556  0.47065  1.0000
  H   H1086     1.0  0.31586  0.61024  0.71577  1.0000
  H   H1087     1.0  0.31875  0.70816  0.67088  1.0000
  H   H1088     1.0  0.32522  0.51548  0.68346  1.0000
  C   C1379     1.0  0.04374  0.53931  0.56784  1.0000
  H   H1089     1.0  0.46043  0.52862  0.60604  1.0000
  S   S173      1.0  0.26490  0.70688  0.38515  1.0000
  C   C1380     1.0  0.37218  0.55736  0.74946  1.0000
  H   H1090     1.0  0.25518  0.73556  0.53102  1.0000
  C   C1381     1.0  0.25396  0.62119  0.67819  1.0000
  C   C1382     1.0  0.34902  0.63668  0.48950  1.0000
  C   C1383     1.0  0.05951  0.54974  0.81228  1.0000
  H   H1091     1.0  0.21031  0.74906  0.37259  1.0000
  H   H1092     1.0  0.22803  0.61339  0.47376  1.0000
  C   C1384     1.0  0.22894  0.65021  0.71722  1.0000
  H   H1093     1.0  0.10596  0.66027  0.56464  1.0000
  C   C1385     1.0  0.03147  0.67213  0.42070  1.0000
  C   C1386     1.0  0.34315  0.72326  0.51777  1.0000
  H   H1094     1.0  0.42194  0.62703  0.53232  1.0000
  C   C1387     1.0  0.49427  0.62268  0.72435  1.0000
  Fe  Fe89      1.0  0.28896  0.64756  0.43608  1.0000
  Fe  Fe90      1.0  0.16311  0.63759  0.68913  1.0000
  H   H1095     1.0  0.49245  0.72172  0.34184  1.0000
  C   C1388     1.0  0.19146  0.63358  0.54039  1.0000
  C   C1389     1.0  0.05071  0.71222  0.41971  1.0000
  H   H1096     1.0  0.17886  0.51609  0.64530  1.0000
  H   H1097     1.0  0.13820  0.51275  0.77163  1.0000
  C   C1390     1.0  0.15546  0.74038  0.64114  1.0000
  H   H1098     1.0  0.34089  0.54816  0.48581  1.0000
  H   H1099     1.0  0.46569  0.52361  0.52586  1.0000
  C   C1391     1.0  0.39042  0.69871  0.54285  1.0000
  C   C1392     1.0  0.28806  0.71400  0.82248  1.0000
  H   H1100     1.0  0.37786  0.69908  0.60893  1.0000
  S   S174      1.0  0.43164  0.65231  0.35768  1.0000
  S   S175      1.0  0.14083  0.64368  0.65168  1.0000
  H   H1101     1.0  0.24453  0.61444  0.71342  1.0000
  C   C1393     1.0  0.34650  0.52475  0.59344  1.0000
  C   C1394     1.0  0.28212  0.65337  0.61217  1.0000
  C   C1395     1.0  0.05934  0.58869  0.72960  1.0000
  H   H1102     1.0  0.39028  0.53910  0.76676  1.0000
  C   C1396     1.0  0.46921  0.73446  0.35947  1.0000
  H   H1103     1.0  0.34278  0.60863  0.75612  1.0000
  C   C1397     1.0  0.30420  0.74087  0.60104  1.0000
  C   C1398     1.0  0.07312  0.65373  0.68266  1.0000
  C   C1399     1.0  0.49387  0.60645  0.70300  1.0000
  H   H1104     1.0  0.44073  0.69776  0.58005  1.0000
  H   H1105     1.0  0.12321  0.52386  0.50418  1.0000
  H   H1106     1.0  0.36021  0.71863  0.56580  1.0000
  C   C1400     1.0  0.27864  0.63798  0.58751  1.0000
  C   C1401     1.0  0.38599  0.67171  0.45587  1.0000
  H   H1107     1.0  0.17130  0.62640  0.49647  1.0000
  H   H1108     1.0  0.40138  0.56375  0.45887  1.0000
  C   C1402     1.0  0.39114  0.59893  0.73947  1.0000
  P   P47       1.0  0.06451  0.53606  0.59215  1.0000
  H   H1109     1.0  0.40084  0.60678  0.48575  1.0000
  C   C1403     1.0  0.29823  0.57826  0.53200  1.0000
  C   C1404     1.0  0.24161  0.53279  0.76434  1.0000
  S   S176      1.0  0.22783  0.71241  0.67627  1.0000
  C   C1405     1.0  0.12602  0.57598  0.43049  1.0000
  C   C1406     1.0  0.19852  0.68473  0.48891  1.0000
  C   C1407     1.0  0.05487  0.50102  0.72101  1.0000
  C   C1408     1.0  0.49150  0.55158  0.38925  1.0000
  C   C1409     1.0  0.42064  0.64930  0.69300  1.0000
  C   C1410     1.0  0.06868  0.61058  0.42984  1.0000
  H   H1110     1.0  0.21714  0.58211  0.78708  1.0000
  C   C1411     1.0  0.03451  0.70633  0.45991  1.0000
  H   H1111     1.0  0.21738  0.68874  0.53611  1.0000
  H   H1112     1.0  0.15759  0.73656  0.67398  1.0000
  C   C1412     1.0  0.30809  0.69211  0.81477  1.0000
  C   C1413     1.0  0.20999  0.62664  0.38169  1.0000
  H   H1113     1.0  0.41476  0.51281  0.50481  1.0000
  S   S177      1.0  0.49035  0.69252  0.74596  1.0000
  C   C1414     1.0  0.42547  0.71513  0.79145  1.0000
  H   H1114     1.0  0.25979  0.60255  0.58834  1.0000
  C   C1415     1.0  0.33017  0.66203  0.71819  1.0000
  C   C1416     1.0  0.30938  0.51488  0.58531  1.0000
  H   H1115     1.0  0.47657  0.57014  0.59959  1.0000
  C   C1417     1.0  0.27561  0.58989  0.35458  1.0000
  H   H1116     1.0  0.17262  0.73011  0.50905  1.0000
  H   H1117     1.0  0.20037  0.72793  0.45294  1.0000
  H   H1118     1.0  0.11618  0.66988  0.40052  1.0000
  C   C1418     1.0  0.09421  0.57132  0.61944  1.0000
  H   H1119     1.0  0.32719  0.73288  0.47161  1.0000
  S   S178      1.0  0.48435  0.65010  0.82783  1.0000
  C   C1419     1.0  0.23941  0.69744  0.42611  1.0000
  C   C1420     1.0  0.38952  0.71926  0.39795  1.0000
  H   H1120     1.0  0.19984  0.52561  0.48783  1.0000
  H   H1121     1.0  0.35772  0.57944  0.73334  1.0000
  H   H1122     1.0  0.44609  0.54639  0.38250  1.0000
  C   C1421     1.0  0.43683  0.58395  0.45195  1.0000
  C   C1422     1.0  0.42590  0.69807  0.52641  1.0000
  C   C1423     1.0  0.11064  0.72568  0.36539  1.0000
  C   C1424     1.0  0.30949  0.56149  0.59174  1.0000
  H   H1123     1.0  0.12845  0.55096  0.74869  1.0000
  H   H1124     1.0  0.48250  0.57080  0.48477  1.0000
  H   H1125     1.0  0.29262  0.63197  0.82314  1.0000
  C   C1425     1.0  0.11467  0.68546  0.39034  1.0000
  S   S179      1.0  0.16426  0.66327  0.72442  1.0000
  C   C1426     1.0  0.37969  0.63834  0.65016  1.0000
  H   H1126     1.0  0.11305  0.55856  0.43431  1.0000
  C   C1427     1.0  0.25923  0.73662  0.82867  1.0000
  H   H1127     1.0  0.11897  0.52632  0.70003  1.0000
  H   H1128     1.0  0.46526  0.60311  0.82008  1.0000
  H   H1129     1.0  0.21427  0.63920  0.58003  1.0000
  C   C1428     1.0  0.15477  0.59365  0.64730  1.0000
  H   H1130     1.0  0.26425  0.57306  0.55006  1.0000
  H   H1131     1.0  0.35761  0.54173  0.75034  1.0000
  C   C1429     1.0  0.33878  0.52281  0.45311  1.0000
  C   C1430     1.0  0.35621  0.73049  0.54576  1.0000
  H   H1132     1.0  0.22123  0.59211  0.39248  1.0000
  C   C1431     1.0  0.23090  0.64605  0.37548  1.0000
  C   C1432     1.0  0.44361  0.55638  0.40322  1.0000
  H   H1133     1.0  0.37017  0.64704  0.59143  1.0000
  H   H1134     1.0  0.06397  0.65150  0.71587  1.0000
  C   C1433     1.0  0.11953  0.73167  0.50233  1.0000
  C   C1434     1.0  0.18751  0.55214  0.63341  1.0000
  H   H1135     1.0  0.32249  0.67527  0.66002  1.0000
  C   C1435     1.0  0.06120  0.64506  0.65368  1.0000
  C   C1436     1.0  0.44717  0.51317  0.81272  1.0000
  C   C1437     1.0  0.37337  0.64274  0.41830  1.0000
  H   H1136     1.0  0.26385  0.54036  0.43334  1.0000
  C   C1438     1.0  0.24187  0.74222  0.64449  1.0000
  C   C1439     1.0  0.32857  0.52976  0.59477  1.0000
  P   P48       1.0  0.18308  0.53754  0.78277  1.0000
  H   H1137     1.0  0.23750  0.62604  0.53715  1.0000
  C   C1440     1.0  0.23051  0.66610  0.79082  1.0000
  C   C1441     1.0  0.21994  0.69267  0.41309  1.0000
  H   H1138     1.0  0.48519  0.60394  0.67811  1.0000
  C   C1442     1.0  0.04895  0.69531  0.39907  1.0000
  C   C1443     1.0  0.09733  0.69269  0.49882  1.0000
  C   C1444     1.0  0.34735  0.51922  0.41425  1.0000
  C   C1445     1.0  0.39064  0.55583  0.75893  1.0000
  H   H1139     1.0  0.03093  0.53613  0.36678  1.0000
  C   C1446     1.0  0.17873  0.56288  0.49189  1.0000
  H   H1140     1.0  0.36131  0.66400  0.51790  1.0000
  H   H1141     1.0  0.13535  0.62781  0.56439  1.0000
  C   C1447     1.0  0.37077  0.58969  0.61213  1.0000
  C   C1448     1.0  0.37580  0.56005  0.38366  1.0000
  H   H1142     1.0  0.32370  0.50866  0.47891  1.0000
  S   S180      1.0  0.17478  0.69996  0.62682  1.0000
  S   S181      1.0  0.33446  0.69505  0.51482  1.0000
  C   C1449     1.0  0.31594  0.66626  0.69583  1.0000
  H   H1143     1.0  0.25216  0.52997  0.73948  1.0000
  S   S182      1.0  0.13291  0.53862  0.60261  1.0000
  C   C1450     1.0  0.14606  0.57926  0.43998  1.0000
  H   H1144     1.0  0.45092  0.52175  0.70243  1.0000
  H   H1145     1.0  0.42210  0.57269  0.55482  1.0000
  C   C1451     1.0  0.10551  0.51605  0.52318  1.0000
  C   C1452     1.0  0.26263  0.61430  0.60787  1.0000
  C   C1453     1.0  0.05175  0.51996  0.65122  1.0000
  C   C1454     1.0  0.34126  0.62857  0.65097  1.0000
  H   H1146     1.0  0.29527  0.51819  0.58654  1.0000
  P   P49       1.0  0.32970  0.55432  0.61094  1.0000
  H   H1147     1.0  0.41008  0.69846  0.63277  1.0000
  C   C1455     1.0  0.12941  0.54499  0.68522  1.0000
  H   H1148     1.0  0.02681  0.56034  0.65300  1.0000
  H   H1149     1.0  0.45934  0.70630  0.67276  1.0000
  H   H1150     1.0  0.42732  0.62681  0.66012  1.0000
  Fe  Fe91      1.0  0.32833  0.69102  0.36266  1.0000
  C   C1456     1.0  0.43385  0.64415  0.66283  1.0000
  C   C1457     1.0  0.32076  0.52664  0.69797  1.0000
  H   H1151     1.0  0.08630  0.61282  0.66872  1.0000
  H   H1152     1.0  0.08122  0.51687  0.65804  1.0000
  C   C1458     1.0  0.26965  0.64511  0.65761  1.0000
  C   C1459     1.0  0.06946  0.59768  0.68330  1.0000
  C   C1460     1.0  0.02626  0.52000  0.56246  1.0000
  H   H1153     1.0  0.45585  0.56876  0.77714  1.0000
  C   C1461     1.0  0.38051  0.61706  0.81958  1.0000
  H   H1154     1.0  0.21386  0.74134  0.62247  1.0000
  C   C1462     1.0  0.14984  0.74915  0.55607  1.0000
  C   C1463     1.0  0.15967  0.55899  0.81529  1.0000
  C   C1464     1.0  0.37144  0.65402  0.81732  1.0000
  H   H1155     1.0  0.36815  0.66848  0.81659  1.0000
  H   H1156     1.0  0.40988  0.74177  0.47626  1.0000
  C   C1465     1.0  0.45022  0.53502  0.81421  1.0000
  H   H1157     1.0  0.38366  0.60248  0.82167  1.0000
  S   S183      1.0  0.26084  0.50887  0.54769  1.0000
  C   C1466     1.0  0.15800  0.57694  0.82823  1.0000
  S   S184      1.0  0.43952  0.64850  0.80286  1.0000
  H   H1158     1.0  0.47803  0.50633  0.64585  1.0000
  H   H1159     1.0  0.36467  0.67532  0.34213  1.0000
  H   H1160     1.0  0.37548  0.73375  0.35359  1.0000
  P   P50       1.0  0.07003  0.70325  0.34702  1.0000
  H   H1161     1.0  0.14180  0.74320  0.37985  1.0000
  H   H1162     1.0  0.33312  0.74890  0.62453  1.0000
  C   C1467     1.0  0.01047  0.52264  0.54314  1.0000
  H   H1163     1.0  0.24276  0.50275  0.34693  1.0000
  H   H1164     1.0  0.02601  0.67488  0.33581  1.0000
  H   H1165     1.0  0.04717  0.73206  0.34139  1.0000
  C   C1468     1.0  0.07451  0.54598  0.83268  1.0000
  C   C1469     1.0  0.44096  0.67927  0.13578  1.0000
  H   H1166     1.0  0.20198  0.60102  0.03632  1.0000
  C   C1470     1.0  0.31701  0.73448  0.02967  1.0000
  H   H1167     1.0  0.39774  0.66927  0.31946  1.0000
  C   C1471     1.0  0.21759  0.66172  0.98218  1.0000
  H   H1168     1.0  0.13627  0.73548  0.96761  1.0000
  C   C1472     1.0  0.39342  0.71888  0.24175  1.0000
  H   H1169     1.0  0.39214  0.73259  0.21975  1.0000
  C   C1473     1.0  0.29700  0.58145  0.90489  1.0000
  H   H1170     1.0  0.50717  0.59550  0.22446  1.0000
  H   H1171     1.0  0.29251  0.61429  0.10213  1.0000
  S   S185      1.0  0.19850  0.61099  0.18483  1.0000
  H   H1172     1.0  0.44320  0.66556  0.03988  1.0000
  H   H1173     1.0  0.23445  0.59599  0.18425  1.0000
  C   C1474     1.0  0.33082  0.55136  0.29204  1.0000
  C   C1475     1.0  0.22004  0.53470  0.21566  1.0000
  H   H1174     1.0  0.46214  0.55277  0.16873  1.0000
  S   S186      1.0  0.23880  0.71829  0.07275  1.0000
  H   H1175     1.0  0.29304  0.73992  0.28050  1.0000
  H   H1176     1.0  0.05437  0.65850  0.85696  1.0000
  C   C1476     1.0  0.44482  0.66882  0.10434  1.0000
  H   H1177     1.0  0.49581  0.69182  0.02238  1.0000
  H   H1178     1.0  0.22439  0.69048  0.87578  1.0000
  H   H1179     1.0  0.27591  0.68344  0.13935  1.0000
  Fe  Fe92      1.0  0.16985  0.59542  0.15737  1.0000
  C   C1477     1.0  0.20814  0.60782  0.00024  1.0000
  C   C1478     1.0  0.41637  0.67092  0.94345  1.0000
  C   C1479     1.0  0.07053  0.66552  0.26223  1.0000
  C   C1480     1.0  0.50910  0.68985  0.29567  1.0000
  C   C1481     1.0  0.06190  0.62204  0.05956  1.0000
  H   H1180     1.0  0.18958  0.61611  0.91026  1.0000
  C   C1482     1.0  0.38749  0.55507  0.99314  1.0000
  H   H1181     1.0  0.39249  0.64960  0.05671  1.0000
  H   H1182     1.0  0.24576  0.73417  0.33181  1.0000
  H   H1183     1.0  0.44713  0.54032  0.30992  1.0000
  H   H1184     1.0  0.22579  0.52962  0.24322  1.0000
  C   C1483     1.0  0.38869  0.62975  0.96831  1.0000
  C   C1484     1.0  0.04280  0.50920  0.05142  1.0000
  H   H1185     1.0  0.15381  0.67309  0.17600  1.0000
  C   C1485     1.0  0.06055  0.50938  0.06750  1.0000
  H   H1186     1.0  0.02757  0.55442  0.11259  1.0000
  C   C1486     1.0  0.21973  0.67823  0.17584  1.0000
  H   H1187     1.0  0.22070  0.53016  0.11204  1.0000
  C   C1487     1.0  0.17297  0.67742  0.06782  1.0000
  H   H1188     1.0  0.32693  0.71018  0.01255  1.0000
  C   C1488     1.0  0.50952  0.60262  0.25150  1.0000
  H   H1189     1.0  0.42477  0.57336  0.84383  1.0000
  C   C1489     1.0  0.03751  0.62417  0.96556  1.0000
  H   H1190     1.0  0.26619  0.56468  0.23469  1.0000
  H   H1191     1.0  0.37706  0.60070  0.11006  1.0000
  C   C1490     1.0  0.49560  0.72362  0.12303  1.0000
  H   H1192     1.0  0.45988  0.62657  0.99867  1.0000
  H   H1193     1.0  0.45091  0.58337  0.16039  1.0000
  H   H1194     1.0  0.37123  0.61363  0.03863  1.0000
  C   C1491     1.0  0.04780  0.65399  0.26373  1.0000
  H   H1195     1.0  0.39002  0.50564  0.09096  1.0000
  H   H1196     1.0  0.35195  0.57092  0.32672  1.0000
  C   C1492     1.0  0.39477  0.70134  0.85973  1.0000
  H   H1197     1.0  0.01101  0.57544  0.07263  1.0000
  H   H1198     1.0  0.48916  0.56922  0.30280  1.0000
  H   H1199     1.0  0.49760  0.71429  0.15234  1.0000
  C   C1493     1.0  0.04189  0.55439  0.87920  1.0000
  C   C1494     1.0  0.12338  0.67825  0.99347  1.0000
  C   C1495     1.0  0.50628  0.50485  0.90255  1.0000
  C   C1496     1.0  0.19300  0.60710  0.97588  1.0000
  H   H1200     1.0  0.38207  0.64090  0.22382  1.0000
  H   H1201     1.0  0.38506  0.67686  0.17382  1.0000
  C   C1497     1.0  0.05375  0.58102  0.20235  1.0000
  S   S187      1.0  0.46792  0.68670  0.84924  1.0000
  C   C1498     1.0  0.50867  0.58267  0.92525  1.0000
  H   H1202     1.0  0.05385  0.69644  0.10534  1.0000
  C   C1499     1.0  0.10541  0.63567  0.28136  1.0000
  H   H1203     1.0  0.05276  0.52146  0.23209  1.0000
  H   H1204     1.0  0.38295  0.54190  0.02457  1.0000
  C   C1500     1.0  0.42850  0.70034  0.08599  1.0000
  C   C1501     1.0  0.33464  0.67249  0.16601  1.0000
  H   H1205     1.0  0.37308  0.56204  0.89745  1.0000
  S   S188      1.0  0.16638  0.56931  0.12195  1.0000
  H   H1206     1.0  0.20441  0.64799  0.01186  1.0000
  H   H1207     1.0  0.27381  0.70086  0.94664  1.0000
  H   H1208     1.0  0.01309  0.58600  0.26178  1.0000
  H   H1209     1.0  0.09265  0.56784  0.04686  1.0000
  C   C1502     1.0  0.24963  0.71761  0.23793  1.0000
  H   H1210     1.0  0.33187  0.65998  0.25864  1.0000
  H   H1211     1.0  0.18300  0.72383  0.84800  1.0000
  C   C1503     1.0  0.50651  0.52200  0.86882  1.0000
  C   C1504     1.0  0.20600  0.54796  0.14327  1.0000
  C   C1505     1.0  0.28747  0.69769  0.10890  1.0000
  C   C1506     1.0  0.08582  0.62290  0.31849  1.0000
  C   C1507     1.0  0.39567  0.61430  0.15365  1.0000
  C   C1508     1.0  0.05199  0.60830  0.91425  1.0000
  S   S189      1.0  0.35428  0.52004  0.97760  1.0000
  H   H1212     1.0  0.12107  0.72765  0.11528  1.0000
  H   H1213     1.0  0.02922  0.55719  0.89823  1.0000
  C   C1509     1.0  0.36296  0.62753  0.17995  1.0000
  H   H1214     1.0  0.35189  0.53154  0.09182  1.0000
  C   C1510     1.0  0.30324  0.56467  0.89955  1.0000
  H   H1215     1.0  0.26163  0.50757  0.20924  1.0000
  H   H1216     1.0  0.10899  0.73637  0.26847  1.0000
  C   C1511     1.0  0.21225  0.66756  0.94309  1.0000
  C   C1512     1.0  0.04046  0.65493  0.01879  1.0000
  H   H1217     1.0  0.05635  0.59522  0.90858  1.0000
  H   H1218     1.0  0.28504  0.58366  0.88934  1.0000
  P   P51       1.0  0.02893  0.62458  0.02192  1.0000
  C   C1513     1.0  0.05310  0.66401  0.13391  1.0000
  S   S190      1.0  0.10041  0.60560  0.17145  1.0000
  H   H1219     1.0  0.06427  0.62843  0.84420  1.0000
  Fe  Fe93      1.0  0.15461  0.58849  0.07616  1.0000
  C   C1514     1.0  0.13290  0.71878  0.96356  1.0000
  H   H1220     1.0  0.17470  0.57204  0.90878  1.0000
  H   H1221     1.0  0.14805  0.53325  0.96496  1.0000
  C   C1515     1.0  0.16616  0.53965  0.95669  1.0000
  H   H1222     1.0  0.05565  0.55048  0.93365  1.0000
  C   C1516     1.0  0.18121  0.56140  0.92435  1.0000
  Fe  Fe94      1.0  0.21834  0.72782  0.11916  1.0000
  C   C1517     1.0  0.19930  0.63619  0.19329  1.0000
  H   H1223     1.0  0.37956  0.61388  0.96079  1.0000
  C   C1518     1.0  0.04121  0.64244  0.92871  1.0000
  H   H1224     1.0  0.36891  0.73138  0.13351  1.0000
  C   C1519     1.0  0.07391  0.74868  0.05638  1.0000
  C   C1520     1.0  0.15324  0.57112  0.31115  1.0000
  H   H1225     1.0  0.16486  0.51042  0.32635  1.0000
  C   C1521     1.0  0.23342  0.53639  0.01046  1.0000
  C   C1522     1.0  0.09790  0.74377  0.27387  1.0000
  C   C1523     1.0  0.17686  0.55681  0.27687  1.0000
  C   C1524     1.0  0.21292  0.50214  0.96082  1.0000
  C   C1525     1.0  0.27949  0.58080  0.20929  1.0000
  C   C1526     1.0  0.29303  0.69664  0.84128  1.0000
  H   H1226     1.0  0.23239  0.70333  0.24764  1.0000
  C   C1527     1.0  0.37936  0.72756  0.99190  1.0000
  H   H1227     1.0  0.12004  0.65930  0.94648  1.0000
  C   C1528     1.0  0.39632  0.64988  0.02241  1.0000
  C   C1529     1.0  0.02774  0.58533  0.07545  1.0000
  H   H1228     1.0  0.27643  0.72150  0.12457  1.0000
  C   C1530     1.0  0.12136  0.50338  0.07532  1.0000
  C   C1531     1.0  0.45029  0.57420  0.19303  1.0000
  C   C1532     1.0  0.25142  0.69820  0.90592  1.0000
  Fe  Fe95      1.0  0.33185  0.50895  0.93442  1.0000
  C   C1533     1.0  0.10412  0.59970  0.27641  1.0000
  C   C1534     1.0  0.28417  0.73840  0.25576  1.0000
  H   H1229     1.0  0.05731  0.63400  0.15652  1.0000
  C   C1535     1.0  0.37176  0.57001  0.26782  1.0000
  H   H1230     1.0  0.43864  0.54766  0.11806  1.0000
  H   H1231     1.0  0.22335  0.56277  0.01313  1.0000
  C   C1536     1.0  0.37538  0.71112  0.03183  1.0000
  C   C1537     1.0  0.20116  0.61637  0.92916  1.0000
  C   C1538     1.0  0.24895  0.52898  0.01937  1.0000
  H   H1232     1.0  0.25503  0.61983  0.31260  1.0000
  C   C1539     1.0  0.39141  0.72028  0.84297  1.0000
  C   C1540     1.0  0.47504  0.58487  0.99297  1.0000
  C   C1541     1.0  0.42153  0.54475  0.12977  1.0000
  C   C1542     1.0  0.23465  0.50673  0.93817  1.0000
  C   C1543     1.0  0.47168  0.58731  0.87803  1.0000
  H   H1233     1.0  0.42294  0.71315  0.07895  1.0000
  C   C1544     1.0  0.48227  0.73431  0.12896  1.0000
  Fe  Fe96      1.0  0.43429  0.61790  0.27535  1.0000
  C   C1545     1.0  0.46841  0.70762  0.94105  1.0000
  C   C1546     1.0  0.37787  0.68654  0.31071  1.0000
  C   C1547     1.0  0.21955  0.65743  0.17441  1.0000
  C   C1548     1.0  0.37290  0.68201  0.16613  1.0000
  Fe  Fe97      1.0  0.32662  0.63891  0.96958  1.0000
  C   C1549     1.0  0.22664  0.58490  0.25651  1.0000
  H   H1234     1.0  0.42821  0.68692  0.91616  1.0000
  H   H1235     1.0  0.41065  0.62918  0.20020  1.0000
  H   H1236     1.0  0.03722  0.65590  0.93358  1.0000
  S   S191      1.0  0.46143  0.65422  0.26368  1.0000
  H   H1237     1.0  0.16400  0.61898  0.23198  1.0000
  C   C1550     1.0  0.33024  0.54308  0.25567  1.0000
  C   C1551     1.0  0.12153  0.51246  0.11060  1.0000
  H   H1238     1.0  0.43843  0.53551  0.03258  1.0000
  Fe  Fe98      1.0  0.34183  0.68970  0.92212  1.0000
  P   P52       1.0  0.47888  0.56885  0.95656  1.0000
  H   H1239     1.0  0.42610  0.73034  0.92814  1.0000
  C   C1552     1.0  0.21734  0.53504  0.14145  1.0000
  C   C1553     1.0  0.49264  0.64336  0.14071  1.0000
  C   C1554     1.0  0.49029  0.72295  0.91123  1.0000
  C   C1555     1.0  0.44298  0.57960  0.23038  1.0000
  C   C1556     1.0  0.03180  0.65716  0.29085  1.0000
  C   C1557     1.0  0.31586  0.61628  0.18723  1.0000
  P   P53       1.0  0.34102  0.63454  0.19961  1.0000
  S   S192      1.0  0.29166  0.63085  0.00368  1.0000
  H   H1240     1.0  0.19602  0.70356  0.90072  1.0000
  C   C1558     1.0  0.13633  0.53757  0.28674  1.0000
  H   H1241     1.0  0.16250  0.50953  0.00400  1.0000
  C   C1559     1.0  0.02667  0.66292  0.03918  1.0000
  C   C1560     1.0  0.46774  0.60118  0.98074  1.0000
  C   C1561     1.0  0.31844  0.56170  0.92042  1.0000
  H   H1242     1.0  0.09472  0.71733  0.06255  1.0000
  C   C1562     1.0  0.25067  0.61431  0.28471  1.0000
  H   H1243     1.0  0.27087  0.52230  0.27172  1.0000
  C   C1563     1.0  0.17448  0.57273  0.29652  1.0000
  S   S193      1.0  0.36973  0.72378  0.87273  1.0000
  H   H1244     1.0  0.33934  0.57300  0.96206  1.0000
  H   H1245     1.0  0.32358  0.54912  0.91608  1.0000
  C   C1564     1.0  0.35156  0.56476  0.29819  1.0000
  H   H1246     1.0  0.16485  0.65578  0.23722  1.0000
  H   H1247     1.0  0.40541  0.60218  0.87921  1.0000
  H   H1248     1.0  0.49821  0.53676  0.95811  1.0000
  H   H1249     1.0  0.28002  0.59756  0.31881  1.0000
  H   H1250     1.0  0.48679  0.62613  0.20976  1.0000
  P   P54       1.0  0.34945  0.53389  0.18279  1.0000
  C   C1565     1.0  0.23372  0.53926  0.83515  1.0000
  C   C1566     1.0  0.33502  0.54914  0.06570  1.0000
  C   C1567     1.0  0.41262  0.72555  0.95799  1.0000
  H   H1251     1.0  0.02904  0.53076  0.02376  1.0000
  C   C1568     1.0  0.13289  0.71626  0.92150  1.0000
  H   H1252     1.0  0.32842  0.74865  0.99909  1.0000
  H   H1253     1.0  0.11977  0.66340  0.02105  1.0000
  C   C1569     1.0  0.04279  0.53036  0.03520  1.0000
  H   H1254     1.0  0.18277  0.52543  0.06888  1.0000
  C   C1570     1.0  0.07842  0.53044  0.06585  1.0000
  C   C1571     1.0  0.41245  0.71607  0.22994  1.0000
  C   C1572     1.0  0.06114  0.68311  0.31606  1.0000
  H   H1255     1.0  0.42595  0.72772  0.19904  1.0000
  C   C1573     1.0  0.12866  0.69991  0.99962  1.0000
  C   C1574     1.0  0.22432  0.62629  0.90681  1.0000
  H   H1256     1.0  0.33754  0.59746  0.27238  1.0000
  H   H1257     1.0  0.34857  0.61260  0.13198  1.0000
  C   C1575     1.0  0.41283  0.67057  0.98800  1.0000
  C   C1576     1.0  0.09974  0.68791  0.08786  1.0000
  C   C1577     1.0  0.38430  0.62954  0.01250  1.0000
  C   C1578     1.0  0.44183  0.56738  0.27268  1.0000
  C   C1579     1.0  0.20035  0.53452  0.31544  1.0000
  C   C1580     1.0  0.11438  0.62402  0.26012  1.0000
  S   S194      1.0  0.32778  0.65765  0.90221  1.0000
  H   H1258     1.0  0.16365  0.69150  0.01369  1.0000
  H   H1259     1.0  0.49984  0.71628  0.89362  1.0000
  H   H1260     1.0  0.33734  0.54548  0.03441  1.0000
  C   C1581     1.0  0.37335  0.62083  0.85924  1.0000
  H   H1261     1.0  0.13069  0.68812  0.14471  1.0000
  C   C1582     1.0  0.43186  0.68953  0.05464  1.0000
  H   H1262     1.0  0.40847  0.50587  0.30726  1.0000
  H   H1263     1.0  0.23479  0.65800  0.15636  1.0000
  H   H1264     1.0  0.21216  0.63445  0.27214  1.0000
  C   C1583     1.0  0.07864  0.55149  0.04849  1.0000
  H   H1265     1.0  0.40820  0.54045  0.91445  1.0000
  H   H1266     1.0  0.45119  0.65667  0.11165  1.0000
  C   C1584     1.0  0.22458  0.52865  0.17737  1.0000
  H   H1267     1.0  0.50299  0.56450  0.87671  1.0000
  Fe  Fe99      1.0  0.45197  0.64789  0.86282  1.0000
  C   C1585     1.0  0.31363  0.62285  0.14459  1.0000
  C   C1586     1.0  0.47318  0.50437  0.00830  1.0000
  H   H1268     1.0  0.50838  0.66318  0.22455  1.0000
  C   C1587     1.0  0.23897  0.60053  0.21274  1.0000
  C   C1588     1.0  0.21876  0.53806  0.33182  1.0000
  H   H1269     1.0  0.12610  0.51472  0.04166  1.0000
  S   S195      1.0  0.21602  0.71572  0.96848  1.0000
  C   C1589     1.0  0.05651  0.62705  0.87797  1.0000
  C   C1590     1.0  0.45560  0.71642  0.96180  1.0000
  S   S196      1.0  0.34407  0.67139  0.98649  1.0000
  C   C1591     1.0  0.50376  0.73821  0.04273  1.0000
  C   C1592     1.0  0.25938  0.73400  0.19513  1.0000
  C   C1593     1.0  0.15511  0.67617  0.14102  1.0000
  C   C1594     1.0  0.06373  0.68753  0.10788  1.0000
  C   C1595     1.0  0.50668  0.66358  0.19157  1.0000
  C   C1596     1.0  0.36890  0.63931  0.85816  1.0000
  H   H1270     1.0  0.19324  0.56467  0.18190  1.0000
  C   C1597     1.0  0.06294  0.67124  0.99222  1.0000
  C   C1598     1.0  0.02874  0.58491  0.31377  1.0000
  H   H1271     1.0  0.31696  0.65995  0.17286  1.0000
  H   H1272     1.0  0.30097  0.60787  0.93575  1.0000
  H   H1273     1.0  0.02418  0.69307  0.04648  1.0000
  P   P55       1.0  0.27275  0.72320  0.85842  1.0000
  H   H1274     1.0  0.23835  0.54176  0.86486  1.0000
  C   C1599     1.0  0.37576  0.54928  0.96239  1.0000
  C   C1600     1.0  0.03717  0.57331  0.09760  1.0000
  H   H1275     1.0  0.12166  0.52429  0.28180  1.0000
  C   C1601     1.0  0.19792  0.53493  0.96916  1.0000
  S   S197      1.0  0.43736  0.69439  0.24095  1.0000
  H   H1276     1.0  0.27708  0.64674  0.23494  1.0000
  C   C1602     1.0  0.03848  0.67191  0.31640  1.0000
  Fe  Fe100     1.0  0.30896  0.66487  0.01590  1.0000
  C   C1603     1.0  0.41199  0.69892  0.83402  1.0000
  H   H1277     1.0  0.06092  0.56776  0.02020  1.0000
  C   C1604     1.0  0.07767  0.73158  0.30982  1.0000
  C   C1605     1.0  0.03310  0.56014  0.21494  1.0000
  H   H1278     1.0  0.38784  0.58025  0.27279  1.0000
  C   C1606     1.0  0.50156  0.59726  0.33099  1.0000
  C   C1607     1.0  0.43267  0.69487  0.12673  1.0000
  C   C1608     1.0  0.29867  0.59507  0.21944  1.0000
  S   S198      1.0  0.40591  0.62573  0.29342  1.0000
  C   C1609     1.0  0.30131  0.69435  0.07675  1.0000
  C   C1610     1.0  0.23988  0.67355  0.98296  1.0000
  H   H1279     1.0  0.01755  0.56067  0.21576  1.0000
  C   C1611     1.0  0.27733  0.58761  0.16692  1.0000
  C   C1612     1.0  0.22909  0.68571  0.90504  1.0000
  Fe  Fe101     1.0  0.12526  0.59311  0.15258  1.0000
  S   S199      1.0  0.01527  0.74075  0.03385  1.0000
  P   P56       1.0  0.20870  0.51785  0.99755  1.0000
  H   H1280     1.0  0.05415  0.59764  0.19289  1.0000
  H   H1281     1.0  0.12891  0.69327  0.88233  1.0000
  C   C1613     1.0  0.07405  0.58029  0.19794  1.0000
  H   H1282     1.0  0.03930  0.59219  0.98542  1.0000
  H   H1283     1.0  0.47397  0.73279  0.16247  1.0000
  H   H1284     1.0  0.46141  0.68899  0.94718  1.0000
  H   H1285     1.0  0.17166  0.50210  0.86906  1.0000
  C   C1614     1.0  0.41385  0.55700  0.10274  1.0000
  C   C1615     1.0  0.20458  0.56957  0.91305  1.0000
  H   H1286     1.0  0.13686  0.73104  0.89336  1.0000
  H   H1287     1.0  0.40783  0.65037  0.89966  1.0000
  C   C1616     1.0  0.39662  0.68325  0.29814  1.0000
  H   H1288     1.0  0.26623  0.63473  0.17116  1.0000
  C   C1617     1.0  0.49902  0.58788  0.29597  1.0000
  C   C1618     1.0  0.17041  0.67233  0.11346  1.0000
  C   C1619     1.0  0.05092  0.64399  0.88518  1.0000
  H   H1289     1.0  0.19491  0.65831  0.94278  1.0000
  H   H1290     1.0  0.38730  0.56566  0.20929  1.0000
  H   H1291     1.0  0.48367  0.62705  0.13451  1.0000
  C   C1620     1.0  0.05682  0.55044  0.89963  1.0000
  C   C1621     1.0  0.34137  0.69631  0.15113  1.0000
  Fe  Fe102     1.0  0.43317  0.66143  0.28558  1.0000
  C   C1622     1.0  0.41179  0.59480  0.94221  1.0000
  H   H1292     1.0  0.48658  0.56972  0.04235  1.0000
  C   C1623     1.0  0.37959  0.70582  0.15106  1.0000
  H   H1293     1.0  0.38632  0.68864  0.06567  1.0000
  C   C1624     1.0  0.08893  0.66421  0.11399  1.0000
  H   H1294     1.0  0.48916  0.60109  0.86787  1.0000
  Fe  Fe103     1.0  0.30192  0.51909  0.88585  1.0000
  H   H1295     1.0  0.43134  0.53749  0.96225  1.0000
  H   H1296     1.0  0.18068  0.66589  0.12711  1.0000
  H   H1297     1.0  0.23555  0.55278  0.31380  1.0000
  H   H1298     1.0  0.09831  0.65473  0.11605  1.0000
  C   C1625     1.0  0.44020  0.67383  0.06396  1.0000
  C   C1626     1.0  0.38079  0.63229  0.19866  1.0000
  H   H1299     1.0  0.09500  0.68937  0.28577  1.0000
  C   C1627     1.0  0.08458  0.58685  0.31336  1.0000
  C   C1628     1.0  0.06080  0.55144  0.03330  1.0000
  H   H1300     1.0  0.29989  0.58952  0.25252  1.0000
  H   H1301     1.0  0.17607  0.61030  0.83692  1.0000
  C   C1629     1.0  0.04326  0.55435  0.83510  1.0000
  H   H1302     1.0  0.37116  0.60936  0.89102  1.0000
  H   H1303     1.0  0.31394  0.53220  0.25217  1.0000
  Fe  Fe104     1.0  0.29345  0.65151  0.93734  1.0000
  C   C1630     1.0  0.38203  0.56638  0.92138  1.0000
  H   H1304     1.0  0.06656  0.57617  0.11635  1.0000
  H   H1305     1.0  0.08487  0.54349  0.89204  1.0000
  C   C1631     1.0  0.28771  0.71917  0.10053  1.0000
  C   C1632     1.0  0.07115  0.69511  0.98481  1.0000
  C   C1633     1.0  0.29436  0.60865  0.13469  1.0000
  C   C1634     1.0  0.43937  0.55174  0.93112  1.0000
  C   C1635     1.0  0.31620  0.71277  0.03734  1.0000
  H   H1306     1.0  0.17062  0.74284  0.99349  1.0000
  C   C1636     1.0  0.26975  0.56395  0.03748  1.0000
  C   C1637     1.0  0.02075  0.71509  0.26142  1.0000
  S   S200      1.0  0.30758  0.68533  0.95232  1.0000
  H   H1307     1.0  0.24889  0.66876  0.26158  1.0000
  H   H1308     1.0  0.04261  0.64306  0.24304  1.0000
  C   C1638     1.0  0.44826  0.52697  0.02531  1.0000
  H   H1309     1.0  0.23519  0.69468  0.15955  1.0000
  S   S201      1.0  0.50154  0.55813  0.11696  1.0000
  C   C1639     1.0  0.40517  0.57779  0.98335  1.0000
  H   H1310     1.0  0.03852  0.72883  0.09305  1.0000
  S   S202      1.0  0.33402  0.60963  0.98248  1.0000
  C   C1640     1.0  0.40028  0.58910  0.91107  1.0000
  H   H1311     1.0  0.44445  0.67535  0.16722  1.0000
  C   C1641     1.0  0.29322  0.74334  0.87846  1.0000
  H   H1312     1.0  0.24309  0.61852  0.99659  1.0000
  H   H1313     1.0  0.08299  0.66353  0.24016  1.0000
  C   C1642     1.0  0.13409  0.55330  0.30693  1.0000
  H   H1314     1.0  0.08821  0.61930  0.08424  1.0000
  C   C1643     1.0  0.01035  0.57818  0.29688  1.0000
  C   C1644     1.0  0.32366  0.56157  0.07329  1.0000
  C   C1645     1.0  0.21295  0.55636  0.93528  1.0000
  H   H1315     1.0  0.41396  0.58215  0.00747  1.0000
  C   C1646     1.0  0.18949  0.73130  0.87247  1.0000
  C   C1647     1.0  0.19695  0.71989  0.90212  1.0000
  C   C1648     1.0  0.23945  0.62697  0.93105  1.0000
  C   C1649     1.0  0.23810  0.65698  0.29504  1.0000
  H   H1316     1.0  0.38408  0.68858  0.89236  1.0000
  H   H1317     1.0  0.20090  0.55345  0.11492  1.0000
  C   C1650     1.0  0.32737  0.57526  0.94658  1.0000
  H   H1318     1.0  0.40818  0.60899  0.14411  1.0000
  Fe  Fe105     1.0  0.49732  0.53936  0.18738  1.0000
  H   H1319     1.0  0.32663  0.63909  0.11897  1.0000
  Fe  Fe106     1.0  0.13025  0.54902  0.16567  1.0000
  H   H1320     1.0  0.25481  0.58637  0.03712  1.0000
  C   C1651     1.0  0.19979  0.67777  0.19691  1.0000
  S   S203      1.0  0.11797  0.56643  0.11745  1.0000
  H   H1321     1.0  0.21628  0.58635  0.88774  1.0000
  H   H1322     1.0  0.49280  0.68745  0.29338  1.0000
  C   C1652     1.0  0.48667  0.51814  0.85788  1.0000
  C   C1653     1.0  0.17963  0.63547  0.21686  1.0000
  C   C1654     1.0  0.15765  0.53952  0.27120  1.0000
  C   C1655     1.0  0.30245  0.73753  0.06092  1.0000
  C   C1656     1.0  0.14213  0.68479  0.12311  1.0000
  H   H1323     1.0  0.37445  0.51330  0.22080  1.0000
  C   C1657     1.0  0.37717  0.53724  0.16029  1.0000
  C   C1658     1.0  0.45820  0.58867  0.85090  1.0000
  H   H1324     1.0  0.25426  0.70751  0.30176  1.0000
  H   H1325     1.0  0.26092  0.67613  0.32752  1.0000
  C   C1659     1.0  0.26309  0.62951  0.24101  1.0000
  C   C1660     1.0  0.25441  0.50756  0.27717  1.0000
  S   S204      1.0  0.16109  0.61654  0.10786  1.0000
  C   C1661     1.0  0.05912  0.58556  0.09987  1.0000
  C   C1662     1.0  0.39022  0.70211  0.03514  1.0000
  C   C1663     1.0  0.20156  0.55416  0.18133  1.0000
  C   C1664     1.0  0.07319  0.54636  0.87632  1.0000
  H   H1326     1.0  0.06344  0.72142  0.99721  1.0000
  C   C1665     1.0  0.32145  0.59222  0.95144  1.0000
  H   H1327     1.0  0.32653  0.56259  0.17695  1.0000
  C   C1666     1.0  0.12341  0.67583  0.95135  1.0000
  C   C1667     1.0  0.40453  0.65044  0.93380  1.0000
  C   C1668     1.0  0.06336  0.74137  0.31531  1.0000
  H   H1328     1.0  0.26229  0.57690  0.15919  1.0000
  C   C1669     1.0  0.14385  0.73261  0.05311  1.0000
  P   P57       1.0  0.12903  0.70271  0.05407  1.0000
  C   C1670     1.0  0.39700  0.62565  0.18552  1.0000
  H   H1329     1.0  0.33574  0.74796  0.24451  1.0000
  H   H1330     1.0  0.07390  0.66563  0.97579  1.0000
  H   H1331     1.0  0.24685  0.51235  0.01699  1.0000
  C   C1671     1.0  0.46906  0.53913  0.99075  1.0000
  C   C1672     1.0  0.30611  0.59522  0.93096  1.0000
  C   C1673     1.0  0.33520  0.60979  0.28654  1.0000
  C   C1674     1.0  0.48046  0.58187  0.03303  1.0000
  H   H1332     1.0  0.01429  0.64864  0.29100  1.0000
  H   H1333     1.0  0.24969  0.51972  0.94230  1.0000
  H   H1334     1.0  0.42990  0.70301  0.15122  1.0000
  S   S205      1.0  0.43538  0.60162  0.22127  1.0000
  C   C1675     1.0  0.41389  0.69807  0.25784  1.0000
  C   C1676     1.0  0.05090  0.74111  0.06181  1.0000
  S   S206      1.0  0.29944  0.66697  0.08446  1.0000
  C   C1677     1.0  0.34327  0.54128  0.09844  1.0000
  S   S207      1.0  0.46488  0.52380  0.24388  1.0000
  H   H1335     1.0  0.28414  0.57506  0.04648  1.0000
  H   H1336     1.0  0.38684  0.56426  0.09750  1.0000
  C   C1678     1.0  0.14446  0.68975  0.07731  1.0000
  H   H1337     1.0  0.31710  0.56738  0.04801  1.0000
  H   H1338     1.0  0.04545  0.59778  0.29100  1.0000
  C   C1679     1.0  0.36382  0.71297  0.14389  1.0000
  S   S208      1.0  0.26799  0.63860  0.90072  1.0000
  C   C1680     1.0  0.06567  0.65234  0.13698  1.0000
  H   H1339     1.0  0.31231  0.57649  0.11860  1.0000
  S   S209      1.0  0.43436  0.62272  0.93299  1.0000
  S   S210      1.0  0.11547  0.51013  0.19780  1.0000
  C   C1681     1.0  0.20593  0.72977  0.93302  1.0000
  S   S211      1.0  0.20351  0.73881  0.06754  1.0000
  C   C1682     1.0  0.07348  0.55875  0.21029  1.0000
  C   C1683     1.0  0.12834  0.69489  0.91528  1.0000
  C   C1684     1.0  0.39194  0.55369  0.11825  1.0000
  C   C1685     1.0  0.32085  0.56651  0.11329  1.0000
  C   C1686     1.0  0.46237  0.56877  0.91852  1.0000
  C   C1687     1.0  0.35048  0.54778  0.22552  1.0000
  C   C1688     1.0  0.33541  0.62924  0.25918  1.0000
  H   H1340     1.0  0.08900  0.55805  0.20754  1.0000
  H   H1341     1.0  0.12883  0.63363  0.23000  1.0000
  C   C1689     1.0  0.33181  0.64475  0.27852  1.0000
  C   C1690     1.0  0.42603  0.55327  0.90392  1.0000
  H   H1342     1.0  0.24970  0.73216  0.17182  1.0000
  C   C1691     1.0  0.45586  0.54482  0.23960  1.0000
  H   H1343     1.0  0.28590  0.68716  0.87677  1.0000
  H   H1344     1.0  0.48352  0.59313  0.09073  1.0000
  S   S212      1.0  0.33863  0.52865  0.86302  1.0000
  C   C1692     1.0  0.43536  0.57181  0.86405  1.0000
  H   H1345     1.0  0.11077  0.59078  0.25889  1.0000
  C   C1693     1.0  0.45688  0.55703  0.19761  1.0000
  C   C1694     1.0  0.23235  0.59224  0.29248  1.0000
  C   C1695     1.0  0.37812  0.60963  0.13462  1.0000
  H   H1346     1.0  0.32903  0.70177  0.14581  1.0000
  H   H1347     1.0  0.46968  0.62123  0.06947  1.0000
  H   H1348     1.0  0.03203  0.71439  0.23416  1.0000
  H   H1349     1.0  0.09225  0.53044  0.07754  1.0000
  H   H1350     1.0  0.23371  0.51902  0.17533  1.0000
  H   H1351     1.0  0.23114  0.56307  0.92654  1.0000
  H   H1352     1.0  0.36353  0.64222  0.88907  1.0000
  C   C1696     1.0  0.32900  0.55857  0.14628  1.0000
  S   S213      1.0  0.19844  0.70377  0.19034  1.0000
  C   C1697     1.0  0.07722  0.68009  0.28822  1.0000
  C   C1698     1.0  0.04007  0.60978  0.05595  1.0000
  H   H1353     1.0  0.46375  0.60411  0.94972  1.0000
  C   C1699     1.0  0.44803  0.54978  0.27733  1.0000
  C   C1700     1.0  0.25707  0.62271  0.20509  1.0000
  C   C1701     1.0  0.17444  0.52637  0.97898  1.0000
  H   H1354     1.0  0.11340  0.65456  0.26828  1.0000
  S   S214      1.0  0.35237  0.70801  0.29297  1.0000
  C   C1702     1.0  0.34017  0.54571  0.13928  1.0000
  H   H1355     1.0  0.18527  0.67499  0.04629  1.0000
  S   S215      1.0  0.29199  0.54674  0.86806  1.0000
  C   C1703     1.0  0.25676  0.69165  0.94498  1.0000
  H   H1356     1.0  0.41444  0.68422  0.84645  1.0000
  C   C1704     1.0  0.47875  0.59511  0.06036  1.0000
  H   H1357     1.0  0.42509  0.56946  0.07013  1.0000
  H   H1358     1.0  0.15900  0.52721  0.25561  1.0000
  H   H1359     1.0  0.03504  0.65482  0.15111  1.0000
  C   C1705     1.0  0.21735  0.63767  0.30102  1.0000
  C   C1706     1.0  0.18008  0.65624  0.21973  1.0000
  H   H1360     1.0  0.23053  0.63346  0.87072  1.0000
  C   C1707     1.0  0.05711  0.70290  0.00398  1.0000
  S   S216      1.0  0.13458  0.57396  0.20422  1.0000
  C   C1708     1.0  0.23566  0.55713  0.01744  1.0000
  C   C1709     1.0  0.38516  0.52526  0.18749  1.0000
  H   H1361     1.0  0.41369  0.52058  0.19420  1.0000
  C   C1710     1.0  0.16036  0.68648  0.04957  1.0000
  C   C1711     1.0  0.39786  0.73462  0.95495  1.0000
  H   H1362     1.0  0.27993  0.53781  0.03631  1.0000
  C   C1712     1.0  0.47120  0.61112  0.04819  1.0000
  C   C1713     1.0  0.48172  0.52776  0.98312  1.0000
  C   C1714     1.0  0.08688  0.69935  0.08419  1.0000
  H   H1363     1.0  0.12678  0.53076  0.10369  1.0000
  C   C1715     1.0  0.47951  0.74678  0.09195  1.0000
  C   C1716     1.0  0.43963  0.50345  0.04968  1.0000
  C   C1717     1.0  0.49466  0.64277  0.18322  1.0000
  H   H1364     1.0  0.43601  0.57134  0.30175  1.0000
  C   C1718     1.0  0.32924  0.50292  0.20819  1.0000
  H   H1365     1.0  0.39683  0.71874  0.14655  1.0000
  C   C1719     1.0  0.46569  0.61414  0.00841  1.0000
  C   C1720     1.0  0.26203  0.71984  0.26815  1.0000
  C   C1721     1.0  0.37130  0.56159  0.23166  1.0000
  C   C1722     1.0  0.02338  0.73660  0.26379  1.0000
  H   H1366     1.0  0.24402  0.66893  0.01325  1.0000
  C   C1723     1.0  0.36191  0.61635  0.14740  1.0000
  C   C1724     1.0  0.03497  0.68686  0.03151  1.0000
  C   C1725     1.0  0.32829  0.64091  0.32430  1.0000
  H   H1367     1.0  0.08826  0.70773  0.96345  1.0000
  C   C1726     1.0  0.23141  0.61785  0.97779  1.0000
  P   P58       1.0  0.42753  0.69687  0.00105  1.0000
  C   C1727     1.0  0.04241  0.60675  0.95787  1.0000
  Fe  Fe107     1.0  0.22636  0.73219  0.02011  1.0000
  H   H1368     1.0  0.07179  0.64084  0.04520  1.0000
  S   S217      1.0  0.16386  0.59535  0.00205  1.0000
  C   C1728     1.0  0.07135  0.60991  0.08145  1.0000
  H   H1369     1.0  0.36019  0.70460  0.05941  1.0000
  C   C1729     1.0  0.40934  0.70977  0.99854  1.0000
  C   C1730     1.0  0.13653  0.73969  0.08810  1.0000
  C   C1731     1.0  0.50212  0.66478  0.10665  1.0000
  C   C1732     1.0  0.26740  0.54306  0.03163  1.0000
  C   C1733     1.0  0.25359  0.57067  0.03126  1.0000
  C   C1734     1.0  0.03284  0.53868  0.22461  1.0000
  C   C1735     1.0  0.35043  0.66513  0.17321  1.0000
  C   C1736     1.0  0.40738  0.52933  0.17253  1.0000
  C   C1737     1.0  0.20831  0.54734  0.21799  1.0000
  C   C1738     1.0  0.05290  0.53799  0.22410  1.0000
  P   P59       1.0  0.20326  0.55603  0.26644  1.0000
  C   C1739     1.0  0.37606  0.70404  0.28194  1.0000
  H   H1370     1.0  0.20356  0.54175  0.85496  1.0000
  H   H1371     1.0  0.31520  0.54709  0.31603  1.0000
  H   H1372     1.0  0.18911  0.58655  0.30003  1.0000
  H   H1373     1.0  0.15169  0.58385  0.32528  1.0000
  H   H1374     1.0  0.22259  0.58097  0.32654  1.0000
  C   C1740     1.0  0.16441  0.74839  0.01945  1.0000
  H   H1375     1.0  0.35235  0.74861  0.30625  1.0000
  H   H1376     1.0  0.11767  0.55219  0.31774  1.0000
  C   C1741     1.0  0.50640  0.72538  0.07986  1.0000
  H   H1377     1.0  0.32938  0.50190  0.27614  1.0000
  C   C1742     1.0  0.33181  0.60609  0.33235  1.0000
  H   H1378     1.0  0.26783  0.74104  0.93308  1.0000
  H   H1379     1.0  0.07649  0.56799  0.32390  1.0000
  C   C1743     1.0  0.46559  0.74056  0.95469  1.0000
  H   H1380     1.0  0.07912  0.74284  0.08419  1.0000
  C   C1744     1.0  0.49980  0.74700  0.90314  1.0000
  H   H1381     1.0  0.50045  0.66454  0.07412  1.0000
  C   C1745     1.0  0.17925  0.50747  0.08026  1.0000
  H   H1382     1.0  0.36759  0.73411  0.98885  1.0000
  H   H1383     1.0  0.45061  0.53916  0.84490  1.0000
  C   C1746     1.0  0.24489  0.66105  0.33221  1.0000
  H   H1384     1.0  0.14165  0.57609  0.83803  1.0000
  S   S218      1.0  0.29562  0.50082  0.95800  1.0000
  H   H1385     1.0  0.40021  0.74640  0.92329  1.0000
  H   H1386     1.0  0.34360  0.74490  0.08556  1.0000
  H   H1387     1.0  0.45634  0.74765  0.97161  1.0000
  H   H1388     1.0  0.31675  0.74590  0.14566  1.0000
  C   C1747     1.0  0.04397  0.74890  0.02642  1.0000
  H   H1389     1.0  0.50339  0.68658  0.94841  1.0000
  C   C1748     1.0  0.49020  0.74867  0.04887  1.0000
  C   C1749     1.0  0.28581  0.74845  0.91639  1.0000
  C   C1750     1.0  0.22870  0.90228  0.52916  1.0000
  S   S219      1.0  0.11490  0.81179  0.80314  1.0000
  Fe  Fe108     1.0  0.35237  0.81746  0.50181  1.0000
  H   H1390     1.0  0.33984  0.77264  0.47791  1.0000
  H   H1391     1.0  0.25916  0.75146  0.38717  1.0000
  C   C1751     1.0  0.26559  0.78983  0.59291  1.0000
  C   C1752     1.0  0.04948  0.99658  0.35799  1.0000
  C   C1753     1.0  0.04681  0.87636  0.78899  1.0000
  C   C1754     1.0  0.11216  0.98371  0.67857  1.0000
  C   C1755     1.0  0.09457  0.96051  0.70012  1.0000
  S   S220      1.0  0.16663  0.99085  0.82893  1.0000
  C   C1756     1.0  0.14997  0.98230  0.62054  1.0000
  C   C1757     1.0  0.13633  0.92120  0.61371  1.0000
  C   C1758     1.0  0.28038  0.84883  0.68867  1.0000
  C   C1759     1.0  0.08798  0.90651  0.56408  1.0000
  H   H1392     1.0  0.04907  0.85582  0.34543  1.0000
  C   C1760     1.0  0.08275  0.96360  0.53683  1.0000
  Fe  Fe109     1.0  0.14107  0.93683  0.78920  1.0000
  C   C1761     1.0  0.32717  0.84683  0.65432  1.0000
  H   H1393     1.0  0.24968  0.97213  0.63269  1.0000
  H   H1394     1.0  0.19993  0.84463  0.54041  1.0000
  C   C1762     1.0  0.01996  0.86140  0.35261  1.0000
  S   S221      1.0  0.01911  0.75793  0.44386  1.0000
  C   C1763     1.0  0.18308  0.89033  0.66992  1.0000
  H   H1395     1.0  0.15272  0.84091  0.70163  1.0000
  P   P60       1.0  0.27330  0.79873  0.39463  1.0000
  S   S222      1.0  0.35583  0.96893  0.52968  1.0000
  C   C1764     1.0  0.02712  0.87505  0.78026  1.0000
  C   C1765     1.0  0.30225  0.79683  0.74991  1.0000
  C   C1766     1.0  0.22863  0.89056  0.40722  1.0000
  H   H1396     1.0  0.13575  0.89444  0.66486  1.0000
  H   H1397     1.0  0.34412  0.82624  0.65792  1.0000
  H   H1398     1.0  0.34521  0.86077  0.72758  1.0000
  H   H1399     1.0  0.25486  0.88781  0.57128  1.0000
  H   H1400     1.0  0.30639  0.87499  0.81683  1.0000
  C   C1767     1.0  0.40548  0.98494  0.37445  1.0000
  H   H1401     1.0  0.19552  0.86564  0.66999  1.0000
  H   H1402     1.0  0.24133  0.77680  0.82821  1.0000
  C   C1768     1.0  0.22875  0.94106  0.82113  1.0000
  H   H1403     1.0  0.06449  0.84123  0.56276  1.0000
  C   C1769     1.0  0.17438  0.75512  0.60334  1.0000
  C   C1770     1.0  0.04723  0.85594  0.80861  1.0000
  S   S223      1.0  0.30084  0.94480  0.49159  1.0000
  C   C1771     1.0  0.14614  0.91265  0.44534  1.0000
  H   H1404     1.0  0.11654  0.83698  0.47361  1.0000
  C   C1772     1.0  0.26431  0.75635  0.64282  1.0000
  H   H1405     1.0  0.32263  0.87722  0.55404  1.0000
  C   C1773     1.0  0.29681  0.87948  0.59970  1.0000
  C   C1774     1.0  0.25551  0.95995  0.64391  1.0000
  C   C1775     1.0  0.31835  0.89768  0.70865  1.0000
  C   C1776     1.0  0.26297  0.91849  0.41647  1.0000
  H   H1406     1.0  0.23462  0.78351  0.57766  1.0000
  C   C1777     1.0  0.05803  0.89270  0.53038  1.0000
  H   H1407     1.0  0.30895  0.88421  0.48933  1.0000
  C   C1778     1.0  0.07321  0.79507  0.56502  1.0000
  Fe  Fe110     1.0  0.03951  0.79675  0.41239  1.0000
  C   C1779     1.0  0.18503  0.98429  0.58181  1.0000
  C   C1780     1.0  0.16104  0.80130  0.49816  1.0000
  H   H1408     1.0  0.17351  0.94829  0.50826  1.0000
  C   C1781     1.0  0.15264  0.82780  0.45084  1.0000
  C   C1782     1.0  0.04058  0.86238  0.40671  1.0000
  H   H1409     1.0  0.12224  0.92124  0.63517  1.0000
  S   S224      1.0  0.20296  0.83700  0.34601  1.0000
  S   S225      1.0  0.34017  0.84133  0.35278  1.0000
  H   H1410     1.0  0.10215  0.84585  0.41893  1.0000
  H   H1411     1.0  0.13485  0.95961  0.68982  1.0000
  P   P61       1.0  0.32209  0.83988  0.82525  1.0000
  C   C1783     1.0  0.14806  0.78319  0.48310  1.0000
  C   C1784     1.0  0.24295  0.77593  0.59568  1.0000
  C   C1785     1.0  0.16825  0.75480  0.46108  1.0000
  H   H1412     1.0  0.31608  0.75757  0.42614  1.0000
  H   H1413     1.0  0.09631  0.91464  0.34371  1.0000
  H   H1414     1.0  0.23921  0.83176  0.78656  1.0000
  C   C1786     1.0  0.38549  0.75333  0.39835  1.0000
  C   C1787     1.0  0.24447  0.76372  0.81834  1.0000
  S   S226      1.0  0.32035  0.80699  0.48292  1.0000
  H   H1415     1.0  0.06174  0.89319  0.78115  1.0000
  C   C1788     1.0  0.07405  0.96656  0.57642  1.0000
  H   H1416     1.0  0.13633  0.86136  0.51664  1.0000
  H   H1417     1.0  0.27336  0.81315  0.47418  1.0000
  C   C1789     1.0  0.27634  0.78002  0.61628  1.0000
  P   P62       1.0  0.10374  0.87293  0.48184  1.0000
  C   C1790     1.0  0.29826  0.77668  0.41395  1.0000
  C   C1791     1.0  0.23782  0.99511  0.69318  1.0000
  H   H1418     1.0  0.34957  0.79353  0.75737  1.0000
  S   S227      1.0  0.33368  0.86262  0.45821  1.0000
  H   H1419     1.0  0.31899  0.92329  0.60434  1.0000
  H   H1420     1.0  0.16968  0.79850  0.52182  1.0000
  S   S228      1.0  0.30367  0.93832  0.79553  1.0000
  C   C1792     1.0  0.18208  0.90688  0.68936  1.0000
  C   C1793     1.0  0.30998  0.99068  0.57284  1.0000
  H   H1421     1.0  0.31062  0.75886  0.58078  1.0000
  H   H1422     1.0  0.35302  0.90498  0.59549  1.0000
  C   C1794     1.0  0.11099  0.98053  0.58886  1.0000
  C   C1795     1.0  0.10557  0.96954  0.52264  1.0000
  C   C1796     1.0  0.24049  0.88921  0.80678  1.0000
  H   H1423     1.0  0.17357  0.91640  0.67898  1.0000
  C   C1797     1.0  0.17162  0.75947  0.56091  1.0000
  H   H1424     1.0  0.09235  0.79515  0.67810  1.0000
  C   C1798     1.0  0.27936  0.77913  0.43053  1.0000
  S   S229      1.0  0.06296  0.81212  0.34208  1.0000
  C   C1799     1.0  0.26070  0.97186  0.75799  1.0000
  C   C1800     1.0  0.08201  0.78607  0.37491  1.0000
  C   C1801     1.0  0.32833  0.94085  0.65168  1.0000
  H   H1425     1.0  0.20872  0.95558  0.34649  1.0000
  H   H1426     1.0  0.01054  0.84417  0.60906  1.0000
  S   S230      1.0  0.01066  0.80320  0.43606  1.0000
  S   S231      1.0  0.39210  0.90270  0.47957  1.0000
  H   H1427     1.0  0.23261  0.92129  0.42356  1.0000
  H   H1428     1.0  0.28319  0.94706  0.71421  1.0000
  C   C1802     1.0  0.35090  0.88777  0.61011  1.0000
  C   C1803     1.0  0.18691  0.86216  0.57649  1.0000
  H   H1429     1.0  0.17103  0.84625  0.59462  1.0000
  C   C1804     1.0  0.20378  0.88234  0.71905  1.0000
  C   C1805     1.0  0.06501  0.95227  0.40553  1.0000
  Fe  Fe111     1.0  0.02957  0.76394  0.50404  1.0000
  H   H1430     1.0  0.19926  0.92410  0.44678  1.0000
  C   C1806     1.0  0.17478  0.76750  0.41556  1.0000
  H   H1431     1.0  0.13738  0.98325  0.53568  1.0000
  H   H1432     1.0  0.26955  0.87473  0.39133  1.0000
  C   C1807     1.0  0.12315  0.88494  0.76582  1.0000
  C   C1808     1.0  0.02343  0.92686  0.39099  1.0000
  H   H1433     1.0  0.23207  0.87955  0.78661  1.0000
  C   C1809     1.0  0.10704  0.81231  0.66876  1.0000
  Fe  Fe112     1.0  0.31381  0.94910  0.41966  1.0000
  C   C1810     1.0  0.36731  0.86225  0.61903  1.0000
  H   H1434     1.0  0.30050  0.97178  0.58622  1.0000
  H   H1435     1.0  0.31019  0.78777  0.38100  1.0000
  S   S232      1.0  0.20105  0.88206  0.40539  1.0000
  S   S233      1.0  0.09081  0.97139  0.41138  1.0000
  C   C1811     1.0  0.25094  0.94170  0.62624  1.0000
  C   C1812     1.0  0.22630  0.96572  0.34462  1.0000
  H   H1436     1.0  0.16410  0.94805  0.68907  1.0000
  H   H1437     1.0  0.38611  0.89869  0.57979  1.0000
  H   H1438     1.0  0.28960  0.99414  0.77597  1.0000
  H   H1439     1.0  0.20929  0.90122  0.76606  1.0000
  C   C1813     1.0  0.22188  0.81235  0.43954  1.0000
  C   C1814     1.0  0.33693  0.81278  0.78870  1.0000
  C   C1815     1.0  0.14131  0.83840  0.68168  1.0000
  C   C1816     1.0  0.16960  0.92531  0.43631  1.0000
  H   H1440     1.0  0.11493  0.89878  0.54524  1.0000
  C   C1817     1.0  0.36738  0.90994  0.78031  1.0000
  C   C1818     1.0  0.30292  0.81156  0.77519  1.0000
  C   C1819     1.0  0.02382  0.93284  0.43006  1.0000
  H   H1441     1.0  0.08022  0.94954  0.34388  1.0000
  H   H1442     1.0  0.31089  0.83202  0.67426  1.0000
  S   S234      1.0  0.02491  0.99065  0.64903  1.0000
  H   H1443     1.0  0.04190  0.89056  0.52681  1.0000
  C   C1820     1.0  0.23552  0.80546  0.41543  1.0000
  C   C1821     1.0  0.25811  0.92555  0.63988  1.0000
  Fe  Fe113     1.0  0.12043  0.98242  0.35162  1.0000
  H   H1444     1.0  0.38915  0.96928  0.38449  1.0000
  H   H1445     1.0  0.11238  0.96791  0.49109  1.0000
  C   C1822     1.0  0.31920  0.79059  0.74304  1.0000
  C   C1823     1.0  0.09827  0.88416  0.33831  1.0000
  C   C1824     1.0  0.33103  0.93892  0.69408  1.0000
  H   H1446     1.0  0.05857  0.91114  0.57769  1.0000
  Fe  Fe114     1.0  0.34077  0.83979  0.42343  1.0000
  H   H1447     1.0  0.19460  0.77501  0.34858  1.0000
  C   C1825     1.0  0.38216  0.92137  0.49247  1.0000
  Fe  Fe115     1.0  0.33604  0.97191  0.48287  1.0000
  H   H1448     1.0  0.25458  0.91150  0.62593  1.0000
  H   H1449     1.0  0.04783  0.79969  0.60527  1.0000
  C   C1826     1.0  0.11968  0.97815  0.54826  1.0000
  H   H1450     1.0  0.06776  0.93566  0.76093  1.0000
  C   C1827     1.0  0.26787  0.96260  0.67464  1.0000
  S   S235      1.0  0.13059  0.96430  0.78068  1.0000
  C   C1828     1.0  0.35128  0.87425  0.74285  1.0000
  H   H1451     1.0  0.18745  0.92199  0.53761  1.0000
  H   H1452     1.0  0.39707  0.76933  0.44680  1.0000
  C   C1829     1.0  0.30020  0.88349  0.52161  1.0000
  C   C1830     1.0  0.10044  0.87655  0.42642  1.0000
  C   C1831     1.0  0.27167  0.99220  0.33939  1.0000
  C   C1832     1.0  0.19179  0.91102  0.72344  1.0000
  C   C1833     1.0  0.18997  0.76548  0.38373  1.0000
  H   H1453     1.0  0.40710  0.94606  0.37168  1.0000
  C   C1834     1.0  0.19129  0.88345  0.58374  1.0000
  C   C1835     1.0  0.10008  0.86496  0.35971  1.0000
  C   C1836     1.0  0.09957  0.78055  0.37367  1.0000
  Fe  Fe116     1.0  0.36462  0.86872  0.47894  1.0000
  C   C1837     1.0  0.25436  0.80583  0.42729  1.0000
  C   C1838     1.0  0.16279  0.90626  0.60381  1.0000
  H   H1454     1.0  0.24968  0.82599  0.51539  1.0000
  C   C1839     1.0  0.02750  0.99452  0.46530  1.0000
  H   H1455     1.0  0.27388  0.90635  0.75864  1.0000
  H   H1456     1.0  0.33973  0.88999  0.35736  1.0000
  H   H1457     1.0  0.07563  0.96399  0.80210  1.0000
  H   H1458     1.0  0.04003  0.97880  0.38055  1.0000
  C   C1840     1.0  0.10319  0.99263  0.74653  1.0000
  C   C1841     1.0  0.27371  0.90584  0.40586  1.0000
  H   H1459     1.0  0.23400  0.98241  0.55530  1.0000
  C   C1842     1.0  0.26153  0.78488  0.35575  1.0000
  C   C1843     1.0  0.16535  0.93656  0.54254  1.0000
  H   H1460     1.0  0.20754  0.81226  0.42992  1.0000
  C   C1844     1.0  0.08549  0.96964  0.76744  1.0000
  H   H1461     1.0  0.05646  0.96250  0.58700  1.0000
  C   C1845     1.0  0.32017  0.00052  0.67175  1.0000
  H   H1462     1.0  0.33267  0.95762  0.62916  1.0000
  C   C1846     1.0  0.20329  0.86105  0.54574  1.0000
  C   C1847     1.0  0.32611  0.91735  0.72249  1.0000
  S   S236      1.0  0.12267  0.91134  0.75597  1.0000
  H   H1463     1.0  0.21867  0.96573  0.41266  1.0000
  C   C1848     1.0  0.16535  0.96009  0.65909  1.0000
  H   H1464     1.0  0.17891  0.94321  0.41402  1.0000
  C   C1849     1.0  0.24708  0.99787  0.52827  1.0000
  C   C1850     1.0  0.08815  0.97529  0.60198  1.0000
  S   S237      1.0  0.26073  0.96898  0.50142  1.0000
  C   C1851     1.0  0.25690  0.76189  0.35977  1.0000
  C   C1852     1.0  0.03781  0.85987  0.36576  1.0000
  C   C1853     1.0  0.06926  0.88353  0.50668  1.0000
  H   H1465     1.0  0.19913  0.99099  0.55193  1.0000
  H   H1466     1.0  0.37983  0.76547  0.38573  1.0000
  H   H1467     1.0  0.05385  0.86036  0.41746  1.0000
  H   H1468     1.0  0.19119  0.76286  0.60697  1.0000
  C   C1854     1.0  0.13380  0.88928  0.47353  1.0000
  C   C1855     1.0  0.17335  0.92164  0.55955  1.0000
  H   H1469     1.0  0.27516  0.91493  0.68231  1.0000
  H   H1470     1.0  0.16773  0.77848  0.40416  1.0000
  C   C1856     1.0  0.06739  0.90420  0.55908  1.0000
  C   C1857     1.0  0.16338  0.82355  0.48184  1.0000
  C   C1858     1.0  0.26381  0.76411  0.47287  1.0000
  C   C1859     1.0  0.36214  0.91957  0.48510  1.0000
  C   C1860     1.0  0.06457  0.94510  0.36777  1.0000
  C   C1861     1.0  0.36743  0.89708  0.71549  1.0000
  C   C1862     1.0  0.23889  0.95223  0.77507  1.0000
  C   C1863     1.0  0.08119  0.95359  0.74426  1.0000
  C   C1864     1.0  0.35399  0.93408  0.49699  1.0000
  H   H1471     1.0  0.06243  0.85705  0.81574  1.0000
  C   C1865     1.0  0.09923  0.89726  0.54041  1.0000
  C   C1866     1.0  0.09899  0.89611  0.40417  1.0000
  C   C1867     1.0  0.39420  0.93795  0.51132  1.0000
  H   H1472     1.0  0.09318  0.83155  0.75520  1.0000
  C   C1868     1.0  0.34462  0.76098  0.49638  1.0000
  H   H1473     1.0  0.38179  0.85952  0.61090  1.0000
  C   C1869     1.0  0.09762  0.89968  0.36058  1.0000
  H   H1474     1.0  0.26850  0.88168  0.63605  1.0000
  P   P63       1.0  0.27350  0.98594  0.69825  1.0000
  H   H1475     1.0  0.24193  0.79397  0.69530  1.0000
  H   H1476     1.0  0.13134  0.81318  0.41172  1.0000
  P   P64       1.0  0.12937  0.99249  0.62146  1.0000
  C   C1870     1.0  0.32039  0.92119  0.63784  1.0000
  H   H1477     1.0  0.02775  0.86841  0.46632  1.0000
  H   H1478     1.0  0.33695  0.95411  0.70506  1.0000
  C   C1871     1.0  0.20241  0.89856  0.73865  1.0000
  C   C1872     1.0  0.06319  0.80803  0.57718  1.0000
  C   C1873     1.0  0.22409  0.88110  0.52193  1.0000
  H   H1479     1.0  0.38790  0.93261  0.71296  1.0000
  H   H1480     1.0  0.06158  0.87422  0.48532  1.0000
  C   C1874     1.0  0.08460  0.80466  0.34053  1.0000
  H   H1481     1.0  0.01288  0.96781  0.34223  1.0000
  C   C1875     1.0  0.31490  0.89934  0.66666  1.0000
  H   H1482     1.0  0.15483  0.84515  0.43757  1.0000
  Fe  Fe117     1.0  0.16740  0.99002  0.75942  1.0000
  C   C1876     1.0  0.27472  0.91783  0.81620  1.0000
  C   C1877     1.0  0.23120  0.75206  0.62091  1.0000
  H   H1483     1.0  0.04479  0.95110  0.46652  1.0000
  C   C1878     1.0  0.18097  0.91470  0.45504  1.0000
  C   C1879     1.0  0.04458  0.94560  0.43728  1.0000
  H   H1484     1.0  0.31920  0.78003  0.72185  1.0000
  C   C1880     1.0  0.23575  0.75526  0.78592  1.0000
  C   C1881     1.0  0.30163  0.75953  0.43948  1.0000
  C   C1882     1.0  0.30803  0.87988  0.55826  1.0000
  H   H1485     1.0  0.18649  0.77071  0.53191  1.0000
  C   C1883     1.0  0.07262  0.83166  0.55247  1.0000
  C   C1884     1.0  0.14679  0.93625  0.56952  1.0000
  C   C1885     1.0  0.25902  0.81284  0.46413  1.0000
  Fe  Fe118     1.0  0.31490  0.83029  0.51859  1.0000
  H   H1486     1.0  0.23147  0.80028  0.38726  1.0000
  H   H1487     1.0  0.27839  0.82753  0.64587  1.0000
  H   H1488     1.0  0.27846  0.84929  0.36428  1.0000
  C   C1886     1.0  0.21251  0.90338  0.56043  1.0000
  H   H1489     1.0  0.30098  0.84866  0.41223  1.0000
  S   S238      1.0  0.19431  0.99137  0.36163  1.0000
  C   C1887     1.0  0.24962  0.80944  0.70501  1.0000
  C   C1888     1.0  0.16837  0.99099  0.58172  1.0000
  H   H1490     1.0  0.17780  0.88349  0.49788  1.0000
  C   C1889     1.0  0.38574  0.95209  0.52428  1.0000
  H   H1491     1.0  0.06572  0.77668  0.58383  1.0000
  C   C1890     1.0  0.30977  0.84938  0.38011  1.0000
  H   H1492     1.0  0.21186  0.87256  0.73108  1.0000
  H   H1493     1.0  0.12808  0.77446  0.43819  1.0000
  S   S239      1.0  0.34962  0.97377  0.41278  1.0000
  C   C1891     1.0  0.26968  0.88565  0.56757  1.0000
  C   C1892     1.0  0.33646  0.79845  0.76260  1.0000
  H   H1494     1.0  0.39498  0.96479  0.53908  1.0000
  H   H1495     1.0  0.09643  0.87082  0.73664  1.0000
  P   P65       1.0  0.01120  0.99986  0.39247  1.0000
  S   S240      1.0  0.34518  0.83822  0.54230  1.0000
  C   C1893     1.0  0.14860  0.96666  0.65920  1.0000
  C   C1894     1.0  0.13750  0.78778  0.45165  1.0000
  H   H1496     1.0  0.34143  0.99268  0.57849  1.0000
  C   C1895     1.0  0.26223  0.99607  0.49590  1.0000
  C   C1896     1.0  0.32947  0.86903  0.63681  1.0000
  S   S241      1.0  0.28002  0.81954  0.56092  1.0000
  S   S242      1.0  0.05209  0.80234  0.47060  1.0000
  H   H1497     1.0  0.27523  0.86576  0.73713  1.0000
  Fe  Fe119     1.0  0.02128  0.80513  0.49776  1.0000
  C   C1897     1.0  0.13616  0.85845  0.79652  1.0000
  H   H1498     1.0  0.07202  0.95722  0.51643  1.0000
  C   C1898     1.0  0.35777  0.76816  0.52429  1.0000
  C   C1899     1.0  0.19436  0.87838  0.68459  1.0000
  C   C1900     1.0  0.36972  0.88435  0.60136  1.0000
  H   H1499     1.0  0.22731  0.97972  0.72222  1.0000
  P   P66       1.0  0.17081  0.88474  0.62558  1.0000
  C   C1901     1.0  0.26976  0.92757  0.67149  1.0000
  H   H1500     1.0  0.28877  0.79060  0.73490  1.0000
  S   S243      1.0  0.17462  0.82304  0.81128  1.0000
  S   S244      1.0  0.17827  0.96282  0.76435  1.0000
  C   C1902     1.0  0.23851  0.81066  0.74446  1.0000
  H   H1501     1.0  0.36743  0.85203  0.83278  1.0000
  C   C1903     1.0  0.12952  0.85267  0.62071  1.0000
  C   C1904     1.0  0.32023  0.81956  0.79508  1.0000
  C   C1905     1.0  0.26889  0.85001  0.72823  1.0000
  H   H1502     1.0  0.09507  0.91529  0.58660  1.0000
  C   C1906     1.0  0.13952  0.80986  0.43611  1.0000
  C   C1907     1.0  0.41186  0.99584  0.40596  1.0000
  S   S245      1.0  0.14317  0.78946  0.34066  1.0000
  H   H1503     1.0  0.14063  0.94779  0.55625  1.0000
  H   H1504     1.0  0.02700  0.89111  0.76601  1.0000
  C   C1908     1.0  0.40819  0.93948  0.34396  1.0000
  H   H1505     1.0  0.35999  0.78025  0.33981  1.0000
  H   H1506     1.0  0.24869  0.76509  0.48584  1.0000
  C   C1909     1.0  0.36569  0.95023  0.51683  1.0000
  Fe  Fe120     1.0  0.19738  0.86731  0.34949  1.0000
  C   C1910     1.0  0.14525  0.87908  0.49390  1.0000
  H   H1507     1.0  0.35307  0.90720  0.46972  1.0000
  H   H1508     1.0  0.19654  0.96383  0.62065  1.0000
  H   H1509     1.0  0.22216  0.79616  0.76549  1.0000
  C   C1911     1.0  0.26400  0.90466  0.79063  1.0000
  H   H1510     1.0  0.09136  0.94770  0.68298  1.0000
  C   C1912     1.0  0.10092  0.86099  0.40362  1.0000
  H   H1511     1.0  0.40251  0.90673  0.38655  1.0000
  C   C1913     1.0  0.24554  0.82004  0.48774  1.0000
  C   C1914     1.0  0.02487  0.98548  0.51063  1.0000
  H   H1512     1.0  0.27182  0.93388  0.42496  1.0000
  S   S246      1.0  0.30242  0.91654  0.40116  1.0000
  C   C1915     1.0  0.27755  0.88233  0.60411  1.0000
  S   S247      1.0  0.02384  0.82872  0.53902  1.0000
  H   H1513     1.0  0.37364  0.92373  0.79491  1.0000
  S   S248      1.0  0.36600  0.79511  0.53303  1.0000
  H   H1514     1.0  0.31585  0.98374  0.66752  1.0000
  C   C1916     1.0  0.22704  0.81988  0.47534  1.0000
  C   C1917     1.0  0.35115  0.88719  0.80777  1.0000
  H   H1515     1.0  0.03746  0.99859  0.80955  1.0000
  C   C1918     1.0  0.28102  0.88623  0.52629  1.0000
  H   H1516     1.0  0.27521  0.88907  0.49760  1.0000
  C   C1919     1.0  0.16878  0.89169  0.48413  1.0000
  C   C1920     1.0  0.13763  0.88058  0.78702  1.0000
  C   C1921     1.0  0.24817  0.83084  0.75623  1.0000
  H   H1517     1.0  0.37402  0.75855  0.57002  1.0000
  H   H1518     1.0  0.19050  0.92340  0.73900  1.0000
  C   C1922     1.0  0.09189  0.84244  0.51461  1.0000
  H   H1519     1.0  0.25879  0.98815  0.40856  1.0000
  C   C1923     1.0  0.08999  0.88586  0.51122  1.0000
  H   H1520     1.0  0.21686  0.82582  0.49319  1.0000
  P   P67       1.0  0.30559  0.87407  0.64842  1.0000
  H   H1521     1.0  0.37363  0.90100  0.67970  1.0000
  C   C1924     1.0  0.23187  0.97114  0.38198  1.0000
  C   C1925     1.0  0.33353  0.87499  0.34599  1.0000
  C   C1926     1.0  0.25453  0.98419  0.37945  1.0000
  C   C1927     1.0  0.11055  0.83057  0.63265  1.0000
  C   C1928     1.0  0.14422  0.90621  0.63069  1.0000
  H   H1522     1.0  0.33851  0.93261  0.49110  1.0000
  H   H1523     1.0  0.09992  0.79537  0.51778  1.0000
  C   C1929     1.0  0.12246  0.81621  0.69305  1.0000
  C   C1930     1.0  0.39528  0.75552  0.43275  1.0000
  H   H1524     1.0  0.13213  0.86647  0.59213  1.0000
  C   C1931     1.0  0.10173  0.82915  0.50256  1.0000
  H   H1525     1.0  0.22969  0.94554  0.75284  1.0000
  C   C1932     1.0  0.37547  0.91491  0.73420  1.0000
  H   H1526     1.0  0.28160  0.99436  0.56205  1.0000
  H   H1527     1.0  0.31489  0.88115  0.73077  1.0000
  C   C1933     1.0  0.02799  0.83415  0.81942  1.0000
  C   C1934     1.0  0.10576  0.84525  0.76366  1.0000
  H   H1528     1.0  0.24490  0.91788  0.51057  1.0000
  C   C1935     1.0  0.27447  0.94591  0.68913  1.0000
  P   P68       1.0  0.14625  0.75481  0.50135  1.0000
  H   H1529     1.0  0.24214  0.94034  0.60140  1.0000
  C   C1936     1.0  0.18359  0.96894  0.62053  1.0000
  H   H1530     1.0  0.23667  0.88015  0.49794  1.0000
  C   C1937     1.0  0.34605  0.84350  0.64551  1.0000
  H   H1531     1.0  0.29381  0.79076  0.61439  1.0000
  C   C1938     1.0  0.09251  0.80563  0.52777  1.0000
  H   H1532     1.0  0.09865  0.82757  0.61374  1.0000
  H   H1533     1.0  0.40032  0.98886  0.43964  1.0000
  H   H1534     1.0  0.08115  0.97817  0.63168  1.0000
  H   H1535     1.0  0.40984  0.93956  0.51665  1.0000
  C   C1939     1.0  0.27039  0.82846  0.67717  1.0000
  H   H1536     1.0  0.32827  0.91595  0.75537  1.0000
  H   H1537     1.0  0.17391  0.83776  0.49227  1.0000
  H   H1538     1.0  0.09765  0.76652  0.40083  1.0000
  C   C1940     1.0  0.27263  0.97942  0.78776  1.0000
  C   C1941     1.0  0.19898  0.75103  0.39720  1.0000
  H   H1539     1.0  0.35053  0.81877  0.80327  1.0000
  C   C1942     1.0  0.12002  0.79403  0.33871  1.0000
  H   H1540     1.0  0.11968  0.80205  0.72124  1.0000
  C   C1943     1.0  0.34304  0.86916  0.78923  1.0000
  C   C1944     1.0  0.29944  0.82528  0.36191  1.0000
  H   H1541     1.0  0.14738  0.85507  0.81283  1.0000
  H   H1542     1.0  0.14967  0.89408  0.79674  1.0000
  H   H1543     1.0  0.21996  0.99675  0.78081  1.0000
  H   H1544     1.0  0.10097  0.85319  0.34204  1.0000
  C   C1945     1.0  0.11647  0.99971  0.70220  1.0000
  C   C1946     1.0  0.02566  0.86646  0.43465  1.0000
  H   H1545     1.0  0.03921  0.99218  0.52313  1.0000
  S   S249      1.0  0.13430  0.95793  0.35006  1.0000
  H   H1546     1.0  0.29006  0.81685  0.77854  1.0000
  C   C1947     1.0  0.11969  0.84055  0.78619  1.0000
  C   C1948     1.0  0.40548  0.91695  0.35274  1.0000
  C   C1949     1.0  0.14507  0.85679  0.64514  1.0000
  H   H1547     1.0  0.22568  0.76152  0.77101  1.0000
  C   C1950     1.0  0.36392  0.75305  0.54826  1.0000
  C   C1951     1.0  0.10760  0.86745  0.75320  1.0000
  C   C1952     1.0  0.24057  0.91105  0.41656  1.0000
  S   S250      1.0  0.37346  0.84840  0.43948  1.0000
  C   C1953     1.0  0.04385  0.93271  0.36020  1.0000
  Fe  Fe121     1.0  0.29481  0.97451  0.46554  1.0000
  H   H1548     1.0  0.21652  0.91988  0.56600  1.0000
  H   H1549     1.0  0.09905  0.90877  0.42018  1.0000
  H   H1550     1.0  0.22963  0.86111  0.39269  1.0000
  H   H1551     1.0  0.06657  0.77607  0.40271  1.0000
  C   C1954     1.0  0.23897  0.87725  0.39876  1.0000
  H   H1552     1.0  0.13775  0.92108  0.42969  1.0000
  S   S251      1.0  0.30612  0.97775  0.39337  1.0000
  C   C1955     1.0  0.26150  0.88487  0.39824  1.0000
  H   H1553     1.0  0.32804  0.99999  0.79407  1.0000
  H   H1554     1.0  0.04361  0.99995  0.73072  1.0000
  H   H1555     1.0  0.47974  0.75141  0.33375  1.0000
  H   H1556     1.0  0.40279  0.75141  0.78785  1.0000
  H   H1557     1.0  0.19323  0.78316  0.99360  1.0000
  H   H1558     1.0  0.08949  0.90205  0.05378  1.0000
  C   C1956     1.0  0.25148  0.83373  0.87111  1.0000
  C   C1957     1.0  0.07955  0.88740  0.21865  1.0000
  C   C1958     1.0  0.31516  0.84546  0.15391  1.0000
  C   C1959     1.0  0.28154  0.75256  0.18231  1.0000
  H   H1559     1.0  0.05507  0.97642  0.84589  1.0000
  H   H1560     1.0  0.48823  0.75854  0.02018  1.0000
  H   H1561     1.0  0.12502  0.96711  0.02818  1.0000
  H   H1562     1.0  0.02246  0.80438  0.12520  1.0000
  S   S252      1.0  0.01092  0.87296  0.93499  1.0000
  H   H1563     1.0  0.29512  0.79594  0.24147  1.0000
  H   H1564     1.0  0.25850  0.84942  0.94242  1.0000
  H   H1565     1.0  0.24779  0.79720  0.26012  1.0000
  H   H1566     1.0  0.37968  0.98455  0.19827  1.0000
  C   C1960     1.0  0.04775  0.85224  0.04748  1.0000
  H   H1567     1.0  0.33678  0.78122  0.92969  1.0000
  C   C1961     1.0  0.33423  0.75973  0.13349  1.0000
  C   C1962     1.0  0.07793  0.87388  0.19055  1.0000
  H   H1568     1.0  0.29653  0.91475  0.24761  1.0000
  C   C1963     1.0  0.29457  0.83776  0.84321  1.0000
  P   P69       1.0  0.04433  0.82766  0.02918  1.0000
  C   C1964     1.0  0.18742  0.91758  0.00450  1.0000
  C   C1965     1.0  0.31979  0.93268  0.08795  1.0000
  H   H1569     1.0  0.33767  0.81307  0.24502  1.0000
  P   P70       1.0  0.32245  0.77950  0.19561  1.0000
  C   C1966     1.0  0.25371  0.83770  0.10240  1.0000
  C   C1967     1.0  0.32462  0.81595  0.95169  1.0000
  C   C1968     1.0  0.34003  0.79848  0.25879  1.0000
  C   C1969     1.0  0.12500  0.85813  0.95304  1.0000
  C   C1970     1.0  0.19977  0.90683  0.99040  1.0000
  H   H1570     1.0  0.01216  0.92922  0.97703  1.0000
  C   C1971     1.0  0.31926  0.80505  0.17797  1.0000
  C   C1972     1.0  0.29197  0.85772  0.83381  1.0000
  C   C1973     1.0  0.22152  0.90752  0.09831  1.0000
  C   C1974     1.0  0.06375  0.81956  0.95604  1.0000
  H   H1571     1.0  0.19027  0.94953  0.01504  1.0000
  Fe  Fe122     1.0  0.17823  0.83637  0.86916  1.0000
  C   C1975     1.0  0.33683  0.95596  0.07571  1.0000
  C   C1976     1.0  0.30156  0.76216  0.93450  1.0000
  C   C1977     1.0  0.05460  0.90587  0.88779  1.0000
  Fe  Fe123     1.0  0.33339  0.91875  0.91919  1.0000
  H   H1572     1.0  0.39742  0.80831  0.08819  1.0000
  C   C1978     1.0  0.20123  0.97063  0.11137  1.0000
  C   C1979     1.0  0.13355  0.94286  0.06493  1.0000
  H   H1573     1.0  0.49493  0.77447  0.91882  1.0000
  H   H1574     1.0  0.07082  0.87318  0.95562  1.0000
  H   H1575     1.0  0.18232  0.83278  0.17669  1.0000
  C   C1980     1.0  0.25403  0.81389  0.88091  1.0000
  C   C1981     1.0  0.26217  0.91485  0.85848  1.0000
  Fe  Fe124     1.0  0.18841  0.87423  0.25995  1.0000
  H   H1576     1.0  0.35271  0.81250  0.30865  1.0000
  S   S253      1.0  0.19822  0.87356  0.86563  1.0000
  H   H1577     1.0  0.10707  0.83231  0.27856  1.0000
  C   C1982     1.0  0.12114  0.86739  0.09586  1.0000
  C   C1983     1.0  0.34162  0.77814  0.15124  1.0000
  C   C1984     1.0  0.27669  0.86635  0.26119  1.0000
  H   H1578     1.0  0.02305  0.83938  0.96563  1.0000
  S   S254      1.0  0.12281  0.94044  0.24205  1.0000
  H   H1579     1.0  0.22889  0.89852  0.90576  1.0000
  C   C1985     1.0  0.20707  0.99019  0.16682  1.0000
  H   H1580     1.0  0.20877  0.79749  0.10653  1.0000
  H   H1581     1.0  0.03183  0.96117  0.27741  1.0000
  H   H1582     1.0  0.30399  0.97881  0.11250  1.0000
  C   C1986     1.0  0.26952  0.97079  0.03589  1.0000
  Fe  Fe125     1.0  0.13072  0.96240  0.85063  1.0000
  H   H1583     1.0  0.40341  0.88964  0.32575  1.0000
  C   C1987     1.0  0.20308  0.98960  0.12567  1.0000
  H   H1584     1.0  0.16822  0.90241  0.86401  1.0000
  C   C1988     1.0  0.15749  0.89273  0.89836  1.0000
  C   C1989     1.0  0.03327  0.95096  0.90962  1.0000
  C   C1990     1.0  0.35315  0.78031  0.31201  1.0000
  C   C1991     1.0  0.33768  0.96435  0.30154  1.0000
  C   C1992     1.0  0.05722  0.85419  0.19748  1.0000
  C   C1993     1.0  0.26830  0.99138  0.03226  1.0000
  C   C1994     1.0  0.28638  0.88118  0.03984  1.0000
  H   H1585     1.0  0.29872  0.81438  0.92273  1.0000
  C   C1995     1.0  0.40445  0.99320  0.13624  1.0000
  S   S255      1.0  0.25584  0.76815  0.99835  1.0000
  C   C1996     1.0  0.22048  0.87006  0.11177  1.0000
  C   C1997     1.0  0.07913  0.93536  0.91477  1.0000
  C   C1998     1.0  0.22985  0.91065  0.13429  1.0000
  C   C1999     1.0  0.01093  0.82203  0.98864  1.0000
  C   C2000     1.0  0.10484  0.81773  0.30490  1.0000
  H   H1586     1.0  0.23303  0.91041  0.96741  1.0000
  H   H1587     1.0  0.01331  0.89855  0.30934  1.0000
  C   C2001     1.0  0.18307  0.81719  0.17508  1.0000
  H   H1588     1.0  0.38113  0.84411  0.89675  1.0000
  C   C2002     1.0  0.20469  0.84486  0.04980  1.0000
  H   H1589     1.0  0.23304  0.92608  0.14361  1.0000
  P   P71       1.0  0.28820  0.99539  0.25106  1.0000
  H   H1590     1.0  0.04825  0.97480  0.08114  1.0000
  Fe  Fe126     1.0  0.17264  0.82545  0.32142  1.0000
  H   H1591     1.0  0.34234  0.98534  0.99441  1.0000
  S   S256      1.0  0.25728  0.86644  0.23281  1.0000
  H   H1592     1.0  0.17701  0.88542  0.08312  1.0000
  C   C2003     1.0  0.06964  0.86979  0.04241  1.0000
  H   H1593     1.0  0.07682  0.81231  0.89826  1.0000
  C   C2004     1.0  0.26333  0.87386  0.04684  1.0000
  C   C2005     1.0  0.25596  0.75427  0.84002  1.0000
  H   H1594     1.0  0.41341  0.98501  0.98160  1.0000
  H   H1595     1.0  0.13398  0.86413  0.88220  1.0000
  C   C2006     1.0  0.04709  0.97382  0.88012  1.0000
  C   C2007     1.0  0.23395  0.89376  0.15842  1.0000
  H   H1596     1.0  0.02927  0.77971  0.18263  1.0000
  C   C2008     1.0  0.05360  0.88907  0.08111  1.0000
  H   H1597     1.0  0.11986  0.77525  0.21762  1.0000
  H   H1598     1.0  0.02930  0.89667  0.99594  1.0000
  C   C2009     1.0  0.36459  0.79545  0.13511  1.0000
  H   H1599     1.0  0.07935  0.81267  0.02573  1.0000
  C   C2010     1.0  0.27048  0.85564  0.84773  1.0000
  C   C2011     1.0  0.20954  0.97243  0.19280  1.0000
  H   H1600     1.0  0.01911  0.96261  0.00472  1.0000
  C   C2012     1.0  0.29196  0.97022  0.25139  1.0000
  C   C2013     1.0  0.30285  0.82890  0.19651  1.0000
  H   H1601     1.0  0.17813  0.91849  0.92371  1.0000
  C   C2014     1.0  0.24607  0.76454  0.29197  1.0000
  Fe  Fe127     1.0  0.17496  0.96189  0.83559  1.0000
  Fe  Fe128     1.0  0.23384  0.77427  0.04827  1.0000
  C   C2015     1.0  0.04188  0.90492  0.96367  1.0000
  H   H1602     1.0  0.32391  0.91975  0.08023  1.0000
  C   C2016     1.0  0.07278  0.85986  0.94439  1.0000
  C   C2017     1.0  0.14940  0.76250  0.08835  1.0000
  C   C2018     1.0  0.26389  0.82832  0.99441  1.0000
  H   H1603     1.0  0.45346  0.98608  0.23361  1.0000
  H   H1604     1.0  0.11999  0.85652  0.02128  1.0000
  H   H1605     1.0  0.32017  0.96020  0.30688  1.0000
  Fe  Fe129     1.0  0.35842  0.97175  0.87881  1.0000
  S   S257      1.0  0.28663  0.94448  0.00722  1.0000
  S   S258      1.0  0.18257  0.76706  0.83465  1.0000
  C   C2019     1.0  0.30471  0.80866  0.20834  1.0000
  H   H1606     1.0  0.23475  0.85445  0.99727  1.0000
  H   H1607     1.0  0.37026  0.93858  0.29139  1.0000
  S   S259      1.0  0.29962  0.91646  0.92221  1.0000
  H   H1608     1.0  0.11063  0.84097  0.96067  1.0000
  H   H1609     1.0  0.21608  0.85225  0.93839  1.0000
  H   H1610     1.0  0.05471  0.80142  0.97712  1.0000
  C   C2020     1.0  0.44991  0.99915  0.21597  1.0000
  H   H1611     1.0  0.03026  0.93624  0.89775  1.0000
  P   P72       1.0  0.21752  0.84552  0.09401  1.0000
  C   C2021     1.0  0.22349  0.91883  0.97742  1.0000
  C   C2022     1.0  0.24931  0.75189  0.32797  1.0000
  H   H1612     1.0  0.27452  0.93797  0.13423  1.0000
  S   S260      1.0  0.13861  0.93308  0.86142  1.0000
  P   P73       1.0  0.01493  0.85603  0.30190  1.0000
  C   C2023     1.0  0.03759  0.89588  0.92894  1.0000
  H   H1613     1.0  0.05573  0.84385  0.17534  1.0000
  H   H1614     1.0  0.23312  0.86085  0.16543  1.0000
  C   C2024     1.0  0.01637  0.81179  0.02425  1.0000
  C   C2025     1.0  0.13829  0.87109  0.90862  1.0000
  H   H1615     1.0  0.31675  0.99194  0.94833  1.0000
  C   C2026     1.0  0.06554  0.98427  0.05881  1.0000
  S   S261      1.0  0.11866  0.77218  0.00926  1.0000
  S   S262      1.0  0.13218  0.77383  0.88446  1.0000
  C   C2027     1.0  0.33146  0.97297  0.08423  1.0000
  C   C2028     1.0  0.03644  0.80104  0.11566  1.0000
  C   C2029     1.0  0.07256  0.88830  0.05867  1.0000
  H   H1616     1.0  0.01173  0.83953  0.07524  1.0000
  Fe  Fe130     1.0  0.26628  0.75520  0.05556  1.0000
  H   H1617     1.0  0.38386  0.77612  0.05590  1.0000
  C   C2030     1.0  0.30299  0.84295  0.99428  1.0000
  H   H1618     1.0  0.34722  0.85293  0.24540  1.0000
  C   C2031     1.0  0.07543  0.92550  0.88081  1.0000
  C   C2032     1.0  0.08460  0.86580  0.89953  1.0000
  H   H1619     1.0  0.27488  0.81065  0.04082  1.0000
  C   C2033     1.0  0.33450  0.77999  0.24116  1.0000
  S   S263      1.0  0.17170  0.99584  0.25428  1.0000
  C   C2034     1.0  0.37597  0.99082  0.29822  1.0000
  C   C2035     1.0  0.28071  0.92935  0.28601  1.0000
  C   C2036     1.0  0.02880  0.85310  0.07010  1.0000
  H   H1620     1.0  0.11782  0.96758  0.16995  1.0000
  C   C2037     1.0  0.30880  0.96629  0.10536  1.0000
  H   H1621     1.0  0.09222  0.88360  0.87713  1.0000
  C   C2038     1.0  0.41162  0.95271  0.30041  1.0000
  H   H1622     1.0  0.35373  0.82098  0.97324  1.0000
  S   S264      1.0  0.23499  0.80808  0.01963  1.0000
  C   C2039     1.0  0.21710  0.84997  0.00571  1.0000
  H   H1623     1.0  0.26156  0.76024  0.86654  1.0000
  H   H1624     1.0  0.28406  0.90815  0.11837  1.0000
  H   H1625     1.0  0.25344  0.95115  0.96623  1.0000
  C   C2040     1.0  0.24674  0.85199  0.07814  1.0000
  C   C2041     1.0  0.13048  0.86709  0.98731  1.0000
  H   H1626     1.0  0.19990  0.77822  0.90729  1.0000
  C   C2042     1.0  0.18362  0.84264  0.98265  1.0000
  H   H1627     1.0  0.21182  0.92610  0.83435  1.0000
  H   H1628     1.0  0.36321  0.89227  0.27427  1.0000
  H   H1629     1.0  0.09568  0.78180  0.94654  1.0000
  C   C2043     1.0  0.06266  0.83671  0.97325  1.0000
  H   H1630     1.0  0.23868  0.98877  0.90089  1.0000
  C   C2044     1.0  0.14414  0.93460  0.98437  1.0000
  H   H1631     1.0  0.09482  0.85309  0.84850  1.0000
  Fe  Fe131     1.0  0.13608  0.96609  0.27789  1.0000
  C   C2045     1.0  0.06833  0.80582  0.05966  1.0000
  C   C2046     1.0  0.05110  0.96664  0.21130  1.0000
  C   C2047     1.0  0.23875  0.89975  0.87420  1.0000
  C   C2048     1.0  0.29420  0.75481  0.21245  1.0000
  H   H1632     1.0  0.25424  0.99096  0.05455  1.0000
  H   H1633     1.0  0.09271  0.87887  0.16330  1.0000
  C   C2049     1.0  0.14474  0.87979  0.07479  1.0000
  C   C2050     1.0  0.14099  0.92072  0.19415  1.0000
  C   C2051     1.0  0.04057  0.98878  0.94031  1.0000
  C   C2052     1.0  0.41223  0.94287  0.26599  1.0000
  C   C2053     1.0  0.16841  0.77550  0.20717  1.0000
  C   C2054     1.0  0.18166  0.83883  0.05995  1.0000
  C   C2055     1.0  0.03178  0.87143  0.08702  1.0000
  C   C2056     1.0  0.12619  0.84690  0.16114  1.0000
  S   S265      1.0  0.30227  0.76407  0.05000  1.0000
  C   C2057     1.0  0.18290  0.77610  0.16971  1.0000
  H   H1634     1.0  0.01708  0.87188  0.10484  1.0000
  S   S266      1.0  0.16553  0.85415  0.33011  1.0000
  C   C2058     1.0  0.14635  0.92233  0.02276  1.0000
  Fe  Fe132     1.0  0.16997  0.78991  0.85756  1.0000
  H   H1635     1.0  0.21026  0.94026  0.19786  1.0000
  H   H1636     1.0  0.08445  0.86920  0.02558  1.0000
  H   H1637     1.0  0.03674  0.75264  0.23855  1.0000
  H   H1638     1.0  0.23495  0.83223  0.88317  1.0000
  C   C2059     1.0  0.19901  0.76195  0.90584  1.0000
  Fe  Fe133     1.0  0.31138  0.94682  0.94748  1.0000
  C   C2060     1.0  0.13923  0.92699  0.23285  1.0000
  C   C2061     1.0  0.27086  0.84745  0.95675  1.0000
  C   C2062     1.0  0.08608  0.84865  0.88319  1.0000
  C   C2063     1.0  0.30340  0.99176  0.97210  1.0000
  H   H1639     1.0  0.27156  0.97127  0.18769  1.0000
  C   C2064     1.0  0.16838  0.79603  0.20970  1.0000
  H   H1640     1.0  0.10992  0.87074  0.07939  1.0000
  C   C2065     1.0  0.22296  0.95260  0.99146  1.0000
  C   C2066     1.0  0.33232  0.76648  0.87664  1.0000
  H   H1641     1.0  0.01826  0.81334  0.32610  1.0000
  H   H1642     1.0  0.13468  0.95990  0.95661  1.0000
  H   H1643     1.0  0.14339  0.91800  0.09272  1.0000
  H   H1644     1.0  0.05149  0.89875  0.86101  1.0000
  C   C2067     1.0  0.09438  0.98634  0.99960  1.0000
  H   H1645     1.0  0.29185  0.83177  0.22036  1.0000
  H   H1646     1.0  0.35416  0.96081  0.05881  1.0000
  C   C2068     1.0  0.27909  0.94923  0.28770  1.0000
  H   H1647     1.0  0.23962  0.79713  0.90091  1.0000
  H   H1648     1.0  0.26871  0.87112  0.84220  1.0000
  H   H1649     1.0  0.39070  0.97535  0.92994  1.0000
  H   H1650     1.0  0.46910  0.75497  0.09678  1.0000
  C   C2069     1.0  0.16975  0.77819  0.05411  1.0000
  H   H1651     1.0  0.30735  0.81192  0.29946  1.0000
  C   C2070     1.0  0.31667  0.75272  0.85842  1.0000
  C   C2071     1.0  0.05855  0.78297  0.13691  1.0000
  C   C2072     1.0  0.13102  0.95470  0.02672  1.0000
  C   C2073     1.0  0.26262  0.96786  0.83379  1.0000
  C   C2074     1.0  0.09013  0.76355  0.01499  1.0000
  C   C2075     1.0  0.20654  0.84873  0.97230  1.0000
  H   H1652     1.0  0.27027  0.92529  0.87792  1.0000
  C   C2076     1.0  0.43049  0.00032  0.23489  1.0000
  C   C2077     1.0  0.05041  0.99296  0.89492  1.0000
  H   H1653     1.0  0.06552  0.93205  0.98311  1.0000
  C   C2078     1.0  0.16300  0.90305  0.21761  1.0000
  C   C2079     1.0  0.05632  0.99945  0.15156  1.0000
  H   H1654     1.0  0.31272  0.80617  0.98510  1.0000
  H   H1655     1.0  0.07818  0.99288  0.32981  1.0000
  H   H1656     1.0  0.05488  0.76869  0.95658  1.0000
  C   C2080     1.0  0.14945  0.88922  0.97717  1.0000
  H   H1657     1.0  0.25406  0.85439  0.32648  1.0000
  H   H1658     1.0  0.23212  0.97036  0.99151  1.0000
  C   C2081     1.0  0.23506  0.94178  0.97735  1.0000
  H   H1659     1.0  0.05578  0.90330  0.09400  1.0000
  C   C2082     1.0  0.48753  0.75580  0.92514  1.0000
  H   H1660     1.0  0.27692  0.80014  0.87459  1.0000
  C   C2083     1.0  0.34868  0.76241  0.29335  1.0000
  C   C2084     1.0  0.32885  0.84146  0.12268  1.0000
  H   H1661     1.0  0.29930  0.87835  0.90741  1.0000
  H   H1662     1.0  0.15333  0.83266  0.03439  1.0000
  C   C2085     1.0  0.19922  0.94060  0.00501  1.0000
  H   H1663     1.0  0.31954  0.95136  0.18367  1.0000
  C   C2086     1.0  0.33932  0.76216  0.25817  1.0000
  H   H1664     1.0  0.24156  0.82117  0.12776  1.0000
  H   H1665     1.0  0.05945  0.77168  0.29312  1.0000
  H   H1666     1.0  0.07092  0.97699  0.14342  1.0000
  H   H1667     1.0  0.14859  0.93207  0.95261  1.0000
  C   C2087     1.0  0.06017  0.76331  0.98461  1.0000
  C   C2088     1.0  0.29540  0.93024  0.24869  1.0000
  H   H1668     1.0  0.21377  0.75839  0.95895  1.0000
  H   H1669     1.0  0.20251  0.93842  0.12624  1.0000
  S   S267      1.0  0.20013  0.96571  0.87299  1.0000
  C   C2089     1.0  0.09030  0.77584  0.25203  1.0000
  H   H1670     1.0  0.08836  0.93334  0.84879  1.0000
  C   C2090     1.0  0.06249  0.92485  0.95644  1.0000
  C   C2091     1.0  0.34392  0.94750  0.29738  1.0000
  C   C2092     1.0  0.34786  0.87641  0.29493  1.0000
  C   C2093     1.0  0.35372  0.98605  0.30142  1.0000
  H   H1671     1.0  0.17992  0.79576  0.05422  1.0000
  H   H1672     1.0  0.34492  0.88366  0.84353  1.0000
  C   C2094     1.0  0.34778  0.82440  0.94496  1.0000
  H   H1673     1.0  0.31364  0.86112  0.14480  1.0000
  C   C2095     1.0  0.37978  0.79475  0.10081  1.0000
  H   H1674     1.0  0.31522  0.84166  0.01005  1.0000
  H   H1675     1.0  0.21170  0.88574  0.05779  1.0000
  S   S268      1.0  0.10447  0.96079  0.90541  1.0000
  Fe  Fe134     1.0  0.13735  0.80804  0.84289  1.0000
  H   H1676     1.0  0.15712  0.79562  0.23870  1.0000
  H   H1677     1.0  0.35028  0.77295  0.86193  1.0000
  C   C2096     1.0  0.13641  0.95062  0.98646  1.0000
  C   C2097     1.0  0.08326  0.77071  0.97889  1.0000
  H   H1678     1.0  0.04370  0.92782  0.33028  1.0000
  C   C2098     1.0  0.31425  0.87237  0.25803  1.0000
  C   C2099     1.0  0.27536  0.81578  0.86654  1.0000
  H   H1679     1.0  0.02833  0.81837  0.83513  1.0000
  C   C2100     1.0  0.37219  0.77661  0.08273  1.0000
  C   C2101     1.0  0.17117  0.83770  0.02646  1.0000
  C   C2102     1.0  0.40430  0.99291  0.92191  1.0000
  C   C2103     1.0  0.06065  0.88133  0.25374  1.0000
  H   H1680     1.0  0.11923  0.83478  0.19494  1.0000
  C   C2104     1.0  0.29386  0.86413  0.93761  1.0000
  H   H1681     1.0  0.23244  0.94056  0.88610  1.0000
  C   C2105     1.0  0.22783  0.88738  0.84806  1.0000
  H   H1682     1.0  0.15720  0.75916  0.23416  1.0000
  H   H1683     1.0  0.33115  0.93032  0.29935  1.0000
  C   C2106     1.0  0.36312  0.83729  0.90195  1.0000
  C   C2107     1.0  0.30970  0.86265  0.95794  1.0000
  H   H1684     1.0  0.09763  0.88715  0.30425  1.0000
  C   C2108     1.0  0.42010  0.99408  0.33050  1.0000
  C   C2109     1.0  0.38409  0.99014  0.16213  1.0000
  C   C2110     1.0  0.07579  0.82558  0.91136  1.0000
  H   H1685     1.0  0.14830  0.92650  0.29366  1.0000
  S   S269      1.0  0.17688  0.80466  0.91311  1.0000
  Fe  Fe135     1.0  0.31717  0.94264  0.85339  1.0000
  H   H1686     1.0  0.17545  0.84161  0.95675  1.0000
  H   H1687     1.0  0.25850  0.88567  0.02883  1.0000
  H   H1688     1.0  0.06028  0.95746  0.02816  1.0000
  H   H1689     1.0  0.21874  0.92076  0.07897  1.0000
  C   C2111     1.0  0.13229  0.98476  0.15176  1.0000
  H   H1690     1.0  0.25954  0.98197  0.12382  1.0000
  C   C2112     1.0  0.14124  0.92678  0.06297  1.0000
  C   C2113     1.0  0.29312  0.86674  0.06372  1.0000
  C   C2114     1.0  0.07228  0.97435  0.02899  1.0000
  H   H1691     1.0  0.25667  0.95468  0.06149  1.0000
  C   C2115     1.0  0.03822  0.84800  0.23272  1.0000
  H   H1692     1.0  0.34132  0.81843  0.10967  1.0000
  H   H1693     1.0  0.29904  0.89806  0.01574  1.0000
  H   H1694     1.0  0.16076  0.85658  0.15834  1.0000
  C   C2116     1.0  0.19062  0.75242  0.87414  1.0000
  C   C2117     1.0  0.15393  0.98727  0.13697  1.0000
  H   H1695     1.0  0.09534  0.90280  0.21321  1.0000
  C   C2118     1.0  0.41729  0.99836  0.95095  1.0000
  H   H1696     1.0  0.33780  0.85395  0.08911  1.0000
  H   H1697     1.0  0.34858  0.99876  0.30597  1.0000
  C   C2119     1.0  0.26468  0.99380  0.14278  1.0000
  C   C2120     1.0  0.21715  0.88744  0.08677  1.0000
  H   H1698     1.0  0.08664  0.78912  0.08363  1.0000
  C   C2121     1.0  0.28012  0.82550  0.01193  1.0000
  H   H1699     1.0  0.40991  0.91279  0.24843  1.0000
  C   C2122     1.0  0.06021  0.98058  0.16623  1.0000
  C   C2123     1.0  0.29732  0.92615  0.10932  1.0000
  C   C2124     1.0  0.03452  0.99039  0.22811  1.0000
  H   H1700     1.0  0.26185  0.81520  0.31515  1.0000
  H   H1701     1.0  0.09371  0.84112  0.15470  1.0000
  C   C2125     1.0  0.16136  0.90933  0.25636  1.0000
  C   C2126     1.0  0.14963  0.85920  0.14050  1.0000
  H   H1702     1.0  0.15442  0.90414  0.15640  1.0000
  H   H1703     1.0  0.02214  0.83308  0.23687  1.0000
  S   S270      1.0  0.19366  0.84479  0.25043  1.0000
  H   H1704     1.0  0.29578  0.76531  0.96469  1.0000
  C   C2127     1.0  0.32475  0.77112  0.91476  1.0000
  C   C2128     1.0  0.07000  0.76369  0.28723  1.0000
  S   S271      1.0  0.35020  0.94309  0.84878  1.0000
  H   H1705     1.0  0.24022  0.75667  0.26733  1.0000
  H   H1706     1.0  0.27181  0.97377  0.85666  1.0000
  C   C2129     1.0  0.35524  0.84174  0.86576  1.0000
  C   C2130     1.0  0.31357  0.82699  0.31035  1.0000
  C   C2131     1.0  0.40608  0.90735  0.31839  1.0000
  C   C2132     1.0  0.33190  0.83334  0.87230  1.0000
  C   C2133     1.0  0.24051  0.94905  0.85045  1.0000
  H   H1707     1.0  0.31101  0.87221  0.05700  1.0000
  C   C2134     1.0  0.30869  0.85958  0.30629  1.0000
  S   S272      1.0  0.32627  0.97308  0.87852  1.0000
  H   H1708     1.0  0.13851  0.82324  0.27739  1.0000
  H   H1709     1.0  0.19109  0.88918  0.98930  1.0000
  H   H1710     1.0  0.23877  0.96930  0.27595  1.0000
  C   C2135     1.0  0.34948  0.75905  0.09932  1.0000
  C   C2136     1.0  0.40967  0.92039  0.27492  1.0000
  C   C2137     1.0  0.30840  0.95099  0.21267  1.0000
  H   H1711     1.0  0.12963  0.94620  0.09606  1.0000
  C   C2138     1.0  0.27181  0.98786  0.17913  1.0000
  C   C2139     1.0  0.28681  0.97086  0.00513  1.0000
  S   S273      1.0  0.33696  0.88675  0.94143  1.0000
  C   C2140     1.0  0.31668  0.82054  0.91576  1.0000
  C   C2141     1.0  0.02718  0.96586  0.96999  1.0000
  C   C2142     1.0  0.17725  0.77111  0.01970  1.0000
  C   C2143     1.0  0.16309  0.90173  0.93243  1.0000
  C   C2144     1.0  0.04994  0.80989  0.07076  1.0000
  Fe  Fe136     1.0  0.13931  0.79053  0.93712  1.0000
  P   P74       1.0  0.15674  0.90191  0.02021  1.0000
  C   C2145     1.0  0.22673  0.99057  0.84361  1.0000
  S   S274      1.0  0.14111  0.82322  0.89804  1.0000
  H   H1712     1.0  0.17178  0.83478  0.09385  1.0000
  S   S275      1.0  0.34402  0.94735  0.94974  1.0000
  Fe  Fe137     1.0  0.22363  0.85949  0.27477  1.0000
  H   H1713     1.0  0.19734  0.96909  0.08073  1.0000
  C   C2146     1.0  0.07263  0.79250  0.09268  1.0000
  H   H1714     1.0  0.41397  0.95228  0.23251  1.0000
  H   H1715     1.0  0.28188  0.83334  0.11231  1.0000
  C   C2147     1.0  0.33087  0.82129  0.13456  1.0000
  S   S276      1.0  0.24659  0.76428  0.10418  1.0000
  H   H1716     1.0  0.13337  0.92531  0.16984  1.0000
  C   C2148     1.0  0.19863  0.81819  0.13874  1.0000
  H   H1717     1.0  0.28883  0.76506  0.14872  1.0000
  C   C2149     1.0  0.15886  0.87559  0.09763  1.0000
  C   C2150     1.0  0.26619  0.98742  0.30135  1.0000
  C   C2151     1.0  0.27678  0.84493  0.09472  1.0000
  C   C2152     1.0  0.20424  0.95318  0.13697  1.0000
  C   C2153     1.0  0.29189  0.94296  0.11808  1.0000
  H   H1718     1.0  0.35338  0.99110  0.16182  1.0000
  C   C2154     1.0  0.15286  0.90876  0.18655  1.0000
  H   H1719     1.0  0.06158  0.77206  0.16199  1.0000
  C   C2155     1.0  0.11191  0.85076  0.13861  1.0000
  C   C2156     1.0  0.22938  0.87357  0.14710  1.0000
  H   H1720     1.0  0.31587  0.98653  0.18472  1.0000
  C   C2157     1.0  0.19779  0.79733  0.13545  1.0000
  H   H1721     1.0  0.05434  0.95228  0.22256  1.0000
  H   H1722     1.0  0.37069  0.80955  0.14897  1.0000
  H   H1723     1.0  0.30409  0.88196  0.20096  1.0000
  C   C2158     1.0  0.04047  0.78730  0.14846  1.0000
  C   C2159     1.0  0.20847  0.95412  0.17757  1.0000
  H   H1724     1.0  0.15592  0.97186  0.14377  1.0000
  C   C2160     1.0  0.38252  0.97405  0.29365  1.0000
  H   H1725     1.0  0.18277  0.76018  0.16716  1.0000
  C   C2161     1.0  0.29869  0.87414  0.23697  1.0000
  H   H1726     1.0  0.24081  0.89630  0.18580  1.0000
  H   H1727     1.0  0.09355  0.99890  0.88425  1.0000
  H   H1728     1.0  0.06216  0.89246  0.27434  1.0000
  C   C2162     1.0  0.41003  0.00030  0.08968  1.0000
  C   C2163     1.0  0.33796  0.85216  0.27717  1.0000
  C   C2164     1.0  0.03837  0.97163  0.24229  1.0000
  C   C2165     1.0  0.02323  0.94698  0.95447  1.0000
  S   S277      1.0  0.21981  0.89045  0.27970  1.0000
  S   S278      1.0  0.17918  0.88999  0.20373  1.0000
  C   C2166     1.0  0.30649  0.97084  0.21369  1.0000
  H   H1729     1.0  0.09538  0.79315  0.23057  1.0000
  C   C2167     1.0  0.24338  0.97387  0.30438  1.0000
  C   C2168     1.0  0.03995  0.86136  0.26154  1.0000
  H   H1730     1.0  0.21230  0.97288  0.22480  1.0000
  C   C2169     1.0  0.34897  0.79843  0.29452  1.0000
  H   H1731     1.0  0.33122  0.88065  0.23517  1.0000
  C   C2170     1.0  0.10414  0.76580  0.24503  1.0000
  S   S279      1.0  0.12006  0.98875  0.28051  1.0000
  Fe  Fe138     1.0  0.16850  0.98993  0.32703  1.0000
  H   H1732     1.0  0.14366  0.76806  0.11500  1.0000
  C   C2171     1.0  0.25033  0.78729  0.28793  1.0000
  H   H1733     1.0  0.16942  0.90509  0.28014  1.0000
  C   C2172     1.0  0.28586  0.85607  0.32861  1.0000
  H   H1734     1.0  0.27044  0.91312  0.31360  1.0000
  C   C2173     1.0  0.14968  0.92165  0.26371  1.0000
  H   H1735     1.0  0.26756  0.94785  0.31737  1.0000
  C   C2174     1.0  0.36622  0.95229  0.29332  1.0000
  H   H1736     1.0  0.41592  0.99000  0.15208  1.0000
  C   C2175     1.0  0.24260  0.99849  0.86631  1.0000
  P   P75       1.0  0.41130  0.98019  0.28972  1.0000
  H   H1737     1.0  0.09947  0.97870  0.97622  1.0000
  C   C2176     1.0  0.12263  0.81259  0.30425  1.0000
  H   H1738     1.0  0.02509  0.99466  0.25226  1.0000
  C   C2177     1.0  0.27086  0.85901  0.30689  1.0000
  C   C2178     1.0  0.36921  0.99390  0.14136  1.0000
  C   C2179     1.0  0.25823  0.79747  0.31939  1.0000
  C   C2180     1.0  0.20698  0.75080  0.93487  1.0000
  C   C2181     1.0  0.86512  0.21393  0.39630  1.0000
  C   C2182     1.0  0.99618  0.21642  0.68667  1.0000
  C   C2183     1.0  0.96657  0.24697  0.77654  1.0000
  H   H1739     1.0  0.60493  0.19034  0.67191  1.0000
  S   S280      1.0  0.93381  0.00136  0.73993  1.0000
  C   C2184     1.0  0.91001  0.06313  0.39825  1.0000
  H   H1740     1.0  0.59140  0.20189  0.37046  1.0000
  C   C2185     1.0  0.88243  0.24174  0.80881  1.0000
  C   C2186     1.0  0.60299  0.19688  0.35434  1.0000
  C   C2187     1.0  0.80817  0.22923  0.40400  1.0000
  H   H1741     1.0  0.84675  0.16255  0.47797  1.0000
  C   C2188     1.0  0.55705  0.21287  0.43418  1.0000
  C   C2189     1.0  0.93103  0.01461  0.78055  1.0000
  C   C2190     1.0  0.95069  0.24811  0.56532  1.0000
  H   H1742     1.0  0.95893  0.08592  0.44899  1.0000
  C   C2191     1.0  0.62657  0.21207  0.33932  1.0000
  S   S281      1.0  0.96736  0.11442  0.79771  1.0000
  C   C2192     1.0  0.55921  0.19257  0.62479  1.0000
  H   H1743     1.0  0.53543  0.15032  0.35724  1.0000
  C   C2193     1.0  0.84465  0.20974  0.38721  1.0000
  C   C2194     1.0  0.52852  0.16375  0.69136  1.0000
  H   H1744     1.0  0.92314  0.00853  0.64847  1.0000
  H   H1745     1.0  0.98466  0.20030  0.46960  1.0000
  C   C2195     1.0  0.94704  0.24812  0.79400  1.0000
  C   C2196     1.0  0.00744  0.11666  0.36067  1.0000
  H   H1746     1.0  0.95458  0.17579  0.54300  1.0000
  H   H1747     1.0  0.89651  0.15731  0.68295  1.0000
  C   C2197     1.0  0.82583  0.17104  0.44316  1.0000
  C   C2198     1.0  0.53580  0.19476  0.43839  1.0000
  C   C2199     1.0  0.79180  0.23584  0.41621  1.0000
  P   P76       1.0  0.99868  0.07943  0.59376  1.0000
  C   C2200     1.0  0.83854  0.23169  0.80840  1.0000
  C   C2201     1.0  0.89393  0.20493  0.71921  1.0000
  C   C2202     1.0  0.93348  0.02622  0.62516  1.0000
  H   H1748     1.0  0.97162  0.06457  0.75590  1.0000
  H   H1749     1.0  0.90698  0.02544  0.59746  1.0000
  C   C2203     1.0  0.85665  0.24423  0.76849  1.0000
  H   H1750     1.0  0.89265  0.18451  0.82646  1.0000
  C   C2204     1.0  0.52195  0.11688  0.34594  1.0000
  H   H1751     1.0  0.52589  0.24536  0.68454  1.0000
  H   H1752     1.0  0.96653  0.23818  0.75205  1.0000
  C   C2205     1.0  0.62145  0.22304  0.48327  1.0000
  P   P77       1.0  0.63800  0.24038  0.34703  1.0000
  S   S282      1.0  0.97109  0.20128  0.38064  1.0000
  C   C2206     1.0  0.61702  0.20364  0.68199  1.0000
  C   C2207     1.0  0.00225  0.03425  0.35121  1.0000
  C   C2208     1.0  0.91597  0.22890  0.48388  1.0000
  H   H1753     1.0  0.93202  0.01821  0.49967  1.0000
  Fe  Fe139     1.0  0.93750  0.13302  0.42792  1.0000
  H   H1754     1.0  0.93141  0.13504  0.59504  1.0000
  H   H1755     1.0  0.57040  0.21146  0.82015  1.0000
  H   H1756     1.0  0.81072  0.15423  0.46074  1.0000
  H   H1757     1.0  0.95852  0.23251  0.66640  1.0000
  C   C2209     1.0  0.00321  0.06432  0.73730  1.0000
  C   C2210     1.0  0.56018  0.22271  0.46833  1.0000
  C   C2211     1.0  0.64212  0.22769  0.49099  1.0000
  C   C2212     1.0  0.92161  0.19178  0.72179  1.0000
  H   H1758     1.0  0.57642  0.23699  0.46419  1.0000
  C   C2213     1.0  0.51183  0.22157  0.64897  1.0000
  H   H1759     1.0  0.80948  0.18378  0.40221  1.0000
  H   H1760     1.0  0.88075  0.14494  0.37262  1.0000
  H   H1761     1.0  0.98788  0.22719  0.51305  1.0000
  C   C2214     1.0  0.93755  0.23501  0.40967  1.0000
  C   C2215     1.0  0.95584  0.03958  0.62451  1.0000
  S   S283      1.0  0.97137  0.15312  0.37623  1.0000
  C   C2216     1.0  0.91104  0.20131  0.69682  1.0000
  H   H1762     1.0  0.51906  0.13383  0.43857  1.0000
  H   H1763     1.0  0.98444  0.07603  0.48356  1.0000
  C   C2217     1.0  0.88062  0.19187  0.60772  1.0000
  C   C2218     1.0  0.00912  0.11061  0.57072  1.0000
  C   C2219     1.0  0.60981  0.21368  0.71120  1.0000
  C   C2220     1.0  0.91376  0.03439  0.81489  1.0000
  H   H1764     1.0  0.88542  0.21218  0.70104  1.0000
  C   C2221     1.0  0.00812  0.04562  0.57280  1.0000
  H   H1765     1.0  0.78018  0.22784  0.44999  1.0000
  P   P78       1.0  0.58024  0.20539  0.73182  1.0000
  C   C2222     1.0  0.64892  0.23747  0.70792  1.0000
  C   C2223     1.0  0.51652  0.12219  0.41884  1.0000
  H   H1766     1.0  0.90235  0.12592  0.66503  1.0000
  H   H1767     1.0  0.51207  0.22723  0.45518  1.0000
  C   C2224     1.0  0.55602  0.22809  0.75261  1.0000
  C   C2225     1.0  0.98458  0.06589  0.72895  1.0000
  H   H1768     1.0  0.90556  0.21747  0.51750  1.0000
  S   S284      1.0  0.54552  0.22685  0.55004  1.0000
  H   H1769     1.0  0.87381  0.20117  0.78307  1.0000
  C   C2226     1.0  0.89718  0.21071  0.61599  1.0000
  C   C2227     1.0  0.97645  0.09275  0.42970  1.0000
  H   H1770     1.0  0.96232  0.03187  0.64763  1.0000
  C   C2228     1.0  0.92437  0.03580  0.59669  1.0000
  C   C2229     1.0  0.52117  0.19530  0.51251  1.0000
  P   P79       1.0  0.91894  0.20796  0.63678  1.0000
  H   H1771     1.0  0.60395  0.22250  0.43439  1.0000
  H   H1772     1.0  0.51134  0.14933  0.70703  1.0000
  C   C2230     1.0  0.57246  0.20175  0.65127  1.0000
  C   C2231     1.0  0.86571  0.19704  0.42928  1.0000
  C   C2232     1.0  0.98294  0.06987  0.68566  1.0000
  C   C2233     1.0  0.63957  0.23467  0.40343  1.0000
  C   C2234     1.0  0.51995  0.24167  0.34372  1.0000
  H   H1773     1.0  0.88379  0.18384  0.34473  1.0000
  Fe  Fe140     1.0  0.93724  0.17786  0.43353  1.0000
  H   H1774     1.0  0.82175  0.22803  0.80711  1.0000
  H   H1775     1.0  0.88153  0.20036  0.43616  1.0000
  H   H1776     1.0  0.53451  0.16536  0.75402  1.0000
  H   H1777     1.0  0.64574  0.20371  0.64142  1.0000
  C   C2235     1.0  0.90932  0.16160  0.65238  1.0000
  S   S285      1.0  0.53225  0.18503  0.39244  1.0000
  S   S286      1.0  0.99265  0.00737  0.74551  1.0000
  H   H1778     1.0  0.53667  0.24537  0.76622  1.0000
  H   H1779     1.0  0.98408  0.21104  0.75653  1.0000
  H   H1780     1.0  0.60656  0.21737  0.51094  1.0000
  C   C2236     1.0  0.94413  0.01692  0.80975  1.0000
  H   H1781     1.0  0.53983  0.23628  0.38458  1.0000
  S   S287      1.0  0.91645  0.19034  0.47182  1.0000
  C   C2237     1.0  0.62011  0.22624  0.43973  1.0000
  H   H1782     1.0  0.56860  0.15658  0.76826  1.0000
  H   H1783     1.0  0.88105  0.17564  0.61209  1.0000
  H   H1784     1.0  0.88088  0.22984  0.37762  1.0000
  H   H1785     1.0  0.93888  0.24237  0.54671  1.0000
  C   C2238     1.0  0.59407  0.17489  0.34879  1.0000
  C   C2239     1.0  0.88543  0.15351  0.33700  1.0000
  H   H1786     1.0  0.90205  0.04118  0.81676  1.0000
  C   C2240     1.0  0.95985  0.07239  0.56755  1.0000
  H   H1787     1.0  0.99290  0.03286  0.59999  1.0000
  C   C2241     1.0  0.66006  0.23835  0.41163  1.0000
  C   C2242     1.0  0.86348  0.19401  0.59279  1.0000
  C   C2243     1.0  0.93867  0.18963  0.58329  1.0000
  H   H1788     1.0  0.00436  0.06130  0.77096  1.0000
  H   H1789     1.0  0.56576  0.20058  0.58871  1.0000
  H   H1790     1.0  0.82373  0.24011  0.48055  1.0000
  H   H1791     1.0  0.84932  0.21651  0.57512  1.0000
  H   H1792     1.0  0.52624  0.21861  0.64233  1.0000
  C   C2244     1.0  0.82315  0.23941  0.36019  1.0000
  H   H1793     1.0  0.89987  0.03918  0.36080  1.0000
  S   S288      1.0  0.92349  0.15411  0.39390  1.0000
  H   H1794     1.0  0.96931  0.09032  0.54575  1.0000
  C   C2245     1.0  0.52416  0.23631  0.38424  1.0000
  H   H1795     1.0  0.93237  0.24015  0.78298  1.0000
  C   C2246     1.0  0.99573  0.22365  0.72429  1.0000
  C   C2247     1.0  0.99354  0.02451  0.43148  1.0000
  P   P80       1.0  0.84368  0.23046  0.34228  1.0000
  C   C2248     1.0  0.00278  0.22652  0.49722  1.0000
  S   S289      1.0  0.97416  0.16989  0.82629  1.0000
  C   C2249     1.0  0.89791  0.18934  0.79035  1.0000
  C   C2250     1.0  0.62587  0.23025  0.72492  1.0000
  H   H1796     1.0  0.92304  0.17817  0.78748  1.0000
  C   C2251     1.0  0.98273  0.03805  0.43080  1.0000
  C   C2252     1.0  0.89609  0.23152  0.60988  1.0000
  C   C2253     1.0  0.88734  0.19883  0.76583  1.0000
  H   H1797     1.0  0.80899  0.21624  0.42886  1.0000
  C   C2254     1.0  0.56588  0.16278  0.79607  1.0000
  C   C2255     1.0  0.94552  0.23492  0.60993  1.0000
  C   C2256     1.0  0.91582  0.02333  0.78322  1.0000
  H   H1798     1.0  0.90564  0.04962  0.42904  1.0000
  H   H1799     1.0  0.52687  0.16699  0.62402  1.0000
  H   H1800     1.0  0.93479  0.18872  0.70536  1.0000
  H   H1801     1.0  0.90842  0.24615  0.61686  1.0000
  C   C2257     1.0  0.52585  0.13157  0.37229  1.0000
  C   C2258     1.0  0.86264  0.21485  0.58643  1.0000
  C   C2259     1.0  0.82515  0.18791  0.41024  1.0000
  C   C2260     1.0  0.99081  0.08719  0.44910  1.0000
  H   H1802     1.0  0.64332  0.22592  0.52458  1.0000
  C   C2261     1.0  0.53723  0.17364  0.64476  1.0000
  C   C2262     1.0  0.91252  0.14374  0.64231  1.0000
  H   H1803     1.0  0.87828  0.24973  0.59019  1.0000
  H   H1804     1.0  0.54244  0.21110  0.77484  1.0000
  C   C2263     1.0  0.93752  0.05890  0.56797  1.0000
  H   H1805     1.0  0.57088  0.21993  0.40372  1.0000
  H   H1806     1.0  0.58909  0.21708  0.63525  1.0000
  Fe  Fe141     1.0  0.95830  0.17565  0.34419  1.0000
  H   H1807     1.0  0.00993  0.11062  0.50327  1.0000
  H   H1808     1.0  0.89941  0.24568  0.80908  1.0000
  C   C2264     1.0  0.57016  0.18591  0.78838  1.0000
  C   C2265     1.0  0.51795  0.18568  0.47787  1.0000
  H   H1809     1.0  0.94378  0.22832  0.38578  1.0000
  C   C2266     1.0  0.54182  0.17279  0.71796  1.0000
  H   H1810     1.0  0.93029  0.06649  0.54643  1.0000
  H   H1811     1.0  0.97358  0.11187  0.37063  1.0000
  C   C2267     1.0  0.98156  0.04951  0.39037  1.0000
  C   C2268     1.0  0.66136  0.23515  0.45526  1.0000
  C   C2269     1.0  0.54224  0.21420  0.50737  1.0000
  C   C2270     1.0  0.64013  0.21098  0.66497  1.0000
  C   C2271     1.0  0.99179  0.04803  0.35045  1.0000
  H   H1812     1.0  0.69074  0.24511  0.75911  1.0000
  H   H1813     1.0  0.93079  0.12178  0.35577  1.0000
  C   C2272     1.0  0.84608  0.17566  0.45281  1.0000
  C   C2273     1.0  0.90674  0.05722  0.35967  1.0000
  C   C2274     1.0  0.87895  0.23359  0.59494  1.0000
  C   C2275     1.0  0.56678  0.19360  0.82498  1.0000
  C   C2276     1.0  0.96941  0.06272  0.59527  1.0000
  H   H1814     1.0  0.67735  0.23879  0.46142  1.0000
  H   H1815     1.0  0.95595  0.01029  0.80780  1.0000
  C   C2277     1.0  0.96159  0.24250  0.63255  1.0000
  C   C2278     1.0  0.57664  0.23065  0.72853  1.0000
  H   H1816     1.0  0.96849  0.07134  0.67995  1.0000
  H   H1817     1.0  0.67406  0.23425  0.66351  1.0000
  S   S290      1.0  0.92179  0.09395  0.44566  1.0000
  C   C2279     1.0  0.91843  0.08642  0.39719  1.0000
  C   C2280     1.0  0.92889  0.14884  0.60296  1.0000
  H   H1818     1.0  0.90568  0.02159  0.76074  1.0000
  C   C2281     1.0  0.98473  0.10736  0.38542  1.0000
  H   H1819     1.0  0.94871  0.20712  0.55949  1.0000
  C   C2282     1.0  0.91505  0.18584  0.76835  1.0000
  Fe  Fe142     1.0  0.00221  0.11862  0.78411  1.0000
  C   C2283     1.0  0.00094  0.21129  0.47274  1.0000
  S   S291      1.0  0.94882  0.15502  0.47154  1.0000
  C   C2284     1.0  0.55263  0.24746  0.74763  1.0000
  H   H1820     1.0  0.57588  0.16333  0.36048  1.0000
  C   C2285     1.0  0.92259  0.18477  0.62315  1.0000
  H   H1821     1.0  0.97245  0.05925  0.38991  1.0000
  Fe  Fe143     1.0  0.98183  0.17706  0.41598  1.0000
  C   C2286     1.0  0.00004  0.07241  0.65018  1.0000
  C   C2287     1.0  0.51173  0.23679  0.67247  1.0000
  C   C2288     1.0  0.00307  0.02219  0.39155  1.0000
  C   C2289     1.0  0.94194  0.17178  0.57356  1.0000
  H   H1822     1.0  0.85095  0.17952  0.58588  1.0000
  H   H1823     1.0  0.99347  0.01510  0.46334  1.0000
  C   C2290     1.0  0.92426  0.22017  0.45340  1.0000
  C   C2291     1.0  0.56406  0.19159  0.69803  1.0000
  H   H1824     1.0  0.98489  0.19844  0.68999  1.0000
  H   H1825     1.0  0.85889  0.24084  0.49146  1.0000
  C   C2292     1.0  0.92407  0.10378  0.35715  1.0000
  C   C2293     1.0  0.65609  0.22803  0.67764  1.0000
  H   H1826     1.0  0.97473  0.03917  0.46174  1.0000
  H   H1827     1.0  0.67505  0.24385  0.38443  1.0000
  H   H1828     1.0  0.62065  0.23804  0.74782  1.0000
  C   C2294     1.0  0.87860  0.24939  0.76875  1.0000
  H   H1829     1.0  0.85375  0.25017  0.73721  1.0000
  C   C2295     1.0  0.92435  0.00078  0.52341  1.0000
  H   H1830     1.0  0.95608  0.00097  0.52012  1.0000
  H   H1831     1.0  0.99178  0.23377  0.86890  1.0000
  C   C2296     1.0  0.90175  0.22968  0.18189  1.0000
  C   C2297     1.0  0.54385  0.20369  0.24242  1.0000
  C   C2298     1.0  0.90173  0.08776  0.12344  1.0000
  C   C2299     1.0  0.51410  0.11035  0.26190  1.0000
  C   C2300     1.0  0.95105  0.14494  0.12264  1.0000
  Fe  Fe144     1.0  0.00145  0.11352  0.88135  1.0000
  Fe  Fe145     1.0  0.76362  0.25014  0.11348  1.0000
  C   C2301     1.0  0.78651  0.21991  0.88137  1.0000
  C   C2302     1.0  0.86532  0.09531  0.02608  1.0000
  H   H1832     1.0  0.99978  0.24628  0.10895  1.0000
  C   C2303     1.0  0.85179  0.09936  0.00159  1.0000
  C   C2304     1.0  0.52199  0.10551  0.22395  1.0000
  C   C2305     1.0  0.58080  0.14800  0.06970  1.0000
  Fe  Fe146     1.0  0.95818  0.08571  0.86022  1.0000
  H   H1833     1.0  0.51341  0.06242  0.03313  1.0000
  P   P81       1.0  0.53381  0.12884  0.28552  1.0000
  Fe  Fe147     1.0  0.89647  0.03123  0.27380  1.0000
  H   H1834     1.0  0.60796  0.23777  0.29106  1.0000
  H   H1835     1.0  0.79995  0.13722  0.17961  1.0000
  H   H1836     1.0  0.55263  0.12906  0.84554  1.0000
  S   S292      1.0  0.68724  0.22009  0.22497  1.0000
  C   C2306     1.0  0.89797  0.14414  0.11287  1.0000
  H   H1837     1.0  0.98116  0.15938  0.95415  1.0000
  C   C2307     1.0  0.54596  0.18941  0.98052  1.0000
  H   H1838     1.0  0.51398  0.15754  0.00531  1.0000
  C   C2308     1.0  0.81965  0.21512  0.28302  1.0000
  H   H1839     1.0  0.68719  0.19170  0.16787  1.0000
  H   H1840     1.0  0.00878  0.03206  0.32055  1.0000
  C   C2309     1.0  0.88567  0.07704  0.10254  1.0000
  H   H1841     1.0  0.94077  0.08775  0.03789  1.0000
  H   H1842     1.0  0.91569  0.23452  0.19586  1.0000
  Fe  Fe148     1.0  0.97853  0.13827  0.83768  1.0000
  H   H1843     1.0  0.64344  0.17726  0.29844  1.0000
  H   H1844     1.0  0.92395  0.19925  0.87386  1.0000
  H   H1845     1.0  0.93286  0.22919  0.10357  1.0000
  C   C2310     1.0  0.81464  0.17052  0.12791  1.0000
  C   C2311     1.0  0.85592  0.07438  0.96051  1.0000
  C   C2312     1.0  0.81316  0.19083  0.11259  1.0000
  C   C2313     1.0  0.92065  0.09788  0.31885  1.0000
  S   S293      1.0  0.99227  0.08784  0.84371  1.0000
  C   C2314     1.0  0.90585  0.16169  0.89417  1.0000
  C   C2315     1.0  0.89273  0.16530  0.16260  1.0000
  C   C2316     1.0  0.94272  0.05180  0.09990  1.0000
  Fe  Fe149     1.0  0.75738  0.21103  0.19154  1.0000
  C   C2317     1.0  0.64379  0.21284  0.15382  1.0000
  H   H1846     1.0  0.80995  0.22347  0.29204  1.0000
  H   H1847     1.0  0.00833  0.00334  0.13203  1.0000
  C   C2318     1.0  0.81882  0.14086  0.96996  1.0000
  C   C2319     1.0  0.99072  0.22685  0.98703  1.0000
  H   H1848     1.0  0.86665  0.06900  0.22927  1.0000
  H   H1849     1.0  0.58196  0.15253  0.13352  1.0000
  H   H1850     1.0  0.92465  0.17571  0.11484  1.0000
  C   C2320     1.0  0.52393  0.13143  0.11041  1.0000
  C   C2321     1.0  0.62587  0.15969  0.95915  1.0000
  H   H1851     1.0  0.97398  0.11631  0.27640  1.0000
  C   C2322     1.0  0.99293  0.04015  0.16510  1.0000
  H   H1852     1.0  0.57248  0.21317  0.26741  1.0000
  H   H1853     1.0  0.00293  0.10470  0.03821  1.0000
  H   H1854     1.0  0.84573  0.11137  0.00688  1.0000
  H   H1855     1.0  0.99091  0.05678  0.31898  1.0000
  C   C2323     1.0  0.99813  0.24959  0.23443  1.0000
  H   H1856     1.0  0.59765  0.19279  0.96089  1.0000
  H   H1857     1.0  0.82176  0.18201  0.21741  1.0000
  H   H1858     1.0  0.58356  0.10361  0.03846  1.0000
  H   H1859     1.0  0.00253  0.19822  0.30633  1.0000
  C   C2324     1.0  0.89350  0.24522  0.17139  1.0000
  C   C2325     1.0  0.89247  0.20832  0.17335  1.0000
  H   H1860     1.0  0.97131  0.06302  0.18911  1.0000
  C   C2326     1.0  0.88703  0.17540  0.32120  1.0000
  S   S294      1.0  0.90697  0.06825  0.27150  1.0000
  S   S295      1.0  0.91911  0.22034  0.93777  1.0000
  H   H1861     1.0  0.97823  0.12246  0.99822  1.0000
  C   C2327     1.0  0.55793  0.17796  0.86856  1.0000
  C   C2328     1.0  0.94253  0.02858  0.84058  1.0000
  H   H1862     1.0  0.86769  0.22292  0.87914  1.0000
  Fe  Fe150     1.0  0.91704  0.00568  0.23043  1.0000
  H   H1863     1.0  0.99349  0.20267  0.92136  1.0000
  H   H1864     1.0  0.92586  0.03700  0.11662  1.0000
  S   S296      1.0  0.88644  0.17427  0.02460  1.0000
  H   H1865     1.0  0.55408  0.18362  0.89649  1.0000
  H   H1866     1.0  0.61900  0.13133  0.23611  1.0000
  C   C2329     1.0  0.79624  0.19377  0.13812  1.0000
  C   C2330     1.0  0.96727  0.08151  0.27905  1.0000
  C   C2331     1.0  0.72994  0.20192  0.03406  1.0000
  C   C2332     1.0  0.65021  0.18316  0.88306  1.0000
  C   C2333     1.0  0.95224  0.06866  0.12017  1.0000
  S   S297      1.0  0.96651  0.10928  0.90198  1.0000
  S   S298      1.0  0.94622  0.20938  0.03009  1.0000
  H   H1867     1.0  0.91965  0.09779  0.10521  1.0000
  C   C2334     1.0  0.58205  0.14167  0.11301  1.0000
  C   C2335     1.0  0.98135  0.16350  0.05238  1.0000
  P   P82       1.0  0.98656  0.10924  0.12522  1.0000
  H   H1868     1.0  0.65930  0.21513  0.31112  1.0000
  H   H1869     1.0  0.74618  0.24357  0.92414  1.0000
  C   C2336     1.0  0.83693  0.21589  0.30145  1.0000
  H   H1870     1.0  0.90891  0.14272  0.08617  1.0000
  C   C2337     1.0  0.86436  0.22897  0.84864  1.0000
  S   S299      1.0  0.73554  0.21332  0.14893  1.0000
  H   H1871     1.0  0.79720  0.23707  0.88302  1.0000
  H   H1872     1.0  0.85865  0.24627  0.91478  1.0000
  C   C2338     1.0  0.59885  0.14708  0.21903  1.0000
  H   H1873     1.0  0.54758  0.16072  0.12527  1.0000
  H   H1874     1.0  0.63180  0.21884  0.15015  1.0000
  H   H1875     1.0  0.99022  0.00817  0.28304  1.0000
  C   C2339     1.0  0.72980  0.22223  0.01252  1.0000
  Fe  Fe151     1.0  0.89673  0.23480  0.96042  1.0000
  C   C2340     1.0  0.97857  0.09810  0.18548  1.0000
  H   H1876     1.0  0.89239  0.12460  0.90781  1.0000
  H   H1877     1.0  0.96073  0.20287  0.83798  1.0000
  H   H1878     1.0  0.58037  0.12581  0.90790  1.0000
  C   C2341     1.0  0.67166  0.21125  0.18874  1.0000
  H   H1879     1.0  0.83282  0.17822  0.86641  1.0000
  Fe  Fe152     1.0  0.56569  0.21015  0.11235  1.0000
  C   C2342     1.0  0.84279  0.19162  0.25979  1.0000
  C   C2343     1.0  0.95509  0.05370  0.05838  1.0000
  C   C2344     1.0  0.96305  0.12342  0.99665  1.0000
  C   C2345     1.0  0.55192  0.09137  0.92912  1.0000
  H   H1880     1.0  0.95760  0.00522  0.97716  1.0000
  C   C2346     1.0  0.80999  0.17165  0.97515  1.0000
  C   C2347     1.0  0.89639  0.05266  0.04386  1.0000
  C   C2348     1.0  0.56061  0.12924  0.26969  1.0000
  C   C2349     1.0  0.96727  0.23984  0.10224  1.0000
  H   H1881     1.0  0.95717  0.17498  0.07030  1.0000
  C   C2350     1.0  0.90948  0.05253  0.00499  1.0000
  H   H1882     1.0  0.85143  0.18216  0.25124  1.0000
  C   C2351     1.0  0.56600  0.11217  0.93569  1.0000
  Fe  Fe153     1.0  0.86566  0.19116  0.04140  1.0000
  C   C2352     1.0  0.51839  0.16386  0.11818  1.0000
  C   C2353     1.0  0.96270  0.16242  0.08085  1.0000
  C   C2354     1.0  0.97109  0.01078  0.23820  1.0000
  H   H1883     1.0  0.92477  0.11142  0.28825  1.0000
  H   H1884     1.0  0.86850  0.18754  0.14367  1.0000
  C   C2355     1.0  0.97437  0.08738  0.09921  1.0000
  H   H1885     1.0  0.94646  0.16137  0.94956  1.0000
  C   C2356     1.0  0.63142  0.18198  0.87042  1.0000
  C   C2357     1.0  0.54729  0.24538  0.99095  1.0000
  H   H1886     1.0  0.83358  0.14257  0.90348  1.0000
  H   H1887     1.0  0.77026  0.14234  0.22415  1.0000
  C   C2358     1.0  0.58101  0.13425  0.04258  1.0000
  C   C2359     1.0  0.82587  0.24763  0.00512  1.0000
  H   H1888     1.0  0.98367  0.23430  0.25992  1.0000
  C   C2360     1.0  0.00603  0.18972  0.28320  1.0000
  H   H1889     1.0  0.81976  0.12555  0.98604  1.0000
  S   S300      1.0  0.63070  0.19125  0.09360  1.0000
  H   H1890     1.0  0.82514  0.20430  0.08150  1.0000
  C   C2361     1.0  0.00259  0.20854  0.88617  1.0000
  H   H1891     1.0  0.53223  0.24553  0.31273  1.0000
  H   H1892     1.0  0.93654  0.14399  0.14476  1.0000
  C   C2362     1.0  0.63206  0.18259  0.31436  1.0000
  C   C2363     1.0  0.52881  0.24659  0.10611  1.0000
  S   S301      1.0  0.88002  0.15974  0.91961  1.0000
  H   H1893     1.0  0.65289  0.22893  0.20322  1.0000
  S   S302      1.0  0.58690  0.20754  0.15620  1.0000
  C   C2364     1.0  0.96686  0.06666  0.25419  1.0000
  C   C2365     1.0  0.91177  0.07459  0.32011  1.0000
  C   C2366     1.0  0.64725  0.19937  0.12874  1.0000
  H   H1894     1.0  0.53107  0.13200  0.00682  1.0000
  C   C2367     1.0  0.57793  0.14640  0.23089  1.0000
  C   C2368     1.0  0.66441  0.23433  0.98571  1.0000
  C   C2369     1.0  0.98166  0.23506  0.12291  1.0000
  H   H1895     1.0  0.70475  0.24560  0.89149  1.0000
  C   C2370     1.0  0.55884  0.19920  0.26154  1.0000
  C   C2371     1.0  0.93450  0.20661  0.16040  1.0000
  H   H1896     1.0  0.51484  0.18919  0.21917  1.0000
  H   H1897     1.0  0.94774  0.04050  0.04302  1.0000
  H   H1898     1.0  0.91856  0.06792  0.97531  1.0000
  C   C2372     1.0  0.87446  0.08091  0.01773  1.0000
  C   C2373     1.0  0.97230  0.07487  0.20764  1.0000
  H   H1899     1.0  0.67198  0.23551  0.86283  1.0000
  C   C2374     1.0  0.94594  0.18577  0.85367  1.0000
  C   C2375     1.0  0.55289  0.15474  0.87597  1.0000
  H   H1900     1.0  0.80387  0.17963  0.99618  1.0000
  C   C2376     1.0  0.68589  0.24092  0.95784  1.0000
  H   H1901     1.0  0.74487  0.23899  0.00359  1.0000
  C   C2377     1.0  0.52835  0.07610  0.00613  1.0000
  H   H1902     1.0  0.66186  0.23354  0.02038  1.0000
  C   C2378     1.0  0.69066  0.17881  0.03858  1.0000
  H   H1903     1.0  0.57536  0.15934  0.20979  1.0000
  H   H1904     1.0  0.96202  0.07487  0.31525  1.0000
  H   H1905     1.0  0.95311  0.03090  0.86223  1.0000
  H   H1906     1.0  0.98475  0.13115  0.19411  1.0000
  C   C2379     1.0  0.60608  0.24759  0.31280  1.0000
  C   C2380     1.0  0.92199  0.10447  0.01600  1.0000
  H   H1907     1.0  0.99012  0.17669  0.01960  1.0000
  C   C2381     1.0  0.53851  0.15841  0.26576  1.0000
  H   H1908     1.0  0.51266  0.08686  0.17747  1.0000
  H   H1909     1.0  0.58023  0.21806  0.95678  1.0000
  H   H1910     1.0  0.92957  0.12821  0.87195  1.0000
  C   C2382     1.0  0.58536  0.11314  0.28368  1.0000
  C   C2383     1.0  0.68846  0.24100  0.91348  1.0000
  S   S303      1.0  0.52799  0.19084  0.12695  1.0000
  H   H1911     1.0  0.66695  0.19282  0.85858  1.0000
  H   H1912     1.0  0.62959  0.22396  0.99058  1.0000
  H   H1913     1.0  0.90014  0.14527  0.23813  1.0000
  C   C2384     1.0  0.58388  0.12176  0.12936  1.0000
  H   H1914     1.0  0.99369  0.04860  0.13178  1.0000
  C   C2385     1.0  0.97677  0.07280  0.03643  1.0000
  C   C2386     1.0  0.64869  0.22908  0.92478  1.0000
  H   H1915     1.0  0.52188  0.05744  0.95897  1.0000
  H   H1916     1.0  0.63355  0.19071  0.83612  1.0000
  H   H1917     1.0  0.54487  0.14235  0.90963  1.0000
  C   C2387     1.0  0.82594  0.19137  0.24094  1.0000
  C   C2388     1.0  0.94760  0.16579  0.85303  1.0000
  S   S304      1.0  0.75996  0.17866  0.21417  1.0000
  C   C2389     1.0  0.64747  0.17225  0.92749  1.0000
  C   C2390     1.0  0.60264  0.13055  0.24541  1.0000
  C   C2391     1.0  0.88451  0.03219  0.08139  1.0000
  H   H1918     1.0  0.74508  0.20318  0.04178  1.0000
  H   H1919     1.0  0.87421  0.03147  0.11198  1.0000
  S   S305      1.0  0.96696  0.18398  0.26979  1.0000
  C   C2392     1.0  0.56440  0.11245  0.29582  1.0000
  C   C2393     1.0  0.82656  0.15047  0.92335  1.0000
  C   C2394     1.0  0.97263  0.21560  0.16119  1.0000
  C   C2395     1.0  0.95803  0.12857  0.13598  1.0000
  C   C2396     1.0  0.87627  0.23984  0.15143  1.0000
  C   C2397     1.0  0.56128  0.11510  0.97766  1.0000
  C   C2398     1.0  0.53310  0.07336  0.96430  1.0000
  C   C2399     1.0  0.87496  0.12743  0.13076  1.0000
  H   H1920     1.0  0.56800  0.17355  0.28781  1.0000
  H   H1921     1.0  0.52925  0.23286  0.09419  1.0000
  C   C2400     1.0  0.82634  0.17086  0.90252  1.0000
  C   C2401     1.0  0.92728  0.03725  0.84325  1.0000
  Fe  Fe154     1.0  0.60635  0.24842  0.03486  1.0000
  C   C2402     1.0  0.89306  0.18644  0.27520  1.0000
  P   P83       1.0  0.81915  0.20884  0.90128  1.0000
  C   C2403     1.0  0.88564  0.01203  0.07990  1.0000
  C   C2404     1.0  0.97389  0.10481  0.25717  1.0000
  H   H1922     1.0  0.92049  0.03230  0.97339  1.0000
  C   C2405     1.0  0.60983  0.16957  0.90206  1.0000
  C   C2406     1.0  0.99090  0.01766  0.25068  1.0000
  C   C2407     1.0  0.00153  0.22613  0.85614  1.0000
  H   H1923     1.0  0.57937  0.16345  0.05781  1.0000
  Fe  Fe155     1.0  0.60545  0.24682  0.13129  1.0000
  S   S306      1.0  0.92542  0.05218  0.88112  1.0000
  H   H1924     1.0  0.90905  0.12692  0.98806  1.0000
  C   C2408     1.0  0.94911  0.20133  0.17984  1.0000
  C   C2409     1.0  0.56578  0.16045  0.98297  1.0000
  H   H1925     1.0  0.53115  0.23236  0.17019  1.0000
  C   C2410     1.0  0.89729  0.17554  0.24463  1.0000
  H   H1926     1.0  0.59547  0.16900  0.89187  1.0000
  H   H1927     1.0  0.84288  0.11684  0.17782  1.0000
  H   H1928     1.0  0.58506  0.11706  0.16280  1.0000
  H   H1929     1.0  0.86148  0.20407  0.30400  1.0000
  C   C2411     1.0  0.92832  0.14368  0.87262  1.0000
  H   H1930     1.0  0.63443  0.22498  0.91182  1.0000
  S   S307      1.0  0.91490  0.01241  0.29614  1.0000
  C   C2412     1.0  0.92517  0.18371  0.87446  1.0000
  C   C2413     1.0  0.90733  0.14165  0.89278  1.0000
  C   C2414     1.0  0.81831  0.18181  0.92828  1.0000
  C   C2415     1.0  0.66993  0.23523  0.89705  1.0000
  H   H1931     1.0  0.96191  0.04862  0.27096  1.0000
  H   H1932     1.0  0.78343  0.16683  0.89210  1.0000
  C   C2416     1.0  0.77885  0.18049  0.88650  1.0000
  C   C2417     1.0  0.64104  0.20436  0.32086  1.0000
  C   C2418     1.0  0.79269  0.20239  0.88983  1.0000
  H   H1933     1.0  0.66210  0.17362  0.93757  1.0000
  C   C2419     1.0  0.57942  0.18486  0.96908  1.0000
  C   C2420     1.0  0.56956  0.19926  0.96721  1.0000
  C   C2421     1.0  0.69041  0.19917  0.01749  1.0000
  H   H1934     1.0  0.78584  0.20694  0.97548  1.0000
  C   C2422     1.0  0.80254  0.22004  0.97354  1.0000
  H   H1935     1.0  0.98607  0.07457  0.00364  1.0000
  C   C2423     1.0  0.64597  0.22862  0.96907  1.0000
  C   C2424     1.0  0.60680  0.15797  0.94652  1.0000
  Fe  Fe156     1.0  0.88702  0.18665  0.95438  1.0000
  P   P84       1.0  0.70961  0.24767  0.97962  1.0000
  C   C2425     1.0  0.82196  0.22516  0.94018  1.0000
  C   C2426     1.0  0.84333  0.24191  0.93956  1.0000
  C   C2427     1.0  0.94376  0.22560  0.12075  1.0000
  C   C2428     1.0  0.53157  0.15281  0.11853  1.0000
  P   P85       1.0  0.57874  0.14199  0.98703  1.0000
  C   C2429     1.0  0.96472  0.14418  0.97173  1.0000
  C   C2430     1.0  0.81046  0.15139  0.99583  1.0000
  H   H1936     1.0  0.62425  0.15159  0.99340  1.0000
  C   C2431     1.0  0.89035  0.14287  0.30685  1.0000
  C   C2432     1.0  0.56825  0.24759  0.99206  1.0000
  S   S308      1.0  0.86454  0.20178  0.97141  1.0000
  C   C2433     1.0  0.71038  0.18019  0.04707  1.0000
  C   C2434     1.0  0.94515  0.14529  0.96922  1.0000
  C   C2435     1.0  0.80454  0.23119  0.00586  1.0000
  C   C2436     1.0  0.52657  0.18580  0.23392  1.0000
  H   H1937     1.0  0.85265  0.06662  0.93449  1.0000
  C   C2437     1.0  0.91059  0.03232  0.00372  1.0000
  H   H1938     1.0  0.83700  0.09250  0.94918  1.0000
  C   C2438     1.0  0.54209  0.15071  0.99542  1.0000
  C   C2439     1.0  0.97190  0.23015  0.98923  1.0000
  H   H1939     1.0  0.67528  0.16205  0.04988  1.0000
  C   C2440     1.0  0.84232  0.22438  0.84911  1.0000
  H   H1940     1.0  0.53414  0.12291  0.11041  1.0000
  H   H1941     1.0  0.56904  0.23605  0.01970  1.0000
  C   C2441     1.0  0.71009  0.22106  0.00395  1.0000
  C   C2442     1.0  0.58444  0.10811  0.10234  1.0000
  H   H1942     1.0  0.67463  0.19777  0.01330  1.0000
  C   C2443     1.0  0.55630  0.17672  0.27287  1.0000
  Fe  Fe157     1.0  0.91672  0.20888  0.00966  1.0000
  C   C2444     1.0  0.54227  0.09690  0.01272  1.0000
  H   H1943     1.0  0.55542  0.08925  0.89661  1.0000
  H   H1944     1.0  0.53827  0.20051  0.98049  1.0000
  H   H1945     1.0  0.98912  0.21172  0.01041  1.0000
  C   C2445     1.0  0.92383  0.12553  0.99120  1.0000
  S   S309      1.0  0.63126  0.25013  0.07227  1.0000
  H   H1946     1.0  0.71038  0.16451  0.06469  1.0000
  H   H1947     1.0  0.86952  0.10431  0.05003  1.0000
  C   C2446     1.0  0.97712  0.12996  0.10799  1.0000
  H   H1948     1.0  0.80122  0.20276  0.23803  1.0000
  H   H1949     1.0  0.53224  0.23233  0.01805  1.0000
  C   C2447     1.0  0.66281  0.19159  0.13399  1.0000
  S   S310      1.0  0.58836  0.20953  0.05411  1.0000
  C   C2448     1.0  0.94179  0.10368  0.01880  1.0000
  C   C2449     1.0  0.58307  0.11434  0.05903  1.0000
  C   C2450     1.0  0.53226  0.16517  0.99441  1.0000
  H   H1950     1.0  0.87703  0.05991  0.97638  1.0000
  C   C2451     1.0  0.86974  0.07055  0.98456  1.0000
  S   S311      1.0  0.89627  0.22530  0.03221  1.0000
  C   C2452     1.0  0.98633  0.08973  0.05646  1.0000
  C   C2453     1.0  0.97977  0.11313  0.21054  1.0000
  C   C2454     1.0  0.89868  0.01207  0.04112  1.0000
  H   H1951     1.0  0.71554  0.24066  0.07008  1.0000
  C   C2455     1.0  0.84704  0.08887  0.96887  1.0000
  H   H1952     1.0  0.53797  0.09887  0.04515  1.0000
  H   H1953     1.0  0.78957  0.22696  0.03193  1.0000
  H   H1954     1.0  0.00278  0.14818  0.04300  1.0000
  Fe  Fe158     1.0  0.61147  0.21098  0.09521  1.0000
  C   C2456     1.0  0.98848  0.14727  0.06575  1.0000
  H   H1955     1.0  0.66086  0.24671  0.25473  1.0000
  P   P86       1.0  0.89462  0.07874  0.04494  1.0000
  H   H1956     1.0  0.80503  0.14430  0.03207  1.0000
  C   C2457     1.0  0.86736  0.21897  0.14180  1.0000
  H   H1957     1.0  0.58595  0.09272  0.11494  1.0000
  H   H1958     1.0  0.94243  0.06704  0.15230  1.0000
  H   H1959     1.0  0.79519  0.20952  0.12673  1.0000
  C   C2458     1.0  0.86257  0.06376  0.12769  1.0000
  H   H1960     1.0  0.84995  0.05488  0.11253  1.0000
  S   S312      1.0  0.83561  0.16522  0.10118  1.0000
  H   H1961     1.0  0.86803  0.11291  0.11836  1.0000
  C   C2459     1.0  0.67524  0.19777  0.16366  1.0000
  H   H1962     1.0  0.66513  0.18070  0.11550  1.0000
  H   H1963     1.0  0.58826  0.10026  0.30412  1.0000
  C   C2460     1.0  0.90683  0.16300  0.12882  1.0000
  C   C2461     1.0  0.84842  0.20402  0.28959  1.0000
  H   H1964     1.0  0.98626  0.16673  0.20545  1.0000
  H   H1965     1.0  0.83796  0.05011  0.19279  1.0000
  H   H1966     1.0  0.61215  0.16045  0.18925  1.0000
  H   H1967     1.0  0.94853  0.11489  0.16817  1.0000
  S   S313      1.0  0.78652  0.24677  0.15262  1.0000
  C   C2462     1.0  0.86966  0.14833  0.18063  1.0000
  C   C2463     1.0  0.79894  0.15300  0.16779  1.0000
  C   C2464     1.0  0.89474  0.08510  0.16881  1.0000
  C   C2465     1.0  0.52414  0.16335  0.24469  1.0000
  C   C2466     1.0  0.99196  0.18239  0.25711  1.0000
  C   C2467     1.0  0.89625  0.15380  0.26089  1.0000
  C   C2468     1.0  0.65571  0.21849  0.18415  1.0000
  S   S314      1.0  0.94789  0.01270  0.17808  1.0000
  H   H1968     1.0  0.85435  0.21502  0.12547  1.0000
  C   C2469     1.0  0.87541  0.20327  0.15257  1.0000
  H   H1969     1.0  0.53998  0.11347  0.20715  1.0000
  H   H1970     1.0  0.90712  0.09296  0.18521  1.0000
  C   C2470     1.0  0.85570  0.06099  0.17318  1.0000
  H   H1971     1.0  0.54574  0.22105  0.23381  1.0000
  C   C2471     1.0  0.86080  0.12956  0.16451  1.0000
  C   C2472     1.0  0.87181  0.07159  0.19375  1.0000
  C   C2473     1.0  0.97218  0.02175  0.19515  1.0000
  H   H1972     1.0  0.98385  0.21157  0.17655  1.0000
  H   H1973     1.0  0.94239  0.18632  0.20948  1.0000
  P   P87       1.0  0.90410  0.18891  0.18503  1.0000
  C   C2474     1.0  0.78085  0.17630  0.17858  1.0000
  C   C2475     1.0  0.53001  0.24643  0.14896  1.0000
  S   S315      1.0  0.90044  0.02618  0.20701  1.0000
  Fe  Fe159     1.0  0.72297  0.22795  0.19729  1.0000
  C   C2476     1.0  0.78214  0.15589  0.19301  1.0000
  S   S316      1.0  0.74264  0.22286  0.24290  1.0000
  C   C2477     1.0  0.81443  0.20314  0.25247  1.0000
  C   C2478     1.0  0.55712  0.14722  0.83975  1.0000
  H   H1974     1.0  0.89438  0.20340  0.26390  1.0000
  H   H1975     1.0  0.85846  0.14976  0.20680  1.0000
  S   S317      1.0  0.58252  0.24919  0.09152  1.0000
  C   C2479     1.0  0.99705  0.17215  0.22608  1.0000
  C   C2480     1.0  0.97385  0.24974  0.95904  1.0000
  H   H1976     1.0  0.55130  0.09887  0.32565  1.0000
  H   H1977     1.0  0.60166  0.15105  0.32312  1.0000
  C   C2481     1.0  0.75887  0.17605  0.87569  1.0000
  H   H1978     1.0  0.88980  0.12620  0.31909  1.0000
  C   C2482     1.0  0.60857  0.16790  0.32812  1.0000
  C   C2483     1.0  0.76654  0.21542  0.87046  1.0000
  H   H1979     1.0  0.74822  0.15910  0.87325  1.0000
  H   H1980     1.0  0.76187  0.22897  0.86380  1.0000
  C   C2484     1.0  0.75271  0.19349  0.86770  1.0000
  H   H1981     1.0  0.73729  0.19005  0.85909  1.0000
  H   H1982     1.0  0.51049  0.14988  0.23786  1.0000
  C   C2485     1.0  0.60136  0.37937  0.62432  1.0000
  H   H1983     1.0  0.89363  0.43877  0.80657  1.0000
  C   C2486     1.0  0.83601  0.32541  0.41724  1.0000
  H   H1984     1.0  0.99480  0.26867  0.62799  1.0000
  C   C2487     1.0  0.62573  0.33817  0.66117  1.0000
  S   S318      1.0  0.91608  0.32353  0.49111  1.0000
  S   S319      1.0  0.63418  0.47992  0.45618  1.0000
  S   S320      1.0  0.55947  0.34012  0.74833  1.0000
  H   H1985     1.0  0.54218  0.29430  0.60308  1.0000
  C   C2488     1.0  0.80515  0.26281  0.34119  1.0000
  S   S321      1.0  0.92287  0.42306  0.64748  1.0000
  H   H1986     1.0  0.74166  0.28158  0.48275  1.0000
  H   H1987     1.0  0.52387  0.25704  0.55599  1.0000
  C   C2489     1.0  0.77107  0.47255  0.80100  1.0000
  C   C2490     1.0  0.81734  0.27569  0.59940  1.0000
  H   H1988     1.0  0.80123  0.40883  0.63161  1.0000
  C   C2491     1.0  0.94251  0.25850  0.39670  1.0000
  C   C2492     1.0  0.85940  0.25675  0.47348  1.0000
  H   H1989     1.0  0.00509  0.26863  0.45019  1.0000
  H   H1990     1.0  0.67654  0.33830  0.57940  1.0000
  H   H1991     1.0  0.69745  0.46610  0.46676  1.0000
  Fe  Fe160     1.0  0.67688  0.48420  0.80689  1.0000
  S   S322      1.0  0.96986  0.43950  0.78997  1.0000
  H   H1992     1.0  0.77107  0.35507  0.78199  1.0000
  C   C2493     1.0  0.83023  0.41632  0.73774  1.0000
  H   H1993     1.0  0.86130  0.32086  0.69640  1.0000
  H   H1994     1.0  0.52545  0.41139  0.66900  1.0000
  C   C2494     1.0  0.86523  0.34670  0.57512  1.0000
  H   H1995     1.0  0.57333  0.40909  0.78467  1.0000
  H   H1996     1.0  0.97727  0.35052  0.36676  1.0000
  H   H1997     1.0  0.76675  0.35945  0.36132  1.0000
  C   C2495     1.0  0.99899  0.38215  0.60955  1.0000
  H   H1998     1.0  0.65563  0.32103  0.40613  1.0000
  Fe  Fe161     1.0  0.75712  0.44807  0.49332  1.0000
  C   C2496     1.0  0.83422  0.27632  0.56652  1.0000
  C   C2497     1.0  0.79909  0.33156  0.45090  1.0000
  Fe  Fe162     1.0  0.96643  0.32814  0.53367  1.0000
  H   H1999     1.0  0.99349  0.31792  0.36476  1.0000
  Fe  Fe163     1.0  0.62410  0.48113  0.39414  1.0000
  C   C2498     1.0  0.81747  0.43533  0.45484  1.0000
  H   H2000     1.0  0.52375  0.29475  0.54400  1.0000
  H   H2001     1.0  0.73011  0.44769  0.64803  1.0000
  H   H2002     1.0  0.87469  0.38311  0.72988  1.0000
  Fe  Fe164     1.0  0.53105  0.30693  0.80119  1.0000
  C   C2499     1.0  0.68762  0.27211  0.78083  1.0000
  C   C2500     1.0  0.52444  0.39648  0.69239  1.0000
  C   C2501     1.0  0.86305  0.36742  0.72481  1.0000
  C   C2502     1.0  0.95660  0.40231  0.53095  1.0000
  C   C2503     1.0  0.52873  0.35656  0.47823  1.0000
  C   C2504     1.0  0.89966  0.36864  0.59164  1.0000
  C   C2505     1.0  0.69803  0.25873  0.77359  1.0000
  C   C2506     1.0  0.79343  0.47957  0.35636  1.0000
  H   H2003     1.0  0.53339  0.27225  0.43788  1.0000
  C   C2507     1.0  0.62336  0.45681  0.62134  1.0000
  C   C2508     1.0  0.63864  0.40986  0.61721  1.0000
  H   H2004     1.0  0.91897  0.29564  0.81044  1.0000
  Fe  Fe165     1.0  0.62906  0.28462  0.52137  1.0000
  H   H2005     1.0  0.89576  0.29922  0.76137  1.0000
  C   C2509     1.0  0.83059  0.29853  0.82325  1.0000
  C   C2510     1.0  0.81844  0.42777  0.74949  1.0000
  C   C2511     1.0  0.94630  0.25898  0.82638  1.0000
  S   S323      1.0  0.59638  0.32075  0.61462  1.0000
  C   C2512     1.0  0.56851  0.29789  0.41901  1.0000
  S   S324      1.0  0.59853  0.26812  0.58197  1.0000
  H   H2006     1.0  0.85715  0.41797  0.68843  1.0000
  C   C2513     1.0  0.76035  0.37303  0.82114  1.0000
  C   C2514     1.0  0.99167  0.31637  0.69181  1.0000
  C   C2515     1.0  0.68185  0.46035  0.45835  1.0000
  C   C2516     1.0  0.56844  0.41988  0.79922  1.0000
  C   C2517     1.0  0.91145  0.39026  0.42451  1.0000
  C   C2518     1.0  0.99458  0.48771  0.34334  1.0000
  H   H2007     1.0  0.00740  0.40684  0.69166  1.0000
  C   C2519     1.0  0.56983  0.43721  0.51725  1.0000
  C   C2520     1.0  0.80035  0.46437  0.58435  1.0000
  P   P88       1.0  0.72886  0.34909  0.43828  1.0000
  C   C2521     1.0  0.79192  0.39499  0.34728  1.0000
  C   C2522     1.0  0.86088  0.29830  0.42813  1.0000
  C   C2523     1.0  0.94360  0.38030  0.80594  1.0000
  H   H2008     1.0  0.93162  0.44337  0.48486  1.0000
  H   H2009     1.0  0.91407  0.40568  0.56993  1.0000
  H   H2010     1.0  0.96259  0.47574  0.49762  1.0000
  H   H2011     1.0  0.84482  0.28473  0.67739  1.0000
  Fe  Fe166     1.0  0.78456  0.32397  0.67605  1.0000
  H   H2012     1.0  0.99703  0.46874  0.47197  1.0000
  C   C2524     1.0  0.73773  0.29155  0.45770  1.0000
  C   C2525     1.0  0.00679  0.40521  0.65912  1.0000
  H   H2013     1.0  0.61885  0.49527  0.56017  1.0000
  C   C2526     1.0  0.61724  0.26610  0.36783  1.0000
  C   C2527     1.0  0.56649  0.39933  0.55142  1.0000
  H   H2014     1.0  0.57939  0.46773  0.56777  1.0000
  H   H2015     1.0  0.86155  0.38752  0.47519  1.0000
  C   C2528     1.0  0.77111  0.37479  0.37143  1.0000
  Fe  Fe167     1.0  0.94056  0.31106  0.46961  1.0000
  C   C2529     1.0  0.84428  0.39673  0.60549  1.0000
  C   C2530     1.0  0.55393  0.44696  0.79605  1.0000
  C   C2531     1.0  0.69369  0.35346  0.76121  1.0000
  S   S325      1.0  0.70564  0.29469  0.66659  1.0000
  C   C2532     1.0  0.57874  0.35726  0.77189  1.0000
  H   H2016     1.0  0.97411  0.36430  0.78012  1.0000
  H   H2017     1.0  0.00336  0.40055  0.54226  1.0000
  C   C2533     1.0  0.61194  0.37894  0.42130  1.0000
  C   C2534     1.0  0.71994  0.34223  0.72629  1.0000
  C   C2535     1.0  0.80563  0.48457  0.55065  1.0000
  Fe  Fe168     1.0  0.72784  0.46722  0.53120  1.0000
  C   C2536     1.0  0.82536  0.34199  0.72286  1.0000
  C   C2537     1.0  0.88234  0.34731  0.59333  1.0000
  P   P89       1.0  0.68507  0.30886  0.80437  1.0000
  C   C2538     1.0  0.84754  0.42657  0.69709  1.0000
  C   C2539     1.0  0.00439  0.36691  0.73938  1.0000
  H   H2018     1.0  0.96108  0.39162  0.78515  1.0000
  H   H2019     1.0  0.70459  0.34478  0.62051  1.0000
  H   H2020     1.0  0.97522  0.27902  0.50992  1.0000
  H   H2021     1.0  0.59742  0.43010  0.50635  1.0000
  S   S326      1.0  0.55724  0.48554  0.36433  1.0000
  C   C2540     1.0  0.94078  0.47589  0.55441  1.0000
  S   S327      1.0  0.95573  0.39281  0.45246  1.0000
  C   C2541     1.0  0.51249  0.26019  0.53965  1.0000
  H   H2022     1.0  0.56512  0.33382  0.54816  1.0000
  S   S328      1.0  0.93782  0.29351  0.53986  1.0000
  C   C2542     1.0  0.70874  0.37483  0.40679  1.0000
  C   C2543     1.0  0.90038  0.38951  0.57049  1.0000
  H   H2023     1.0  0.74476  0.28667  0.80427  1.0000
  C   C2544     1.0  0.94528  0.46815  0.51866  1.0000
  C   C2545     1.0  0.84787  0.42739  0.54393  1.0000
  C   C2546     1.0  0.72742  0.31727  0.39351  1.0000
  H   H2024     1.0  0.94538  0.38389  0.54740  1.0000
  H   H2025     1.0  0.54944  0.36226  0.64992  1.0000
  H   H2026     1.0  0.73613  0.27038  0.41522  1.0000
  C   C2547     1.0  0.52086  0.35741  0.75200  1.0000
  C   C2548     1.0  0.99174  0.36928  0.77562  1.0000
  H   H2027     1.0  0.77704  0.38147  0.56003  1.0000
  H   H2028     1.0  0.69642  0.27406  0.53115  1.0000
  H   H2029     1.0  0.85040  0.38550  0.62067  1.0000
  H   H2030     1.0  0.55252  0.48283  0.47331  1.0000
  H   H2031     1.0  0.00296  0.49743  0.73707  1.0000
  C   C2549     1.0  0.89988  0.36860  0.45840  1.0000
  Fe  Fe169     1.0  0.94651  0.35586  0.48861  1.0000
  C   C2550     1.0  0.88700  0.43409  0.38026  1.0000
  S   S329      1.0  0.79328  0.45782  0.46473  1.0000
  C   C2551     1.0  0.58777  0.38943  0.46558  1.0000
  Fe  Fe170     1.0  0.95496  0.43175  0.73503  1.0000
  H   H2032     1.0  0.60104  0.45532  0.72551  1.0000
  C   C2552     1.0  0.89726  0.44625  0.44245  1.0000
  S   S330      1.0  0.63263  0.32042  0.50603  1.0000
  C   C2553     1.0  0.60221  0.39211  0.58246  1.0000
  C   C2554     1.0  0.88365  0.49653  0.57182  1.0000
  C   C2555     1.0  0.73554  0.31060  0.46382  1.0000
  C   C2556     1.0  0.90091  0.44760  0.57523  1.0000
  H   H2033     1.0  0.80906  0.35569  0.38528  1.0000
  C   C2557     1.0  0.71835  0.26364  0.78309  1.0000
  C   C2558     1.0  0.51615  0.43461  0.74175  1.0000
  C   C2559     1.0  0.76262  0.47629  0.64061  1.0000
  H   H2034     1.0  0.89688  0.31444  0.41954  1.0000
  C   C2560     1.0  0.00869  0.43903  0.74916  1.0000
  C   C2561     1.0  0.53327  0.34725  0.44515  1.0000
  H   H2035     1.0  0.75387  0.35399  0.50439  1.0000
  H   H2036     1.0  0.56707  0.28450  0.71385  1.0000
  P   P90       1.0  0.86213  0.32507  0.39848  1.0000
  H   H2037     1.0  0.72672  0.25368  0.77641  1.0000
  S   S331      1.0  0.71050  0.49954  0.75441  1.0000
  H   H2038     1.0  0.67417  0.48520  0.47981  1.0000
  C   C2562     1.0  0.87992  0.27774  0.45633  1.0000
  C   C2563     1.0  0.96964  0.44088  0.34959  1.0000
  H   H2039     1.0  0.52583  0.32246  0.70324  1.0000
  C   C2564     1.0  0.78321  0.41523  0.39508  1.0000
  C   C2565     1.0  0.63713  0.28347  0.83283  1.0000
  C   C2566     1.0  0.84194  0.28251  0.64632  1.0000
  C   C2567     1.0  0.75947  0.40728  0.77929  1.0000
  H   H2040     1.0  0.78576  0.44790  0.58854  1.0000
  C   C2568     1.0  0.60659  0.49842  0.77313  1.0000
  H   H2041     1.0  0.96226  0.48588  0.36648  1.0000
  H   H2042     1.0  0.89375  0.33878  0.80365  1.0000
  H   H2043     1.0  0.60011  0.28462  0.38656  1.0000
  S   S332      1.0  0.94191  0.29702  0.41175  1.0000
  C   C2569     1.0  0.54271  0.30912  0.61226  1.0000
  C   C2570     1.0  0.72365  0.38004  0.69214  1.0000
  C   C2571     1.0  0.70957  0.39867  0.83213  1.0000
  C   C2572     1.0  0.58573  0.32008  0.39110  1.0000
  H   H2044     1.0  0.79433  0.30784  0.51358  1.0000
  C   C2573     1.0  0.82107  0.41613  0.46471  1.0000
  S   S333      1.0  0.69210  0.38502  0.63099  1.0000
  C   C2574     1.0  0.70484  0.37481  0.72668  1.0000
  C   C2575     1.0  0.55594  0.33172  0.58125  1.0000
  H   H2045     1.0  0.59834  0.27116  0.77643  1.0000
  H   H2046     1.0  0.83537  0.41651  0.44328  1.0000
  C   C2576     1.0  0.55890  0.32475  0.35546  1.0000
  C   C2577     1.0  0.72452  0.42171  0.80357  1.0000
  C   C2578     1.0  0.83101  0.34052  0.38938  1.0000
  C   C2579     1.0  0.68960  0.27859  0.55837  1.0000
  Fe  Fe171     1.0  0.71268  0.43580  0.47511  1.0000
  C   C2580     1.0  0.80418  0.31671  0.47869  1.0000
  C   C2581     1.0  0.76672  0.40347  0.73936  1.0000
  C   C2582     1.0  0.64935  0.46489  0.45202  1.0000
  C   C2583     1.0  0.90523  0.43978  0.53925  1.0000
  H   H2047     1.0  0.61254  0.41411  0.76332  1.0000
  C   C2584     1.0  0.69351  0.34217  0.56256  1.0000
  C   C2585     1.0  0.89874  0.45172  0.39708  1.0000
  H   H2048     1.0  0.91739  0.40885  0.35599  1.0000
  C   C2586     1.0  0.63994  0.42235  0.57520  1.0000
  H   H2049     1.0  0.72629  0.45425  0.76812  1.0000
  C   C2587     1.0  0.53338  0.40491  0.56513  1.0000
  H   H2050     1.0  0.98467  0.44249  0.42704  1.0000
  H   H2051     1.0  0.54001  0.43060  0.40195  1.0000
  H   H2052     1.0  0.73173  0.39628  0.66446  1.0000
  H   H2053     1.0  0.90254  0.36731  0.49086  1.0000
  C   C2588     1.0  0.97134  0.26882  0.54414  1.0000
  C   C2589     1.0  0.92767  0.44990  0.51146  1.0000
  C   C2590     1.0  0.67731  0.40430  0.82875  1.0000
  C   C2591     1.0  0.53186  0.30582  0.65620  1.0000
  C   C2592     1.0  0.61939  0.38834  0.64161  1.0000
  S   S334      1.0  0.97098  0.34454  0.46228  1.0000
  C   C2593     1.0  0.00373  0.34095  0.67586  1.0000
  Fe  Fe172     1.0  0.92143  0.39552  0.70290  1.0000
  C   C2594     1.0  0.84035  0.36185  0.73079  1.0000
  C   C2595     1.0  0.60124  0.45238  0.69371  1.0000
  C   C2596     1.0  0.73460  0.28525  0.41974  1.0000
  H   H2054     1.0  0.54475  0.39722  0.39060  1.0000
  H   H2055     1.0  0.68928  0.45161  0.34823  1.0000
  H   H2056     1.0  0.62816  0.36317  0.45681  1.0000
  H   H2057     1.0  0.79505  0.48371  0.52917  1.0000
  H   H2058     1.0  0.78169  0.46111  0.36515  1.0000
  H   H2059     1.0  0.87159  0.26271  0.38169  1.0000
  H   H2060     1.0  0.95545  0.35314  0.65710  1.0000
  H   H2061     1.0  0.81406  0.43088  0.34047  1.0000
  H   H2062     1.0  0.85097  0.36644  0.54489  1.0000
  H   H2063     1.0  0.61158  0.32623  0.69100  1.0000
  C   C2597     1.0  0.00006  0.38356  0.65205  1.0000
  H   H2064     1.0  0.80839  0.27869  0.66459  1.0000
  C   C2598     1.0  0.74342  0.43955  0.70046  1.0000
  H   H2065     1.0  0.54884  0.34629  0.43723  1.0000
  H   H2066     1.0  0.72869  0.42245  0.71653  1.0000
  Fe  Fe173     1.0  0.74303  0.30617  0.64436  1.0000
  H   H2067     1.0  0.59384  0.39518  0.39484  1.0000
  C   C2599     1.0  0.58453  0.48594  0.56258  1.0000
  C   C2600     1.0  0.73105  0.36369  0.69170  1.0000
  C   C2601     1.0  0.58104  0.44098  0.68339  1.0000
  H   H2068     1.0  0.54765  0.45755  0.77927  1.0000
  C   C2602     1.0  0.85550  0.33240  0.70567  1.0000
  S   S335      1.0  0.72749  0.41375  0.50102  1.0000
  H   H2069     1.0  0.91434  0.32723  0.68443  1.0000
  H   H2070     1.0  0.77718  0.25721  0.39387  1.0000
  C   C2603     1.0  0.62220  0.45979  0.66316  1.0000
  C   C2604     1.0  0.58999  0.27189  0.69349  1.0000
  C   C2605     1.0  0.76769  0.36950  0.78134  1.0000
  C   C2606     1.0  0.84154  0.46018  0.68007  1.0000
  C   C2607     1.0  0.69175  0.28847  0.62631  1.0000
  C   C2608     1.0  0.81663  0.41009  0.61246  1.0000
  C   C2609     1.0  0.82134  0.27910  0.63911  1.0000
  H   H2071     1.0  0.57158  0.32735  0.82564  1.0000
  H   H2072     1.0  0.61072  0.36429  0.52993  1.0000
  H   H2073     1.0  0.95278  0.26995  0.36290  1.0000
  H   H2074     1.0  0.67099  0.31002  0.72408  1.0000
  S   S336      1.0  0.91699  0.41224  0.75448  1.0000
  H   H2075     1.0  0.90600  0.46034  0.45480  1.0000
  H   H2076     1.0  0.99343  0.36557  0.60359  1.0000
  C   C2610     1.0  0.52659  0.43438  0.34709  1.0000
  C   C2611     1.0  0.51772  0.49793  0.55764  1.0000
  H   H2077     1.0  0.72253  0.38978  0.40984  1.0000
  H   H2078     1.0  0.57684  0.39713  0.46682  1.0000
  H   H2079     1.0  0.63373  0.29462  0.71167  1.0000
  H   H2080     1.0  0.99047  0.28471  0.68504  1.0000
  C   C2612     1.0  0.88319  0.38920  0.55215  1.0000
  C   C2613     1.0  0.83968  0.25634  0.46696  1.0000
  C   C2614     1.0  0.00473  0.40203  0.57458  1.0000
  H   H2081     1.0  0.84321  0.48053  0.49361  1.0000
  C   C2615     1.0  0.97611  0.36528  0.34829  1.0000
  H   H2082     1.0  0.92268  0.40560  0.43131  1.0000
  S   S337      1.0  0.98556  0.45979  0.56679  1.0000
  C   C2616     1.0  0.53626  0.39948  0.72410  1.0000
  S   S338      1.0  0.81130  0.37280  0.51263  1.0000
  C   C2617     1.0  0.62277  0.33944  0.61892  1.0000
  H   H2083     1.0  0.82713  0.30363  0.48546  1.0000
  H   H2084     1.0  0.85940  0.49185  0.72846  1.0000
  C   C2618     1.0  0.54698  0.46358  0.67544  1.0000
  C   C2619     1.0  0.53774  0.40515  0.36919  1.0000
  C   C2620     1.0  0.56879  0.49372  0.56033  1.0000
  C   C2621     1.0  0.98701  0.27648  0.56718  1.0000
  H   H2085     1.0  0.82204  0.47454  0.35773  1.0000
  H   H2086     1.0  0.72386  0.32732  0.36794  1.0000
  C   C2622     1.0  0.82841  0.42626  0.56937  1.0000
  H   H2087     1.0  0.85818  0.47503  0.34042  1.0000
  Fe  Fe174     1.0  0.96045  0.44119  0.63576  1.0000
  H   H2088     1.0  0.00086  0.41157  0.41263  1.0000
  C   C2623     1.0  0.92714  0.30835  0.77705  1.0000
  H   H2089     1.0  0.60902  0.25497  0.67739  1.0000
  C   C2624     1.0  0.83305  0.32746  0.70945  1.0000
  C   C2625     1.0  0.63464  0.29108  0.74554  1.0000
  S   S339      1.0  0.64361  0.47050  0.79202  1.0000
  C   C2626     1.0  0.83235  0.48698  0.60775  1.0000
  C   C2627     1.0  0.96421  0.41135  0.48435  1.0000
  H   H2090     1.0  0.90887  0.46965  0.37483  1.0000
  P   P91       1.0  0.84954  0.48911  0.64457  1.0000
  H   H2091     1.0  0.54164  0.49118  0.64092  1.0000
  C   C2628     1.0  0.70787  0.35298  0.41624  1.0000
  C   C2629     1.0  0.88529  0.34864  0.45027  1.0000
  C   C2630     1.0  0.73019  0.32351  0.43197  1.0000
  S   S340      1.0  0.76282  0.30937  0.57750  1.0000
  C   C2631     1.0  0.65725  0.29665  0.79660  1.0000
  H   H2092     1.0  0.68654  0.31615  0.42642  1.0000
  C   C2632     1.0  0.91182  0.50052  0.71431  1.0000
  C   C2633     1.0  0.85520  0.28076  0.57288  1.0000
  H   H2093     1.0  0.87392  0.36834  0.80898  1.0000
  H   H2094     1.0  0.97954  0.28364  0.43114  1.0000
  C   C2634     1.0  0.78535  0.44654  0.82674  1.0000
  C   C2635     1.0  0.81638  0.48730  0.35220  1.0000
  H   H2095     1.0  0.88405  0.43937  0.59851  1.0000
  P   P92       1.0  0.55374  0.42871  0.72494  1.0000
  H   H2096     1.0  0.84189  0.35063  0.35526  1.0000
  C   C2636     1.0  0.90546  0.35027  0.81728  1.0000
  H   H2097     1.0  0.88820  0.43834  0.34506  1.0000
  H   H2098     1.0  0.82208  0.43744  0.55501  1.0000
  C   C2637     1.0  0.67141  0.28916  0.62999  1.0000
  H   H2099     1.0  0.73783  0.31496  0.49372  1.0000
  C   C2638     1.0  0.82371  0.44939  0.72053  1.0000
  C   C2639     1.0  0.90862  0.39203  0.38220  1.0000
  C   C2640     1.0  0.77085  0.38469  0.74052  1.0000
  C   C2641     1.0  0.97866  0.43539  0.46306  1.0000
  H   H2100     1.0  0.82159  0.31213  0.70304  1.0000
  H   H2101     1.0  0.85153  0.33001  0.57746  1.0000
  H   H2102     1.0  0.52290  0.28859  0.68100  1.0000
  H   H2103     1.0  0.58027  0.45529  0.49564  1.0000
  C   C2642     1.0  0.70929  0.34566  0.58584  1.0000
  H   H2104     1.0  0.82506  0.27633  0.43873  1.0000
  C   C2643     1.0  0.64712  0.35206  0.66487  1.0000
  H   H2105     1.0  0.76039  0.47682  0.78422  1.0000
  C   C2644     1.0  0.93126  0.48112  0.74423  1.0000
  H   H2106     1.0  0.95963  0.42246  0.35465  1.0000
  C   C2645     1.0  0.79017  0.25247  0.38471  1.0000
  H   H2107     1.0  0.78778  0.43086  0.40424  1.0000
  C   C2646     1.0  0.65519  0.43568  0.42718  1.0000
  H   H2108     1.0  0.70937  0.34965  0.83301  1.0000
  C   C2647     1.0  0.60346  0.44600  0.61032  1.0000
  C   C2648     1.0  0.99689  0.29197  0.40971  1.0000
  Fe  Fe175     1.0  0.78936  0.34369  0.57748  1.0000
  H   H2109     1.0  0.86468  0.45117  0.80477  1.0000
  S   S341      1.0  0.99715  0.33655  0.55553  1.0000
  Fe  Fe176     1.0  0.92107  0.44096  0.69807  1.0000
  C   C2649     1.0  0.94799  0.34088  0.69072  1.0000
  H   H2110     1.0  0.88194  0.33125  0.60991  1.0000
  H   H2111     1.0  0.65280  0.41648  0.63033  1.0000
  H   H2112     1.0  0.69807  0.38674  0.72542  1.0000
  H   H2113     1.0  0.61948  0.37826  0.38934  1.0000
  H   H2114     1.0  0.64972  0.42170  0.41305  1.0000
  H   H2115     1.0  0.63967  0.46273  0.59756  1.0000
  C   C2650     1.0  0.76269  0.39498  0.42002  1.0000
  C   C2651     1.0  0.81254  0.34352  0.40621  1.0000
  C   C2652     1.0  0.79793  0.41523  0.35902  1.0000
  C   C2653     1.0  0.82277  0.31401  0.46229  1.0000
  H   H2116     1.0  0.66139  0.25104  0.71685  1.0000
  C   C2654     1.0  0.61682  0.37043  0.45932  1.0000
  H   H2117     1.0  0.59429  0.35074  0.33740  1.0000
  H   H2118     1.0  0.91528  0.25906  0.49552  1.0000
  H   H2119     1.0  0.00312  0.29247  0.55073  1.0000
  H   H2120     1.0  0.59957  0.49428  0.71198  1.0000
  C   C2655     1.0  0.66213  0.36982  0.58431  1.0000
  H   H2121     1.0  0.63755  0.46759  0.67227  1.0000
  C   C2656     1.0  0.59091  0.38176  0.75349  1.0000
  H   H2122     1.0  0.89857  0.50002  0.70043  1.0000
  C   C2657     1.0  0.70057  0.28273  0.59088  1.0000
  C   C2658     1.0  0.87357  0.41103  0.40892  1.0000
  H   H2123     1.0  0.65766  0.35986  0.38978  1.0000
  C   C2659     1.0  0.58058  0.34624  0.81171  1.0000
  C   C2660     1.0  0.99021  0.38783  0.34829  1.0000
  H   H2124     1.0  0.80879  0.44987  0.63976  1.0000
  C   C2661     1.0  0.87229  0.40547  0.45413  1.0000
  H   H2125     1.0  0.95452  0.48937  0.56110  1.0000
  H   H2126     1.0  0.83454  0.30909  0.34094  1.0000
  S   S342      1.0  0.94388  0.34147  0.56005  1.0000
  C   C2662     1.0  0.69918  0.34255  0.51840  1.0000
  H   H2127     1.0  0.76935  0.41495  0.70723  1.0000
  C   C2663     1.0  0.62200  0.41339  0.55770  1.0000
  H   H2128     1.0  0.89141  0.37404  0.34146  1.0000
  C   C2664     1.0  0.61477  0.27793  0.78182  1.0000
  C   C2665     1.0  0.72947  0.29811  0.38762  1.0000
  C   C2666     1.0  0.88442  0.42293  0.47137  1.0000
  Fe  Fe177     1.0  0.58978  0.48458  0.35171  1.0000
  C   C2667     1.0  0.97092  0.47641  0.35810  1.0000
  C   C2668     1.0  0.86532  0.36750  0.55558  1.0000
  C   C2669     1.0  0.51334  0.46703  0.69924  1.0000
  H   H2129     1.0  0.57213  0.28708  0.44281  1.0000
  C   C2670     1.0  0.53482  0.37974  0.75297  1.0000
  S   S343      1.0  0.88471  0.28825  0.62286  1.0000
  C   C2671     1.0  0.72112  0.34723  0.49642  1.0000
  H   H2130     1.0  0.93359  0.36269  0.75849  1.0000
  S   S344      1.0  0.72292  0.49527  0.55034  1.0000
  C   C2672     1.0  0.86938  0.32708  0.34070  1.0000
  C   C2673     1.0  0.66531  0.36793  0.62641  1.0000
  C   C2674     1.0  0.96135  0.33961  0.71842  1.0000
  H   H2131     1.0  0.83449  0.37307  0.74103  1.0000
  S   S345      1.0  0.76833  0.34207  0.64138  1.0000
  H   H2132     1.0  0.00332  0.43912  0.71956  1.0000
  C   C2675     1.0  0.71806  0.29554  0.80658  1.0000
  C   C2676     1.0  0.67499  0.44242  0.43951  1.0000
  C   C2677     1.0  0.91403  0.31011  0.74942  1.0000
  C   C2678     1.0  0.66069  0.28549  0.59690  1.0000
  H   H2133     1.0  0.61613  0.48926  0.77290  1.0000
  S   S346      1.0  0.79701  0.33558  0.73112  1.0000
  C   C2679     1.0  0.76008  0.44819  0.72127  1.0000
  C   C2680     1.0  0.85899  0.28360  0.61303  1.0000
  H   H2134     1.0  0.81422  0.45788  0.73020  1.0000
  C   C2681     1.0  0.98558  0.25680  0.79125  1.0000
  H   H2135     1.0  0.89262  0.25932  0.73780  1.0000
  H   H2136     1.0  0.93291  0.46564  0.75389  1.0000
  C   C2682     1.0  0.55867  0.35122  0.59442  1.0000
  S   S347      1.0  0.80756  0.32846  0.61211  1.0000
  H   H2137     1.0  0.86826  0.28150  0.54717  1.0000
  H   H2138     1.0  0.72714  0.29322  0.35813  1.0000
  S   S348      1.0  0.74403  0.44789  0.56214  1.0000
  H   H2139     1.0  0.61864  0.37820  0.67358  1.0000
  H   H2140     1.0  0.83456  0.27304  0.79745  1.0000
  C   C2683     1.0  0.51237  0.28135  0.53310  1.0000
  C   C2684     1.0  0.54176  0.30253  0.38372  1.0000
  S   S349      1.0  0.60848  0.27474  0.47533  1.0000
  S   S350      1.0  0.89872  0.45681  0.70933  1.0000
  H   H2141     1.0  0.76901  0.41439  0.53998  1.0000
  H   H2142     1.0  0.78666  0.31215  0.82717  1.0000
  S   S351      1.0  0.69608  0.43446  0.54258  1.0000
  S   S352      1.0  0.53270  0.27393  0.82544  1.0000
  C   C2685     1.0  0.64257  0.44717  0.43270  1.0000
  H   H2143     1.0  0.67220  0.26839  0.77228  1.0000
  C   C2686     1.0  0.75623  0.39176  0.82008  1.0000
  C   C2687     1.0  0.80622  0.39648  0.50225  1.0000
  C   C2688     1.0  0.88073  0.29840  0.43332  1.0000
  C   C2689     1.0  0.67085  0.33619  0.40473  1.0000
  H   H2144     1.0  0.54429  0.38124  0.77636  1.0000
  C   C2690     1.0  0.96297  0.41718  0.55642  1.0000
  H   H2145     1.0  0.79195  0.47800  0.71507  1.0000
  H   H2146     1.0  0.72546  0.32949  0.72447  1.0000
  C   C2691     1.0  0.87054  0.35243  0.71323  1.0000
  C   C2692     1.0  0.93470  0.26733  0.42778  1.0000
  C   C2693     1.0  0.65577  0.30008  0.75281  1.0000
  C   C2694     1.0  0.78364  0.41498  0.51918  1.0000
  C   C2695     1.0  0.68860  0.33357  0.41567  1.0000
  C   C2696     1.0  0.00000  0.30360  0.67286  1.0000
  C   C2697     1.0  0.77879  0.47077  0.69999  1.0000
  C   C2698     1.0  0.92818  0.36409  0.79104  1.0000
  C   C2699     1.0  0.70130  0.33712  0.76153  1.0000
  C   C2700     1.0  0.73074  0.34928  0.56501  1.0000
  C   C2701     1.0  0.67008  0.28069  0.56054  1.0000
  C   C2702     1.0  0.66879  0.47130  0.46540  1.0000
  C   C2703     1.0  0.69758  0.29062  0.79733  1.0000
  Fe  Fe178     1.0  0.60909  0.30898  0.46542  1.0000
  C   C2704     1.0  0.91862  0.46557  0.58272  1.0000
  C   C2705     1.0  0.75627  0.37466  0.40804  1.0000
  C   C2706     1.0  0.85602  0.48880  0.46112  1.0000
  C   C2707     1.0  0.51095  0.37415  0.69080  1.0000
  H   H2147     1.0  0.60313  0.28874  0.67022  1.0000
  H   H2148     1.0  0.87603  0.33207  0.47731  1.0000
  P   P93       1.0  0.88242  0.41602  0.53037  1.0000
  S   S353      1.0  0.75825  0.28788  0.68279  1.0000
  H   H2149     1.0  0.97563  0.30691  0.71820  1.0000
  C   C2708     1.0  0.00490  0.31144  0.37188  1.0000
  C   C2709     1.0  0.91454  0.48083  0.72482  1.0000
  P   P94       1.0  0.99200  0.35755  0.69727  1.0000
  C   C2710     1.0  0.54660  0.28929  0.41568  1.0000
  H   H2150     1.0  0.91232  0.36891  0.60769  1.0000
  C   C2711     1.0  0.53354  0.32496  0.66884  1.0000
  H   H2151     1.0  0.77650  0.38179  0.70980  1.0000
  H   H2152     1.0  0.65508  0.43881  0.55574  1.0000
  C   C2712     1.0  0.69079  0.37724  0.39670  1.0000
  H   H2153     1.0  0.72629  0.31010  0.81835  1.0000
  C   C2713     1.0  0.51737  0.33850  0.42303  1.0000
  H   H2154     1.0  0.85644  0.43961  0.51023  1.0000
  H   H2155     1.0  0.53216  0.37224  0.59135  1.0000
  C   C2714     1.0  0.73690  0.35056  0.52021  1.0000
  C   C2715     1.0  0.58805  0.26870  0.33855  1.0000
  H   H2156     1.0  0.90975  0.29748  0.35130  1.0000
  C   C2716     1.0  0.00921  0.32513  0.82295  1.0000
  C   C2717     1.0  0.89402  0.37214  0.37395  1.0000
  C   C2718     1.0  0.88261  0.35023  0.40771  1.0000
  H   H2157     1.0  0.82889  0.45039  0.42553  1.0000
  H   H2158     1.0  0.52073  0.33099  0.39794  1.0000
  H   H2159     1.0  0.56406  0.47114  0.65356  1.0000
  C   C2719     1.0  0.85330  0.44849  0.66851  1.0000
  H   H2160     1.0  0.80525  0.41974  0.78123  1.0000
  H   H2161     1.0  0.66446  0.29350  0.65738  1.0000
  C   C2720     1.0  0.82458  0.39536  0.63054  1.0000
  C   C2721     1.0  0.78787  0.39616  0.53012  1.0000
  C   C2722     1.0  0.58235  0.43788  0.64132  1.0000
  H   H2162     1.0  0.81555  0.38282  0.66403  1.0000
  C   C2723     1.0  0.54310  0.39039  0.57133  1.0000
  H   H2163     1.0  0.86408  0.39733  0.39625  1.0000
  Fe  Fe179     1.0  0.78015  0.29395  0.61541  1.0000
  C   C2724     1.0  0.81350  0.46558  0.61322  1.0000
  H   H2164     1.0  0.95678  0.41005  0.59254  1.0000
  H   H2165     1.0  0.86742  0.45647  0.63832  1.0000
  H   H2166     1.0  0.69094  0.39377  0.39206  1.0000
  C   C2725     1.0  0.60702  0.37120  0.50058  1.0000
  S   S354      1.0  0.61280  0.33062  0.39773  1.0000
  C   C2726     1.0  0.79847  0.43454  0.48145  1.0000
  H   H2167     1.0  0.00227  0.39013  0.36651  1.0000
  H   H2168     1.0  0.74233  0.35067  0.58415  1.0000
  C   C2727     1.0  0.53786  0.44331  0.71226  1.0000
  C   C2728     1.0  0.77131  0.45143  0.80446  1.0000
  H   H2169     1.0  0.71574  0.28130  0.58871  1.0000
  S   S355      1.0  0.69165  0.42918  0.42953  1.0000
  H   H2170     1.0  0.68621  0.33901  0.50204  1.0000
  Fe  Fe180     1.0  0.71314  0.41518  0.56795  1.0000
  C   C2729     1.0  0.56965  0.26942  0.71812  1.0000
  C   C2730     1.0  0.77993  0.48480  0.65971  1.0000
  P   P95       1.0  0.57940  0.38070  0.55823  1.0000
  C   C2731     1.0  0.59746  0.38846  0.42444  1.0000
  H   H2171     1.0  0.52455  0.44882  0.35233  1.0000
  P   P96       1.0  0.75444  0.43179  0.77837  1.0000
  C   C2732     1.0  0.69202  0.42731  0.80084  1.0000
  C   C2733     1.0  0.60378  0.39522  0.77667  1.0000
  C   C2734     1.0  0.84045  0.27698  0.44379  1.0000
  H   H2172     1.0  0.67870  0.34940  0.78699  1.0000
  H   H2173     1.0  0.74494  0.36742  0.66378  1.0000
  H   H2174     1.0  0.58740  0.36212  0.64357  1.0000
  H   H2175     1.0  0.58964  0.39034  0.72237  1.0000
  H   H2176     1.0  0.60450  0.44378  0.57780  1.0000
  C   C2735     1.0  0.60161  0.27409  0.36635  1.0000
  H   H2177     1.0  0.68531  0.43825  0.78712  1.0000
  C   C2736     1.0  0.61604  0.27388  0.82534  1.0000
  C   C2737     1.0  0.92451  0.32606  0.70609  1.0000
  C   C2738     1.0  0.98223  0.26315  0.61107  1.0000
  C   C2739     1.0  0.74424  0.45381  0.66127  1.0000
  H   H2178     1.0  0.75181  0.39530  0.44850  1.0000
  H   H2179     1.0  0.91028  0.50003  0.51861  1.0000
  H   H2180     1.0  0.64949  0.35070  0.69750  1.0000
  C   C2740     1.0  0.98573  0.45022  0.48844  1.0000
  S   S356      1.0  0.95935  0.41237  0.68820  1.0000
  C   C2741     1.0  0.97761  0.44113  0.53515  1.0000
  S   S357      1.0  0.95886  0.46170  0.68127  1.0000
  C   C2742     1.0  0.58100  0.33353  0.35902  1.0000
  C   C2743     1.0  0.59342  0.25262  0.69824  1.0000
  H   H2181     1.0  0.55137  0.48139  0.56450  1.0000
  H   H2182     1.0  0.83115  0.27366  0.53595  1.0000
  C   C2744     1.0  0.85585  0.41250  0.56158  1.0000
  H   H2183     1.0  0.85845  0.39492  0.79066  1.0000
  H   H2184     1.0  0.76324  0.48711  0.61002  1.0000
  C   C2745     1.0  0.53442  0.47508  0.66847  1.0000
  H   H2185     1.0  0.62743  0.44209  0.42255  1.0000
  H   H2186     1.0  0.91525  0.47114  0.61124  1.0000
  C   C2746     1.0  0.59226  0.38051  0.50416  1.0000
  S   S358      1.0  0.89842  0.35827  0.70921  1.0000
  H   H2187     1.0  0.00761  0.32221  0.79161  1.0000
  H   H2188     1.0  0.51542  0.39803  0.58097  1.0000
  C   C2747     1.0  0.53514  0.42390  0.37548  1.0000
  C   C2748     1.0  0.95072  0.32297  0.76159  1.0000
  C   C2749     1.0  0.95846  0.45297  0.36157  1.0000
  S   S359      1.0  0.65854  0.27787  0.51632  1.0000
  S   S360      1.0  0.59165  0.45396  0.39039  1.0000
  S   S361      1.0  0.57752  0.29465  0.52266  1.0000
  H   H2189     1.0  0.89525  0.27804  0.46094  1.0000
  H   H2190     1.0  0.62397  0.42283  0.52432  1.0000
  H   H2191     1.0  0.56715  0.42914  0.63239  1.0000
  H   H2192     1.0  0.64558  0.28710  0.59882  1.0000
  S   S362      1.0  0.74347  0.47014  0.46140  1.0000
  Fe  Fe181     1.0  0.57796  0.26069  0.53466  1.0000
  C   C2750     1.0  0.67189  0.35799  0.39569  1.0000
  C   C2751     1.0  0.64103  0.35524  0.58053  1.0000
  S   S363      1.0  0.79138  0.27066  0.59038  1.0000
  H   H2193     1.0  0.78529  0.33446  0.46454  1.0000
  H   H2194     1.0  0.54055  0.36249  0.49674  1.0000
  S   S364      1.0  0.51378  0.29015  0.38210  1.0000
  C   C2752     1.0  0.54688  0.34756  0.63827  1.0000
  H   H2195     1.0  0.62776  0.27068  0.38925  1.0000
  C   C2753     1.0  0.83938  0.28356  0.81889  1.0000
  H   H2196     1.0  0.82607  0.39966  0.76055  1.0000
  C   C2754     1.0  0.00199  0.43842  0.82606  1.0000
  H   H2197     1.0  0.67459  0.28363  0.34955  1.0000
  C   C2755     1.0  0.71545  0.43628  0.78984  1.0000
  H   H2198     1.0  0.94013  0.44419  0.37370  1.0000
  C   C2756     1.0  0.57964  0.42284  0.52382  1.0000
  H   H2199     1.0  0.63885  0.35644  0.54788  1.0000
  Fe  Fe182     1.0  0.91526  0.30812  0.56103  1.0000
  H   H2200     1.0  0.67614  0.38201  0.55451  1.0000
  H   H2201     1.0  0.53919  0.43956  0.53365  1.0000
  C   C2757     1.0  0.54676  0.42834  0.53831  1.0000
  Fe  Fe183     1.0  0.60089  0.30352  0.56402  1.0000
  H   H2202     1.0  0.96068  0.32110  0.78305  1.0000
  C   C2758     1.0  0.72847  0.28218  0.79910  1.0000
  C   C2759     1.0  0.98478  0.26796  0.82323  1.0000
  H   H2203     1.0  0.81902  0.29960  0.80517  1.0000
  H   H2204     1.0  0.83494  0.49724  0.42765  1.0000
  C   C2760     1.0  0.88043  0.26908  0.34632  1.0000
  C   C2761     1.0  0.55795  0.43109  0.77835  1.0000
  H   H2205     1.0  0.00575  0.32143  0.48076  1.0000
  C   C2762     1.0  0.87721  0.49015  0.45654  1.0000
  C   C2763     1.0  0.99499  0.43841  0.78788  1.0000
  C   C2764     1.0  0.85124  0.49812  0.42364  1.0000
  H   H2206     1.0  0.68648  0.49798  0.61490  1.0000
  C   C2765     1.0  0.92146  0.25247  0.47140  1.0000
  C   C2766     1.0  0.78466  0.48846  0.81914  1.0000
  H   H2207     1.0  0.52893  0.49564  0.53338  1.0000
  H   H2208     1.0  0.88089  0.48293  0.48551  1.0000
  C   C2767     1.0  0.00196  0.37869  0.80580  1.0000
  H   H2209     1.0  0.87018  0.48426  0.56248  1.0000
  H   H2210     1.0  0.51944  0.34223  0.77523  1.0000
  C   C2768     1.0  0.60430  0.38408  0.81812  1.0000
  C   C2769     1.0  0.61890  0.25196  0.34248  1.0000
  H   H2211     1.0  0.78597  0.43053  0.83046  1.0000
  C   C2770     1.0  0.85439  0.38492  0.82523  1.0000
  H   H2212     1.0  0.57585  0.27481  0.33813  1.0000
  H   H2213     1.0  0.76755  0.48941  0.35482  1.0000
  C   C2771     1.0  0.78542  0.49552  0.35064  1.0000
  C   C2772     1.0  0.53155  0.39678  0.33480  1.0000
  C   C2773     1.0  0.86553  0.37863  0.02483  1.0000
  H   H2214     1.0  0.75423  0.45787  0.15492  1.0000
  C   C2774     1.0  0.94261  0.33720  0.94488  1.0000
  C   C2775     1.0  0.89220  0.33684  0.31545  1.0000
  H   H2215     1.0  0.54787  0.35523  0.84731  1.0000
  S   S365      1.0  0.90727  0.35342  0.05537  1.0000
  H   H2216     1.0  0.51218  0.32426  0.98088  1.0000
  C   C2776     1.0  0.65405  0.35910  0.10951  1.0000
  H   H2217     1.0  0.90832  0.37033  0.90584  1.0000
  H   H2218     1.0  0.64519  0.29664  0.09696  1.0000
  H   H2219     1.0  0.97551  0.29225  0.96694  1.0000
  C   C2777     1.0  0.76364  0.31699  0.00646  1.0000
  P   P97       1.0  0.00836  0.43679  0.31917  1.0000
  H   H2220     1.0  0.91154  0.27819  0.99829  1.0000
  H   H2221     1.0  0.89229  0.39860  0.23855  1.0000
  C   C2778     1.0  0.65307  0.30008  0.12277  1.0000
  H   H2222     1.0  0.97493  0.44215  0.07915  1.0000
  H   H2223     1.0  0.51487  0.41093  0.86938  1.0000
  C   C2779     1.0  0.68328  0.39984  0.96218  1.0000
  H   H2224     1.0  0.60183  0.29218  0.89458  1.0000
  C   C2780     1.0  0.63186  0.34411  0.03201  1.0000
  C   C2781     1.0  0.56947  0.42042  0.22526  1.0000
  C   C2782     1.0  0.64469  0.49388  0.15402  1.0000
  C   C2783     1.0  0.64001  0.36908  0.10502  1.0000
  H   H2225     1.0  0.57432  0.44244  0.88435  1.0000
  P   P98       1.0  0.61119  0.35105  0.10663  1.0000
  H   H2226     1.0  0.77285  0.31386  0.10709  1.0000
  H   H2227     1.0  0.71939  0.45202  0.09870  1.0000
  C   C2784     1.0  0.83778  0.31322  0.84865  1.0000
  C   C2785     1.0  0.62291  0.40852  0.18372  1.0000
  H   H2228     1.0  0.98266  0.49134  0.05928  1.0000
  H   H2229     1.0  0.53604  0.35853  0.14571  1.0000
  C   C2786     1.0  0.72110  0.36016  0.25552  1.0000
  C   C2787     1.0  0.95140  0.42722  0.94863  1.0000
  Fe  Fe184     1.0  0.51516  0.27152  0.89363  1.0000
  C   C2788     1.0  0.88987  0.48298  0.00046  1.0000
  C   C2789     1.0  0.51700  0.37550  0.92761  1.0000
  H   H2230     1.0  0.51474  0.37128  0.04458  1.0000
  H   H2231     1.0  0.66793  0.46107  0.11742  1.0000
  S   S366      1.0  0.77491  0.35137  0.92746  1.0000
  H   H2232     1.0  0.57580  0.31075  0.09278  1.0000
  H   H2233     1.0  0.94601  0.41936  0.15275  1.0000
  C   C2790     1.0  0.83730  0.38678  0.00211  1.0000
  H   H2234     1.0  0.97434  0.25429  0.07133  1.0000
  C   C2791     1.0  0.70134  0.29792  0.28747  1.0000
  H   H2235     1.0  0.87091  0.44551  0.10641  1.0000
  C   C2792     1.0  0.81672  0.48808  0.97333  1.0000
  H   H2236     1.0  0.59225  0.29963  0.14908  1.0000
  H   H2237     1.0  0.81438  0.32899  0.06035  1.0000
  H   H2238     1.0  0.70746  0.36771  0.31209  1.0000
  C   C2793     1.0  0.59044  0.40653  0.05890  1.0000
  C   C2794     1.0  0.57638  0.29215  0.21812  1.0000
  H   H2239     1.0  0.61929  0.48474  0.96033  1.0000
  C   C2795     1.0  0.58111  0.39242  0.10368  1.0000
  C   C2796     1.0  0.98875  0.40698  0.32443  1.0000
  C   C2797     1.0  0.79525  0.34983  0.16585  1.0000
  C   C2798     1.0  0.52345  0.39015  0.03110  1.0000
  H   H2240     1.0  0.90079  0.26173  0.17769  1.0000
  H   H2241     1.0  0.96736  0.42717  0.94540  1.0000
  S   S367      1.0  0.51906  0.25721  0.95869  1.0000
  H   H2242     1.0  0.77940  0.27163  0.85877  1.0000
  C   C2799     1.0  0.63508  0.43063  0.15118  1.0000
  C   C2800     1.0  0.55928  0.45052  0.83472  1.0000
  H   H2243     1.0  0.69309  0.28404  0.11908  1.0000
  S   S368      1.0  0.80049  0.44571  0.96217  1.0000
  H   H2244     1.0  0.69794  0.48981  0.98088  1.0000
  H   H2245     1.0  0.86421  0.45667  0.28412  1.0000
  C   C2801     1.0  0.61250  0.31324  0.00304  1.0000
  H   H2246     1.0  0.80340  0.39504  0.31937  1.0000
  H   H2247     1.0  0.75977  0.44315  0.93071  1.0000
  H   H2248     1.0  0.78012  0.40176  0.26187  1.0000
  C   C2802     1.0  0.86782  0.44608  0.83614  1.0000
  Fe  Fe185     1.0  0.63273  0.43694  0.84576  1.0000
  C   C2803     1.0  0.53822  0.46891  0.23198  1.0000
  H   H2249     1.0  0.72341  0.48215  0.13572  1.0000
  C   C2804     1.0  0.66587  0.43541  0.31410  1.0000
  C   C2805     1.0  0.51250  0.42227  0.20607  1.0000
  H   H2250     1.0  0.87003  0.25200  0.14274  1.0000
  H   H2251     1.0  0.91990  0.46859  0.14968  1.0000
  C   C2806     1.0  0.69347  0.41643  0.28954  1.0000
  H   H2252     1.0  0.94089  0.26466  0.02934  1.0000
  C   C2807     1.0  0.81075  0.45446  0.12019  1.0000
  C   C2808     1.0  0.75735  0.30683  0.87581  1.0000
  C   C2809     1.0  0.89805  0.35219  0.85925  1.0000
  C   C2810     1.0  0.85420  0.31330  0.86926  1.0000
  C   C2811     1.0  0.97323  0.29600  0.99789  1.0000
  C   C2812     1.0  0.68355  0.31797  0.94311  1.0000
  H   H2253     1.0  0.71501  0.44528  0.19819  1.0000
  C   C2813     1.0  0.57804  0.49819  0.20922  1.0000
  C   C2814     1.0  0.79839  0.48335  0.84158  1.0000
  H   H2254     1.0  0.94975  0.34411  0.32458  1.0000
  H   H2255     1.0  0.68770  0.44516  0.15904  1.0000
  C   C2815     1.0  0.93193  0.31630  0.89266  1.0000
  C   C2816     1.0  0.54575  0.25983  0.95509  1.0000
  H   H2256     1.0  0.00630  0.33017  0.12188  1.0000
  H   H2257     1.0  0.67880  0.42581  0.08521  1.0000
  H   H2258     1.0  0.57049  0.39580  0.12716  1.0000
  C   C2817     1.0  0.67545  0.31824  0.11133  1.0000
  C   C2818     1.0  0.66524  0.39908  0.94692  1.0000
  C   C2819     1.0  0.52660  0.26414  0.07885  1.0000
  Fe  Fe186     1.0  0.72282  0.38273  0.97496  1.0000
  C   C2820     1.0  0.87533  0.45151  0.07030  1.0000
  H   H2259     1.0  0.93005  0.31278  0.27013  1.0000
  C   C2821     1.0  0.84462  0.40825  0.22902  1.0000
  C   C2822     1.0  0.56390  0.38184  0.26013  1.0000
  S   S369      1.0  0.90556  0.44490  0.24401  1.0000
  H   H2260     1.0  0.81381  0.35343  0.30501  1.0000
  H   H2261     1.0  0.88453  0.48725  0.06527  1.0000
  H   H2262     1.0  0.51081  0.35197  0.84403  1.0000
  H   H2263     1.0  0.62428  0.38258  0.23333  1.0000
  C   C2823     1.0  0.73893  0.29131  0.91411  1.0000
  C   C2824     1.0  0.94344  0.33720  0.90119  1.0000
  H   H2264     1.0  0.76457  0.46948  0.07293  1.0000
  H   H2265     1.0  0.71754  0.48494  0.89295  1.0000
  H   H2266     1.0  0.95933  0.25240  0.96094  1.0000
  P   P99       1.0  0.51333  0.44313  0.27187  1.0000
  H   H2267     1.0  0.55647  0.46309  0.84747  1.0000
  S   S370      1.0  0.90547  0.26970  0.91351  1.0000
  H   H2268     1.0  0.56869  0.48524  0.02057  1.0000
  C   C2825     1.0  0.58871  0.30713  0.17414  1.0000
  C   C2826     1.0  0.60024  0.37038  0.08828  1.0000
  H   H2269     1.0  0.82927  0.47415  0.05060  1.0000
  C   C2827     1.0  0.67322  0.30996  0.18932  1.0000
  C   C2828     1.0  0.84177  0.31159  0.98118  1.0000
  H   H2270     1.0  0.56419  0.28783  0.89201  1.0000
  S   S371      1.0  0.61894  0.44732  0.90109  1.0000
  C   C2829     1.0  0.77903  0.47466  0.04515  1.0000
  C   C2830     1.0  0.98037  0.48909  0.83960  1.0000
  H   H2271     1.0  0.70665  0.41646  0.99615  1.0000
  H   H2272     1.0  0.87184  0.33144  0.14690  1.0000
  S   S372      1.0  0.61388  0.26703  0.96236  1.0000
  H   H2273     1.0  0.99924  0.33525  0.04852  1.0000
  H   H2274     1.0  0.52088  0.47318  0.18341  1.0000
  C   C2831     1.0  0.73517  0.44466  0.89886  1.0000
  C   C2832     1.0  0.52119  0.42676  0.31135  1.0000
  H   H2275     1.0  0.86881  0.41795  0.06519  1.0000
  C   C2833     1.0  0.57975  0.39131  0.28219  1.0000
  C   C2834     1.0  0.62681  0.48032  0.02291  1.0000
  C   C2835     1.0  0.64898  0.39320  0.09734  1.0000
  H   H2276     1.0  0.63731  0.28083  0.86691  1.0000
  H   H2277     1.0  0.84459  0.30955  0.26310  1.0000
  H   H2278     1.0  0.58383  0.38005  0.30395  1.0000
  H   H2279     1.0  0.79593  0.29047  0.94726  1.0000
  S   S373      1.0  0.95493  0.36462  0.95276  1.0000
  C   C2836     1.0  0.80004  0.41320  0.14288  1.0000
  H   H2280     1.0  0.87805  0.48996  0.88930  1.0000
  C   C2837     1.0  0.52340  0.40757  0.30576  1.0000
  C   C2838     1.0  0.88213  0.26599  0.27226  1.0000
  H   H2281     1.0  0.76120  0.36913  0.12815  1.0000
  H   H2282     1.0  0.63221  0.30187  0.28193  1.0000
  C   C2839     1.0  0.65725  0.41463  0.95238  1.0000
  Fe  Fe187     1.0  0.73265  0.36425  0.05776  1.0000
  S   S374      1.0  0.61247  0.26463  0.18310  1.0000
  C   C2840     1.0  0.67530  0.41300  0.27232  1.0000
  C   C2841     1.0  0.57226  0.30121  0.25195  1.0000
  H   H2283     1.0  0.99877  0.40012  0.97320  1.0000
  C   C2842     1.0  0.91323  0.40990  0.94350  1.0000
  S   S375      1.0  0.76974  0.37886  0.02172  1.0000
  H   H2284     1.0  0.91220  0.29314  0.21925  1.0000
  H   H2285     1.0  0.75398  0.32390  0.02263  1.0000
  C   C2843     1.0  0.58655  0.27881  0.92103  1.0000
  H   H2286     1.0  0.70367  0.40828  0.09088  1.0000
  C   C2844     1.0  0.71852  0.43306  0.18555  1.0000
  C   C2845     1.0  0.52990  0.33473  0.10801  1.0000
  H   H2287     1.0  0.57904  0.33247  0.26853  1.0000
  C   C2846     1.0  0.86344  0.37014  0.83582  1.0000
  C   C2847     1.0  0.64708  0.35690  0.22083  1.0000
  C   C2848     1.0  0.69705  0.27777  0.09206  1.0000
  C   C2849     1.0  0.52430  0.34787  0.13111  1.0000
  C   C2850     1.0  0.53292  0.42577  0.97415  1.0000
  S   S376      1.0  0.79053  0.28647  0.22716  1.0000
  C   C2851     1.0  0.64072  0.28689  0.16760  1.0000
  S   S377      1.0  0.74932  0.26509  0.15834  1.0000
  C   C2852     1.0  0.69370  0.27685  0.23476  1.0000
  C   C2853     1.0  0.59174  0.31682  0.06771  1.0000
  P   P100      1.0  0.67245  0.40062  0.22787  1.0000
  H   H2288     1.0  0.52953  0.42595  0.20520  1.0000
  C   C2854     1.0  0.86427  0.48515  0.30529  1.0000
  C   C2855     1.0  0.68580  0.39724  0.09614  1.0000
  Fe  Fe188     1.0  0.51368  0.34671  0.24848  1.0000
  H   H2289     1.0  0.64780  0.33920  0.97391  1.0000
  C   C2856     1.0  0.83987  0.38652  0.85915  1.0000
  Fe  Fe189     1.0  0.95737  0.37476  0.10435  1.0000
  H   H2290     1.0  0.70769  0.35411  0.90737  1.0000
  C   C2857     1.0  0.72273  0.37094  0.28834  1.0000
  C   C2858     1.0  0.87462  0.48699  0.22806  1.0000
  H   H2291     1.0  0.81104  0.46946  0.12826  1.0000
  C   C2859     1.0  0.82070  0.43800  0.06533  1.0000
  C   C2860     1.0  0.90350  0.28611  0.25492  1.0000
  C   C2861     1.0  0.85532  0.44599  0.87568  1.0000
  C   C2862     1.0  0.64654  0.48012  0.19079  1.0000
  H   H2292     1.0  0.66284  0.27581  0.89581  1.0000
  C   C2863     1.0  0.72700  0.47614  0.90143  1.0000
  C   C2864     1.0  0.79132  0.33232  0.14626  1.0000
  C   C2865     1.0  0.96643  0.43926  0.18800  1.0000
  H   H2293     1.0  0.94384  0.47042  0.86143  1.0000
  H   H2294     1.0  0.53140  0.43484  0.94384  1.0000
  S   S378      1.0  0.53769  0.38432  0.20680  1.0000
  H   H2295     1.0  0.89792  0.32867  0.94281  1.0000
  C   C2866     1.0  0.73004  0.47580  0.03276  1.0000
  C   C2867     1.0  0.77207  0.29983  0.85616  1.0000
  C   C2868     1.0  0.81049  0.41615  0.09849  1.0000
  H   H2296     1.0  0.85267  0.29329  0.07702  1.0000
  S   S379      1.0  0.60823  0.48625  0.28477  1.0000
  H   H2297     1.0  0.68443  0.32888  0.07702  1.0000
  C   C2869     1.0  0.66091  0.42165  0.28649  1.0000
  H   H2298     1.0  0.75048  0.39416  0.85120  1.0000
  C   C2870     1.0  0.88433  0.43927  0.83700  1.0000
  H   H2299     1.0  0.57767  0.36325  0.15297  1.0000
  Fe  Fe190     1.0  0.65350  0.46194  0.90870  1.0000
  H   H2300     1.0  0.87488  0.29729  0.88200  1.0000
  C   C2871     1.0  0.92033  0.29492  0.92748  1.0000
  H   H2301     1.0  0.56076  0.47024  0.27190  1.0000
  C   C2872     1.0  0.52550  0.28185  0.09411  1.0000
  C   C2873     1.0  0.56532  0.27639  0.91961  1.0000
  H   H2302     1.0  0.98171  0.47352  0.84004  1.0000
  C   C2874     1.0  0.59347  0.35961  0.83446  1.0000
  C   C2875     1.0  0.52082  0.40129  0.99210  1.0000
  C   C2876     1.0  0.69836  0.33450  0.86233  1.0000
  H   H2303     1.0  0.90565  0.34382  0.33012  1.0000
  C   C2877     1.0  0.65726  0.36912  0.24815  1.0000
  H   H2304     1.0  0.85371  0.34296  0.06380  1.0000
  H   H2305     1.0  0.68681  0.29701  0.04711  1.0000
  H   H2306     1.0  0.62625  0.43767  0.13345  1.0000
  H   H2307     1.0  0.58717  0.32023  0.93614  1.0000
  C   C2878     1.0  0.53711  0.40340  0.05312  1.0000
  C   C2879     1.0  0.89835  0.41073  0.20507  1.0000
  H   H2308     1.0  0.84103  0.35074  0.94932  1.0000
  H   H2309     1.0  0.56559  0.43174  0.20322  1.0000
  S   S380      1.0  0.66655  0.49760  0.86024  1.0000
  C   C2880     1.0  0.82102  0.45716  0.07625  1.0000
  H   H2310     1.0  0.93669  0.39710  0.92836  1.0000
  H   H2311     1.0  0.92452  0.45559  0.98352  1.0000
  C   C2881     1.0  0.92050  0.29462  0.97113  1.0000
  C   C2882     1.0  0.82941  0.40735  0.20495  1.0000
  H   H2312     1.0  0.96423  0.27655  0.86722  1.0000
  C   C2883     1.0  0.66784  0.48447  0.19432  1.0000
  H   H2313     1.0  0.82855  0.44017  0.03105  1.0000
  C   C2884     1.0  0.82189  0.25670  0.32928  1.0000
  H   H2314     1.0  0.89979  0.39637  0.93632  1.0000
  C   C2885     1.0  0.76237  0.37939  0.22633  1.0000
  C   C2886     1.0  0.68583  0.32286  0.14442  1.0000
  H   H2315     1.0  0.66529  0.36578  0.31026  1.0000
  H   H2316     1.0  0.60059  0.26369  0.85342  1.0000
  C   C2887     1.0  0.89776  0.33733  0.27114  1.0000
  H   H2317     1.0  0.60903  0.36216  0.92740  1.0000
  C   C2888     1.0  0.78713  0.29797  0.96404  1.0000
  H   H2318     1.0  0.75487  0.28917  0.06648  1.0000
  C   C2889     1.0  0.64842  0.33244  0.30104  1.0000
  C   C2890     1.0  0.54878  0.32338  0.01416  1.0000
  S   S381      1.0  0.88708  0.29725  0.15651  1.0000
  H   H2319     1.0  0.52213  0.46819  0.98393  1.0000
  S   S382      1.0  0.75854  0.39839  0.93135  1.0000
  C   C2891     1.0  0.51856  0.35922  0.86751  1.0000
  C   C2892     1.0  0.98397  0.31916  0.24962  1.0000
  C   C2893     1.0  0.75054  0.45227  0.92262  1.0000
  H   H2320     1.0  0.51907  0.40086  0.27912  1.0000
  H   H2321     1.0  0.69284  0.44440  0.00464  1.0000
  H   H2322     1.0  0.60114  0.35893  0.19161  1.0000
  H   H2323     1.0  0.89521  0.47419  0.94068  1.0000
  C   C2894     1.0  0.85564  0.30127  0.04177  1.0000
  C   C2895     1.0  0.58449  0.42968  0.24899  1.0000
  H   H2324     1.0  0.63709  0.48099  0.08169  1.0000
  C   C2896     1.0  0.52584  0.49700  0.00755  1.0000
  C   C2897     1.0  0.68611  0.39010  0.84495  1.0000
  H   H2325     1.0  0.66907  0.47392  0.22330  1.0000
  C   C2898     1.0  0.61172  0.33594  0.06653  1.0000
  H   H2326     1.0  0.59453  0.35089  0.86542  1.0000
  C   C2899     1.0  0.68473  0.43137  0.98967  1.0000
  C   C2900     1.0  0.68510  0.44045  0.32785  1.0000
  C   C2901     1.0  0.90197  0.28883  0.32913  1.0000
  C   C2902     1.0  0.76408  0.29732  0.03126  1.0000
  C   C2903     1.0  0.93152  0.31582  0.97988  1.0000
  C   C2904     1.0  0.00536  0.49801  0.93481  1.0000
  C   C2905     1.0  0.55868  0.39638  0.23179  1.0000
  C   C2906     1.0  0.62684  0.49338  0.98276  1.0000
  H   H2327     1.0  0.76075  0.32463  0.86235  1.0000
  C   C2907     1.0  0.56043  0.34769  0.00591  1.0000
  C   C2908     1.0  0.96058  0.36165  0.32429  1.0000
  H   H2328     1.0  0.68788  0.36564  0.10670  1.0000
  H   H2329     1.0  0.55308  0.35610  0.02326  1.0000
  H   H2330     1.0  0.93494  0.27200  0.10166  1.0000
  H   H2331     1.0  0.94860  0.39477  0.85892  1.0000
  P   P101      1.0  0.86834  0.33614  0.89172  1.0000
  H   H2332     1.0  0.96696  0.33569  0.21870  1.0000
  H   H2333     1.0  0.65761  0.38667  0.93025  1.0000
  C   C2909     1.0  0.58149  0.32534  0.24218  1.0000
  C   C2910     1.0  0.59383  0.34031  0.19836  1.0000
  C   C2911     1.0  0.57429  0.42392  0.83724  1.0000
  H   H2334     1.0  0.65478  0.44216  0.32481  1.0000
  C   C2912     1.0  0.60909  0.38437  0.04320  1.0000
  C   C2913     1.0  0.88866  0.43273  0.87704  1.0000
  H   H2335     1.0  0.55541  0.45772  0.98238  1.0000
  H   H2336     1.0  0.55875  0.43808  0.05327  1.0000
  C   C2914     1.0  0.67691  0.37323  0.10470  1.0000
  S   S383      1.0  0.65894  0.45229  0.97507  1.0000
  C   C2915     1.0  0.66978  0.43460  0.16541  1.0000
  C   C2916     1.0  0.52668  0.28153  0.13748  1.0000
  C   C2917     1.0  0.82091  0.36322  0.02346  1.0000
  C   C2918     1.0  0.65787  0.41202  0.19681  1.0000
  C   C2919     1.0  0.92704  0.44325  0.96961  1.0000
  H   H2337     1.0  0.73263  0.39007  0.14068  1.0000
  C   C2920     1.0  0.97898  0.49915  0.99400  1.0000
  H   H2338     1.0  0.64675  0.36619  0.18948  1.0000
  S   S384      1.0  0.61616  0.39861  0.85412  1.0000
  C   C2921     1.0  0.77586  0.32742  0.12215  1.0000
  H   H2339     1.0  0.81111  0.40178  0.08926  1.0000
  H   H2340     1.0  0.52495  0.26326  0.04645  1.0000
  C   C2922     1.0  0.77544  0.32739  0.96063  1.0000
  C   C2923     1.0  0.87717  0.31109  0.01120  1.0000
  C   C2924     1.0  0.72366  0.45680  0.88771  1.0000
  C   C2925     1.0  0.99368  0.32908  0.89255  1.0000
  Fe  Fe191     1.0  0.92059  0.38399  0.08022  1.0000
  C   C2926     1.0  0.99156  0.32518  0.85227  1.0000
  H   H2341     1.0  0.97931  0.34557  0.12772  1.0000
  S   S385      1.0  0.60925  0.42599  0.30608  1.0000
  C   C2927     1.0  0.00729  0.48897  0.01059  1.0000
  H   H2342     1.0  0.68225  0.32022  0.97568  1.0000
  H   H2343     1.0  0.98920  0.35899  0.98850  1.0000
  C   C2928     1.0  0.77586  0.28784  0.01001  1.0000
  H   H2344     1.0  0.62799  0.49071  0.15269  1.0000
  S   S386      1.0  0.96597  0.49434  0.17040  1.0000
  C   C2929     1.0  0.54849  0.36892  0.90189  1.0000
  C   C2930     1.0  0.91392  0.44205  0.11837  1.0000
  C   C2931     1.0  0.98740  0.45769  0.18431  1.0000
  P   P102      1.0  0.78830  0.38541  0.18654  1.0000
  C   C2932     1.0  0.67983  0.28148  0.31772  1.0000
  C   C2933     1.0  0.95355  0.28014  0.03349  1.0000
  H   H2345     1.0  0.63049  0.32330  0.21156  1.0000
  C   C2934     1.0  0.88066  0.44373  0.99988  1.0000
  C   C2935     1.0  0.81755  0.29000  0.20765  1.0000
  H   H2346     1.0  0.69092  0.48908  0.31814  1.0000
  H   H2347     1.0  0.52912  0.26335  0.19849  1.0000
  H   H2348     1.0  0.69365  0.37676  0.18475  1.0000
  H   H2349     1.0  0.93113  0.31563  0.01373  1.0000
  H   H2350     1.0  0.83452  0.42240  0.17640  1.0000
  C   C2936     1.0  0.69832  0.27672  0.01691  1.0000
  H   H2351     1.0  0.71158  0.45076  0.86963  1.0000
  C   C2937     1.0  0.79845  0.46536  0.98811  1.0000
  H   H2352     1.0  0.89080  0.31059  0.02295  1.0000
  H   H2353     1.0  0.90163  0.42768  0.87622  1.0000
  P   P103      1.0  0.52211  0.30423  0.05843  1.0000
  C   C2938     1.0  0.54858  0.42780  0.03574  1.0000
  C   C2939     1.0  0.63417  0.39934  0.20689  1.0000
  H   H2354     1.0  0.95255  0.35350  0.87390  1.0000
  H   H2355     1.0  0.76653  0.47781  0.95329  1.0000
  H   H2356     1.0  0.57706  0.28990  0.03846  1.0000
  C   C2940     1.0  0.98903  0.49285  0.02469  1.0000
  H   H2357     1.0  0.98398  0.27224  0.23996  1.0000
  C   C2941     1.0  0.83905  0.38887  0.26506  1.0000
  C   C2942     1.0  0.57976  0.32785  0.95590  1.0000
  C   C2943     1.0  0.76919  0.35850  0.13468  1.0000
  C   C2944     1.0  0.74406  0.38583  0.29054  1.0000
  C   C2945     1.0  0.94777  0.44344  0.96476  1.0000
  S   S387      1.0  0.71430  0.34469  0.13142  1.0000
  H   H2358     1.0  0.63878  0.40158  0.09334  1.0000
  C   C2946     1.0  0.67177  0.40713  0.09308  1.0000
  C   C2947     1.0  0.86031  0.29460  0.17457  1.0000
  H   H2359     1.0  0.97311  0.41789  0.27834  1.0000
  C   C2948     1.0  0.83788  0.30138  0.02666  1.0000
  C   C2949     1.0  0.69762  0.33714  0.90448  1.0000
  C   C2950     1.0  0.54671  0.43891  0.99594  1.0000
  H   H2360     1.0  0.96066  0.45543  0.97548  1.0000
  H   H2361     1.0  0.60466  0.39866  0.19144  1.0000
  C   C2951     1.0  0.76799  0.27703  0.87408  1.0000
  C   C2952     1.0  0.87410  0.43590  0.04679  1.0000
  H   H2362     1.0  0.56213  0.28967  0.28580  1.0000
  H   H2363     1.0  0.58705  0.42073  0.04758  1.0000
  S   S388      1.0  0.73314  0.39790  0.02793  1.0000
  H   H2364     1.0  0.72502  0.30806  0.22260  1.0000
  H   H2365     1.0  0.72812  0.29741  0.92897  1.0000
  C   C2953     1.0  0.58559  0.37411  0.11832  1.0000
  H   H2366     1.0  0.80909  0.45826  0.86342  1.0000
  H   H2367     1.0  0.76293  0.43051  0.12485  1.0000
  C   C2954     1.0  0.85786  0.31740  0.27760  1.0000
  H   H2368     1.0  0.85124  0.38957  0.28275  1.0000
  H   H2369     1.0  0.72890  0.46258  0.01763  1.0000
  H   H2370     1.0  0.79270  0.43097  0.18731  1.0000
  C   C2955     1.0  0.60429  0.40240  0.02864  1.0000
  H   H2371     1.0  0.95326  0.42969  0.22003  1.0000
  C   C2956     1.0  0.98963  0.31632  0.00257  1.0000
  C   C2957     1.0  0.00408  0.47060  0.14256  1.0000
  C   C2958     1.0  0.80028  0.43258  0.15344  1.0000
  H   H2372     1.0  0.76534  0.44112  0.03523  1.0000
  S   S389      1.0  0.72118  0.34865  0.00584  1.0000
  C   C2959     1.0  0.53916  0.36063  0.87001  1.0000
  C   C2960     1.0  0.53744  0.37631  0.93082  1.0000
  C   C2961     1.0  0.99661  0.35643  0.12616  1.0000
  C   C2962     1.0  0.75429  0.47187  0.93552  1.0000
  C   C2963     1.0  0.76376  0.39007  0.25969  1.0000
  C   C2964     1.0  0.89865  0.40262  0.16826  1.0000
  H   H2373     1.0  0.59193  0.44801  0.24543  1.0000
  C   C2965     1.0  0.78371  0.36272  0.16121  1.0000
  H   H2374     1.0  0.82097  0.29318  0.05010  1.0000
  C   C2966     1.0  0.78760  0.31817  0.93980  1.0000
  H   H2375     1.0  0.92000  0.45423  0.08487  1.0000
  C   C2967     1.0  0.96222  0.43362  0.15002  1.0000
  C   C2968     1.0  0.81800  0.36864  0.27765  1.0000
  H   H2376     1.0  0.86100  0.42388  0.21912  1.0000
  C   C2969     1.0  0.79770  0.49707  0.03163  1.0000
  C   C2970     1.0  0.85960  0.43945  0.91588  1.0000
  C   C2971     1.0  0.58197  0.36162  0.97425  1.0000
  H   H2377     1.0  0.96445  0.30695  0.11161  1.0000
  H   H2378     1.0  0.68082  0.31375  0.21527  1.0000
  H   H2379     1.0  0.82371  0.37527  0.92968  1.0000
  H   H2380     1.0  0.87456  0.25769  0.24956  1.0000
  H   H2381     1.0  0.83116  0.32511  0.85034  1.0000
  H   H2382     1.0  0.97626  0.32242  0.84383  1.0000
  C   C2972     1.0  0.84173  0.27253  0.19894  1.0000
  H   H2383     1.0  0.67474  0.37238  0.86743  1.0000
  H   H2384     1.0  0.84232  0.45103  0.87535  1.0000
  H   H2385     1.0  0.56448  0.36989  0.90353  1.0000
  C   C2973     1.0  0.90950  0.42636  0.95915  1.0000
  C   C2974     1.0  0.93406  0.41031  0.93857  1.0000
  C   C2975     1.0  0.66722  0.43106  0.97311  1.0000
  C   C2976     1.0  0.55815  0.31391  0.98701  1.0000
  C   C2977     1.0  0.67213  0.26060  0.26471  1.0000
  H   H2386     1.0  0.54632  0.33571  0.10415  1.0000
  H   H2387     1.0  0.83342  0.26490  0.29541  1.0000
  C   C2978     1.0  0.85997  0.39456  0.00124  1.0000
  C   C2979     1.0  0.84478  0.35985  0.91456  1.0000
  H   H2388     1.0  0.61956  0.46154  0.03123  1.0000
  C   C2980     1.0  0.91396  0.45019  0.15502  1.0000
  C   C2981     1.0  0.97879  0.44655  0.10826  1.0000
  Fe  Fe192     1.0  0.91184  0.33428  0.11551  1.0000
  H   H2389     1.0  0.57017  0.27352  0.22578  1.0000
  C   C2982     1.0  0.73484  0.26842  0.93284  1.0000
  Fe  Fe193     1.0  0.94365  0.36466  0.02267  1.0000
  C   C2983     1.0  0.86358  0.32256  0.95046  1.0000
  H   H2390     1.0  0.64619  0.41837  0.27543  1.0000
  S   S390      1.0  0.90693  0.40893  0.07814  1.0000
  S   S391      1.0  0.51636  0.30592  0.87037  1.0000
  S   S392      1.0  0.94737  0.34349  0.08132  1.0000
  C   C2984     1.0  0.53675  0.47987  0.19112  1.0000
  H   H2391     1.0  0.74533  0.39414  0.31614  1.0000
  H   H2392     1.0  0.70427  0.40912  0.28052  1.0000
  C   C2985     1.0  0.63886  0.32053  0.27300  1.0000
  H   H2393     1.0  0.52705  0.49567  0.32312  1.0000
  H   H2394     1.0  0.52496  0.29413  0.15149  1.0000
  C   C2986     1.0  0.80246  0.36791  0.25444  1.0000
  H   H2395     1.0  0.91536  0.34502  0.25140  1.0000
  H   H2396     1.0  0.69892  0.27498  0.20256  1.0000
  C   C2987     1.0  0.65769  0.35673  0.28859  1.0000
  H   H2397     1.0  0.73867  0.35518  0.20064  1.0000
  C   C2988     1.0  0.84911  0.35514  0.04632  1.0000
  C   C2989     1.0  0.95029  0.28419  0.07433  1.0000
  C   C2990     1.0  0.85748  0.31436  0.16594  1.0000
  H   H2398     1.0  0.78625  0.35207  0.26433  1.0000
  H   H2399     1.0  0.64736  0.35937  0.02881  1.0000
  C   C2991     1.0  0.91371  0.36845  0.87395  1.0000
  C   C2992     1.0  0.68502  0.31251  0.85859  1.0000
  Fe  Fe194     1.0  0.76994  0.25890  0.20056  1.0000
  C   C2993     1.0  0.00174  0.32240  0.26774  1.0000
  H   H2400     1.0  0.88486  0.32689  0.21878  1.0000
  C   C2994     1.0  0.00362  0.37885  0.12906  1.0000
  Fe  Fe195     1.0  0.63256  0.48206  0.84861  1.0000
  H   H2401     1.0  0.99132  0.37430  0.22404  1.0000
  C   C2995     1.0  0.74929  0.26128  0.91179  1.0000
  C   C2996     1.0  0.83610  0.31210  0.18296  1.0000
  C   C2997     1.0  0.91353  0.29730  0.28344  1.0000
  H   H2402     1.0  0.53859  0.39484  0.08396  1.0000
  H   H2403     1.0  0.71564  0.38703  0.84437  1.0000
  C   C2998     1.0  0.95952  0.38068  0.29919  1.0000
  H   H2404     1.0  0.00439  0.30774  0.28000  1.0000
  H   H2405     1.0  0.83221  0.39735  0.85105  1.0000
  H   H2406     1.0  0.82731  0.25593  0.03067  1.0000
  H   H2407     1.0  0.72722  0.49106  0.32273  1.0000
  H   H2408     1.0  0.87722  0.47887  0.20339  1.0000
  H   H2409     1.0  0.70457  0.34863  0.25359  1.0000
  H   H2410     1.0  0.64134  0.28173  0.23550  1.0000
  C   C2999     1.0  0.51436  0.32034  0.09008  1.0000
  C   C3000     1.0  0.82028  0.27020  0.21512  1.0000
  C   C3001     1.0  0.79874  0.46240  0.84532  1.0000
  H   H2411     1.0  0.79706  0.32643  0.90457  1.0000
  C   C3002     1.0  0.88057  0.32729  0.25250  1.0000
  H   H2412     1.0  0.55508  0.33518  0.33126  1.0000
  C   C3003     1.0  0.63796  0.33268  0.23315  1.0000
  C   C3004     1.0  0.99992  0.46513  0.10414  1.0000
  S   S393      1.0  0.69377  0.38122  0.95083  1.0000
  H   H2413     1.0  0.80360  0.35716  0.02267  1.0000
  C   C3005     1.0  0.96691  0.30391  0.07984  1.0000
  C   C3006     1.0  0.86206  0.29735  0.86666  1.0000
  S   S394      1.0  0.66666  0.45004  0.85641  1.0000
  H   H2414     1.0  0.83121  0.49334  0.94529  1.0000
  C   C3007     1.0  0.59201  0.35151  0.95076  1.0000
  H   H2415     1.0  0.89257  0.38422  0.17343  1.0000
  C   C3008     1.0  0.74076  0.36415  0.22495  1.0000
  H   H2416     1.0  0.69511  0.28227  0.98615  1.0000
  H   H2417     1.0  0.97310  0.30222  0.24757  1.0000
  C   C3009     1.0  0.72868  0.40204  0.15339  1.0000
  C   C3010     1.0  0.73742  0.49880  0.00661  1.0000
  H   H2418     1.0  0.88259  0.38415  0.02650  1.0000
  C   C3011     1.0  0.69263  0.41561  0.98462  1.0000
  S   S395      1.0  0.77776  0.26377  0.03865  1.0000
  H   H2419     1.0  0.54503  0.38275  0.95516  1.0000
  C   C3012     1.0  0.86727  0.47449  0.27357  1.0000
  H   H2420     1.0  0.83223  0.39863  0.98548  1.0000
  C   C3013     1.0  0.74081  0.44023  0.16137  1.0000
  H   H2421     1.0  0.98005  0.32952  0.91457  1.0000
  C   C3014     1.0  0.65078  0.29197  0.20085  1.0000
  C   C3015     1.0  0.74203  0.48349  0.92632  1.0000
  C   C3016     1.0  0.65852  0.44374  0.14218  1.0000
  C   C3017     1.0  0.99479  0.26617  0.92687  1.0000
  C   C3018     1.0  0.76474  0.34042  0.11648  1.0000
  H   H2422     1.0  0.82776  0.31098  0.97000  1.0000
  Fe  Fe196     1.0  0.93215  0.48294  0.21776  1.0000
  Fe  Fe197     1.0  0.75786  0.36581  0.96775  1.0000
  C   C3019     1.0  0.98022  0.33786  0.23402  1.0000
  H   H2423     1.0  0.61183  0.41356  0.99397  1.0000
  P   P104      1.0  0.88181  0.42441  0.96920  1.0000
  C   C3020     1.0  0.90613  0.43455  0.19838  1.0000
  H   H2424     1.0  0.64744  0.34052  0.11555  1.0000
  H   H2425     1.0  0.62034  0.38177  0.01950  1.0000
  C   C3021     1.0  0.72450  0.46970  0.07923  1.0000
  C   C3022     1.0  0.99829  0.27093  0.22307  1.0000
  H   H2426     1.0  0.75793  0.36132  0.85294  1.0000
  C   C3023     1.0  0.87634  0.43276  0.91696  1.0000
  C   C3024     1.0  0.63221  0.33277  0.00049  1.0000
  C   C3025     1.0  0.67235  0.29308  0.89766  1.0000
  C   C3026     1.0  0.59054  0.25576  0.31117  1.0000
  C   C3027     1.0  0.85839  0.35711  0.88051  1.0000
  H   H2427     1.0  0.66026  0.28094  0.96962  1.0000
  H   H2428     1.0  0.75271  0.33649  0.09776  1.0000
  H   H2429     1.0  0.80752  0.35321  0.18390  1.0000
  C   C3028     1.0  0.99410  0.35974  0.23664  1.0000
  H   H2430     1.0  0.71287  0.43374  0.32924  1.0000
  C   C3029     1.0  0.72661  0.48656  0.09991  1.0000
  H   H2431     1.0  0.64337  0.41394  0.94024  1.0000
  H   H2432     1.0  0.99046  0.46254  0.21351  1.0000
  C   C3030     1.0  0.80818  0.38714  0.21748  1.0000
  C   C3031     1.0  0.70102  0.41025  0.19386  1.0000
  C   C3032     1.0  0.58796  0.26435  0.95744  1.0000
  H   H2433     1.0  0.83393  0.32738  0.17672  1.0000
  C   C3033     1.0  0.69857  0.43051  0.31662  1.0000
  C   C3034     1.0  0.55910  0.47812  0.24067  1.0000
  H   H2434     1.0  0.93196  0.31679  0.85895  1.0000
  C   C3035     1.0  0.69360  0.28514  0.05145  1.0000
  C   C3036     1.0  0.51676  0.47325  0.01176  1.0000
  C   C3037     1.0  0.63694  0.49152  0.05142  1.0000
  C   C3038     1.0  0.74581  0.42481  0.14474  1.0000
  H   H2435     1.0  0.84983  0.43972  0.94605  1.0000
  H   H2436     1.0  0.73199  0.42924  0.88944  1.0000
  C   C3039     1.0  0.90647  0.41832  0.12490  1.0000
  C   C3040     1.0  0.95896  0.48731  0.85176  1.0000
  H   H2437     1.0  0.80028  0.32248  0.14971  1.0000
  C   C3041     1.0  0.98653  0.31992  0.04408  1.0000
  C   C3042     1.0  0.70837  0.29546  0.24617  1.0000
  C   C3043     1.0  0.52901  0.26393  0.16464  1.0000
  H   H2438     1.0  0.63147  0.46621  0.21709  1.0000
  C   C3044     1.0  0.82692  0.34734  0.04482  1.0000
  C   C3045     1.0  0.70644  0.39464  0.17829  1.0000
  C   C3046     1.0  0.83525  0.37417  0.90369  1.0000
  H   H2439     1.0  0.99650  0.28168  0.90438  1.0000
  H   H2440     1.0  0.58310  0.41573  0.85199  1.0000
  S   S396      1.0  0.95686  0.39706  0.04249  1.0000
  C   C3047     1.0  0.56945  0.43900  0.85535  1.0000
  C   C3048     1.0  0.88893  0.46748  0.97686  1.0000
  C   C3049     1.0  0.88315  0.47502  0.04716  1.0000
  C   C3050     1.0  0.77947  0.45866  0.02376  1.0000
  C   C3051     1.0  0.59232  0.30508  0.03685  1.0000
  H   H2441     1.0  0.61279  0.30481  0.97810  1.0000
  C   C3052     1.0  0.67116  0.29589  0.93968  1.0000
  H   H2442     1.0  0.54904  0.29571  0.99006  1.0000
  H   H2443     1.0  0.99131  0.43767  0.85620  1.0000
  C   C3053     1.0  0.59652  0.33129  0.16353  1.0000
  S   S397      1.0  0.92202  0.36382  0.14337  1.0000
  C   C3054     1.0  0.97369  0.40324  0.29890  1.0000
  C   C3055     1.0  0.58979  0.41516  0.27721  1.0000
  H   H2444     1.0  0.71260  0.31250  0.29606  1.0000
  H   H2445     1.0  0.55567  0.36328  0.26513  1.0000
  S   S398      1.0  0.98460  0.38959  0.13562  1.0000
  S   S399      1.0  0.52103  0.31703  0.25126  1.0000
  C   C3056     1.0  0.93640  0.38234  0.84747  1.0000
  H   H2446     1.0  0.94804  0.37807  0.27930  1.0000
  C   C3057     1.0  0.88117  0.32159  0.96574  1.0000
  Fe  Fe198     1.0  0.76895  0.41090  0.98675  1.0000
  H   H2447     1.0  0.59093  0.38034  0.96719  1.0000
  C   C3058     1.0  0.70622  0.26054  0.02276  1.0000
  H   H2448     1.0  0.00399  0.43190  0.06231  1.0000
  H   H2449     1.0  0.58256  0.49590  0.93739  1.0000
  H   H2450     1.0  0.51360  0.40963  0.14998  1.0000
  H   H2451     1.0  0.80847  0.49541  0.85670  1.0000
  C   C3059     1.0  0.85224  0.31724  0.32162  1.0000
  H   H2452     1.0  0.84388  0.25724  0.20506  1.0000
  H   H2453     1.0  0.86187  0.26587  0.97134  1.0000
  H   H2454     1.0  0.80361  0.27535  0.31635  1.0000
  C   C3060     1.0  0.66534  0.26223  0.30707  1.0000
  C   C3061     1.0  0.99347  0.45238  0.33289  1.0000
  Fe  Fe199     1.0  0.61250  0.45752  0.32417  1.0000
  C   C3062     1.0  0.70519  0.26193  0.09810  1.0000
  C   C3063     1.0  0.00603  0.37252  0.96739  1.0000
  H   H2455     1.0  0.65911  0.39754  0.83796  1.0000
  S   S400      1.0  0.64539  0.48214  0.33126  1.0000
  H   H2456     1.0  0.93104  0.25944  0.84090  1.0000
  H   H2457     1.0  0.53349  0.38217  0.33014  1.0000
  C   C3064     1.0  0.85491  0.28280  0.84104  1.0000
  H   H2458     1.0  0.80106  0.50075  0.16253  1.0000
  C   C3065     1.0  0.96512  0.26879  0.84112  1.0000
  C   C3066     1.0  0.00582  0.47577  0.33100  1.0000
  C   C3067     1.0  0.87071  0.25702  0.31835  1.0000
  H   H2459     1.0  0.80581  0.25306  0.23356  1.0000
  C   C3068     1.0  0.84526  0.25313  0.97183  1.0000
  H   H2460     1.0  0.58043  0.25196  0.28874  1.0000
  H   H2461     1.0  0.70759  0.25597  0.12981  1.0000
  H   H2462     1.0  0.99931  0.27559  0.83484  1.0000
  H   H2463     1.0  0.64846  0.32280  0.33255  1.0000
  C   C3069     1.0  0.55564  0.50000  0.16011  1.0000
  C   C3070     1.0  0.70968  0.25325  0.06381  1.0000
  H   H2464     1.0  0.99231  0.38093  0.83333  1.0000
  H   H2465     1.0  0.86225  0.27174  0.83697  1.0000
  Fe  Fe200     1.0  0.87888  0.62014  0.55355  1.0000
  C   C3071     1.0  0.89808  0.65464  0.33621  1.0000
  H   H2466     1.0  0.92582  0.59765  0.70027  1.0000
  H   H2467     1.0  0.67092  0.52712  0.50277  1.0000
  C   C3072     1.0  0.72430  0.52312  0.38901  1.0000
  H   H2468     1.0  0.60805  0.71430  0.79177  1.0000
  C   C3073     1.0  0.63415  0.63828  0.61090  1.0000
  C   C3074     1.0  0.55994  0.53531  0.41349  1.0000
  C   C3075     1.0  0.64544  0.65487  0.42963  1.0000
  H   H2469     1.0  0.98514  0.70274  0.41522  1.0000
  C   C3076     1.0  0.00954  0.71735  0.67618  1.0000
  C   C3077     1.0  0.96913  0.68395  0.48459  1.0000
  C   C3078     1.0  0.63403  0.73728  0.56476  1.0000
  C   C3079     1.0  0.59223  0.65750  0.52569  1.0000
  H   H2470     1.0  0.93102  0.62615  0.53120  1.0000
  C   C3080     1.0  0.78013  0.53808  0.59962  1.0000
  H   H2471     1.0  0.94966  0.74689  0.75930  1.0000
  C   C3081     1.0  0.86870  0.74394  0.80848  1.0000
  C   C3082     1.0  0.94631  0.50166  0.75009  1.0000
  S   S401      1.0  0.51257  0.55135  0.58540  1.0000
  H   H2472     1.0  0.54670  0.62109  0.48893  1.0000
  H   H2473     1.0  0.65860  0.54133  0.39102  1.0000
  C   C3083     1.0  0.55671  0.69109  0.64614  1.0000
  H   H2474     1.0  0.69460  0.60705  0.63452  1.0000
  H   H2475     1.0  0.92566  0.53681  0.70932  1.0000
  C   C3084     1.0  0.67209  0.66849  0.60113  1.0000
  C   C3085     1.0  0.51370  0.59503  0.49174  1.0000
  H   H2476     1.0  0.55011  0.54312  0.40254  1.0000
  C   C3086     1.0  0.83616  0.52647  0.74196  1.0000
  C   C3087     1.0  0.74423  0.64232  0.64939  1.0000
  C   C3088     1.0  0.78833  0.72098  0.77604  1.0000
  C   C3089     1.0  0.72794  0.56749  0.59290  1.0000
  C   C3090     1.0  0.92375  0.52002  0.56030  1.0000
  C   C3091     1.0  0.74694  0.73083  0.61661  1.0000
  P   P105      1.0  0.96461  0.66786  0.36847  1.0000
  H   H2477     1.0  0.76393  0.62109  0.45018  1.0000
  H   H2478     1.0  0.94166  0.57183  0.80957  1.0000
  C   C3092     1.0  0.71037  0.57598  0.69235  1.0000
  H   H2479     1.0  0.70571  0.71903  0.38656  1.0000
  H   H2480     1.0  0.94977  0.67617  0.68034  1.0000
  H   H2481     1.0  0.71522  0.60060  0.49687  1.0000
  C   C3093     1.0  0.89890  0.59461  0.67280  1.0000
  H   H2482     1.0  0.91317  0.71218  0.68590  1.0000
  S   S402      1.0  0.79995  0.57512  0.77608  1.0000
  H   H2483     1.0  0.68843  0.50563  0.53520  1.0000
  H   H2484     1.0  0.62129  0.74215  0.55989  1.0000
  H   H2485     1.0  0.61481  0.56733  0.66951  1.0000
  H   H2486     1.0  0.79864  0.65755  0.50992  1.0000
  H   H2487     1.0  0.61320  0.59720  0.73360  1.0000
  C   C3094     1.0  0.75492  0.51973  0.75087  1.0000
  H   H2488     1.0  0.64280  0.52512  0.47244  1.0000
  H   H2489     1.0  0.83872  0.71942  0.54128  1.0000
  C   C3095     1.0  0.88492  0.72265  0.77624  1.0000
  H   H2490     1.0  0.57186  0.69243  0.48222  1.0000
  H   H2491     1.0  0.95383  0.72422  0.55297  1.0000
  H   H2492     1.0  0.89856  0.71869  0.76911  1.0000
  H   H2493     1.0  0.84591  0.74002  0.64018  1.0000
  H   H2494     1.0  0.86626  0.57811  0.40040  1.0000
  C   C3096     1.0  0.92084  0.58145  0.50955  1.0000
  C   C3097     1.0  0.63621  0.60230  0.81837  1.0000
  C   C3098     1.0  0.70781  0.62242  0.63773  1.0000
  C   C3099     1.0  0.84836  0.56703  0.40624  1.0000
  C   C3100     1.0  0.83842  0.54309  0.42791  1.0000
  Fe  Fe201     1.0  0.55964  0.54009  0.68462  1.0000
  H   H2495     1.0  0.61092  0.66551  0.75701  1.0000
  C   C3101     1.0  0.98272  0.61683  0.39014  1.0000
  P   P106      1.0  0.79507  0.57599  0.38831  1.0000
  S   S403      1.0  0.96246  0.64127  0.63355  1.0000
  C   C3102     1.0  0.67170  0.54449  0.73134  1.0000
  H   H2496     1.0  0.67999  0.71972  0.57866  1.0000
  H   H2497     1.0  0.68798  0.64001  0.63959  1.0000
  H   H2498     1.0  0.75429  0.56940  0.79282  1.0000
  H   H2499     1.0  0.98050  0.65577  0.71810  1.0000
  S   S404      1.0  0.80619  0.63658  0.73676  1.0000
  C   C3103     1.0  0.97450  0.60479  0.36130  1.0000
  H   H2500     1.0  0.92200  0.55554  0.42970  1.0000
  C   C3104     1.0  0.98093  0.68779  0.59300  1.0000
  H   H2501     1.0  0.63731  0.65270  0.70568  1.0000
  P   P107      1.0  0.59805  0.69282  0.61557  1.0000
  C   C3105     1.0  0.80795  0.65983  0.47683  1.0000
  H   H2502     1.0  0.86421  0.67683  0.65614  1.0000
  C   C3106     1.0  0.57769  0.64725  0.67418  1.0000
  H   H2503     1.0  0.59400  0.50700  0.45849  1.0000
  H   H2504     1.0  0.86933  0.59138  0.65435  1.0000
  Fe  Fe202     1.0  0.71598  0.65635  0.37814  1.0000
  C   C3107     1.0  0.83646  0.51998  0.67074  1.0000
  H   H2505     1.0  0.96005  0.50222  0.76261  1.0000
  C   C3108     1.0  0.94174  0.71110  0.54264  1.0000
  C   C3109     1.0  0.70392  0.64090  0.64113  1.0000
  C   C3110     1.0  0.74303  0.71126  0.51299  1.0000
  H   H2506     1.0  0.73553  0.71854  0.60364  1.0000
  C   C3111     1.0  0.91264  0.67103  0.55841  1.0000
  H   H2507     1.0  0.72645  0.54440  0.55462  1.0000
  C   C3112     1.0  0.78584  0.59087  0.50493  1.0000
  H   H2508     1.0  0.83176  0.53405  0.76615  1.0000
  C   C3113     1.0  0.62722  0.63769  0.65492  1.0000
  H   H2509     1.0  0.99586  0.72380  0.55408  1.0000
  H   H2510     1.0  0.58682  0.60162  0.53900  1.0000
  Fe  Fe203     1.0  0.67294  0.67910  0.82609  1.0000
  H   H2511     1.0  0.89601  0.67933  0.76702  1.0000
  C   C3114     1.0  0.55229  0.70033  0.81389  1.0000
  H   H2512     1.0  0.71786  0.50877  0.45981  1.0000
  H   H2513     1.0  0.84089  0.66739  0.35826  1.0000
  C   C3115     1.0  0.70095  0.65204  0.80192  1.0000
  C   C3116     1.0  0.85161  0.50258  0.72052  1.0000
  S   S405      1.0  0.77728  0.67016  0.44821  1.0000
  C   C3117     1.0  0.81511  0.52871  0.43728  1.0000
  H   H2514     1.0  0.84493  0.57766  0.73222  1.0000
  C   C3118     1.0  0.79635  0.74107  0.73948  1.0000
  H   H2515     1.0  0.80737  0.51003  0.45356  1.0000
  C   C3119     1.0  0.98007  0.63618  0.39150  1.0000
  H   H2516     1.0  0.00097  0.68854  0.78397  1.0000
  P   P108      1.0  0.64265  0.54610  0.54274  1.0000
  S   S406      1.0  0.61138  0.67288  0.35385  1.0000
  H   H2517     1.0  0.77606  0.72835  0.58616  1.0000
  H   H2518     1.0  0.77413  0.60559  0.39183  1.0000
  S   S407      1.0  0.89745  0.64164  0.59225  1.0000
  C   C3120     1.0  0.54229  0.69727  0.66994  1.0000
  C   C3121     1.0  0.98511  0.55106  0.37018  1.0000
  C   C3122     1.0  0.87854  0.50296  0.60944  1.0000
  C   C3123     1.0  0.66689  0.51512  0.62800  1.0000
  C   C3124     1.0  0.57132  0.59096  0.48978  1.0000
  C   C3125     1.0  0.62611  0.59180  0.34414  1.0000
  C   C3126     1.0  0.66728  0.72481  0.57489  1.0000
  H   H2519     1.0  0.79390  0.53143  0.33787  1.0000
  S   S408      1.0  0.57113  0.51350  0.69762  1.0000
  H   H2520     1.0  0.77677  0.63693  0.58872  1.0000
  C   C3127     1.0  0.87117  0.71012  0.61322  1.0000
  C   C3128     1.0  0.88635  0.73867  0.79900  1.0000
  C   C3129     1.0  0.58406  0.51242  0.73946  1.0000
  S   S409      1.0  0.95783  0.74443  0.45980  1.0000
  C   C3130     1.0  0.60974  0.59989  0.48648  1.0000
  H   H2521     1.0  0.64206  0.67923  0.51111  1.0000
  C   C3131     1.0  0.89999  0.54063  0.80323  1.0000
  H   H2522     1.0  0.66107  0.53526  0.80298  1.0000
  C   C3132     1.0  0.54540  0.61840  0.42387  1.0000
  H   H2523     1.0  0.98525  0.72383  0.65117  1.0000
  H   H2524     1.0  0.83256  0.52329  0.63983  1.0000
  H   H2525     1.0  0.91838  0.70759  0.38076  1.0000
  H   H2526     1.0  0.86317  0.65920  0.59581  1.0000
  C   C3133     1.0  0.59392  0.67070  0.66427  1.0000
  H   H2527     1.0  0.52407  0.68701  0.67712  1.0000
  H   H2528     1.0  0.75214  0.72786  0.51788  1.0000
  C   C3134     1.0  0.94785  0.73096  0.68726  1.0000
  C   C3135     1.0  0.82225  0.73861  0.52034  1.0000
  H   H2529     1.0  0.00456  0.67871  0.51238  1.0000
  C   C3136     1.0  0.87145  0.57924  0.76094  1.0000
  H   H2530     1.0  0.00816  0.54514  0.73421  1.0000
  C   C3137     1.0  0.77882  0.62389  0.61083  1.0000
  C   C3138     1.0  0.67934  0.51150  0.55615  1.0000
  C   C3139     1.0  0.66474  0.60306  0.58593  1.0000
  H   H2531     1.0  0.64671  0.53194  0.63221  1.0000
  H   H2532     1.0  0.82857  0.64601  0.50028  1.0000
  C   C3140     1.0  0.69587  0.72524  0.46561  1.0000
  H   H2533     1.0  0.65545  0.53171  0.73060  1.0000
  Fe  Fe204     1.0  0.76168  0.66566  0.39260  1.0000
  C   C3141     1.0  0.63329  0.66936  0.36937  1.0000
  H   H2534     1.0  0.80877  0.71510  0.43324  1.0000
  H   H2535     1.0  0.77140  0.51662  0.51383  1.0000
  H   H2536     1.0  0.70739  0.51106  0.38966  1.0000
  S   S410      1.0  0.52253  0.57495  0.77103  1.0000
  H   H2537     1.0  0.56023  0.58112  0.43560  1.0000
  C   C3142     1.0  0.96909  0.64361  0.36420  1.0000
  C   C3143     1.0  0.75756  0.52962  0.62399  1.0000
  S   S411      1.0  0.84575  0.61808  0.55181  1.0000
  H   H2538     1.0  0.67772  0.59383  0.53193  1.0000
  C   C3144     1.0  0.57402  0.63048  0.71321  1.0000
  C   C3145     1.0  0.67365  0.74744  0.54888  1.0000
  C   C3146     1.0  0.65309  0.55879  0.48238  1.0000
  C   C3147     1.0  0.94456  0.52185  0.73678  1.0000
  H   H2539     1.0  0.78734  0.57639  0.68394  1.0000
  H   H2540     1.0  0.95114  0.66054  0.55256  1.0000
  H   H2541     1.0  0.91089  0.58777  0.52667  1.0000
  C   C3148     1.0  0.55127  0.71595  0.68624  1.0000
  S   S412      1.0  0.61561  0.62124  0.58620  1.0000
  C   C3149     1.0  0.91045  0.67714  0.51594  1.0000
  H   H2542     1.0  0.60281  0.55140  0.54282  1.0000
  C   C3150     1.0  0.66554  0.65999  0.39894  1.0000
  C   C3151     1.0  0.74503  0.51232  0.56830  1.0000
  H   H2543     1.0  0.85272  0.52365  0.56739  1.0000
  C   C3152     1.0  0.98453  0.62699  0.75154  1.0000
  H   H2544     1.0  0.63346  0.70934  0.47298  1.0000
  Fe  Fe205     1.0  0.63340  0.68460  0.80634  1.0000
  P   P109      1.0  0.94563  0.70693  0.73005  1.0000
  H   H2545     1.0  0.99711  0.50766  0.53910  1.0000
  C   C3153     1.0  0.94978  0.59014  0.78993  1.0000
  C   C3154     1.0  0.72200  0.59955  0.55985  1.0000
  C   C3155     1.0  0.65095  0.54388  0.45666  1.0000
  C   C3156     1.0  0.64435  0.70837  0.59544  1.0000
  C   C3157     1.0  0.66493  0.66879  0.64442  1.0000
  S   S413      1.0  0.89100  0.62616  0.48016  1.0000
  C   C3158     1.0  0.80361  0.61129  0.63801  1.0000
  C   C3159     1.0  0.84182  0.73843  0.38540  1.0000
  C   C3160     1.0  0.62649  0.55893  0.61255  1.0000
  S   S414      1.0  0.99831  0.61216  0.66603  1.0000
  C   C3161     1.0  0.87617  0.58913  0.68165  1.0000
  C   C3162     1.0  0.82486  0.65329  0.47142  1.0000
  C   C3163     1.0  0.94829  0.62458  0.75246  1.0000
  C   C3164     1.0  0.58917  0.59803  0.50787  1.0000
  C   C3165     1.0  0.73213  0.64373  0.79039  1.0000
  Fe  Fe206     1.0  0.54003  0.56938  0.71283  1.0000
  H   H2546     1.0  0.75774  0.69518  0.55295  1.0000
  C   C3166     1.0  0.84674  0.51309  0.75104  1.0000
  H   H2547     1.0  0.68948  0.68027  0.58024  1.0000
  H   H2548     1.0  0.72157  0.61546  0.55954  1.0000
  C   C3167     1.0  0.89366  0.50092  0.41453  1.0000
  C   C3168     1.0  0.98498  0.66975  0.61132  1.0000
  C   C3169     1.0  0.60159  0.66041  0.73407  1.0000
  H   H2549     1.0  0.98312  0.59460  0.78452  1.0000
  C   C3170     1.0  0.87509  0.71355  0.53524  1.0000
  C   C3171     1.0  0.92507  0.68007  0.72548  1.0000
  C   C3172     1.0  0.78517  0.53367  0.55954  1.0000
  C   C3173     1.0  0.72862  0.70828  0.48613  1.0000
  C   C3174     1.0  0.58978  0.70376  0.80435  1.0000
  C   C3175     1.0  0.66996  0.57700  0.38873  1.0000
  H   H2550     1.0  0.87161  0.71731  0.64031  1.0000
  C   C3176     1.0  0.76289  0.58572  0.66626  1.0000
  C   C3177     1.0  0.99764  0.69667  0.75527  1.0000
  C   C3178     1.0  0.89615  0.55456  0.82703  1.0000
  H   H2551     1.0  0.96458  0.68831  0.79318  1.0000
  C   C3179     1.0  0.74652  0.69287  0.53258  1.0000
  H   H2552     1.0  0.75361  0.53274  0.65532  1.0000
  S   S415      1.0  0.74884  0.68903  0.36289  1.0000
  H   H2553     1.0  0.52526  0.57011  0.34223  1.0000
  C   C3180     1.0  0.64242  0.61492  0.33693  1.0000
  C   C3181     1.0  0.58639  0.61240  0.33465  1.0000
  H   H2554     1.0  0.68790  0.65413  0.79045  1.0000
  S   S416      1.0  0.86596  0.58150  0.57246  1.0000
  C   C3182     1.0  0.58585  0.63699  0.74330  1.0000
  C   C3183     1.0  0.93525  0.73340  0.83056  1.0000
  Fe  Fe207     1.0  0.85679  0.62145  0.47974  1.0000
  C   C3184     1.0  0.81167  0.56254  0.40341  1.0000
  C   C3185     1.0  0.75527  0.72432  0.80525  1.0000
  H   H2555     1.0  0.98601  0.64493  0.41478  1.0000
  C   C3186     1.0  0.78480  0.58988  0.66481  1.0000
  C   C3187     1.0  0.00344  0.55782  0.38733  1.0000
  H   H2556     1.0  0.86784  0.64728  0.74883  1.0000
  C   C3188     1.0  0.72480  0.55954  0.55657  1.0000
  P   P110      1.0  0.72507  0.73221  0.45764  1.0000
  C   C3189     1.0  0.97248  0.70717  0.72330  1.0000
  C   C3190     1.0  0.64268  0.65293  0.67183  1.0000
  H   H2557     1.0  0.64970  0.61934  0.74694  1.0000
  C   C3191     1.0  0.97275  0.68597  0.43933  1.0000
  H   H2558     1.0  0.93253  0.53934  0.60559  1.0000
  C   C3192     1.0  0.90622  0.50522  0.54714  1.0000
  H   H2559     1.0  0.88265  0.61309  0.79438  1.0000
  H   H2560     1.0  0.88444  0.61931  0.37864  1.0000
  S   S417      1.0  0.96511  0.54800  0.73927  1.0000
  H   H2561     1.0  0.56342  0.52355  0.55170  1.0000
  C   C3193     1.0  0.76759  0.52068  0.54394  1.0000
  H   H2562     1.0  0.81856  0.62758  0.35707  1.0000
  H   H2563     1.0  0.70867  0.68482  0.45491  1.0000
  C   C3194     1.0  0.89200  0.56355  0.34074  1.0000
  C   C3195     1.0  0.74002  0.51692  0.60815  1.0000
  Fe  Fe208     1.0  0.68082  0.72739  0.77764  1.0000
  C   C3196     1.0  0.62921  0.65910  0.41485  1.0000
  P   P111      1.0  0.73161  0.59791  0.64132  1.0000
  C   C3197     1.0  0.71847  0.59125  0.52401  1.0000
  H   H2564     1.0  0.61337  0.65419  0.43874  1.0000
  C   C3198     1.0  0.58360  0.66752  0.49667  1.0000
  C   C3199     1.0  0.51324  0.59443  0.75045  1.0000
  C   C3200     1.0  0.72827  0.62325  0.64054  1.0000
  S   S418      1.0  0.72825  0.63331  0.41160  1.0000
  C   C3201     1.0  0.75425  0.55501  0.78306  1.0000
  H   H2565     1.0  0.71853  0.53817  0.78930  1.0000
  Fe  Fe209     1.0  0.82782  0.65889  0.77088  1.0000
  C   C3202     1.0  0.65560  0.69695  0.49287  1.0000
  H   H2566     1.0  0.81930  0.55393  0.82584  1.0000
  H   H2567     1.0  0.00289  0.63695  0.74005  1.0000
  H   H2568     1.0  0.67760  0.58413  0.35287  1.0000
  C   C3203     1.0  0.94629  0.56449  0.46610  1.0000
  Fe  Fe210     1.0  0.53522  0.55827  0.62870  1.0000
  H   H2569     1.0  0.51453  0.62937  0.34707  1.0000
  H   H2570     1.0  0.84573  0.72446  0.38502  1.0000
  C   C3204     1.0  0.72655  0.58758  0.59484  1.0000
  C   C3205     1.0  0.95278  0.57427  0.49898  1.0000
  C   C3206     1.0  0.82059  0.73291  0.41227  1.0000
  H   H2571     1.0  0.78879  0.58652  0.53683  1.0000
  C   C3207     1.0  0.92714  0.52125  0.71936  1.0000
  H   H2572     1.0  0.57806  0.70509  0.54776  1.0000
  H   H2573     1.0  0.80883  0.72384  0.51574  1.0000
  C   C3208     1.0  0.76137  0.74910  0.38078  1.0000
  H   H2574     1.0  0.61171  0.54173  0.62400  1.0000
  C   C3209     1.0  0.73452  0.52010  0.76351  1.0000
  C   C3210     1.0  0.59712  0.50120  0.73875  1.0000
  H   H2575     1.0  0.92125  0.64392  0.66355  1.0000
  C   C3211     1.0  0.89456  0.58594  0.75221  1.0000
  C   C3212     1.0  0.57547  0.51732  0.55344  1.0000
  C   C3213     1.0  0.92769  0.68822  0.57239  1.0000
  C   C3214     1.0  0.83157  0.66504  0.39142  1.0000
  C   C3215     1.0  0.95424  0.66230  0.51746  1.0000
  C   C3216     1.0  0.92415  0.69999  0.48655  1.0000
  C   C3217     1.0  0.88877  0.50999  0.37697  1.0000
  C   C3218     1.0  0.83164  0.51116  0.34219  1.0000
  C   C3219     1.0  0.84596  0.50543  0.68060  1.0000
  C   C3220     1.0  0.87026  0.69027  0.54492  1.0000
  H   H2576     1.0  0.52361  0.61418  0.79465  1.0000
  C   C3221     1.0  0.91247  0.71983  0.37020  1.0000
  C   C3222     1.0  0.80068  0.62819  0.61039  1.0000
  C   C3223     1.0  0.93198  0.66962  0.69688  1.0000
  H   H2577     1.0  0.89437  0.55349  0.36841  1.0000
  H   H2578     1.0  0.87012  0.68256  0.51851  1.0000
  H   H2579     1.0  0.91025  0.50243  0.41100  1.0000
  H   H2580     1.0  0.87805  0.73963  0.41268  1.0000
  H   H2581     1.0  0.85092  0.51064  0.78197  1.0000
  H   H2582     1.0  0.99039  0.61067  0.41262  1.0000
  C   C3224     1.0  0.89731  0.72217  0.40152  1.0000
  Fe  Fe211     1.0  0.97732  0.57481  0.67225  1.0000
  H   H2583     1.0  0.75910  0.64248  0.65641  1.0000
  C   C3225     1.0  0.86548  0.71120  0.76418  1.0000
  H   H2584     1.0  0.82844  0.52163  0.51937  1.0000
  C   C3226     1.0  0.61416  0.59400  0.76737  1.0000
  H   H2585     1.0  0.72927  0.59121  0.73484  1.0000
  H   H2586     1.0  0.61759  0.69539  0.68875  1.0000
  C   C3227     1.0  0.58025  0.70374  0.63811  1.0000
  S   S419      1.0  0.64769  0.66128  0.79272  1.0000
  C   C3228     1.0  0.93704  0.60076  0.77782  1.0000
  Fe  Fe212     1.0  0.83347  0.57975  0.56639  1.0000
  S   S420      1.0  0.57448  0.57245  0.70341  1.0000
  H   H2587     1.0  0.81537  0.64450  0.58850  1.0000
  C   C3229     1.0  0.97697  0.69664  0.76033  1.0000
  C   C3230     1.0  0.94132  0.73136  0.78841  1.0000
  C   C3231     1.0  0.65963  0.55297  0.41020  1.0000
  H   H2588     1.0  0.68141  0.68930  0.50588  1.0000
  C   C3232     1.0  0.51101  0.55317  0.36258  1.0000
  H   H2589     1.0  0.56774  0.64185  0.65217  1.0000
  H   H2590     1.0  0.89818  0.66429  0.50572  1.0000
  C   C3233     1.0  0.83507  0.57682  0.39448  1.0000
  H   H2591     1.0  0.53939  0.61188  0.36400  1.0000
  C   C3234     1.0  0.89626  0.51928  0.62030  1.0000
  C   C3235     1.0  0.97195  0.63762  0.73918  1.0000
  H   H2592     1.0  0.58289  0.62393  0.77360  1.0000
  Fe  Fe213     1.0  0.67130  0.69120  0.72979  1.0000
  C   C3236     1.0  0.54883  0.51155  0.43852  1.0000
  H   H2593     1.0  0.64849  0.60676  0.64550  1.0000
  S   S421      1.0  0.89019  0.56959  0.46295  1.0000
  C   C3237     1.0  0.59561  0.53862  0.42093  1.0000
  H   H2594     1.0  0.80251  0.53941  0.54159  1.0000
  C   C3238     1.0  0.94013  0.71680  0.49948  1.0000
  C   C3239     1.0  0.77465  0.53628  0.75625  1.0000
  C   C3240     1.0  0.91429  0.57158  0.47687  1.0000
  C   C3241     1.0  0.72222  0.66868  0.49719  1.0000
  H   H2595     1.0  0.93684  0.62923  0.45173  1.0000
  C   C3242     1.0  0.72402  0.72892  0.37285  1.0000
  S   S422      1.0  0.97601  0.57416  0.51403  1.0000
  C   C3243     1.0  0.77176  0.61024  0.45617  1.0000
  H   H2596     1.0  0.57057  0.52978  0.77485  1.0000
  Fe  Fe214     1.0  0.79959  0.60591  0.79264  1.0000
  H   H2597     1.0  0.62334  0.60476  0.50148  1.0000
  H   H2598     1.0  0.90110  0.74686  0.80960  1.0000
  C   C3244     1.0  0.94275  0.64275  0.50531  1.0000
  C   C3245     1.0  0.57605  0.71403  0.79780  1.0000
  C   C3246     1.0  0.80175  0.53837  0.42502  1.0000
  C   C3247     1.0  0.59534  0.58976  0.42607  1.0000
  C   C3248     1.0  0.57440  0.58700  0.44882  1.0000
  C   C3249     1.0  0.58348  0.54890  0.40388  1.0000
  H   H2599     1.0  0.97483  0.54478  0.83146  1.0000
  H   H2600     1.0  0.71247  0.64334  0.74519  1.0000
  Fe  Fe215     1.0  0.87513  0.58733  0.49883  1.0000
  C   C3250     1.0  0.91880  0.52737  0.59631  1.0000
  H   H2601     1.0  0.89677  0.50681  0.80718  1.0000
  C   C3251     1.0  0.73607  0.67159  0.52479  1.0000
  C   C3252     1.0  0.93665  0.70946  0.78420  1.0000
  C   C3253     1.0  0.51517  0.61185  0.76930  1.0000
  C   C3254     1.0  0.53620  0.61253  0.46991  1.0000
  C   C3255     1.0  0.80174  0.66728  0.43985  1.0000
  C   C3256     1.0  0.89276  0.64339  0.70559  1.0000
  C   C3257     1.0  0.65391  0.67559  0.33862  1.0000
  H   H2602     1.0  0.84303  0.59563  0.37936  1.0000
  S   S423      1.0  0.68286  0.65039  0.42061  1.0000
  C   C3258     1.0  0.71491  0.64603  0.77622  1.0000
  C   C3259     1.0  0.94590  0.64477  0.46021  1.0000
  C   C3260     1.0  0.64399  0.56627  0.57303  1.0000
  S   S424      1.0  0.62092  0.51162  0.36009  1.0000
  H   H2603     1.0  0.60339  0.65740  0.58377  1.0000
  H   H2604     1.0  0.71776  0.56527  0.49386  1.0000
  C   C3261     1.0  0.59577  0.66460  0.56274  1.0000
  H   H2605     1.0  0.60992  0.62577  0.67558  1.0000
  S   S425      1.0  0.69776  0.70689  0.76214  1.0000
  S   S426      1.0  0.80160  0.55315  0.62103  1.0000
  H   H2606     1.0  0.70237  0.54949  0.36354  1.0000
  C   C3262     1.0  0.86688  0.68701  0.62252  1.0000
  H   H2607     1.0  0.89161  0.71174  0.43639  1.0000
  C   C3263     1.0  0.76775  0.71257  0.80882  1.0000
  C   C3264     1.0  0.80031  0.51922  0.34101  1.0000
  H   H2608     1.0  0.54936  0.67582  0.63578  1.0000
  H   H2609     1.0  0.84893  0.53598  0.43805  1.0000
  H   H2610     1.0  0.66491  0.74963  0.42967  1.0000
  C   C3265     1.0  0.58911  0.72231  0.65502  1.0000
  H   H2611     1.0  0.63976  0.69070  0.61402  1.0000
  C   C3266     1.0  0.88947  0.73778  0.38782  1.0000
  C   C3267     1.0  0.75161  0.53789  0.42797  1.0000
  H   H2612     1.0  0.73944  0.65769  0.53873  1.0000
  C   C3268     1.0  0.66911  0.52369  0.53788  1.0000
  S   S427      1.0  0.95473  0.58056  0.63463  1.0000
  C   C3269     1.0  0.61351  0.52522  0.55245  1.0000
  H   H2613     1.0  0.58381  0.73256  0.78026  1.0000
  H   H2614     1.0  0.86062  0.57308  0.79493  1.0000
  S   S428      1.0  0.85503  0.64431  0.41996  1.0000
  H   H2615     1.0  0.82044  0.61447  0.63824  1.0000
  H   H2616     1.0  0.72088  0.73839  0.54546  1.0000
  C   C3270     1.0  0.61281  0.59559  0.44581  1.0000
  C   C3271     1.0  0.84795  0.71640  0.77329  1.0000
  H   H2617     1.0  0.71472  0.65250  0.48971  1.0000
  C   C3272     1.0  0.92572  0.68965  0.82283  1.0000
  H   H2618     1.0  0.79916  0.57104  0.47884  1.0000
  C   C3273     1.0  0.84969  0.73297  0.79454  1.0000
  H   H2619     1.0  0.96819  0.53805  0.39201  1.0000
  C   C3274     1.0  0.66850  0.73657  0.44718  1.0000
  C   C3275     1.0  0.96066  0.66646  0.42659  1.0000
  C   C3276     1.0  0.65081  0.71389  0.47140  1.0000
  Fe  Fe216     1.0  0.77712  0.63576  0.78313  1.0000
  C   C3277     1.0  0.82325  0.52703  0.33718  1.0000
  C   C3278     1.0  0.73770  0.73752  0.39940  1.0000
  C   C3279     1.0  0.71988  0.57129  0.52230  1.0000
  H   H2620     1.0  0.72259  0.51007  0.62754  1.0000
  H   H2621     1.0  0.59682  0.64468  0.51898  1.0000
  C   C3280     1.0  0.69095  0.74225  0.44441  1.0000
  H   H2622     1.0  0.87865  0.72377  0.50114  1.0000
  H   H2623     1.0  0.55496  0.58798  0.50825  1.0000
  H   H2624     1.0  0.00050  0.54980  0.42251  1.0000
  S   S429      1.0  0.84154  0.58279  0.49415  1.0000
  H   H2625     1.0  0.66140  0.59456  0.47812  1.0000
  C   C3281     1.0  0.96400  0.61234  0.33328  1.0000
  H   H2626     1.0  0.75239  0.67502  0.66106  1.0000
  C   C3282     1.0  0.90180  0.67124  0.74565  1.0000
  H   H2627     1.0  0.53252  0.66725  0.36318  1.0000
  S   S430      1.0  0.00135  0.57725  0.61174  1.0000
  C   C3283     1.0  0.63481  0.60635  0.77484  1.0000
  C   C3284     1.0  0.99828  0.53114  0.82497  1.0000
  H   H2628     1.0  0.75550  0.53711  0.45929  1.0000
  S   S431      1.0  0.52437  0.53536  0.69963  1.0000
  H   H2629     1.0  0.90965  0.60103  0.63849  1.0000
  C   C3285     1.0  0.58434  0.59014  0.34102  1.0000
  H   H2630     1.0  0.64215  0.64714  0.46501  1.0000
  C   C3286     1.0  0.86747  0.50862  0.38138  1.0000
  S   S432      1.0  0.74968  0.63702  0.75648  1.0000
  H   H2631     1.0  0.59465  0.62313  0.35371  1.0000
  C   C3287     1.0  0.65674  0.65303  0.58467  1.0000
  C   C3288     1.0  0.97344  0.60320  0.77651  1.0000
  C   C3289     1.0  0.00711  0.67443  0.60923  1.0000
  C   C3290     1.0  0.67830  0.50727  0.60109  1.0000
  H   H2632     1.0  0.66235  0.65242  0.55153  1.0000
  C   C3291     1.0  0.87505  0.72350  0.56949  1.0000
  H   H2633     1.0  0.91630  0.74436  0.62775  1.0000
  H   H2634     1.0  0.83634  0.73718  0.79958  1.0000
  H   H2635     1.0  0.97593  0.58941  0.36114  1.0000
  H   H2636     1.0  0.63802  0.62574  0.35289  1.0000
  C   C3292     1.0  0.51218  0.53300  0.36162  1.0000
  C   C3293     1.0  0.66164  0.58272  0.46025  1.0000
  H   H2637     1.0  0.88039  0.63030  0.69561  1.0000
  C   C3294     1.0  0.67802  0.70265  0.48995  1.0000
  C   C3295     1.0  0.83611  0.65514  0.42878  1.0000
  H   H2638     1.0  0.91994  0.62598  0.39495  1.0000
  C   C3296     1.0  0.71339  0.57792  0.73356  1.0000
  H   H2639     1.0  0.92889  0.68373  0.60568  1.0000
  H   H2640     1.0  0.73880  0.71714  0.82959  1.0000
  H   H2641     1.0  0.52725  0.53447  0.34050  1.0000
  C   C3297     1.0  0.64733  0.59548  0.62540  1.0000
  H   H2642     1.0  0.79033  0.53591  0.74618  1.0000
  C   C3298     1.0  0.99994  0.51093  0.82592  1.0000
  C   C3299     1.0  0.62758  0.71460  0.59126  1.0000
  C   C3300     1.0  0.65601  0.52669  0.61023  1.0000
  H   H2643     1.0  0.99927  0.54640  0.51533  1.0000
  S   S433      1.0  0.54895  0.59209  0.64264  1.0000
  C   C3301     1.0  0.79198  0.58234  0.47173  1.0000
  H   H2644     1.0  0.71695  0.67415  0.65226  1.0000
  C   C3302     1.0  0.53151  0.67865  0.33534  1.0000
  C   C3303     1.0  0.92915  0.72835  0.67229  1.0000
  C   C3304     1.0  0.86624  0.67703  0.58852  1.0000
  H   H2645     1.0  0.94123  0.52607  0.54222  1.0000
  H   H2646     1.0  0.54012  0.72037  0.70587  1.0000
  H   H2647     1.0  0.67930  0.62043  0.57497  1.0000
  H   H2648     1.0  0.79756  0.71136  0.77817  1.0000
  H   H2649     1.0  0.96385  0.68422  0.59503  1.0000
  H   H2650     1.0  0.93875  0.63299  0.74243  1.0000
  C   C3305     1.0  0.58448  0.51485  0.44579  1.0000
  C   C3306     1.0  0.92704  0.56315  0.45504  1.0000
  C   C3307     1.0  0.90809  0.59299  0.70795  1.0000
  H   H2651     1.0  0.90873  0.54804  0.76757  1.0000
  C   C3308     1.0  0.60555  0.67726  0.69490  1.0000
  H   H2652     1.0  0.83329  0.70818  0.76253  1.0000
  H   H2653     1.0  0.68626  0.55801  0.66005  1.0000
  C   C3309     1.0  0.67039  0.59178  0.41357  1.0000
  H   H2654     1.0  0.65223  0.61255  0.82354  1.0000
  H   H2655     1.0  0.90170  0.51846  0.34448  1.0000
  C   C3310     1.0  0.57823  0.68443  0.50514  1.0000
  H   H2656     1.0  0.78388  0.52678  0.43210  1.0000
  C   C3311     1.0  0.59479  0.57778  0.80346  1.0000
  H   H2657     1.0  0.95597  0.55771  0.44960  1.0000
  C   C3312     1.0  0.73412  0.53755  0.78033  1.0000
  C   C3313     1.0  0.91939  0.64048  0.37382  1.0000
  H   H2658     1.0  0.53453  0.53538  0.52682  1.0000
  C   C3314     1.0  0.78842  0.58806  0.43025  1.0000
  H   H2659     1.0  0.97828  0.71770  0.35448  1.0000
  H   H2660     1.0  0.75556  0.50684  0.73621  1.0000
  H   H2661     1.0  0.97787  0.69917  0.49430  1.0000
  Fe  Fe217     1.0  0.58190  0.59175  0.63174  1.0000
  S   S434      1.0  0.86265  0.69012  0.73824  1.0000
  C   C3315     1.0  0.68932  0.55928  0.69145  1.0000
  S   S435      1.0  0.79918  0.66075  0.81269  1.0000
  H   H2662     1.0  0.57871  0.56846  0.79764  1.0000
  H   H2663     1.0  0.56218  0.61239  0.71978  1.0000
  C   C3316     1.0  0.86247  0.58153  0.72566  1.0000
  C   C3317     1.0  0.77588  0.60495  0.49700  1.0000
  C   C3318     1.0  0.76164  0.55645  0.34827  1.0000
  C   C3319     1.0  0.83142  0.53028  0.70148  1.0000
  C   C3320     1.0  0.76971  0.73634  0.60689  1.0000
  C   C3321     1.0  0.53183  0.60730  0.39946  1.0000
  C   C3322     1.0  0.81413  0.67073  0.39700  1.0000
  C   C3323     1.0  0.58084  0.52130  0.77408  1.0000
  C   C3324     1.0  0.58163  0.69145  0.54243  1.0000
  C   C3325     1.0  0.93082  0.74673  0.63906  1.0000
  C   C3326     1.0  0.67012  0.67095  0.35343  1.0000
  H   H2664     1.0  0.92285  0.70444  0.45332  1.0000
  H   H2665     1.0  0.69825  0.56470  0.80494  1.0000
  Fe  Fe218     1.0  0.98078  0.58652  0.57306  1.0000
  H   H2666     1.0  0.77132  0.61176  0.52250  1.0000
  C   C3327     1.0  0.72025  0.66017  0.64827  1.0000
  C   C3328     1.0  0.88573  0.65311  0.73533  1.0000
  H   H2667     1.0  0.61360  0.54906  0.41579  1.0000
  C   C3329     1.0  0.74034  0.66082  0.65265  1.0000
  S   S436      1.0  0.56880  0.55943  0.61226  1.0000
  C   C3330     1.0  0.62828  0.57337  0.63880  1.0000
  H   H2668     1.0  0.00138  0.64861  0.47695  1.0000
  H   H2669     1.0  0.91324  0.59583  0.35026  1.0000
  P   P112      1.0  0.59733  0.58011  0.37826  1.0000
  H   H2670     1.0  0.74857  0.56892  0.68727  1.0000
  H   H2671     1.0  0.58154  0.66257  0.46710  1.0000
  C   C3331     1.0  0.73011  0.52186  0.42849  1.0000
  C   C3332     1.0  0.73857  0.74056  0.64455  1.0000
  H   H2672     1.0  0.81003  0.67742  0.36823  1.0000
  C   C3333     1.0  0.71875  0.68703  0.47757  1.0000
  C   C3334     1.0  0.67487  0.54650  0.77224  1.0000
  H   H2673     1.0  0.66624  0.51192  0.66284  1.0000
  C   C3335     1.0  0.99905  0.71026  0.57014  1.0000
  S   S437      1.0  0.68437  0.68982  0.66176  1.0000
  P   P113      1.0  0.90647  0.58503  0.79773  1.0000
  H   H2674     1.0  0.82379  0.54123  0.69371  1.0000
  C   C3336     1.0  0.75974  0.60303  0.64019  1.0000
  S   S438      1.0  0.00146  0.62480  0.56063  1.0000
  C   C3337     1.0  0.73997  0.54060  0.34909  1.0000
  C   C3338     1.0  0.96169  0.63200  0.33394  1.0000
  C   C3339     1.0  0.76778  0.55492  0.38762  1.0000
  C   C3340     1.0  0.82442  0.50586  0.54497  1.0000
  C   C3341     1.0  0.73506  0.64689  0.83088  1.0000
  C   C3342     1.0  0.83950  0.73626  0.53441  1.0000
  H   H2675     1.0  0.89285  0.52537  0.64784  1.0000
  H   H2676     1.0  0.62872  0.59666  0.43023  1.0000
  C   C3343     1.0  0.60294  0.50671  0.80849  1.0000
  C   C3344     1.0  0.89927  0.63645  0.36403  1.0000
  H   H2677     1.0  0.56307  0.63159  0.40703  1.0000
  C   C3345     1.0  0.59780  0.53308  0.54896  1.0000
  C   C3346     1.0  0.57464  0.72846  0.67876  1.0000
  S   S439      1.0  0.53513  0.71341  0.80776  1.0000
  C   C3347     1.0  0.98865  0.71677  0.68083  1.0000
  C   C3348     1.0  0.91583  0.65122  0.68732  1.0000
  H   H2678     1.0  0.67762  0.61032  0.39658  1.0000
  C   C3349     1.0  0.94017  0.58292  0.52047  1.0000
  C   C3350     1.0  0.93841  0.66299  0.35671  1.0000
  C   C3351     1.0  0.77778  0.60164  0.42303  1.0000
  H   H2679     1.0  0.94512  0.59045  0.54592  1.0000
  C   C3352     1.0  0.65712  0.53126  0.56482  1.0000
  H   H2680     1.0  0.73180  0.55815  0.61915  1.0000
  C   C3353     1.0  0.66347  0.58818  0.56077  1.0000
  Fe  Fe219     1.0  0.97719  0.61819  0.62508  1.0000
  C   C3354     1.0  0.59018  0.68134  0.57180  1.0000
  C   C3355     1.0  0.83801  0.50699  0.57276  1.0000
  C   C3356     1.0  0.77442  0.55407  0.77212  1.0000
  S   S440      1.0  0.65562  0.71366  0.74085  1.0000
  C   C3357     1.0  0.69572  0.56314  0.77335  1.0000
  H   H2681     1.0  0.72076  0.73575  0.65317  1.0000
  H   H2682     1.0  0.79774  0.74561  0.43177  1.0000
  H   H2683     1.0  0.78425  0.50462  0.81620  1.0000
  C   C3358     1.0  0.89330  0.51732  0.82557  1.0000
  C   C3359     1.0  0.52072  0.52033  0.55370  1.0000
  S   S441      1.0  0.82395  0.62826  0.82313  1.0000
  H   H2684     1.0  0.92210  0.67264  0.82034  1.0000
  H   H2685     1.0  0.60702  0.73140  0.65164  1.0000
  H   H2686     1.0  0.79376  0.50258  0.64381  1.0000
  C   C3360     1.0  0.88825  0.61244  0.82358  1.0000
  H   H2687     1.0  0.00424  0.50605  0.33953  1.0000
  C   C3361     1.0  0.81439  0.75019  0.41147  1.0000
  C   C3362     1.0  0.59019  0.51834  0.80874  1.0000
  Fe  Fe220     1.0  0.74013  0.63072  0.34462  1.0000
  C   C3363     1.0  0.76354  0.74477  0.76930  1.0000
  H   H2688     1.0  0.81151  0.74645  0.71292  1.0000
  C   C3364     1.0  0.89617  0.75052  0.34229  1.0000
  H   H2689     1.0  0.58137  0.74236  0.69290  1.0000
  H   H2690     1.0  0.62861  0.75025  0.80839  1.0000
  C   C3365     1.0  0.60682  0.50158  0.55885  1.0000
  S   S442      1.0  0.73648  0.59634  0.34058  1.0000
  C   C3366     1.0  0.57976  0.67990  0.82790  1.0000
  C   C3367     1.0  0.81274  0.59797  0.33422  1.0000
  H   H2691     1.0  0.53073  0.50100  0.44527  1.0000
  C   C3368     1.0  0.56110  0.50131  0.45451  1.0000
  C   C3369     1.0  0.63758  0.75047  0.83287  1.0000
  C   C3370     1.0  0.82345  0.54311  0.20913  1.0000
  H   H2692     1.0  0.85949  0.64459  0.22381  1.0000
  H   H2693     1.0  0.60676  0.55465  0.23494  1.0000
  C   C3371     1.0  0.90463  0.61408  0.89690  1.0000
  C   C3372     1.0  0.99120  0.61405  0.21989  1.0000
  S   S443      1.0  0.51868  0.52326  0.16667  1.0000
  H   H2694     1.0  0.93402  0.53934  0.09149  1.0000
  C   C3373     1.0  0.90831  0.60134  0.87020  1.0000
  H   H2695     1.0  0.71169  0.71716  0.97434  1.0000
  H   H2696     1.0  0.52212  0.53829  0.85064  1.0000
  S   S444      1.0  0.00169  0.65954  0.21000  1.0000
  H   H2697     1.0  0.68680  0.54055  0.89878  1.0000
  C   C3374     1.0  0.78856  0.53828  0.95089  1.0000
  C   C3375     1.0  0.87012  0.71222  0.91539  1.0000
  C   C3376     1.0  0.63188  0.57851  0.32140  1.0000
  H   H2698     1.0  0.81302  0.57284  0.30205  1.0000
  C   C3377     1.0  0.00295  0.69435  0.29317  1.0000
  C   C3378     1.0  0.88426  0.62483  0.85077  1.0000
  H   H2699     1.0  0.54385  0.58267  0.83548  1.0000
  C   C3379     1.0  0.91225  0.74890  0.31138  1.0000
  H   H2700     1.0  0.68337  0.68787  0.93395  1.0000
  C   C3380     1.0  0.88533  0.59103  0.27271  1.0000
  H   H2701     1.0  0.65821  0.57754  0.27582  1.0000
  H   H2702     1.0  0.91790  0.59254  0.87794  1.0000
  H   H2703     1.0  0.64285  0.71135  0.03939  1.0000
  S   S445      1.0  0.97494  0.67996  0.12597  1.0000
  C   C3381     1.0  0.89249  0.62566  0.88732  1.0000
  H   H2704     1.0  0.53182  0.63790  0.20719  1.0000
  C   C3382     1.0  0.77827  0.68889  0.96330  1.0000
  C   C3383     1.0  0.53135  0.71170  0.01677  1.0000
  C   C3384     1.0  0.91507  0.73017  0.16838  1.0000
  H   H2705     1.0  0.86633  0.73912  0.93419  1.0000
  C   C3385     1.0  0.94507  0.59873  0.23290  1.0000
  Fe  Fe221     1.0  0.97441  0.71972  0.19738  1.0000
  S   S446      1.0  0.00636  0.72070  0.16392  1.0000
  H   H2706     1.0  0.52166  0.50791  0.91105  1.0000
  S   S447      1.0  0.92904  0.51240  0.17752  1.0000
  P   P114      1.0  0.52588  0.71406  0.07222  1.0000
  Fe  Fe222     1.0  0.94535  0.68198  0.16372  1.0000
  H   H2707     1.0  0.00898  0.61987  0.21550  1.0000
  C   C3386     1.0  0.70543  0.71776  0.23768  1.0000
  C   C3387     1.0  0.72696  0.50266  0.29390  1.0000
  H   H2708     1.0  0.52424  0.66590  0.85044  1.0000
  C   C3388     1.0  0.81649  0.50386  0.99544  1.0000
  H   H2709     1.0  0.92054  0.71528  0.90165  1.0000
  C   C3389     1.0  0.83236  0.74074  0.05508  1.0000
  H   H2710     1.0  0.88267  0.53962  0.23469  1.0000
  H   H2711     1.0  0.59062  0.52527  0.14610  1.0000
  C   C3390     1.0  0.71150  0.70214  0.17789  1.0000
  H   H2712     1.0  0.61293  0.64095  0.12497  1.0000
  C   C3391     1.0  0.83920  0.63861  0.28944  1.0000
  C   C3392     1.0  0.91269  0.74342  0.99795  1.0000
  Fe  Fe223     1.0  0.53176  0.58786  0.12228  1.0000
  C   C3393     1.0  0.69998  0.69878  0.22174  1.0000
  H   H2713     1.0  0.86257  0.72529  0.21791  1.0000
  C   C3394     1.0  0.80982  0.55341  0.20378  1.0000
  C   C3395     1.0  0.52469  0.63623  0.27626  1.0000
  H   H2714     1.0  0.88247  0.67175  0.05433  1.0000
  C   C3396     1.0  0.81807  0.63947  0.98272  1.0000
  C   C3397     1.0  0.70384  0.65523  0.84234  1.0000
  H   H2715     1.0  0.57369  0.56039  0.31743  1.0000
  C   C3398     1.0  0.78275  0.56014  0.08936  1.0000
  H   H2716     1.0  0.58716  0.52466  0.83608  1.0000
  C   C3399     1.0  0.86900  0.50859  0.29166  1.0000
  H   H2717     1.0  0.70391  0.50628  0.16436  1.0000
  H   H2718     1.0  0.65647  0.54795  0.98794  1.0000
  C   C3400     1.0  0.70324  0.54784  0.01175  1.0000
  H   H2719     1.0  0.75415  0.54960  0.87549  1.0000
  Fe  Fe224     1.0  0.94636  0.53234  0.21980  1.0000
  C   C3401     1.0  0.81022  0.62702  0.95408  1.0000
  H   H2720     1.0  0.83403  0.54533  0.33172  1.0000
  P   P115      1.0  0.81963  0.72986  0.93838  1.0000
  H   H2721     1.0  0.92045  0.59579  0.16608  1.0000
  H   H2722     1.0  0.93935  0.66017  0.04778  1.0000
  C   C3402     1.0  0.55777  0.71989  0.94579  1.0000
  C   C3403     1.0  0.72940  0.72455  0.15139  1.0000
  H   H2723     1.0  0.52080  0.60457  0.96600  1.0000
  C   C3404     1.0  0.83825  0.61425  0.95472  1.0000
  H   H2724     1.0  0.90817  0.54589  0.05283  1.0000
  C   C3405     1.0  0.66869  0.63157  0.18802  1.0000
  C   C3406     1.0  0.52901  0.70809  0.26298  1.0000
  C   C3407     1.0  0.77968  0.72340  0.91746  1.0000
  H   H2725     1.0  0.87121  0.69939  0.00477  1.0000
  C   C3408     1.0  0.56855  0.60830  0.27618  1.0000
  H   H2726     1.0  0.54442  0.67154  0.05555  1.0000
  H   H2727     1.0  0.74901  0.71817  0.90212  1.0000
  C   C3409     1.0  0.65062  0.54939  0.13925  1.0000
  H   H2728     1.0  0.66172  0.67825  0.19386  1.0000
  C   C3410     1.0  0.60877  0.59845  0.93296  1.0000
  C   C3411     1.0  0.75673  0.58159  0.07265  1.0000
  C   C3412     1.0  0.83530  0.71473  0.92552  1.0000
  H   H2729     1.0  0.84101  0.57178  0.87427  1.0000
  H   H2730     1.0  0.84716  0.65697  0.28643  1.0000
  C   C3413     1.0  0.63738  0.51772  0.97065  1.0000
  H   H2731     1.0  0.53455  0.65501  0.26861  1.0000
  S   S448      1.0  0.94680  0.50182  0.26348  1.0000
  H   H2732     1.0  0.86940  0.72920  0.28928  1.0000
  C   C3414     1.0  0.54438  0.50870  0.30404  1.0000
  C   C3415     1.0  0.65393  0.66181  0.98920  1.0000
  C   C3416     1.0  0.92221  0.54464  0.03462  1.0000
  C   C3417     1.0  0.64741  0.54488  0.09964  1.0000
  C   C3418     1.0  0.88092  0.62261  0.15480  1.0000
  H   H2733     1.0  0.72339  0.72673  0.30750  1.0000
  H   H2734     1.0  0.83265  0.67235  0.87985  1.0000
  C   C3419     1.0  0.83632  0.60791  0.25870  1.0000
  S   S449      1.0  0.90881  0.55309  0.95991  1.0000
  H   H2735     1.0  0.88951  0.63538  0.90811  1.0000
  C   C3420     1.0  0.83459  0.73737  0.01337  1.0000
  C   C3421     1.0  0.78724  0.53471  0.87814  1.0000
  C   C3422     1.0  0.63265  0.65599  0.01630  1.0000
  C   C3423     1.0  0.74527  0.68595  0.94224  1.0000
  C   C3424     1.0  0.52530  0.59932  0.93789  1.0000
  S   S450      1.0  0.77653  0.71005  0.23164  1.0000
  C   C3425     1.0  0.71803  0.58284  0.31189  1.0000
  P   P116      1.0  0.62480  0.71201  0.96249  1.0000
  S   S451      1.0  0.93309  0.55292  0.24998  1.0000
  S   S452      1.0  0.76940  0.60401  0.83767  1.0000
  C   C3426     1.0  0.87429  0.60011  0.15261  1.0000
  C   C3427     1.0  0.97669  0.52934  0.83526  1.0000
  H   H2736     1.0  0.59901  0.55783  0.00800  1.0000
  C   C3428     1.0  0.96019  0.62250  0.22346  1.0000
  C   C3429     1.0  0.58637  0.58852  0.96070  1.0000
  C   C3430     1.0  0.57168  0.54174  0.23852  1.0000
  C   C3431     1.0  0.85761  0.72301  0.92752  1.0000
  H   H2737     1.0  0.83171  0.51699  0.19675  1.0000
  C   C3432     1.0  0.67484  0.65486  0.18469  1.0000
  S   S453      1.0  0.61316  0.50172  0.85369  1.0000
  C   C3433     1.0  0.00839  0.73741  0.29816  1.0000
  C   C3434     1.0  0.56892  0.66262  0.12571  1.0000
  H   H2738     1.0  0.77576  0.51757  0.15595  1.0000
  Fe  Fe225     1.0  0.62892  0.70351  0.18647  1.0000
  H   H2739     1.0  0.74367  0.53308  0.00811  1.0000
  H   H2740     1.0  0.88657  0.52054  0.17899  1.0000
  P   P117      1.0  0.66166  0.53110  0.07484  1.0000
  C   C3435     1.0  0.62284  0.62275  0.91894  1.0000
  H   H2741     1.0  0.82414  0.69087  0.15086  1.0000
  S   S454      1.0  0.59572  0.66629  0.84127  1.0000
  C   C3436     1.0  0.71821  0.59508  0.27064  1.0000
  C   C3437     1.0  0.00773  0.61309  0.85263  1.0000
  H   H2742     1.0  0.60423  0.53708  0.89018  1.0000
  H   H2743     1.0  0.68439  0.73021  0.07307  1.0000
  C   C3438     1.0  0.93687  0.68128  0.32944  1.0000
  Fe  Fe226     1.0  0.96404  0.52531  0.13330  1.0000
  C   C3439     1.0  0.57832  0.50339  0.99952  1.0000
  C   C3440     1.0  0.75576  0.67545  0.96474  1.0000
  C   C3441     1.0  0.88509  0.54468  0.87331  1.0000
  C   C3442     1.0  0.58316  0.52095  0.01909  1.0000
  C   C3443     1.0  0.99832  0.59042  0.88209  1.0000
  H   H2744     1.0  0.84999  0.73792  0.99744  1.0000
  H   H2745     1.0  0.84207  0.60252  0.23173  1.0000
  C   C3444     1.0  0.51343  0.62164  0.32071  1.0000
  H   H2746     1.0  0.72302  0.65496  0.88827  1.0000
  H   H2747     1.0  0.81099  0.74273  0.11019  1.0000
  H   H2748     1.0  0.95100  0.59702  0.01126  1.0000
  C   C3445     1.0  0.72648  0.65451  0.13076  1.0000
  C   C3446     1.0  0.68676  0.68664  0.08528  1.0000
  C   C3447     1.0  0.63577  0.55397  0.07714  1.0000
  H   H2749     1.0  0.69020  0.51585  0.25293  1.0000
  C   C3448     1.0  0.60570  0.66853  0.13128  1.0000
  C   C3449     1.0  0.87235  0.74440  0.26343  1.0000
  H   H2750     1.0  0.93899  0.73620  0.96869  1.0000
  C   C3450     1.0  0.73535  0.67031  0.19016  1.0000
  S   S455      1.0  0.52641  0.56988  0.19331  1.0000
  P   P118      1.0  0.90230  0.72138  0.05222  1.0000
  H   H2751     1.0  0.82097  0.56168  0.95430  1.0000
  C   C3451     1.0  0.75036  0.66149  0.19276  1.0000
  S   S456      1.0  0.65710  0.70030  0.84389  1.0000
  H   H2752     1.0  0.62259  0.63937  0.04308  1.0000
  H   H2753     1.0  0.63781  0.52784  0.93901  1.0000
  C   C3452     1.0  0.90942  0.60327  0.16302  1.0000
  C   C3453     1.0  0.63168  0.57248  0.13264  1.0000
  C   C3454     1.0  0.64777  0.52901  0.99875  1.0000
  S   S457      1.0  0.85910  0.53203  0.06760  1.0000
  C   C3455     1.0  0.90023  0.67865  0.05158  1.0000
  H   H2754     1.0  0.59839  0.68143  0.91778  1.0000
  C   C3456     1.0  0.65768  0.66030  0.19862  1.0000
  C   C3457     1.0  0.77276  0.58777  0.22537  1.0000
  C   C3458     1.0  0.51597  0.68501  0.15793  1.0000
  Fe  Fe227     1.0  0.98619  0.68157  0.18696  1.0000
  C   C3459     1.0  0.84614  0.63164  0.25421  1.0000
  C   C3460     1.0  0.88838  0.59030  0.15750  1.0000
  S   S458      1.0  0.66785  0.54423  0.24376  1.0000
  C   C3461     1.0  0.79531  0.73641  0.05860  1.0000
  H   H2755     1.0  0.95390  0.63478  0.22208  1.0000
  H   H2756     1.0  0.58096  0.56123  0.87478  1.0000
  S   S459      1.0  0.79792  0.51590  0.06188  1.0000
  C   C3462     1.0  0.65979  0.58154  0.88361  1.0000
  H   H2757     1.0  0.69194  0.58281  0.86113  1.0000
  H   H2758     1.0  0.60919  0.72037  0.88240  1.0000
  C   C3463     1.0  0.75334  0.64908  0.16468  1.0000
  H   H2759     1.0  0.79126  0.56477  0.01903  1.0000
  H   H2760     1.0  0.87124  0.51440  0.93167  1.0000
  H   H2761     1.0  0.58027  0.63865  0.29764  1.0000
  H   H2762     1.0  0.68594  0.58282  0.05122  1.0000
  C   C3464     1.0  0.80677  0.73505  0.27077  1.0000
  H   H2763     1.0  0.61933  0.56094  0.32510  1.0000
  C   C3465     1.0  0.88280  0.50781  0.87181  1.0000
  C   C3466     1.0  0.00318  0.57411  0.86872  1.0000
  C   C3467     1.0  0.82011  0.61417  0.94048  1.0000
  H   H2764     1.0  0.78410  0.73114  0.00213  1.0000
  H   H2765     1.0  0.69826  0.52967  0.01625  1.0000
  C   C3468     1.0  0.72630  0.53331  0.22081  1.0000
  C   C3469     1.0  0.68742  0.50260  0.16097  1.0000
  C   C3470     1.0  0.83446  0.69252  0.11916  1.0000
  H   H2766     1.0  0.93261  0.73230  0.30132  1.0000
  H   H2767     1.0  0.58511  0.69908  0.03716  1.0000
  C   C3471     1.0  0.51548  0.57688  0.88779  1.0000
  C   C3472     1.0  0.97611  0.59036  0.22787  1.0000
  H   H2768     1.0  0.00062  0.67795  0.28921  1.0000
  S   S460      1.0  0.77466  0.66152  0.32743  1.0000
  C   C3473     1.0  0.87548  0.56690  0.28104  1.0000
  C   C3474     1.0  0.59791  0.53280  0.92603  1.0000
  H   H2769     1.0  0.55947  0.57634  0.26088  1.0000
  H   H2770     1.0  0.68539  0.61316  0.96394  1.0000
  H   H2771     1.0  0.98721  0.58554  0.91532  1.0000
  C   C3475     1.0  0.73816  0.51527  0.02780  1.0000
  C   C3476     1.0  0.57844  0.62137  0.30248  1.0000
  C   C3477     1.0  0.68571  0.51635  0.12396  1.0000
  C   C3478     1.0  0.72080  0.65253  0.85701  1.0000
  C   C3479     1.0  0.54816  0.66218  0.99588  1.0000
  S   S461      1.0  0.90888  0.66278  0.16679  1.0000
  C   C3480     1.0  0.82664  0.69655  0.90729  1.0000
  C   C3481     1.0  0.56343  0.66514  0.95694  1.0000
  H   H2772     1.0  0.92724  0.59280  0.23817  1.0000
  C   C3482     1.0  0.73633  0.53961  0.89481  1.0000
  C   C3483     1.0  0.73396  0.73315  0.32778  1.0000
  H   H2773     1.0  0.53828  0.51019  0.97657  1.0000
  H   H2774     1.0  0.95627  0.58603  0.14417  1.0000
  C   C3484     1.0  0.79293  0.54486  0.18322  1.0000
  H   H2775     1.0  0.80246  0.71841  0.29391  1.0000
  H   H2776     1.0  0.70113  0.53076  0.09945  1.0000
  C   C3485     1.0  0.91623  0.62596  0.16452  1.0000
  H   H2777     1.0  0.56273  0.61546  0.25073  1.0000
  C   C3486     1.0  0.81728  0.73369  0.99333  1.0000
  H   H2778     1.0  0.74460  0.60219  0.94478  1.0000
  C   C3487     1.0  0.69003  0.51395  0.94277  1.0000
  H   H2779     1.0  0.61143  0.60626  0.23205  1.0000
  H   H2780     1.0  0.55737  0.65550  0.93478  1.0000
  C   C3488     1.0  0.70612  0.51666  0.25468  1.0000
  C   C3489     1.0  0.65393  0.58793  0.29317  1.0000
  Fe  Fe228     1.0  0.86944  0.56177  0.09470  1.0000
  H   H2781     1.0  0.65981  0.54297  0.15707  1.0000
  H   H2782     1.0  0.93286  0.58314  0.09329  1.0000
  C   C3490     1.0  0.83678  0.64030  0.99548  1.0000
  H   H2783     1.0  0.88738  0.71920  0.91635  1.0000
  H   H2784     1.0  0.57450  0.57009  0.96937  1.0000
  H   H2785     1.0  0.66883  0.71535  0.92038  1.0000
  C   C3491     1.0  0.54242  0.67645  0.83681  1.0000
  C   C3492     1.0  0.62406  0.67142  0.00833  1.0000
  H   H2786     1.0  0.74724  0.59057  0.06561  1.0000
  Fe  Fe229     1.0  0.79415  0.62896  0.86338  1.0000
  C   C3493     1.0  0.53855  0.58714  0.86423  1.0000
  C   C3494     1.0  0.86089  0.69352  0.89942  1.0000
  C   C3495     1.0  0.66429  0.51195  0.11990  1.0000
  H   H2787     1.0  0.68585  0.67538  0.32969  1.0000
  C   C3496     1.0  0.67034  0.61073  0.28722  1.0000
  H   H2788     1.0  0.99786  0.60358  0.11365  1.0000
  C   C3497     1.0  0.55369  0.72226  0.98821  1.0000
  H   H2789     1.0  0.99247  0.61425  0.97986  1.0000
  C   C3498     1.0  0.58963  0.67612  0.13250  1.0000
  H   H2790     1.0  0.69587  0.71536  0.27075  1.0000
  C   C3499     1.0  0.55014  0.71122  0.26588  1.0000
  H   H2791     1.0  0.94057  0.50629  0.85630  1.0000
  C   C3500     1.0  0.57624  0.50920  0.16927  1.0000
  C   C3501     1.0  0.62669  0.73327  0.87508  1.0000
  C   C3502     1.0  0.64482  0.74082  0.05768  1.0000
  H   H2792     1.0  0.81788  0.74722  0.84409  1.0000
  H   H2793     1.0  0.68133  0.62673  0.17702  1.0000
  C   C3503     1.0  0.72969  0.58879  0.97188  1.0000
  C   C3504     1.0  0.68171  0.58673  0.88427  1.0000
  H   H2794     1.0  0.97382  0.54220  0.96899  1.0000
  S   S462      1.0  0.53859  0.62480  0.10830  1.0000
  C   C3505     1.0  0.63494  0.64280  0.21630  1.0000
  H   H2795     1.0  0.62606  0.65550  0.92362  1.0000
  C   C3506     1.0  0.91376  0.70174  0.05009  1.0000
  H   H2796     1.0  0.97942  0.50688  0.92530  1.0000
  H   H2797     1.0  0.56097  0.62323  0.92222  1.0000
  H   H2798     1.0  0.73338  0.67990  0.21230  1.0000
  S   S463      1.0  0.65195  0.71088  0.22892  1.0000
  C   C3507     1.0  0.89919  0.60156  0.29711  1.0000
  C   C3508     1.0  0.93236  0.67189  0.04762  1.0000
  H   H2799     1.0  0.90740  0.62039  0.28940  1.0000
  C   C3509     1.0  0.98859  0.56112  0.32487  1.0000
  H   H2800     1.0  0.68662  0.68166  0.24357  1.0000
  C   C3510     1.0  0.57987  0.63340  0.11921  1.0000
  C   C3511     1.0  0.64734  0.51599  0.03981  1.0000
  C   C3512     1.0  0.62803  0.56781  0.09360  1.0000
  H   H2801     1.0  0.60743  0.66651  0.02944  1.0000
  C   C3513     1.0  0.80347  0.62747  0.20517  1.0000
  S   S464      1.0  0.98134  0.54745  0.17271  1.0000
  H   H2802     1.0  0.81054  0.69094  0.90082  1.0000
  H   H2803     1.0  0.67208  0.50345  0.96041  1.0000
  H   H2804     1.0  0.95743  0.60276  0.31139  1.0000
  C   C3514     1.0  0.75835  0.57515  0.11569  1.0000
  H   H2805     1.0  0.91595  0.69115  0.29733  1.0000
  C   C3515     1.0  0.77594  0.52889  0.92340  1.0000
  C   C3516     1.0  0.72800  0.51890  0.93035  1.0000
  H   H2806     1.0  0.59332  0.69256  0.13799  1.0000
  C   C3517     1.0  0.95294  0.58262  0.23543  1.0000
  H   H2807     1.0  0.72984  0.61364  0.25573  1.0000
  C   C3518     1.0  0.52310  0.62665  0.24170  1.0000
  C   C3519     1.0  0.90956  0.66384  0.05033  1.0000
  H   H2808     1.0  0.74656  0.65691  0.98310  1.0000
  H   H2809     1.0  0.72781  0.67569  0.94330  1.0000
  C   C3520     1.0  0.95559  0.54014  0.03294  1.0000
  C   C3521     1.0  0.79760  0.73332  0.01664  1.0000
  H   H2810     1.0  0.56777  0.69943  0.30512  1.0000
  C   C3522     1.0  0.80642  0.60258  0.16261  1.0000
  C   C3523     1.0  0.65845  0.69892  0.94727  1.0000
  C   C3524     1.0  0.63844  0.73319  0.90665  1.0000
  H   H2811     1.0  0.59840  0.52466  0.30494  1.0000
  H   H2812     1.0  0.00383  0.62563  0.86302  1.0000
  C   C3525     1.0  0.67805  0.60389  0.94223  1.0000
  H   H2813     1.0  0.71836  0.72602  0.89858  1.0000
  H   H2814     1.0  0.81608  0.60023  0.13523  1.0000
  C   C3526     1.0  0.57891  0.60244  0.97735  1.0000
  C   C3527     1.0  0.70605  0.68908  0.09767  1.0000
  C   C3528     1.0  0.70338  0.58317  0.24856  1.0000
  C   C3529     1.0  0.93667  0.70967  0.04732  1.0000
  H   H2815     1.0  0.84599  0.60446  0.94397  1.0000
  C   C3530     1.0  0.83748  0.68681  0.04698  1.0000
  H   H2816     1.0  0.83224  0.63820  0.14859  1.0000
  H   H2817     1.0  0.58748  0.63726  0.97764  1.0000
  C   C3531     1.0  0.64269  0.56299  0.15575  1.0000
  C   C3532     1.0  0.71641  0.59494  0.99878  1.0000
  C   C3533     1.0  0.59615  0.57362  0.84706  1.0000
  C   C3534     1.0  0.70647  0.50148  0.29130  1.0000
  C   C3535     1.0  0.58938  0.54189  0.25413  1.0000
  H   H2818     1.0  0.53544  0.52557  0.25168  1.0000
  H   H2819     1.0  0.63966  0.63092  0.89534  1.0000
  S   S465      1.0  0.87968  0.56198  0.15596  1.0000
  S   S466      1.0  0.00840  0.51226  0.23501  1.0000
  H   H2820     1.0  0.63295  0.55088  0.04663  1.0000
  H   H2821     1.0  0.71730  0.65165  0.10662  1.0000
  C   C3536     1.0  0.87164  0.70613  0.06748  1.0000
  C   C3537     1.0  0.57928  0.69019  0.01387  1.0000
  C   C3538     1.0  0.93681  0.54082  0.05663  1.0000
  Fe  Fe230     1.0  0.62054  0.69791  0.28552  1.0000
  H   H2822     1.0  0.74582  0.72145  0.99518  1.0000
  C   C3539     1.0  0.99833  0.61009  0.04436  1.0000
  S   S467      1.0  0.57480  0.73255  0.22286  1.0000
  H   H2823     1.0  0.84604  0.74409  0.06967  1.0000
  C   C3540     1.0  0.72931  0.71125  0.02030  1.0000
  H   H2824     1.0  0.88174  0.55480  0.89272  1.0000
  H   H2825     1.0  0.78807  0.74206  0.90075  1.0000
  H   H2826     1.0  0.76290  0.52032  0.26399  1.0000
  P   P119      1.0  0.74608  0.50772  0.94630  1.0000
  C   C3541     1.0  0.62905  0.61973  0.21954  1.0000
  C   C3542     1.0  0.96433  0.59232  0.10831  1.0000
  H   H2827     1.0  0.55409  0.50880  0.12952  1.0000
  C   C3543     1.0  0.94451  0.54598  0.96563  1.0000
  H   H2828     1.0  0.87070  0.68542  0.88906  1.0000
  H   H2829     1.0  0.66044  0.64970  0.99456  1.0000
  C   C3544     1.0  0.78143  0.56697  0.04628  1.0000
  C   C3545     1.0  0.74142  0.64561  0.13363  1.0000
  H   H2830     1.0  0.87503  0.63406  0.84318  1.0000
  S   S468      1.0  0.68636  0.66295  0.87379  1.0000
  C   C3546     1.0  0.51320  0.69944  0.00157  1.0000
  C   C3547     1.0  0.98731  0.50204  0.94893  1.0000
  C   C3548     1.0  0.91685  0.67704  0.31899  1.0000
  C   C3549     1.0  0.98786  0.60206  0.09084  1.0000
  C   C3550     1.0  0.59468  0.69352  0.97443  1.0000
  H   H2831     1.0  0.91103  0.61478  0.92530  1.0000
  H   H2832     1.0  0.70810  0.60257  0.91273  1.0000
  H   H2833     1.0  0.77270  0.61197  0.26002  1.0000
  C   C3551     1.0  0.81268  0.74011  0.07784  1.0000
  C   C3552     1.0  0.74711  0.53486  0.22323  1.0000
  C   C3553     1.0  0.72141  0.54746  0.88386  1.0000
  C   C3554     1.0  0.54912  0.52548  0.26371  1.0000
  C   C3555     1.0  0.51036  0.67480  0.33123  1.0000
  S   S469      1.0  0.78847  0.62840  0.93475  1.0000
  C   C3556     1.0  0.87877  0.52150  0.89562  1.0000
  H   H2834     1.0  0.91177  0.67657  0.89488  1.0000
  C   C3557     1.0  0.73525  0.74328  0.16803  1.0000
  C   C3558     1.0  0.94596  0.69487  0.04580  1.0000
  C   C3559     1.0  0.58665  0.68025  0.94690  1.0000
  C   C3560     1.0  0.78206  0.60934  0.23271  1.0000
  S   S470      1.0  0.85847  0.56780  0.98088  1.0000
  C   C3561     1.0  0.66453  0.62425  0.30890  1.0000
  C   C3562     1.0  0.55490  0.60364  0.87705  1.0000
  H   H2835     1.0  0.67388  0.69525  0.03223  1.0000
  C   C3563     1.0  0.64590  0.61413  0.20557  1.0000
  C   C3564     1.0  0.79701  0.73577  0.23631  1.0000
  H   H2836     1.0  0.56164  0.59460  0.99899  1.0000
  C   C3565     1.0  0.76817  0.57737  0.03803  1.0000
  P   P120      1.0  0.77367  0.55650  0.18031  1.0000
  H   H2837     1.0  0.67715  0.64197  0.30396  1.0000
  C   C3566     1.0  0.72310  0.73996  0.21096  1.0000
  C   C3567     1.0  0.85810  0.70343  0.10893  1.0000
  C   C3568     1.0  0.81175  0.55407  0.93293  1.0000
  H   H2838     1.0  0.64668  0.60406  0.96324  1.0000
  C   C3569     1.0  0.78922  0.52509  0.17034  1.0000
  C   C3570     1.0  0.56411  0.64133  0.11854  1.0000
  C   C3571     1.0  0.92030  0.73356  0.32533  1.0000
  C   C3572     1.0  0.91068  0.73456  0.09412  1.0000
  H   H2839     1.0  0.70059  0.72718  0.83923  1.0000
  H   H2840     1.0  0.75970  0.66435  0.21671  1.0000
  H   H2841     1.0  0.78095  0.53329  0.98638  1.0000
  C   C3573     1.0  0.53964  0.70694  0.93165  1.0000
  H   H2842     1.0  0.65219  0.73771  0.08367  1.0000
  S   S471      1.0  0.55549  0.57586  0.09512  1.0000
  S   S472      1.0  0.97518  0.53670  0.05798  1.0000
  H   H2843     1.0  0.80588  0.67616  0.09583  1.0000
  C   C3574     1.0  0.69081  0.59785  0.91359  1.0000
  H   H2844     1.0  0.74248  0.70341  0.07333  1.0000
  H   H2845     1.0  0.64532  0.56622  0.18640  1.0000
  C   C3575     1.0  0.60219  0.55049  0.94541  1.0000
  C   C3576     1.0  0.81974  0.59115  0.29849  1.0000
  H   H2846     1.0  0.99537  0.55650  0.89176  1.0000
  H   H2847     1.0  0.55655  0.66852  0.12647  1.0000
  H   H2848     1.0  0.61902  0.57484  0.07642  1.0000
  C   C3577     1.0  0.89978  0.60004  0.83375  1.0000
  H   H2849     1.0  0.73498  0.54247  0.31913  1.0000
  C   C3578     1.0  0.73325  0.50930  0.07419  1.0000
  H   H2850     1.0  0.94754  0.54793  0.93043  1.0000
  H   H2851     1.0  0.53024  0.64995  0.00442  1.0000
  H   H2852     1.0  0.74372  0.63599  0.11186  1.0000
  Fe  Fe231     1.0  0.60260  0.72436  0.22918  1.0000
  Fe  Fe232     1.0  0.75905  0.68228  0.29911  1.0000
  C   C3579     1.0  0.65621  0.59899  0.94127  1.0000
  H   H2853     1.0  0.81070  0.64404  0.21137  1.0000
  C   C3580     1.0  0.69621  0.57754  0.03164  1.0000
  C   C3581     1.0  0.96138  0.59863  0.03335  1.0000
  H   H2854     1.0  0.57727  0.51637  0.05507  1.0000
  Fe  Fe233     1.0  0.88405  0.55944  0.00290  1.0000
  C   C3582     1.0  0.77080  0.56364  0.12488  1.0000
  C   C3583     1.0  0.54824  0.60981  0.91359  1.0000
  C   C3584     1.0  0.51370  0.68589  0.11509  1.0000
  C   C3585     1.0  0.92616  0.54740  0.98898  1.0000
  C   C3586     1.0  0.82042  0.52424  0.19409  1.0000
  Fe  Fe234     1.0  0.83428  0.54252  0.04825  1.0000
  H   H2855     1.0  0.89899  0.64588  0.05245  1.0000
  C   C3587     1.0  0.64709  0.58812  0.91141  1.0000
  H   H2856     1.0  0.57500  0.72776  0.92400  1.0000
  C   C3588     1.0  0.78504  0.58415  0.19060  1.0000
  C   C3589     1.0  0.58465  0.52496  0.29381  1.0000
  C   C3590     1.0  0.86110  0.69761  0.03674  1.0000
  C   C3591     1.0  0.87989  0.51042  0.21430  1.0000
  H   H2857     1.0  0.73421  0.56084  0.95866  1.0000
  H   H2858     1.0  0.59395  0.50583  0.21641  1.0000
  H   H2859     1.0  0.98227  0.57798  0.22931  1.0000
  S   S473      1.0  0.87084  0.62987  0.99612  1.0000
  H   H2860     1.0  0.76483  0.64210  0.16723  1.0000
  C   C3592     1.0  0.60071  0.64708  0.12504  1.0000
  C   C3593     1.0  0.98321  0.63014  0.21777  1.0000
  C   C3594     1.0  0.70295  0.55886  0.33113  1.0000
  C   C3595     1.0  0.80324  0.51517  0.17483  1.0000
  C   C3596     1.0  0.63673  0.69285  0.97324  1.0000
  H   H2861     1.0  0.57619  0.61690  0.11449  1.0000
  S   S474      1.0  0.72503  0.65101  0.31224  1.0000
  S   S475      1.0  0.57871  0.56165  0.18655  1.0000
  H   H2862     1.0  0.52803  0.71948  0.23505  1.0000
  H   H2863     1.0  0.75605  0.57412  0.24690  1.0000
  C   C3597     1.0  0.72347  0.56533  0.97912  1.0000
  S   S476      1.0  0.59727  0.68789  0.24378  1.0000
  S   S477      1.0  0.63231  0.68560  0.13661  1.0000
  H   H2864     1.0  0.86566  0.70998  0.13324  1.0000
  H   H2865     1.0  0.57275  0.61206  0.85825  1.0000
  H   H2866     1.0  0.79377  0.55288  0.09393  1.0000
  H   H2867     1.0  0.77787  0.52776  0.85625  1.0000
  S   S478      1.0  0.89608  0.58859  0.03153  1.0000
  H   H2868     1.0  0.54821  0.64781  0.86149  1.0000
  S   S479      1.0  0.62335  0.73339  0.27547  1.0000
  C   C3598     1.0  0.95112  0.59074  0.07960  1.0000
  Fe  Fe235     1.0  0.86824  0.59455  0.01582  1.0000
  H   H2869     1.0  0.70346  0.59263  0.21675  1.0000
  C   C3599     1.0  0.62982  0.72963  0.99865  1.0000
  C   C3600     1.0  0.74721  0.51938  0.26031  1.0000
  C   C3601     1.0  0.91992  0.69181  0.86501  1.0000
  H   H2870     1.0  0.76749  0.58295  0.00441  1.0000
  P   P121      1.0  0.61864  0.58077  0.91092  1.0000
  C   C3602     1.0  0.51737  0.69665  0.95957  1.0000
  H   H2871     1.0  0.62185  0.64735  0.22593  1.0000
  C   C3603     1.0  0.68924  0.55381  0.03767  1.0000
  C   C3604     1.0  0.61700  0.58550  0.85467  1.0000
  C   C3605     1.0  0.81072  0.54965  0.86077  1.0000
  C   C3606     1.0  0.98489  0.60821  0.01572  1.0000
  H   H2872     1.0  0.86513  0.55924  0.26115  1.0000
  H   H2873     1.0  0.82958  0.68065  0.02268  1.0000
  Fe  Fe236     1.0  0.52487  0.54424  0.09644  1.0000
  C   C3607     1.0  0.93062  0.74652  0.96346  1.0000
  C   C3608     1.0  0.72363  0.74259  0.87424  1.0000
  H   H2874     1.0  0.86993  0.63012  0.15143  1.0000
  S   S480      1.0  0.95517  0.68056  0.22645  1.0000
  H   H2875     1.0  0.83091  0.52118  0.98465  1.0000
  H   H2876     1.0  0.72753  0.56321  0.85620  1.0000
  C   C3609     1.0  0.99059  0.71668  0.32998  1.0000
  C   C3610     1.0  0.82294  0.55968  0.88794  1.0000
  H   H2877     1.0  0.72536  0.54495  0.19350  1.0000
  C   C3611     1.0  0.87750  0.52127  0.24599  1.0000
  C   C3612     1.0  0.92481  0.71368  0.86888  1.0000
  S   S481      1.0  0.96286  0.72100  0.13687  1.0000
  C   C3613     1.0  0.79072  0.71285  0.93826  1.0000
  Fe  Fe237     1.0  0.99347  0.71905  0.10483  1.0000
  Fe  Fe238     1.0  0.98049  0.51534  0.21325  1.0000
  C   C3614     1.0  0.83936  0.68606  0.89447  1.0000
  H   H2878     1.0  0.81031  0.64926  0.99341  1.0000
  C   C3615     1.0  0.90992  0.72074  0.13447  1.0000
  H   H2879     1.0  0.84337  0.65056  0.01637  1.0000
  H   H2880     1.0  0.85815  0.59022  0.14781  1.0000
  C   C3616     1.0  0.63940  0.72579  0.03241  1.0000
  H   H2881     1.0  0.95385  0.63785  0.31138  1.0000
  C   C3617     1.0  0.59527  0.54444  0.99222  1.0000
  H   H2882     1.0  0.64119  0.59619  0.20850  1.0000
  S   S482      1.0  0.52972  0.53370  0.03517  1.0000
  H   H2883     1.0  0.91478  0.71943  0.19913  1.0000
  C   C3618     1.0  0.69834  0.53471  0.90792  1.0000
  H   H2884     1.0  0.94742  0.72730  0.04638  1.0000
  C   C3619     1.0  0.82270  0.62186  0.32940  1.0000
  H   H2885     1.0  0.88245  0.60167  0.24690  1.0000
  H   H2886     1.0  0.93231  0.63581  0.16959  1.0000
  H   H2887     1.0  0.62575  0.58328  0.14520  1.0000
  H   H2888     1.0  0.97440  0.55585  0.31147  1.0000
  C   C3620     1.0  0.58583  0.50933  0.95298  1.0000
  H   H2889     1.0  0.73527  0.52253  0.08990  1.0000
  H   H2890     1.0  0.54284  0.70491  0.89898  1.0000
  H   H2891     1.0  0.96364  0.70114  0.04390  1.0000
  C   C3621     1.0  0.66686  0.68333  0.95496  1.0000
  H   H2892     1.0  0.78613  0.68050  0.98112  1.0000
  C   C3622     1.0  0.68878  0.69651  0.04090  1.0000
  C   C3623     1.0  0.55608  0.66628  0.84369  1.0000
  C   C3624     1.0  0.71004  0.70887  0.00844  1.0000
  H   H2893     1.0  0.65291  0.57277  0.86080  1.0000
  C   C3625     1.0  0.72734  0.70119  0.06465  1.0000
  H   H2894     1.0  0.81371  0.60409  0.91918  1.0000
  H   H2895     1.0  0.95109  0.69878  0.31514  1.0000
  S   S483      1.0  0.63253  0.73919  0.16857  1.0000
  S   S484      1.0  0.97435  0.74251  0.23908  1.0000
  C   C3626     1.0  0.51886  0.50374  0.04322  1.0000
  H   H2896     1.0  0.68903  0.74404  0.13802  1.0000
  C   C3627     1.0  0.55613  0.67456  0.02447  1.0000
  H   H2897     1.0  0.72154  0.61323  0.99319  1.0000
  H   H2898     1.0  0.77310  0.57039  0.31744  1.0000
  H   H2899     1.0  0.90514  0.70257  0.13985  1.0000
  C   C3628     1.0  0.87812  0.55273  0.31606  1.0000
  C   C3629     1.0  0.84694  0.62780  0.98128  1.0000
  H   H2900     1.0  0.75048  0.57986  0.14138  1.0000
  H   H2901     1.0  0.65704  0.68328  0.30347  1.0000
  P   P122      1.0  0.70375  0.67807  0.15567  1.0000
  H   H2902     1.0  0.74829  0.64498  0.84199  1.0000
  H   H2903     1.0  0.83688  0.55015  0.22379  1.0000
  C   C3630     1.0  0.75723  0.70989  0.91880  1.0000
  H   H2904     1.0  0.67011  0.67763  0.10970  1.0000
  C   C3631     1.0  0.57458  0.57717  0.31428  1.0000
  C   C3632     1.0  0.82415  0.68425  0.08817  1.0000
  S   S485      1.0  0.84244  0.56983  0.08156  1.0000
  C   C3633     1.0  0.95934  0.54267  0.98744  1.0000
  H   H2905     1.0  0.96472  0.50179  0.00549  1.0000
  C   C3634     1.0  0.59338  0.62650  0.96491  1.0000
  H   H2906     1.0  0.56236  0.70719  0.09483  1.0000
  Fe  Fe239     1.0  0.63977  0.51087  0.29643  1.0000
  C   C3635     1.0  0.61515  0.63672  0.93485  1.0000
  H   H2907     1.0  0.73892  0.72778  0.11784  1.0000
  C   C3636     1.0  0.81561  0.62414  0.16998  1.0000
  Fe  Fe240     1.0  0.54808  0.55601  0.16605  1.0000
  C   C3637     1.0  0.72327  0.66687  0.15916  1.0000
  C   C3638     1.0  0.56664  0.58621  0.28207  1.0000
  C   C3639     1.0  0.90180  0.63544  0.16114  1.0000
  H   H2908     1.0  0.52485  0.70086  0.16575  1.0000
  H   H2909     1.0  0.68752  0.61796  0.26568  1.0000
  H   H2910     1.0  0.81255  0.56796  0.21582  1.0000
  C   C3640     1.0  0.86833  0.74208  0.22311  1.0000
  C   C3641     1.0  0.55142  0.69674  0.30239  1.0000
  C   C3642     1.0  0.68790  0.55919  0.26857  1.0000
  C   C3643     1.0  0.56609  0.72480  0.09301  1.0000
  C   C3644     1.0  0.95713  0.50746  0.84921  1.0000
  C   C3645     1.0  0.70477  0.50615  0.95408  1.0000
  C   C3646     1.0  0.68774  0.54714  0.30986  1.0000
  H   H2911     1.0  0.78024  0.73639  0.07595  1.0000
  H   H2912     1.0  0.76118  0.69657  0.83631  1.0000
  H   H2913     1.0  0.56804  0.73205  0.99867  1.0000
  C   C3647     1.0  0.55184  0.73336  0.08081  1.0000
  C   C3648     1.0  0.75751  0.74577  0.30891  1.0000
  H   H2914     1.0  0.59464  0.73123  0.11774  1.0000
  Fe  Fe241     1.0  0.65310  0.74555  0.21555  1.0000
  C   C3649     1.0  0.56222  0.50818  0.31838  1.0000
  H   H2915     1.0  0.67572  0.52878  0.32579  1.0000
  H   H2916     1.0  0.88240  0.65144  0.32889  1.0000
  C   C3650     1.0  0.58449  0.73841  0.10580  1.0000
  C   C3651     1.0  0.71334  0.74324  0.84069  1.0000
  H   H2917     1.0  0.51241  0.74053  0.00898  1.0000
  H   H2918     1.0  0.76510  0.74931  0.27381  1.0000
  H   H2919     1.0  0.89640  0.50133  0.98254  1.0000
  P   P123      1.0  0.86174  0.52101  0.33267  1.0000
  C   C3652     1.0  0.90270  0.58782  0.33084  1.0000
  C   C3653     1.0  0.98802  0.69492  0.32843  1.0000
  H   H2920     1.0  0.00933  0.65093  0.06006  1.0000
  C   C3654     1.0  0.69860  0.74703  0.06839  1.0000
  C   C3655     1.0  0.62529  0.74836  0.99122  1.0000
  H   H2921     1.0  0.67209  0.74951  0.28428  1.0000
  H   H2922     1.0  0.93865  0.75032  0.83337  1.0000
  C   C3656     1.0  0.89124  0.95038  0.68820  1.0000
  H   H2923     1.0  0.82455  0.78657  0.38194  1.0000
  H   H2924     1.0  0.98354  0.89613  0.77985  1.0000
  H   H2925     1.0  0.95253  0.78197  0.59398  1.0000
  C   C3657     1.0  0.69586  0.89897  0.35807  1.0000
  C   C3658     1.0  0.96102  0.77829  0.36147  1.0000
  C   C3659     1.0  0.86504  0.90898  0.57168  1.0000
  H   H2926     1.0  0.99853  0.86523  0.68216  1.0000
  H   H2927     1.0  0.72463  0.79786  0.44109  1.0000
  H   H2928     1.0  0.98563  0.78714  0.62015  1.0000
  C   C3660     1.0  0.85734  0.75549  0.53928  1.0000
  C   C3661     1.0  0.90420  0.95527  0.58393  1.0000
  H   H2929     1.0  0.93395  0.81975  0.79023  1.0000
  C   C3662     1.0  0.86939  0.84034  0.43240  1.0000
  S   S486      1.0  0.70577  0.76466  0.76817  1.0000
  H   H2930     1.0  0.00147  0.96125  0.57536  1.0000
  C   C3663     1.0  0.90971  0.94116  0.46602  1.0000
  C   C3664     1.0  0.96577  0.83159  0.54599  1.0000
  C   C3665     1.0  0.94109  0.91762  0.66659  1.0000
  S   S487      1.0  0.99809  0.91334  0.37794  1.0000
  H   H2931     1.0  0.87250  0.95550  0.58840  1.0000
  C   C3666     1.0  0.99073  0.97950  0.37245  1.0000
  C   C3667     1.0  0.93786  0.99113  0.53473  1.0000
  C   C3668     1.0  0.75383  0.77961  0.44347  1.0000
  H   H2932     1.0  0.00799  0.90040  0.62172  1.0000
  H   H2933     1.0  0.87140  0.81356  0.68824  1.0000
  C   C3669     1.0  0.88115  0.89761  0.77192  1.0000
  Fe  Fe242     1.0  0.99892  0.98372  0.71189  1.0000
  H   H2934     1.0  0.95065  0.92236  0.68951  1.0000
  H   H2935     1.0  0.93862  0.96125  0.57266  1.0000
  C   C3670     1.0  0.79042  0.82648  0.73609  1.0000
  C   C3671     1.0  0.73314  0.75520  0.52060  1.0000
  C   C3672     1.0  0.83828  0.85222  0.40504  1.0000
  S   S488      1.0  0.79910  0.81044  0.33885  1.0000
  H   H2936     1.0  0.86361  0.87676  0.67070  1.0000
  H   H2937     1.0  0.88834  0.82724  0.60636  1.0000
  Fe  Fe243     1.0  0.82868  0.83172  0.82681  1.0000
  C   C3673     1.0  0.98888  0.89671  0.74558  1.0000
  C   C3674     1.0  0.75285  0.75566  0.66304  1.0000
  C   C3675     1.0  0.79118  0.80652  0.73177  1.0000
  H   H2938     1.0  0.84793  0.75127  0.70816  1.0000
  Fe  Fe244     1.0  0.91515  0.86218  0.46450  1.0000
  H   H2939     1.0  0.95618  0.89732  0.64770  1.0000
  C   C3676     1.0  0.91217  0.91808  0.63322  1.0000
  H   H2940     1.0  0.84201  0.83677  0.35400  1.0000
  H   H2941     1.0  0.95319  0.82781  0.52873  1.0000
  H   H2942     1.0  0.89025  0.79915  0.37994  1.0000
  C   C3677     1.0  0.84496  0.85753  0.44171  1.0000
  H   H2943     1.0  0.88156  0.81731  0.78687  1.0000
  C   C3678     1.0  0.91610  0.90453  0.60851  1.0000
  C   C3679     1.0  0.98384  0.82729  0.53335  1.0000
  H   H2944     1.0  0.86185  0.79655  0.33444  1.0000
  C   C3680     1.0  0.86997  0.90420  0.61194  1.0000
  H   H2945     1.0  0.88461  0.77955  0.71316  1.0000
  C   C3681     1.0  0.00285  0.89948  0.65628  1.0000
  S   S489      1.0  0.86427  0.95050  0.38590  1.0000
  H   H2946     1.0  0.82174  0.79846  0.59111  1.0000
  H   H2947     1.0  0.89027  0.99520  0.53367  1.0000
  C   C3682     1.0  0.87131  0.87687  0.76184  1.0000
  C   C3683     1.0  0.91923  0.83239  0.34064  1.0000
  C   C3684     1.0  0.89264  0.92198  0.46010  1.0000
  H   H2948     1.0  0.82740  0.90967  0.75432  1.0000
  C   C3685     1.0  0.99720  0.87939  0.69080  1.0000
  H   H2949     1.0  0.88996  0.90458  0.47486  1.0000
  S   S490      1.0  0.99928  0.76689  0.53469  1.0000
  C   C3686     1.0  0.76483  0.79883  0.45732  1.0000
  H   H2950     1.0  0.74248  0.80165  0.78507  1.0000
  S   S491      1.0  0.88955  0.83353  0.44713  1.0000
  C   C3687     1.0  0.83909  0.86769  0.58886  1.0000
  P   P124      1.0  0.98210  0.85134  0.78013  1.0000
  H   H2951     1.0  0.69237  0.92447  0.38501  1.0000
  H   H2952     1.0  0.77850  0.80690  0.63407  1.0000
  H   H2953     1.0  0.99347  0.81575  0.81956  1.0000
  C   C3688     1.0  0.88339  0.86489  0.75592  1.0000
  C   C3689     1.0  0.86079  0.85186  0.45506  1.0000
  H   H2954     1.0  0.89131  0.96944  0.73436  1.0000
  C   C3690     1.0  0.86046  0.80968  0.66730  1.0000
  Fe  Fe245     1.0  0.95726  0.94012  0.77812  1.0000
  H   H2955     1.0  0.99968  0.82902  0.72608  1.0000
  S   S492      1.0  0.94276  0.84804  0.59546  1.0000
  H   H2956     1.0  0.97803  0.85089  0.63240  1.0000
  C   C3691     1.0  0.00778  0.85320  0.79053  1.0000
  H   H2957     1.0  0.73942  0.83114  0.37302  1.0000
  C   C3692     1.0  0.85599  0.81375  0.59360  1.0000
  C   C3693     1.0  0.91297  0.96365  0.44731  1.0000
  H   H2958     1.0  0.91021  0.92189  0.78573  1.0000
  H   H2959     1.0  0.93481  0.81991  0.41935  1.0000
  H   H2960     1.0  0.93630  0.96024  0.36903  1.0000
  C   C3694     1.0  0.00148  0.91816  0.66638  1.0000
  C   C3695     1.0  0.78743  0.89290  0.36721  1.0000
  S   S493      1.0  0.94006  0.90203  0.78575  1.0000
  C   C3696     1.0  0.98404  0.78489  0.35187  1.0000
  C   C3697     1.0  0.95116  0.76788  0.62025  1.0000
  C   C3698     1.0  0.93426  0.79730  0.75248  1.0000
  C   C3699     1.0  0.83236  0.80089  0.61274  1.0000
  C   C3700     1.0  0.85707  0.77673  0.53146  1.0000
  H   H2961     1.0  0.78136  0.87501  0.38724  1.0000
  C   C3701     1.0  0.97965  0.84431  0.60483  1.0000
  H   H2962     1.0  0.74569  0.76204  0.68648  1.0000
  H   H2963     1.0  0.80952  0.76211  0.49948  1.0000
  H   H2964     1.0  0.99562  0.86990  0.44468  1.0000
  C   C3702     1.0  0.70212  0.91560  0.37993  1.0000
  C   C3703     1.0  0.98509  0.95917  0.52407  1.0000
  H   H2965     1.0  0.91371  0.86320  0.75943  1.0000
  H   H2966     1.0  0.82734  0.85364  0.57972  1.0000
  H   H2967     1.0  0.90238  0.98441  0.40607  1.0000
  C   C3704     1.0  0.77574  0.76127  0.65352  1.0000
  S   S494      1.0  0.93571  0.90019  0.42372  1.0000
  S   S495      1.0  0.81395  0.79455  0.82917  1.0000
  C   C3705     1.0  0.90231  0.77974  0.60712  1.0000
  C   C3706     1.0  0.93181  0.89703  0.61392  1.0000
  C   C3707     1.0  0.74381  0.77456  0.53440  1.0000
  C   C3708     1.0  0.00362  0.96796  0.54009  1.0000
  H   H2968     1.0  0.91933  0.79839  0.64794  1.0000
  H   H2969     1.0  0.98118  0.79769  0.69516  1.0000
  C   C3709     1.0  0.88228  0.94772  0.41600  1.0000
  C   C3710     1.0  0.71988  0.81638  0.48576  1.0000
  C   C3711     1.0  0.75991  0.79630  0.50278  1.0000
  C   C3712     1.0  0.85818  0.94023  0.74815  1.0000
  C   C3713     1.0  0.90079  0.98780  0.54258  1.0000
  H   H2970     1.0  0.00824  0.92859  0.45373  1.0000
  H   H2971     1.0  0.93655  0.79005  0.35996  1.0000
  H   H2972     1.0  0.82969  0.79115  0.72244  1.0000
  S   S496      1.0  0.73647  0.78704  0.33809  1.0000
  H   H2973     1.0  0.85054  0.94356  0.77653  1.0000
  C   C3714     1.0  0.86211  0.83431  0.39683  1.0000
  H   H2974     1.0  0.97323  0.96124  0.46691  1.0000
  C   C3715     1.0  0.73858  0.75746  0.47500  1.0000
  H   H2975     1.0  0.94289  0.85898  0.79727  1.0000
  C   C3716     1.0  0.90285  0.90611  0.77700  1.0000
  C   C3717     1.0  0.95322  0.96231  0.36278  1.0000
  C   C3718     1.0  0.86199  0.75296  0.64127  1.0000
  H   H2976     1.0  0.77224  0.75518  0.40089  1.0000
  C   C3719     1.0  0.98981  0.87765  0.73579  1.0000
  H   H2977     1.0  0.86887  0.82553  0.37917  1.0000
  H   H2978     1.0  0.70335  0.87492  0.33402  1.0000
  C   C3720     1.0  0.96978  0.77078  0.63520  1.0000
  C   C3721     1.0  0.82947  0.77317  0.38374  1.0000
  H   H2979     1.0  0.90904  0.96213  0.66988  1.0000
  C   C3722     1.0  0.86912  0.80214  0.81520  1.0000
  H   H2980     1.0  0.68125  0.89494  0.34620  1.0000
  C   C3723     1.0  0.84954  0.89079  0.56039  1.0000
  H   H2981     1.0  0.70453  0.75967  0.42453  1.0000
  C   C3724     1.0  0.78404  0.75133  0.62563  1.0000
  C   C3725     1.0  0.97092  0.80226  0.71670  1.0000
  H   H2982     1.0  0.80126  0.75431  0.61982  1.0000
  H   H2983     1.0  0.87157  0.90642  0.77820  1.0000
  H   H2984     1.0  0.78431  0.85447  0.70775  1.0000
  C   C3726     1.0  0.92494  0.92471  0.66219  1.0000
  C   C3727     1.0  0.94756  0.78447  0.48769  1.0000
  H   H2985     1.0  0.98260  0.75527  0.68047  1.0000
  H   H2986     1.0  0.96855  0.94549  0.54668  1.0000
  C   C3728     1.0  0.00883  0.98597  0.44916  1.0000
  Fe  Fe246     1.0  0.93134  0.90656  0.48950  1.0000
  C   C3729     1.0  0.93231  0.80556  0.44665  1.0000
  C   C3730     1.0  0.78674  0.79913  0.69527  1.0000
  C   C3731     1.0  0.94428  0.90350  0.64302  1.0000
  H   H2987     1.0  0.82041  0.90494  0.37701  1.0000
  S   S497      1.0  0.94569  0.85903  0.46985  1.0000
  C   C3732     1.0  0.96296  0.84809  0.83107  1.0000
  H   H2988     1.0  0.93422  0.88604  0.59574  1.0000
  C   C3733     1.0  0.00016  0.83219  0.55561  1.0000
  C   C3734     1.0  0.88377  0.77515  0.68275  1.0000
  S   S498      1.0  0.94707  0.95955  0.81816  1.0000
  H   H2989     1.0  0.92230  0.93497  0.68197  1.0000
  H   H2990     1.0  0.72595  0.93384  0.41185  1.0000
  C   C3735     1.0  0.72151  0.83746  0.48884  1.0000
  C   C3736     1.0  0.77351  0.89929  0.34718  1.0000
  H   H2991     1.0  0.87354  0.92654  0.54821  1.0000
  H   H2992     1.0  0.92612  0.97848  0.45210  1.0000
  H   H2993     1.0  0.73970  0.77272  0.56961  1.0000
  C   C3737     1.0  0.73401  0.83311  0.40498  1.0000
  C   C3738     1.0  0.99652  0.96685  0.34783  1.0000
  C   C3739     1.0  0.00432  0.86422  0.38209  1.0000
  C   C3740     1.0  0.96864  0.97655  0.38077  1.0000
  C   C3741     1.0  0.87845  0.92520  0.43639  1.0000
  H   H2994     1.0  0.66876  0.78083  0.78890  1.0000
  H   H2995     1.0  0.91328  0.88360  0.36022  1.0000
  H   H2996     1.0  0.77690  0.81582  0.43262  1.0000
  C   C3742     1.0  0.88170  0.76287  0.60480  1.0000
  S   S499      1.0  0.84239  0.86294  0.76629  1.0000
  H   H2997     1.0  0.86348  0.82093  0.55751  1.0000
  H   H2998     1.0  0.70766  0.83750  0.34808  1.0000
  H   H2999     1.0  0.79438  0.83237  0.76392  1.0000
  C   C3743     1.0  0.83992  0.77909  0.51707  1.0000
  S   S500      1.0  0.96266  0.90603  0.49870  1.0000
  H   H3000     1.0  0.75698  0.78225  0.40813  1.0000
  H   H3001     1.0  0.92375  0.75429  0.54419  1.0000
  H   H3002     1.0  0.96319  0.98525  0.40107  1.0000
  H   H3003     1.0  0.86647  0.85656  0.48256  1.0000
  C   C3744     1.0  0.86307  0.75916  0.67995  1.0000
  C   C3745     1.0  0.84897  0.78283  0.80903  1.0000
  H   H3004     1.0  0.86471  0.91026  0.43312  1.0000
  C   C3746     1.0  0.94737  0.79094  0.72558  1.0000
  C   C3747     1.0  0.91431  0.89334  0.77376  1.0000
  S   S501      1.0  0.81949  0.86039  0.38680  1.0000
  H   H3005     1.0  0.84602  0.89464  0.52900  1.0000
  C   C3748     1.0  0.66009  0.76788  0.82202  1.0000
  C   C3749     1.0  0.91057  0.78997  0.47671  1.0000
  H   H3006     1.0  0.83839  0.86659  0.45892  1.0000
  C   C3750     1.0  0.99452  0.91676  0.71092  1.0000
  C   C3751     1.0  0.94494  0.85260  0.82917  1.0000
  C   C3752     1.0  0.71984  0.76447  0.80872  1.0000
  H   H3007     1.0  0.84462  0.90196  0.69045  1.0000
  H   H3008     1.0  0.96773  0.81503  0.42940  1.0000
  C   C3753     1.0  0.81806  0.93295  0.33556  1.0000
  H   H3009     1.0  0.77596  0.84139  0.64332  1.0000
  C   C3754     1.0  0.85953  0.88089  0.64011  1.0000
  C   C3755     1.0  0.84516  0.92126  0.73555  1.0000
  H   H3010     1.0  0.88746  0.89658  0.39345  1.0000
  Fe  Fe247     1.0  0.96590  0.89766  0.43497  1.0000
  C   C3756     1.0  0.96390  0.84050  0.58124  1.0000
  C   C3757     1.0  0.92585  0.76860  0.51729  1.0000
  H   H3011     1.0  0.91601  0.78877  0.75904  1.0000
  C   C3758     1.0  0.99798  0.84052  0.59161  1.0000
  C   C3759     1.0  0.88120  0.95478  0.72446  1.0000
  C   C3760     1.0  0.72894  0.85625  0.44998  1.0000
  C   C3761     1.0  0.72101  0.92086  0.39507  1.0000
  C   C3762     1.0  0.87002  0.81769  0.62093  1.0000
  C   C3763     1.0  0.85744  0.76165  0.35869  1.0000
  C   C3764     1.0  0.95084  0.80293  0.45239  1.0000
  C   C3765     1.0  0.73737  0.78514  0.80970  1.0000
  H   H3012     1.0  0.83617  0.84489  0.65082  1.0000
  C   C3766     1.0  0.98773  0.96807  0.47875  1.0000
  C   C3767     1.0  0.73499  0.85414  0.40768  1.0000
  H   H3013     1.0  0.87064  0.79175  0.53506  1.0000
  C   C3768     1.0  0.90376  0.80895  0.34836  1.0000
  C   C3769     1.0  0.85083  0.77885  0.35718  1.0000
  C   C3770     1.0  0.95940  0.95036  0.33738  1.0000
  H   H3014     1.0  0.87577  0.84881  0.74833  1.0000
  C   C3771     1.0  0.92786  0.96847  0.56480  1.0000
  C   C3772     1.0  0.89076  0.96524  0.57315  1.0000
  C   C3773     1.0  0.73365  0.90951  0.38837  1.0000
  C   C3774     1.0  0.83690  0.79683  0.68650  1.0000
  P   P125      1.0  0.89119  0.92696  0.62622  1.0000
  H   H3015     1.0  0.73011  0.87241  0.45313  1.0000
  C   C3775     1.0  0.78426  0.75339  0.73628  1.0000
  C   C3776     1.0  0.00833  0.83275  0.81043  1.0000
  C   C3777     1.0  0.95441  0.79523  0.35141  1.0000
  H   H3016     1.0  0.99314  0.93111  0.71860  1.0000
  C   C3778     1.0  0.90474  0.87293  0.76253  1.0000
  C   C3779     1.0  0.96807  0.75255  0.66901  1.0000
  H   H3017     1.0  0.90694  0.89961  0.58509  1.0000
  C   C3780     1.0  0.00742  0.86715  0.42254  1.0000
  C   C3781     1.0  0.84683  0.84057  0.38271  1.0000
  C   C3782     1.0  0.82270  0.79174  0.65944  1.0000
  Fe  Fe248     1.0  0.99095  0.76449  0.47106  1.0000
  C   C3783     1.0  0.87836  0.93117  0.67554  1.0000
  P   P126      1.0  0.74415  0.87835  0.35756  1.0000
  H   H3018     1.0  0.71705  0.83929  0.52135  1.0000
  C   C3784     1.0  0.78132  0.81186  0.66324  1.0000
  H   H3019     1.0  0.69222  0.75296  0.34142  1.0000
  Fe  Fe249     1.0  0.98410  0.98009  0.81019  1.0000
  H   H3020     1.0  0.75333  0.75327  0.76633  1.0000
  H   H3021     1.0  0.93927  0.77745  0.71123  1.0000
  Fe  Fe250     1.0  0.94004  0.86749  0.53290  1.0000
  H   H3022     1.0  0.84708  0.78415  0.77615  1.0000
  C   C3785     1.0  0.82256  0.76008  0.51134  1.0000
  H   H3023     1.0  0.76840  0.81131  0.51323  1.0000
  H   H3024     1.0  0.74829  0.91388  0.40027  1.0000
  C   C3786     1.0  0.72592  0.81416  0.44382  1.0000
  H   H3025     1.0  0.91743  0.84054  0.36564  1.0000
  C   C3787     1.0  0.90888  0.89468  0.33876  1.0000
  C   C3788     1.0  0.98136  0.82001  0.73445  1.0000
  S   S502      1.0  0.99367  0.95827  0.77621  1.0000
  C   C3789     1.0  0.89402  0.90170  0.35755  1.0000
  C   C3790     1.0  0.84408  0.86275  0.62875  1.0000
  C   C3791     1.0  0.90333  0.78562  0.64615  1.0000
  H   H3026     1.0  0.00561  0.93371  0.63988  1.0000
  C   C3792     1.0  0.90722  0.77152  0.51275  1.0000
  H   H3027     1.0  0.66199  0.77111  0.52291  1.0000
  C   C3793     1.0  0.78483  0.83897  0.70434  1.0000
  H   H3028     1.0  0.87511  0.91965  0.34489  1.0000
  H   H3029     1.0  0.71422  0.80189  0.51586  1.0000
  H   H3030     1.0  0.98549  0.82077  0.50568  1.0000
  H   H3031     1.0  0.96185  0.78225  0.49197  1.0000
  Fe  Fe251     1.0  0.95602  0.98576  0.75192  1.0000
  H   H3032     1.0  0.79574  0.79717  0.75635  1.0000
  C   C3794     1.0  0.85514  0.91679  0.69929  1.0000
  H   H3033     1.0  0.89669  0.79267  0.47161  1.0000
  H   H3034     1.0  0.84047  0.79590  0.50922  1.0000
  S   S503      1.0  0.92692  0.93695  0.49679  1.0000
  C   C3795     1.0  0.80962  0.90977  0.36148  1.0000
  S   S504      1.0  0.90823  0.86867  0.52951  1.0000
  C   C3796     1.0  0.72754  0.89280  0.36630  1.0000
  C   C3797     1.0  0.89963  0.96702  0.42121  1.0000
  H   H3035     1.0  0.91772  0.78835  0.57924  1.0000
  S   S505      1.0  0.96293  0.96461  0.71249  1.0000
  H   H3036     1.0  0.98967  0.86416  0.37401  1.0000
  C   C3798     1.0  0.94461  0.81502  0.77030  1.0000
  H   H3037     1.0  0.98905  0.77171  0.36095  1.0000
  P   P127      1.0  0.79236  0.77645  0.68524  1.0000
  H   H3038     1.0  0.69142  0.75992  0.53202  1.0000
  C   C3799     1.0  0.96831  0.82665  0.76129  1.0000
  C   C3800     1.0  0.78013  0.83158  0.66808  1.0000
  H   H3039     1.0  0.94834  0.76006  0.37773  1.0000
  C   C3801     1.0  0.70849  0.88761  0.35124  1.0000
  C   C3802     1.0  0.65705  0.75368  0.54371  1.0000
  P   P128      1.0  0.88026  0.75330  0.55640  1.0000
  C   C3803     1.0  0.77121  0.75356  0.33554  1.0000
  C   C3804     1.0  0.74336  0.86448  0.12187  1.0000
  C   C3805     1.0  0.77787  0.80898  0.07195  1.0000
  C   C3806     1.0  0.90826  0.94260  0.00032  1.0000
  C   C3807     1.0  0.82181  0.75593  0.27592  1.0000
  C   C3808     1.0  0.98055  0.97788  0.11725  1.0000
  C   C3809     1.0  0.67166  0.76836  0.85358  1.0000
  H   H3040     1.0  0.86781  0.85200  0.03013  1.0000
  Fe  Fe252     1.0  0.86756  0.99286  0.23810  1.0000
  C   C3810     1.0  0.83334  0.95539  0.19365  1.0000
  H   H3041     1.0  0.80538  0.92581  0.02911  1.0000
  Fe  Fe253     1.0  0.95581  0.88175  0.04727  1.0000
  C   C3811     1.0  0.89565  0.92138  0.28363  1.0000
  C   C3812     1.0  0.90748  0.88633  0.92702  1.0000
  H   H3042     1.0  0.91973  0.83830  0.94034  1.0000
  H   H3043     1.0  0.88697  0.87318  0.24305  1.0000
  C   C3813     1.0  0.79581  0.87016  0.90776  1.0000
  H   H3044     1.0  0.94881  0.86362  0.29444  1.0000
  H   H3045     1.0  0.98537  0.94236  0.31215  1.0000
  H   H3046     1.0  0.00459  0.77999  0.07911  1.0000
  C   C3814     1.0  0.89338  0.87426  0.11128  1.0000
  H   H3047     1.0  0.80945  0.92478  0.12758  1.0000
  H   H3048     1.0  0.72738  0.75458  0.22361  1.0000
  C   C3815     1.0  0.89446  0.96037  0.14810  1.0000
  C   C3816     1.0  0.77349  0.83758  0.99449  1.0000
  H   H3049     1.0  0.89730  0.97806  0.14219  1.0000
  Fe  Fe254     1.0  0.82180  0.82152  0.26951  1.0000
  H   H3050     1.0  0.84250  0.94160  0.24891  1.0000
  C   C3817     1.0  0.71791  0.83887  0.28017  1.0000
  C   C3818     1.0  0.81848  0.91108  0.18326  1.0000
  H   H3051     1.0  0.97332  0.81328  0.24638  1.0000
  H   H3052     1.0  0.92184  0.83894  0.19519  1.0000
  H   H3053     1.0  0.89945  0.99641  0.03987  1.0000
  H   H3054     1.0  0.90777  0.87355  0.11920  1.0000
  C   C3819     1.0  0.73031  0.83132  0.09497  1.0000
  C   C3820     1.0  0.63076  0.76337  0.01660  1.0000
  C   C3821     1.0  0.82031  0.92372  0.02541  1.0000
  H   H3055     1.0  0.79488  0.75782  0.18026  1.0000
  H   H3056     1.0  0.83942  0.88744  0.99961  1.0000
  C   C3822     1.0  0.81648  0.92838  0.15430  1.0000
  C   C3823     1.0  0.87982  0.76614  0.27039  1.0000
  H   H3057     1.0  0.92571  0.78533  0.11814  1.0000
  C   C3824     1.0  0.98093  0.95242  0.33028  1.0000
  H   H3058     1.0  0.64490  0.77125  0.06949  1.0000
  H   H3059     1.0  0.97254  0.80153  0.12047  1.0000
  P   P129      1.0  0.75926  0.81785  0.05121  1.0000
  H   H3060     1.0  0.92449  0.76072  0.18894  1.0000
  C   C3825     1.0  0.97357  0.80289  0.22506  1.0000
  C   C3826     1.0  0.94991  0.94659  0.18177  1.0000
  H   H3061     1.0  0.95520  0.91370  0.15097  1.0000
  C   C3827     1.0  0.82738  0.91575  0.21805  1.0000
  H   H3062     1.0  0.90692  0.93773  0.06958  1.0000
  C   C3828     1.0  0.90785  0.95352  0.16859  1.0000
  C   C3829     1.0  0.97258  0.94692  0.92049  1.0000
  S   S506      1.0  0.75381  0.76092  0.91761  1.0000
  C   C3830     1.0  0.94376  0.98783  0.98380  1.0000
  C   C3831     1.0  0.91674  0.75802  0.08826  1.0000
  C   C3832     1.0  0.92751  0.77670  0.91315  1.0000
  C   C3833     1.0  0.99395  0.82557  0.32161  1.0000
  H   H3063     1.0  0.92667  0.80361  0.25077  1.0000
  H   H3064     1.0  0.77219  0.92781  0.30347  1.0000
  H   H3065     1.0  0.91598  0.85327  0.86639  1.0000
  H   H3066     1.0  0.88247  0.89627  0.17452  1.0000
  H   H3067     1.0  0.80712  0.84994  0.00126  1.0000
  C   C3834     1.0  0.92157  0.85490  0.19569  1.0000
  H   H3068     1.0  0.74908  0.76044  0.14745  1.0000
  C   C3835     1.0  0.00563  0.87441  0.27179  1.0000
  H   H3069     1.0  0.94634  0.99268  0.91419  1.0000
  H   H3070     1.0  0.91479  0.95345  0.92840  1.0000
  H   H3071     1.0  0.86837  0.75962  0.15849  1.0000
  H   H3072     1.0  0.81143  0.95726  0.29351  1.0000
  C   C3836     1.0  0.57568  0.76994  0.09138  1.0000
  H   H3073     1.0  0.91109  0.89240  0.98833  1.0000
  C   C3837     1.0  0.87850  0.78288  0.19678  1.0000
  H   H3074     1.0  0.76205  0.80035  0.84294  1.0000
  H   H3075     1.0  0.73254  0.84424  0.21129  1.0000
  C   C3838     1.0  0.88344  0.83014  0.03603  1.0000
  Fe  Fe255     1.0  0.98381  0.86427  0.99726  1.0000
  H   H3076     1.0  0.86844  0.84425  0.16812  1.0000
  Fe  Fe256     1.0  0.79075  0.78718  0.89531  1.0000
  H   H3077     1.0  0.85036  0.80250  0.95980  1.0000
  H   H3078     1.0  0.96704  0.75988  0.06969  1.0000
  H   H3079     1.0  0.82672  0.87762  0.92449  1.0000
  H   H3080     1.0  0.88752  0.81258  0.86516  1.0000
  Fe  Fe257     1.0  0.96499  0.84488  0.09926  1.0000
  H   H3081     1.0  0.91413  0.90424  0.05235  1.0000
  H   H3082     1.0  0.77117  0.81505  0.13542  1.0000
  C   C3839     1.0  0.85917  0.80990  0.98162  1.0000
  H   H3083     1.0  0.82896  0.90247  0.24057  1.0000
  C   C3840     1.0  0.83934  0.93954  0.03364  1.0000
  H   H3084     1.0  0.51663  0.75878  0.87953  1.0000
  C   C3841     1.0  0.82369  0.95042  0.15976  1.0000
  C   C3842     1.0  0.80264  0.75733  0.20653  1.0000
  C   C3843     1.0  0.86930  0.83804  0.02087  1.0000
  H   H3085     1.0  0.84185  0.87666  0.08284  1.0000
  C   C3844     1.0  0.88480  0.81162  0.02486  1.0000
  C   C3845     1.0  0.92422  0.81143  0.27611  1.0000
  H   H3086     1.0  0.87099  0.91707  0.92766  1.0000
  P   P130      1.0  0.92145  0.92218  0.20474  1.0000
  H   H3087     1.0  0.70306  0.82249  0.28482  1.0000
  H   H3088     1.0  0.00991  0.75407  0.29903  1.0000
  C   C3846     1.0  0.83573  0.75813  0.89434  1.0000
  S   S507      1.0  0.86172  0.99966  0.30335  1.0000
  H   H3089     1.0  0.78740  0.85680  0.07807  1.0000
  S   S508      1.0  0.95710  0.91501  0.05321  1.0000
  S   S509      1.0  0.88437  0.97191  0.25749  1.0000
  H   H3090     1.0  0.00090  0.92329  0.26715  1.0000
  C   C3847     1.0  0.75253  0.83499  0.08145  1.0000
  H   H3091     1.0  0.60294  0.77101  0.11700  1.0000
  H   H3092     1.0  0.71644  0.81724  0.08987  1.0000
  C   C3848     1.0  0.85288  0.85901  0.12825  1.0000
  C   C3849     1.0  0.73386  0.79970  0.25354  1.0000
  H   H3093     1.0  0.92936  0.89612  0.27841  1.0000
  C   C3850     1.0  0.97413  0.76837  0.21474  1.0000
  C   C3851     1.0  0.88458  0.89960  0.89355  1.0000
  C   C3852     1.0  0.97938  0.77714  0.04679  1.0000
  H   H3094     1.0  0.94714  0.93889  0.32463  1.0000
  H   H3095     1.0  0.73979  0.87575  0.13779  1.0000
  C   C3853     1.0  0.00050  0.80846  0.33196  1.0000
  S   S510      1.0  0.68591  0.77902  0.19253  1.0000
  C   C3854     1.0  0.71939  0.77649  0.09934  1.0000
  S   S511      1.0  0.95332  0.86740  0.99030  1.0000
  C   C3855     1.0  0.71451  0.76084  0.02609  1.0000
  C   C3856     1.0  0.81718  0.77818  0.21255  1.0000
  H   H3096     1.0  0.95775  0.77831  0.00657  1.0000
  H   H3097     1.0  0.95551  0.87737  0.15025  1.0000
  C   C3857     1.0  0.72074  0.84732  0.31598  1.0000
  C   C3858     1.0  0.68933  0.76346  0.27562  1.0000
  C   C3859     1.0  0.93693  0.84543  0.30053  1.0000
  H   H3098     1.0  0.77913  0.88214  0.11477  1.0000
  H   H3099     1.0  0.87330  0.78689  0.99008  1.0000
  H   H3100     1.0  0.76707  0.88127  0.20035  1.0000
  S   S512      1.0  0.79500  0.82064  0.23809  1.0000
  C   C3860     1.0  0.78238  0.92257  0.32017  1.0000
  C   C3861     1.0  0.98368  0.97055  0.91685  1.0000
  C   C3862     1.0  0.88621  0.91424  0.16692  1.0000
  C   C3863     1.0  0.83967  0.90226  0.00841  1.0000
  H   H3101     1.0  0.82121  0.79484  0.19024  1.0000
  C   C3864     1.0  0.88918  0.90445  0.96456  1.0000
  C   C3865     1.0  0.80737  0.79540  0.10255  1.0000
  Fe  Fe258     1.0  0.81268  0.84851  0.32842  1.0000
  H   H3102     1.0  0.95013  0.95075  0.11301  1.0000
  C   C3866     1.0  0.85592  0.77762  0.90020  1.0000
  C   C3867     1.0  0.79718  0.85150  0.97951  1.0000
  C   C3868     1.0  0.93967  0.83474  0.26884  1.0000
  C   C3869     1.0  0.00060  0.78897  0.05277  1.0000
  H   H3103     1.0  0.98861  0.88221  0.17921  1.0000
  H   H3104     1.0  0.88680  0.80166  0.24280  1.0000
  H   H3105     1.0  0.99240  0.98324  0.21372  1.0000
  H   H3106     1.0  0.83915  0.95384  0.04392  1.0000
  H   H3107     1.0  0.97897  0.83658  0.87595  1.0000
  H   H3108     1.0  0.80452  0.88230  0.87389  1.0000
  H   H3109     1.0  0.85943  0.77539  0.93166  1.0000
  Fe  Fe259     1.0  0.77352  0.81284  0.30699  1.0000
  S   S513      1.0  0.81072  0.88413  0.17429  1.0000
  H   H3110     1.0  0.57922  0.78729  0.09161  1.0000
  C   C3870     1.0  0.77010  0.85358  0.08835  1.0000
  H   H3111     1.0  0.97352  0.76473  0.15014  1.0000
  H   H3112     1.0  0.90191  0.78463  0.94090  1.0000
  H   H3113     1.0  0.97099  0.94195  0.89089  1.0000
  C   C3871     1.0  0.72287  0.78376  0.29700  1.0000
  S   S514      1.0  0.81365  0.78190  0.93224  1.0000
  H   H3114     1.0  0.91813  0.87825  0.92605  1.0000
  C   C3872     1.0  0.94027  0.89719  0.17080  1.0000
  C   C3873     1.0  0.85864  0.93688  0.02890  1.0000
  C   C3874     1.0  0.93272  0.97219  0.02753  1.0000
  H   H3115     1.0  0.88031  0.79765  0.17145  1.0000
  C   C3875     1.0  0.85903  0.91833  0.01586  1.0000
  H   H3116     1.0  0.88868  0.75543  0.01558  1.0000
  Fe  Fe260     1.0  0.83985  0.79064  0.86441  1.0000
  H   H3117     1.0  0.71292  0.75466  0.99771  1.0000
  C   C3876     1.0  0.87130  0.85783  0.13870  1.0000
  C   C3877     1.0  0.70112  0.75481  0.10502  1.0000
  C   C3878     1.0  0.80357  0.79323  0.06219  1.0000
  C   C3879     1.0  0.87228  0.80119  0.99854  1.0000
  P   P131      1.0  0.88377  0.91456  0.01097  1.0000
  S   S515      1.0  0.80367  0.82463  0.89045  1.0000
  P   P132      1.0  0.88472  0.76908  0.32268  1.0000
  C   C3880     1.0  0.85648  0.87636  0.09007  1.0000
  C   C3881     1.0  0.87263  0.79934  0.86097  1.0000
  C   C3882     1.0  0.89700  0.89172  0.07337  1.0000
  C   C3883     1.0  0.98551  0.97692  0.95525  1.0000
  H   H3118     1.0  0.82217  0.96375  0.13723  1.0000
  C   C3884     1.0  0.88725  0.91488  0.33010  1.0000
  H   H3119     1.0  0.87313  0.94926  0.03569  1.0000
  C   C3885     1.0  0.87867  0.89286  0.06211  1.0000
  H   H3120     1.0  0.89312  0.83822  0.05653  1.0000
  C   C3886     1.0  0.75708  0.88033  0.26840  1.0000
  C   C3887     1.0  0.87154  0.76135  0.18969  1.0000
  H   H3121     1.0  0.73096  0.81032  0.18794  1.0000
  C   C3888     1.0  0.74053  0.86792  0.31062  1.0000
  H   H3122     1.0  0.96557  0.83191  0.32675  1.0000
  S   S516      1.0  0.98756  0.88094  0.05079  1.0000
  H   H3123     1.0  0.90043  0.88171  0.86632  1.0000
  H   H3124     1.0  0.95567  0.91145  0.96503  1.0000
  C   C3889     1.0  0.00696  0.89409  0.28243  1.0000
  S   S517      1.0  0.84233  0.80353  0.25789  1.0000
  C   C3890     1.0  0.85758  0.82825  0.99276  1.0000
  C   C3891     1.0  0.91961  0.95836  0.95646  1.0000
  C   C3892     1.0  0.74129  0.76309  0.87509  1.0000
  C   C3893     1.0  0.72253  0.79773  0.22131  1.0000
  H   H3125     1.0  0.93788  0.97746  0.05507  1.0000
  H   H3126     1.0  0.97783  0.96461  0.02684  1.0000
  H   H3127     1.0  0.95507  0.94792  0.24575  1.0000
  H   H3128     1.0  0.78945  0.76326  0.32113  1.0000
  H   H3129     1.0  0.74258  0.83067  0.97772  1.0000
  H   H3130     1.0  0.81964  0.79122  0.11317  1.0000
  C   C3894     1.0  0.79543  0.80309  0.12887  1.0000
  H   H3131     1.0  0.93315  0.78957  0.88052  1.0000
  C   C3895     1.0  0.96398  0.92964  0.96242  1.0000
  C   C3896     1.0  0.97415  0.78748  0.01116  1.0000
  S   S518      1.0  0.93314  0.84649  0.09949  1.0000
  H   H3132     1.0  0.80573  0.89291  0.00625  1.0000
  C   C3897     1.0  0.90230  0.75721  0.98940  1.0000
  H   H3133     1.0  0.88765  0.83713  0.24159  1.0000
  C   C3898     1.0  0.97291  0.80990  0.18147  1.0000
  C   C3899     1.0  0.90228  0.85383  0.22145  1.0000
  H   H3134     1.0  0.79774  0.80417  0.16078  1.0000
  H   H3135     1.0  0.87616  0.99632  0.10894  1.0000
  H   H3136     1.0  0.70846  0.84264  0.12668  1.0000
  C   C3900     1.0  0.99919  0.87043  0.23407  1.0000
  H   H3137     1.0  0.78680  0.79907  0.01458  1.0000
  C   C3901     1.0  0.83206  0.76101  0.84887  1.0000
  S   S519      1.0  0.85408  0.83001  0.85931  1.0000
  C   C3902     1.0  0.82642  0.77749  0.24768  1.0000
  C   C3903     1.0  0.97084  0.81886  0.33215  1.0000
  C   C3904     1.0  0.92069  0.75342  0.16254  1.0000
  H   H3138     1.0  0.83576  0.84645  0.14970  1.0000
  C   C3905     1.0  0.76550  0.86814  0.10880  1.0000
  H   H3139     1.0  0.87745  0.90167  0.86661  1.0000
  C   C3906     1.0  0.92151  0.76733  0.12251  1.0000
  S   S520      1.0  0.99580  0.99264  0.86494  1.0000
  S   S521      1.0  0.84061  0.83830  0.97148  1.0000
  C   C3907     1.0  0.82050  0.90514  0.01265  1.0000
  C   C3908     1.0  0.96608  0.93600  0.00075  1.0000
  C   C3909     1.0  0.96513  0.83989  0.87307  1.0000
  C   C3910     1.0  0.80832  0.86758  0.93620  1.0000
  Fe  Fe261     1.0  0.82824  0.82010  0.92310  1.0000
  H   H3140     1.0  0.95210  0.76573  0.89520  1.0000
  C   C3911     1.0  0.90973  0.77378  0.94720  1.0000
  C   C3912     1.0  0.94945  0.83619  0.91229  1.0000
  C   C3913     1.0  0.89771  0.88850  0.89310  1.0000
  H   H3141     1.0  0.68921  0.78176  0.84487  1.0000
  C   C3914     1.0  0.99347  0.88544  0.20837  1.0000
  C   C3915     1.0  0.93164  0.84083  0.90995  1.0000
  C   C3916     1.0  0.97304  0.79621  0.15420  1.0000
  C   C3917     1.0  0.98342  0.97584  0.19173  1.0000
  C   C3918     1.0  0.91112  0.91498  0.26447  1.0000
  C   C3919     1.0  0.72574  0.84591  0.11546  1.0000
  C   C3920     1.0  0.70068  0.76546  0.30793  1.0000
  S   S522      1.0  0.83739  0.85986  0.26070  1.0000
  C   C3921     1.0  0.00046  0.90860  0.25766  1.0000
  H   H3142     1.0  0.95127  0.83004  0.94460  1.0000
  C   C3922     1.0  0.88065  0.90794  0.92871  1.0000
  H   H3143     1.0  0.72154  0.78199  0.12828  1.0000
  S   S523      1.0  0.87231  0.76418  0.83790  1.0000
  H   H3144     1.0  0.62734  0.77788  0.01066  1.0000
  H   H3145     1.0  0.98611  0.81813  0.95424  1.0000
  C   C3923     1.0  0.95938  0.95760  0.13524  1.0000
  C   C3924     1.0  0.97635  0.95965  0.99728  1.0000
  C   C3925     1.0  0.90190  0.87437  0.22189  1.0000
  H   H3146     1.0  0.91769  0.76919  0.05755  1.0000
  H   H3147     1.0  0.91848  0.75932  0.27636  1.0000
  C   C3926     1.0  0.83516  0.93799  0.22271  1.0000
  C   C3927     1.0  0.92948  0.84916  0.86840  1.0000
  C   C3928     1.0  0.77212  0.85677  0.92283  1.0000
  C   C3929     1.0  0.70013  0.77990  0.23257  1.0000
  H   H3148     1.0  0.76242  0.85878  0.90077  1.0000
  C   C3930     1.0  0.58919  0.76090  0.10532  1.0000
  H   H3149     1.0  0.95513  0.99636  0.26124  1.0000
  C   C3931     1.0  0.99245  0.98712  0.14556  1.0000
  C   C3932     1.0  0.94059  0.87656  0.17051  1.0000
  C   C3933     1.0  0.90403  0.93050  0.17763  1.0000
  H   H3150     1.0  0.54635  0.76330  0.06993  1.0000
  S   S524      1.0  0.78547  0.85022  0.30133  1.0000
  C   C3934     1.0  0.90335  0.89438  0.96249  1.0000
  C   C3935     1.0  0.93737  0.98081  0.94827  1.0000
  H   H3151     1.0  0.98739  0.98670  0.08150  1.0000
  C   C3936     1.0  0.73457  0.85116  0.23855  1.0000
  C   C3937     1.0  0.78049  0.80956  0.11401  1.0000
  C   C3938     1.0  0.73282  0.78255  0.02036  1.0000
  H   H3152     1.0  0.74542  0.79254  0.98768  1.0000
  C   C3939     1.0  0.99007  0.80984  0.98174  1.0000
  H   H3153     1.0  0.99398  0.99521  0.95245  1.0000
  H   H3154     1.0  0.86640  0.94939  0.12140  1.0000
  C   C3940     1.0  0.76095  0.84067  0.96622  1.0000
  Fe  Fe262     1.0  0.93345  0.83210  0.04318  1.0000
  C   C3941     1.0  0.91514  0.94962  0.03571  1.0000
  C   C3942     1.0  0.73498  0.79081  0.05684  1.0000
  C   C3943     1.0  0.78890  0.80003  0.04682  1.0000
  S   S525      1.0  0.90307  0.80193  0.04014  1.0000
  H   H3155     1.0  0.81283  0.78734  0.04168  1.0000
  C   C3944     1.0  0.64066  0.75968  0.04968  1.0000
  S   S526      1.0  0.96375  0.82796  0.04643  1.0000
  C   C3945     1.0  0.92092  0.89623  0.19672  1.0000
  C   C3946     1.0  0.99369  0.90428  0.22062  1.0000
  C   C3947     1.0  0.93807  0.76321  0.92138  1.0000
  C   C3948     1.0  0.96216  0.95573  0.20987  1.0000
  C   C3949     1.0  0.87707  0.94423  0.13660  1.0000
  C   C3950     1.0  0.97365  0.77540  0.17092  1.0000
  C   C3951     1.0  0.80454  0.93934  0.31463  1.0000
  H   H3156     1.0  0.92101  0.96615  0.17800  1.0000
  S   S527      1.0  0.97188  0.83591  0.16401  1.0000
  C   C3952     1.0  0.55703  0.75624  0.07918  1.0000
  C   C3953     1.0  0.87288  0.92117  0.14626  1.0000
  H   H3157     1.0  0.85908  0.90855  0.13819  1.0000
  H   H3158     1.0  0.98880  0.91561  0.20123  1.0000
  S   S528      1.0  0.84315  0.98360  0.19801  1.0000
  C   C3954     1.0  0.97419  0.78223  0.24155  1.0000
  C   C3955     1.0  0.88239  0.78519  0.23713  1.0000
  H   H3159     1.0  0.99881  0.85584  0.22416  1.0000
  Fe  Fe263     1.0  0.80875  0.85823  0.23430  1.0000
  H   H3160     1.0  0.88971  0.93100  0.26301  1.0000
  C   C3956     1.0  0.75403  0.87193  0.23254  1.0000
  H   H3161     1.0  0.95350  0.84459  0.23806  1.0000
  H   H3162     1.0  0.75079  0.81410  0.24523  1.0000
  H   H3163     1.0  0.67023  0.75195  0.91965  1.0000
  C   C3957     1.0  0.74839  0.78441  0.84244  1.0000
  H   H3164     1.0  0.77261  0.89614  0.26306  1.0000
  H   H3165     1.0  0.97453  0.77685  0.27535  1.0000
  C   C3958     1.0  0.91774  0.90162  0.29240  1.0000
  H   H3166     1.0  0.82894  0.75529  0.30305  1.0000
  C   C3959     1.0  0.90553  0.79867  0.31504  1.0000
  Fe  Fe264     1.0  0.88043  0.98036  0.32139  1.0000
  H   H3167     1.0  0.83528  0.94589  0.33098  1.0000
  H   H3168     1.0  0.61789  0.75158  0.96527  1.0000
  C   C3960     1.0  0.66091  0.75119  0.89569  1.0000
