data_image0
_chemical_formula_structural       C3HSCHCSCHSHC3FeHCHC2HCH4C5HC3H5CH4PCFeCHCH2C3HFeSHFeSHFeSFeS3C5HCHCHC3HC4HCH2CHC3HC2HCHC4H2CHCHC4HSH2C2H2C2SHC2H2CH2CH3CPH3C2SCH3C2H4CH4FeS2FeSCSC2FeS2CFeHCSCHC7H4C2HPC2H2C4HFeH3C5HCH2C2SCHCSHC3H2C2FeC2HPCPH2C3H3CHC4SC2H3C4H3CHC3H5CHC4HC2HC2H2C2H2CHCH3C4HCH2C4HCHC2HC2HCH3PC2HC2SHCHC2HCHCHCHC2HCHC2H2SC6SH2C2H4C5HCSC2HC2H3C2HCHC2H2CHC2PC2HCHCHC4H4CFeSHFeS2FeSFeCSC2PCHC4H2C2HPSH2C4HC7HCH3CHCHCH3CH2C2HC2H2CH2CHC2HC3HCSH2CH4FeS2FeS2FeCFeS3CH3SCHC2HCHCHCH2C2HC3H3CHCHC3H2C6HCH2CHC2H3C2HC3HCHSC3H2CPH2C7H2CHC2HC5H2CH4C7SCH4CH2CH2CHCHC2HPC6HCHC2HC6H3C2H2C2HCH2C2H2CPHCHPCH3C2HC6HCHPHCH4C2HCH3C4HC2HC2H3C2H2C2H4CHC3H3CH3C2HC3HC2HC2HFeSFeC2FeSHSHFeS2HFe2HSHC6H4C2HC2HCHCSHC4HSC2HFeH2C2SH2FeSH2CHCHSC2H4CHCHC2PCFeS2CSHFeCFeHS2H2CHC5HCH2FeH4C2HC2SHCHC4SHCH3CHCH2CHSH2C5H4CH2CHC2PC3HC4HCHC2HC4HSHCH2C3HCHC3HC2H2CH2CHC2H2C2HC2SC2HCH2C2H
_chemical_formula_sum              "C480 H384 S64 Fe32 P16"
_cell_length_a       29.4014
_cell_length_b       32.3947
_cell_length_c       32.1808
_cell_angle_alpha    89.5606
_cell_angle_beta     90.5676
_cell_angle_gamma    89.5747

_space_group_name_H-M_alt    "P 1"
_space_group_IT_number       1

loop_
  _space_group_symop_operation_xyz
  'x, y, z'

loop_
  _atom_site_type_symbol
  _atom_site_label
  _atom_site_symmetry_multiplicity
  _atom_site_fract_x
  _atom_site_fract_y
  _atom_site_fract_z
  _atom_site_occupancy
  C   C1        1.0  0.04302  0.31663  0.06149  1.0000
  C   C2        1.0  0.11986  0.07278  0.46714  1.0000
  C   C3        1.0  0.45268  0.27320  0.32720  1.0000
  H   H1        1.0  0.41915  0.23264  0.28405  1.0000
  S   S1        1.0  0.40037  0.29362  0.34590  1.0000
  C   C4        1.0  0.09281  0.18416  0.50141  1.0000
  H   H2        1.0  0.99831  0.29373  0.25326  1.0000
  C   C5        1.0  0.48770  0.18632  0.46086  1.0000
  S   S2        1.0  0.31037  0.33806  0.41954  1.0000
  C   C6        1.0  0.47235  0.20724  0.03270  1.0000
  H   H3        1.0  0.25083  0.22937  0.48021  1.0000
  S   S3        1.0  0.41094  0.33691  0.46334  1.0000
  H   H4        1.0  0.47038  0.13981  0.13279  1.0000
  C   C7        1.0  0.49216  0.22637  0.27965  1.0000
  C   C8        1.0  0.14570  0.03860  0.45423  1.0000
  C   C9        1.0  0.45161  0.24308  0.29589  1.0000
  Fe  Fe1       1.0  0.38337  0.33894  0.39817  1.0000
  H   H5        1.0  0.48656  0.04996  0.23785  1.0000
  C   C10       1.0  0.47104  0.15880  0.10491  1.0000
  H   H6        1.0  0.24698  0.14256  0.38018  1.0000
  C   C11       1.0  0.23514  0.15250  0.41031  1.0000
  C   C12       1.0  0.07289  0.07384  0.45840  1.0000
  H   H7        1.0  0.09012  0.34787  0.16365  1.0000
  C   C13       1.0  0.20258  0.12935  0.43152  1.0000
  H   H8        1.0  0.18955  0.10186  0.41702  1.0000
  H   H9        1.0  0.48982  0.23210  0.41210  1.0000
  H   H10       1.0  0.07149  0.27536  0.01614  1.0000
  H   H11       1.0  0.49076  0.20319  0.25567  1.0000
  C   C14       1.0  0.20447  0.17862  0.48773  1.0000
  C   C15       1.0  0.25261  0.18843  0.42791  1.0000
  C   C16       1.0  0.05212  0.04093  0.43790  1.0000
  C   C17       1.0  0.05468  0.30473  0.02120  1.0000
  C   C18       1.0  0.23721  0.20149  0.46657  1.0000
  H   H12       1.0  0.46404  0.20392  0.47953  1.0000
  C   C19       1.0  0.42101  0.33415  0.21168  1.0000
  C   C20       1.0  0.44029  0.29683  0.19871  1.0000
  C   C21       1.0  0.48850  0.14253  0.06820  1.0000
  H   H13       1.0  0.41859  0.27206  0.18825  1.0000
  H   H14       1.0  0.11317  0.19580  0.47616  1.0000
  H   H15       1.0  0.05177  0.09932  0.46834  1.0000
  H   H16       1.0  0.27804  0.20628  0.41161  1.0000
  H   H17       1.0  0.44186  0.21195  0.13442  1.0000
  C   C22       1.0  0.18726  0.14197  0.47070  1.0000
  H   H18       1.0  0.44250  0.25502  0.07020  1.0000
  H   H19       1.0  0.18176  0.03671  0.46138  1.0000
  H   H20       1.0  0.38439  0.33775  0.21063  1.0000
  H   H21       1.0  0.01562  0.04109  0.43268  1.0000
  P   P1        1.0  0.14596  0.11195  0.49928  1.0000
  C   C23       1.0  0.48743  0.29099  0.20044  1.0000
  Fe  Fe2       1.0  0.33815  0.34117  0.48467  1.0000
  C   C24       1.0  0.45490  0.19943  0.10577  1.0000
  H   H22       1.0  0.46874  0.11929  0.26574  1.0000
  C   C25       1.0  0.45539  0.22363  0.06962  1.0000
  H   H23       1.0  0.05160  0.29642  0.08738  1.0000
  H   H24       1.0  0.44016  0.02238  0.11206  1.0000
  C   C26       1.0  0.48987  0.16679  0.03201  1.0000
  C   C27       1.0  0.00242  0.32662  0.19495  1.0000
  C   C28       1.0  0.99318  0.32577  0.15207  1.0000
  H   H25       1.0  0.47163  0.22610  0.00480  1.0000
  Fe  Fe3       1.0  0.05667  0.10235  0.66817  1.0000
  S   S4        1.0  0.12730  0.10903  0.64348  1.0000
  H   H26       1.0  0.09685  0.31079  0.63336  1.0000
  Fe  Fe4       1.0  0.07636  0.16358  0.73967  1.0000
  S   S5        1.0  0.14858  0.17424  0.71905  1.0000
  H   H27       1.0  0.25621  0.09963  0.61688  1.0000
  Fe  Fe5       1.0  0.11944  0.17719  0.65425  1.0000
  S   S6        1.0  0.13300  0.22626  0.60438  1.0000
  Fe  Fe6       1.0  0.15127  0.10535  0.71035  1.0000
  S   S7        1.0  0.21346  0.06464  0.72420  1.0000
  S   S8        1.0  0.04662  0.17113  0.67546  1.0000
  S   S9        1.0  0.08103  0.09415  0.73465  1.0000
  C   C29       1.0  0.18605  0.27395  0.55337  1.0000
  C   C30       1.0  0.14602  0.27655  0.82808  1.0000
  C   C31       1.0  0.18577  0.24661  0.58759  1.0000
  C   C32       1.0  0.22706  0.23634  0.60714  1.0000
  C   C33       1.0  0.26807  0.25333  0.59258  1.0000
  H   H28       1.0  0.22740  0.21539  0.63348  1.0000
  C   C34       1.0  0.10169  0.14514  0.51920  1.0000
  H   H29       1.0  0.19214  0.18205  0.80663  1.0000
  C   C35       1.0  0.23155  0.04677  0.77416  1.0000
  H   H30       1.0  0.22048  0.13533  0.55741  1.0000
  C   C36       1.0  0.38894  0.07133  0.93302  1.0000
  C   C37       1.0  0.12355  0.32349  0.75126  1.0000
  C   C38       1.0  0.20926  0.10461  0.56509  1.0000
  H   H31       1.0  0.10980  0.29024  0.88483  1.0000
  C   C39       1.0  0.25513  0.32399  0.69413  1.0000
  C   C40       1.0  0.21134  0.06063  0.81071  1.0000
  C   C41       1.0  0.26842  0.28036  0.55811  1.0000
  C   C42       1.0  0.16920  0.24549  0.80633  1.0000
  H   H32       1.0  0.16093  0.16646  0.87599  1.0000
  C   C43       1.0  0.33118  0.29509  0.69584  1.0000
  H   H33       1.0  0.35391  0.26917  0.70170  1.0000
  H   H34       1.0  0.08945  0.26476  0.75821  1.0000
  C   C44       1.0  0.04451  0.33069  0.98741  1.0000
  H   H35       1.0  0.99267  0.23775  0.74476  1.0000
  C   C45       1.0  0.15750  0.19733  0.86306  1.0000
  C   C46       1.0  0.46345  0.11618  0.96349  1.0000
  C   C47       1.0  0.17508  0.20615  0.82387  1.0000
  H   H36       1.0  0.36033  0.05380  0.92114  1.0000
  C   C48       1.0  0.39491  0.11244  0.92078  1.0000
  C   C49       1.0  0.22710  0.29062  0.53858  1.0000
  H   H37       1.0  0.29981  0.24530  0.60801  1.0000
  C   C50       1.0  0.12868  0.26743  0.86762  1.0000
  H   H38       1.0  0.06226  0.03402  0.57758  1.0000
  C   C51       1.0  0.17412  0.08553  0.54250  1.0000
  C   C52       1.0  0.41952  0.05291  0.96113  1.0000
  C   C53       1.0  0.13433  0.22794  0.88491  1.0000
  C   C54       1.0  0.02935  0.02122  0.57078  1.0000
  H   H39       1.0  0.38434  0.33406  0.67371  1.0000
  H   H40       1.0  0.19254  0.18965  0.51745  1.0000
  C   C55       1.0  0.43182  0.13498  0.93622  1.0000
  H   H41       1.0  0.11976  0.22072  0.91483  1.0000
  C   C56       1.0  0.01395  0.23254  0.80872  1.0000
  H   H42       1.0  0.18203  0.25137  0.77543  1.0000
  C   C57       1.0  0.09028  0.28452  0.69456  1.0000
  C   C58       1.0  0.03763  0.15499  0.56536  1.0000
  C   C59       1.0  0.00763  0.24803  0.84903  1.0000
  C   C60       1.0  0.28458  0.29093  0.70265  1.0000
  H   H43       1.0  0.27115  0.26177  0.71362  1.0000
  S   S10       1.0  0.05382  0.19187  0.80111  1.0000
  H   H44       1.0  0.21168  0.05715  0.87775  1.0000
  H   H45       1.0  0.07296  0.25732  0.68347  1.0000
  C   C61       1.0  0.18003  0.02615  0.58934  1.0000
  C   C62       1.0  0.09998  0.28880  0.73690  1.0000
  H   H46       1.0  0.00299  0.21360  0.56061  1.0000
  H   H47       1.0  0.18388  0.08300  0.80902  1.0000
  C   C63       1.0  0.10354  0.31491  0.66628  1.0000
  C   C64       1.0  0.07341  0.13064  0.55084  1.0000
  S   S11       1.0  0.32125  0.30051  0.54105  1.0000
  H   H48       1.0  0.15432  0.28197  0.53793  1.0000
  C   C65       1.0  0.21529  0.04520  0.61115  1.0000
  C   C66       1.0  0.15939  0.04623  0.55537  1.0000
  H   H49       1.0  0.07895  0.10046  0.56433  1.0000
  H   H50       1.0  0.37063  0.12676  0.89951  1.0000
  C   C67       1.0  0.45628  0.07537  0.97667  1.0000
  H   H51       1.0  0.23049  0.03019  0.63821  1.0000
  H   H52       1.0  0.23585  0.30120  0.80310  1.0000
  C   C68       1.0  0.22984  0.08439  0.59905  1.0000
  H   H53       1.0  0.13154  0.03110  0.53963  1.0000
  H   H54       1.0  0.43538  0.16702  0.92717  1.0000
  H   H55       1.0  0.02750  0.23533  0.87459  1.0000
  C   C69       1.0  0.22712  0.04582  0.84966  1.0000
  P   P2        1.0  0.13938  0.32765  0.80547  1.0000
  H   H56       1.0  0.04189  0.34368  0.78783  1.0000
  H   H57       1.0  0.01640  0.14348  0.59017  1.0000
  H   H58       1.0  0.21895  0.32016  0.69839  1.0000
  C   C70       1.0  0.23441  0.33437  0.80583  1.0000
  C   C71       1.0  0.05736  0.20879  0.51639  1.0000
  S   S12       1.0  0.99857  0.06296  0.64110  1.0000
  C   C72       1.0  0.02990  0.19428  0.54848  1.0000
  H   H59       1.0  0.05289  0.32142  0.95609  1.0000
  H   H60       1.0  0.47899  0.06087  0.99914  1.0000
  H   H61       1.0  0.22683  0.31112  0.51189  1.0000
  C   C73       1.0  0.34832  0.33210  0.67994  1.0000
  C   C74       1.0  0.26726  0.01772  0.77708  1.0000
  H   H62       1.0  0.12398  0.02535  0.91960  1.0000
  H   H63       1.0  0.12529  0.02399  0.68276  1.0000
  H   H64       1.0  0.07471  0.02886  0.85649  1.0000
  H   H65       1.0  0.30740  0.33969  0.80436  1.0000
  C   C75       1.0  0.99312  0.02950  0.59735  1.0000
  H   H66       1.0  0.41470  0.02117  0.97108  1.0000
  H   H67       1.0  0.05163  0.23939  0.50353  1.0000
  H   H68       1.0  0.49223  0.13551  0.50418  1.0000
  H   H69       1.0  0.07512  0.67270  0.02819  1.0000
  Fe  Fe7       1.0  0.07850  0.59936  0.16431  1.0000
  S   S13       1.0  0.14896  0.58964  0.13973  1.0000
  S   S14       1.0  0.08052  0.66830  0.15652  1.0000
  Fe  Fe8       1.0  0.17260  0.59647  0.20640  1.0000
  S   S15       1.0  0.23236  0.55710  0.23125  1.0000
  C   C76       1.0  0.03142  0.58977  0.46183  1.0000
  S   S16       1.0  0.10172  0.60156  0.23163  1.0000
  C   C77       1.0  0.99464  0.54611  0.41093  1.0000
  C   C78       1.0  0.00337  0.56322  0.26919  1.0000
  Fe  Fe9       1.0  0.31460  0.40761  0.41874  1.0000
  S   S17       1.0  0.38560  0.40854  0.39370  1.0000
  S   S18       1.0  0.25254  0.44454  0.39513  1.0000
  C   C79       1.0  0.46883  0.48204  0.14461  1.0000
  Fe  Fe10      1.0  0.40885  0.40652  0.46095  1.0000
  H   H70       1.0  0.09023  0.49935  0.13913  1.0000
  C   C80       1.0  0.09860  0.60960  0.37092  1.0000
  S   S19       1.0  0.47206  0.44044  0.48479  1.0000
  C   C81       1.0  0.01563  0.65741  0.06353  1.0000
  H   H71       1.0  0.35584  0.65473  0.11253  1.0000
  C   C82       1.0  0.30019  0.64922  0.06911  1.0000
  C   C83       1.0  0.23692  0.52561  0.27677  1.0000
  C   C84       1.0  0.19909  0.51494  0.30049  1.0000
  C   C85       1.0  0.20452  0.48995  0.33639  1.0000
  C   C86       1.0  0.24770  0.47511  0.34897  1.0000
  C   C87       1.0  0.28548  0.48550  0.32505  1.0000
  C   C88       1.0  0.28004  0.51048  0.28916  1.0000
  H   H72       1.0  0.16572  0.52625  0.29138  1.0000
  H   H73       1.0  0.17506  0.48220  0.35464  1.0000
  H   H74       1.0  0.31889  0.47431  0.33420  1.0000
  H   H75       1.0  0.30949  0.51834  0.27099  1.0000
  C   C89       1.0  0.05364  0.44266  0.13026  1.0000
  C   C90       1.0  0.03583  0.53729  0.06651  1.0000
  H   H76       1.0  0.06895  0.55083  0.07147  1.0000
  P   P3        1.0  0.03839  0.61640  0.37991  1.0000
  C   C91       1.0  0.02032  0.35430  0.06805  1.0000
  C   C92       1.0  0.44885  0.36587  0.22671  1.0000
  H   H77       1.0  0.01570  0.53808  0.25016  1.0000
  H   H78       1.0  0.05205  0.51391  0.00567  1.0000
  C   C93       1.0  0.08998  0.46629  0.14484  1.0000
  C   C94       1.0  0.12590  0.44741  0.16664  1.0000
  C   C95       1.0  0.49146  0.44917  0.36969  1.0000
  C   C96       1.0  0.02618  0.51621  0.02922  1.0000
  H   H79       1.0  0.22715  0.59424  0.34703  1.0000
  Fe  Fe11      1.0  0.15279  0.65920  0.13550  1.0000
  H   H80       1.0  0.25892  0.42961  0.21513  1.0000
  H   H81       1.0  0.05206  0.55199  0.31815  1.0000
  H   H82       1.0  0.15395  0.46594  0.17798  1.0000
  C   C97       1.0  0.43189  0.45480  0.20623  1.0000
  C   C98       1.0  0.27189  0.39777  0.27304  1.0000
  C   C99       1.0  0.47231  0.47982  0.34414  1.0000
  C   C100      1.0  0.08933  0.38098  0.15885  1.0000
  C   C101      1.0  0.45247  0.46939  0.30597  1.0000
  H   H83       1.0  0.19274  0.55729  0.40644  1.0000
  C   C102      1.0  0.19151  0.59902  0.35415  1.0000
  H   H84       1.0  0.37641  0.37339  0.31199  1.0000
  H   H85       1.0  0.41008  0.67951  0.05979  1.0000
  C   C103      1.0  0.46328  0.45036  0.17389  1.0000
  C   C104      1.0  0.47053  0.39741  0.31919  1.0000
  S   S20       1.0  0.33800  0.41076  0.48588  1.0000
  C   C105      1.0  0.33079  0.42078  0.22631  1.0000
  H   H86       1.0  0.33977  0.43524  0.19718  1.0000
  C   C106      1.0  0.17199  0.57821  0.38766  1.0000
  S   S21       1.0  0.01408  0.56398  0.14623  1.0000
  H   H87       1.0  0.48349  0.42253  0.17097  1.0000
  C   C107      1.0  0.11848  0.63001  0.33717  1.0000
  C   C108      1.0  0.99373  0.52727  0.48396  1.0000
  C   C109      1.0  0.28592  0.65409  0.02784  1.0000
  H   H88       1.0  0.38148  0.49566  0.23307  1.0000
  H   H89       1.0  0.47316  0.57155  0.49138  1.0000
  C   C110      1.0  0.02400  0.57139  0.30760  1.0000
  C   C111      1.0  0.01994  0.58151  0.42027  1.0000
  Fe  Fe12      1.0  0.10826  0.67030  0.22161  1.0000
  C   C112      1.0  0.49089  0.40803  0.35708  1.0000
  C   C113      1.0  0.34512  0.65789  0.08035  1.0000
  H   H90       1.0  0.02656  0.45768  0.11270  1.0000
  P   P4        1.0  0.00484  0.37003  0.11968  1.0000
  C   C114      1.0  0.16473  0.62483  0.32886  1.0000
  P   P5        1.0  0.42434  0.41402  0.24433  1.0000
  H   H91       1.0  0.44723  0.54278  0.12448  1.0000
  H   H92       1.0  0.05124  0.61679  0.46955  1.0000
  C   C115      1.0  0.41165  0.52299  0.17923  1.0000
  C   C116      1.0  0.36448  0.40665  0.25445  1.0000
  C   C117      1.0  0.45149  0.42805  0.29302  1.0000
  H   H93       1.0  0.43716  0.49367  0.28734  1.0000
  H   H94       1.0  0.23630  0.39584  0.28121  1.0000
  H   H95       1.0  0.25071  0.64826  0.01953  1.0000
  C   C118      1.0  0.40618  0.49148  0.20864  1.0000
  H   H96       1.0  0.39132  0.55098  0.18122  1.0000
  C   C119      1.0  0.05232  0.40005  0.13828  1.0000
  C   C120      1.0  0.35118  0.38608  0.29077  1.0000
  C   C121      1.0  0.36135  0.67767  0.00894  1.0000
  C   C122      1.0  0.28470  0.41690  0.23594  1.0000
  S   S22       1.0  0.18128  0.66551  0.20024  1.0000
  C   C123      1.0  0.30512  0.38188  0.30015  1.0000
  C   C124      1.0  0.12578  0.40469  0.17332  1.0000
  H   H97       1.0  0.11135  0.56638  0.42176  1.0000
  H   H98       1.0  0.46842  0.36512  0.31104  1.0000
  H   H99       1.0  0.27597  0.63961  0.09245  1.0000
  C   C125      1.0  0.44302  0.51832  0.14725  1.0000
  C   C126      1.0  0.12568  0.58341  0.39611  1.0000
  C   C127      1.0  0.37568  0.67193  0.05040  1.0000
  C   C128      1.0  0.00956  0.60517  0.33140  1.0000
  H   H100      1.0  0.15404  0.39000  0.18963  1.0000
  H   H101      1.0  0.47177  0.51157  0.35447  1.0000
  H   H102      1.0  0.29523  0.36704  0.32894  1.0000
  C   C129      1.0  0.01837  0.56272  0.49354  1.0000
  H   H103      1.0  0.99506  0.41027  0.03868  1.0000
  C   C130      1.0  0.00282  0.54031  0.09740  1.0000
  C   C131      1.0  0.02577  0.66791  0.39811  1.0000
  C   C132      1.0  0.01147  0.38063  0.03416  1.0000
  H   H104      1.0  0.01801  0.35336  0.20898  1.0000
  H   H105      1.0  0.01392  0.62603  0.05214  1.0000
  H   H106      1.0  0.17962  0.64036  0.30234  1.0000
  H   H107      1.0  0.09799  0.64969  0.31702  1.0000
  H   H108      1.0  0.43179  0.61954  0.00458  1.0000
  C   C133      1.0  0.24678  0.40826  0.55040  1.0000
  H   H109      1.0  0.01206  0.67146  0.51774  1.0000
  C   C134      1.0  0.27482  0.39915  0.80986  1.0000
  C   C135      1.0  0.37462  0.52116  0.70073  1.0000
  C   C136      1.0  0.30315  0.46698  0.58730  1.0000
  C   C137      1.0  0.07266  0.39810  0.89130  1.0000
  H   H110      1.0  0.45043  0.36667  0.54033  1.0000
  C   C138      1.0  0.23339  0.42041  0.81203  1.0000
  C   C139      1.0  0.05134  0.35915  0.81633  1.0000
  H   H111      1.0  0.32547  0.49000  0.60027  1.0000
  C   C140      1.0  0.45003  0.62634  0.97637  1.0000
  C   C141      1.0  0.43461  0.49237  0.54444  1.0000
  H   H112      1.0  0.13968  0.37252  0.88428  1.0000
  H   H113      1.0  0.40173  0.48494  0.53123  1.0000
  C   C142      1.0  0.44121  0.66283  0.95376  1.0000
  C   C143      1.0  0.12563  0.35022  0.68043  1.0000
  H   H114      1.0  0.29013  0.43231  0.72248  1.0000
  H   H115      1.0  0.24867  0.38614  0.67106  1.0000
  C   C144      1.0  0.48046  0.53147  0.59455  1.0000
  H   H116      1.0  0.27550  0.50936  0.54149  1.0000
  C   C145      1.0  0.13535  0.35468  0.72282  1.0000
  H   H117      1.0  0.39465  0.48728  0.64716  1.0000
  H   H118      1.0  0.30395  0.67270  0.96632  1.0000
  H   H119      1.0  0.13561  0.37384  0.65841  1.0000
  C   C146      1.0  0.02883  0.40170  0.87442  1.0000
  C   C147      1.0  0.27550  0.39685  0.58350  1.0000
  C   C148      1.0  0.47393  0.47428  0.52817  1.0000
  C   C149      1.0  0.40239  0.38525  0.58678  1.0000
  H   H120      1.0  0.16068  0.41587  0.81181  1.0000
  C   C150      1.0  0.43522  0.40948  0.65138  1.0000
  H   H121      1.0  0.23290  0.45374  0.81459  1.0000
  H   H122      1.0  0.27663  0.36477  0.59315  1.0000
  C   C151      1.0  0.02335  0.36878  0.99403  1.0000
  C   C152      1.0  0.31889  0.36541  0.67083  1.0000
  C   C153      1.0  0.34238  0.45492  0.68135  1.0000
  C   C154      1.0  0.27529  0.35619  0.80647  1.0000
  H   H123      1.0  0.08069  0.41326  0.92037  1.0000
  C   C155      1.0  0.09569  0.35598  0.83268  1.0000
  H   H124      1.0  0.34808  0.54881  0.75607  1.0000
  C   C156      1.0  0.24636  0.44890  0.53557  1.0000
  C   C157      1.0  0.46561  0.67041  0.91721  1.0000
  H   H125      1.0  0.37327  0.37761  0.56756  1.0000
  C   C158      1.0  0.43797  0.52106  0.57714  1.0000
  C   C159      1.0  0.27471  0.47819  0.55389  1.0000
  H   H126      1.0  0.00292  0.41945  0.89040  1.0000
  C   C160      1.0  0.19244  0.39872  0.81094  1.0000
  H   H127      1.0  0.30660  0.41591  0.81072  1.0000
  H   H128      1.0  0.39844  0.54595  0.69463  1.0000
  H   H129      1.0  0.40748  0.53572  0.58866  1.0000
  P   P6        1.0  0.34018  0.41170  0.64600  1.0000
  C   C161      1.0  0.31590  0.49058  0.74288  1.0000
  C   C162      1.0  0.34634  0.52268  0.73529  1.0000
  H   H130      1.0  0.22613  0.38517  0.53523  1.0000
  C   C163      1.0  0.30335  0.42629  0.60280  1.0000
  C   C164      1.0  0.37248  0.48762  0.67381  1.0000
  S   S23       1.0  0.48290  0.56811  0.63555  1.0000
  H   H131      1.0  0.43179  0.42090  0.68272  1.0000
  C   C165      1.0  0.39664  0.40201  0.62643  1.0000
  H   H132      1.0  0.29382  0.49206  0.76954  1.0000
  C   C166      1.0  0.31391  0.45675  0.71607  1.0000
  C   C167      1.0  0.01826  0.38226  0.83700  1.0000
  H   H133      1.0  0.15263  0.38217  0.73310  1.0000
  C   C168      1.0  0.47886  0.40327  0.63561  1.0000
  H   H134      1.0  0.01541  0.38911  0.96805  1.0000
  C   C169      1.0  0.48271  0.59805  0.96251  1.0000
  H   H135      1.0  0.47388  0.62614  0.54499  1.0000
  C   C170      1.0  0.27215  0.36120  0.67857  1.0000
  H   H136      1.0  0.02798  0.56894  0.52548  1.0000
  C   C171      1.0  0.31628  0.66821  0.99782  1.0000
  C   C172      1.0  0.10594  0.37519  0.87066  1.0000
  H   H137      1.0  0.22545  0.45725  0.50880  1.0000
  C   C173      1.0  0.44609  0.37846  0.57140  1.0000
  H   H138      1.0  0.48939  0.56992  0.98000  1.0000
  C   C174      1.0  0.19257  0.35541  0.80837  1.0000
  C   C175      1.0  0.48427  0.38808  0.59547  1.0000
  H   H139      1.0  0.38167  0.67016  0.88575  1.0000
  H   H140      1.0  0.21465  0.79969  0.16487  1.0000
  S   S24       1.0  0.09244  0.72131  0.26892  1.0000
  C   C176      1.0  0.99798  0.72423  0.27775  1.0000
  C   C177      1.0  0.11850  0.81489  0.10680  1.0000
  C   C178      1.0  0.10306  0.77291  0.16752  1.0000
  C   C179      1.0  0.14861  0.77576  0.17987  1.0000
  C   C180      1.0  0.08729  0.79337  0.13157  1.0000
  C   C181      1.0  0.04017  0.74052  0.28915  1.0000
  S   S25       1.0  0.17376  0.68906  0.07360  1.0000
  H   H141      1.0  0.16023  0.76020  0.20802  1.0000
  H   H142      1.0  0.18843  0.83321  0.09943  1.0000
  C   C182      1.0  0.21372  0.72878  0.06298  1.0000
  C   C183      1.0  0.24375  0.74346  0.09330  1.0000
  H   H143      1.0  0.06146  0.98097  0.41079  1.0000
  H   H144      1.0  0.10805  0.82919  0.07775  1.0000
  H   H145      1.0  0.04170  0.81983  0.20262  1.0000
  H   H146      1.0  0.07999  0.75490  0.18626  1.0000
  C   C184      1.0  0.21586  0.74550  0.02249  1.0000
  C   C185      1.0  0.04127  0.77296  0.31801  1.0000
  C   C186      1.0  0.17915  0.79811  0.15570  1.0000
  C   C187      1.0  0.01169  0.90015  0.05638  1.0000
  C   C188      1.0  0.00111  0.81673  0.03673  1.0000
  H   H147      1.0  0.24300  0.73053  0.12437  1.0000
  C   C189      1.0  0.16422  0.81728  0.11894  1.0000
  S   S26       1.0  0.31505  0.83332  0.03357  1.0000
  C   C190      1.0  0.04936  0.73737  0.41597  1.0000
  C   C191      1.0  0.00094  0.78830  0.33604  1.0000
  H   H148      1.0  0.41299  0.81678  0.06888  1.0000
  C   C192      1.0  0.27630  0.79237  0.04322  1.0000
  C   C193      1.0  0.27463  0.77517  0.08350  1.0000
  H   H149      1.0  0.07365  0.78611  0.32681  1.0000
  H   H150      1.0  0.29729  0.78660  0.10740  1.0000
  H   H151      1.0  0.42749  0.97937  0.04941  1.0000
  C   C194      1.0  0.24694  0.77708  0.01261  1.0000
  C   C195      1.0  0.05306  0.72374  0.06565  1.0000
  H   H152      1.0  0.07525  0.76100  0.41656  1.0000
  C   C196      1.0  0.46104  0.99117  0.05623  1.0000
  H   H153      1.0  0.08080  0.74315  0.05559  1.0000
  C   C197      1.0  0.40789  0.76569  0.02675  1.0000
  C   C198      1.0  0.43023  0.79880  0.04539  1.0000
  H   H154      1.0  0.09361  0.69236  0.38924  1.0000
  H   H155      1.0  0.00251  0.81308  0.35833  1.0000
  C   C199      1.0  0.00594  0.81474  0.19689  1.0000
  H   H156      1.0  0.14475  0.97928  0.42424  1.0000
  C   C200      1.0  0.05953  0.69830  0.40014  1.0000
  C   C201      1.0  0.01567  0.82782  0.07679  1.0000
  P   P7        1.0  0.02819  0.78929  0.11606  1.0000
  C   C202      1.0  0.02194  0.73781  0.09535  1.0000
  C   C203      1.0  0.02050  0.86972  0.08652  1.0000
  H   H157      1.0  0.03152  0.87877  0.11737  1.0000
  C   C204      1.0  0.00538  0.74661  0.42930  1.0000
  H   H158      1.0  0.37369  0.75852  0.03658  1.0000
  C   C205      1.0  0.47370  0.80988  0.03249  1.0000
  H   H159      1.0  0.01594  0.93242  0.06404  1.0000
  C   C206      1.0  0.07799  0.00691  0.42561  1.0000
  C   C207      1.0  0.12483  0.00591  0.43344  1.0000
  C   C208      1.0  0.04988  0.68375  0.04986  1.0000
  C   C209      1.0  0.99772  0.88892  0.01641  1.0000
  H   H160      1.0  0.99652  0.69993  0.25495  1.0000
  H   H161      1.0  0.49033  0.83636  0.04617  1.0000
  H   H162      1.0  0.99714  0.77736  0.44014  1.0000
  H   H163      1.0  0.99657  0.78467  0.02854  1.0000
  C   C210      1.0  0.46833  0.01569  0.09175  1.0000
  Fe  Fe13      1.0  0.34088  0.86958  0.97694  1.0000
  S   S27       1.0  0.41235  0.85721  0.95481  1.0000
  H   H164      1.0  0.08664  0.98034  0.79925  1.0000
  Fe  Fe14      1.0  0.32975  0.94526  0.91823  1.0000
  S   S28       1.0  0.40028  0.93782  0.89299  1.0000
  S   S29       1.0  0.28009  0.99803  0.90256  1.0000
  Fe  Fe15      1.0  0.38471  0.86975  0.89072  1.0000
  S   S30       1.0  0.39809  0.83350  0.83119  1.0000
  Fe  Fe16      1.0  0.42239  0.92601  0.95950  1.0000
  C   C211      1.0  0.30697  0.88643  0.77130  1.0000
  S   S31       1.0  0.31212  0.87811  0.91224  1.0000
  C   C212      1.0  0.42895  0.74302  0.99515  1.0000
  C   C213      1.0  0.16416  0.97456  0.89724  1.0000
  P   P8        1.0  0.39951  0.70015  0.97134  1.0000
  C   C214      1.0  0.36311  0.69863  0.89037  1.0000
  H   H165      1.0  0.06988  0.76088  0.82851  1.0000
  C   C215      1.0  0.33843  0.75517  0.93371  1.0000
  C   C216      1.0  0.26224  0.01610  0.85256  1.0000
  C   C217      1.0  0.28254  0.86707  0.80279  1.0000
  C   C218      1.0  0.14484  0.94961  0.82828  1.0000
  H   H166      1.0  0.21811  0.86054  0.83246  1.0000
  H   H167      1.0  0.16645  0.82921  0.75682  1.0000
  C   C219      1.0  0.30985  0.76923  0.90155  1.0000
  C   C220      1.0  0.08817  0.96904  0.66728  1.0000
  H   H168      1.0  0.18635  0.97361  0.92438  1.0000
  P   P9        1.0  0.15350  0.91349  0.78640  1.0000
  S   S32       1.0  0.35294  0.93786  0.98509  1.0000
  H   H169      1.0  0.33844  0.77137  0.96305  1.0000
  H   H170      1.0  0.42201  0.79180  0.75616  1.0000
  C   C221      1.0  0.10151  0.00581  0.85894  1.0000
  C   C222      1.0  0.30949  0.74932  0.86325  1.0000
  C   C223      1.0  0.07167  0.82636  0.83982  1.0000
  C   C224      1.0  0.12869  0.93438  0.73898  1.0000
  H   H171      1.0  0.29987  0.84578  0.82382  1.0000
  C   C225      1.0  0.13778  0.97529  0.72729  1.0000
  C   C226      1.0  0.43908  0.79416  0.82141  1.0000
  C   C227      1.0  0.14013  0.82871  0.78017  1.0000
  C   C228      1.0  0.47257  0.75465  0.98208  1.0000
  C   C229      1.0  0.09912  0.91085  0.71424  1.0000
  C   C230      1.0  0.21377  0.90355  0.78054  1.0000
  C   C231      1.0  0.23856  0.92260  0.74868  1.0000
  H   H172      1.0  0.30408  0.92946  0.72008  1.0000
  C   C232      1.0  0.23623  0.87561  0.80752  1.0000
  H   H173      1.0  0.13039  0.76304  0.77533  1.0000
  H   H174      1.0  0.28852  0.76123  0.83797  1.0000
  H   H175      1.0  0.28344  0.00716  0.74903  1.0000
  C   C233      1.0  0.47617  0.74864  0.77111  1.0000
  H   H176      1.0  0.15996  0.99411  0.74623  1.0000
  C   C234      1.0  0.28497  0.91409  0.74421  1.0000
  H   H177      1.0  0.20059  0.92641  0.86683  1.0000
  C   C235      1.0  0.11968  0.79121  0.79048  1.0000
  H   H178      1.0  0.22266  0.94452  0.72755  1.0000
  H   H179      1.0  0.24773  0.78994  0.98154  1.0000
  H   H180      1.0  0.28791  0.79560  0.90638  1.0000
  C   C236      1.0  0.07888  0.92825  0.67856  1.0000
  H   H181      1.0  0.30928  0.97928  0.81764  1.0000
  H   H182      1.0  0.09110  0.87936  0.72251  1.0000
  C   C237      1.0  0.08557  0.79000  0.82040  1.0000
  C   C238      1.0  0.44369  0.77937  0.78062  1.0000
  H   H183      1.0  0.07195  0.98272  0.64007  1.0000
  C   C239      1.0  0.11792  0.99239  0.69145  1.0000
  C   C240      1.0  0.09204  0.86394  0.82957  1.0000
  H   H184      1.0  0.08075  0.89176  0.84491  1.0000
  H   H185      1.0  0.04517  0.82540  0.86296  1.0000
  C   C241      1.0  0.12686  0.86526  0.80004  1.0000
  H   H186      1.0  0.05559  0.91032  0.65977  1.0000
  H   H187      1.0  0.45909  0.69815  0.89920  1.0000
  C   C242      1.0  0.10892  0.97852  0.82619  1.0000
  H   H188      1.0  0.48943  0.73877  0.95717  1.0000
  C   C243      1.0  0.17232  0.94781  0.86420  1.0000
  C   C244      1.0  0.36586  0.72003  0.92819  1.0000
  H   H189      1.0  0.34308  0.88018  0.76822  1.0000
  C   C245      1.0  0.46747  0.77788  0.85269  1.0000
  C   C246      1.0  0.12910  0.00379  0.89449  1.0000
  C   C247      1.0  0.02321  0.99562  0.53587  1.0000
  H   H190      1.0  0.46452  0.78911  0.88414  1.0000
  C   C248      1.0  0.28214  0.00199  0.81596  1.0000
  S   S33       1.0  0.48967  0.95245  0.98367  1.0000
  H   H191      1.0  0.33554  0.69828  0.82808  1.0000
  H   H192      1.0  0.47904  0.73737  0.73968  1.0000
  C   C249      1.0  0.33602  0.71393  0.85770  1.0000
  H   H193      1.0  0.00496  0.73996  0.55101  1.0000
  H   H194      1.0  0.05160  0.98968  0.51560  1.0000
  H   H195      1.0  0.19313  0.73408  0.99867  1.0000
  H   H196      1.0  0.16808  0.99616  0.59934  1.0000
  Fe  Fe17      1.0  0.64660  0.16939  0.13631  1.0000
  S   S34       1.0  0.57403  0.17240  0.15837  1.0000
  S   S35       1.0  0.66170  0.20508  0.07618  1.0000
  Fe  Fe18      1.0  0.67408  0.10657  0.20520  1.0000
  S   S36       1.0  0.60353  0.10544  0.23102  1.0000
  S   S37       1.0  0.73711  0.07154  0.23001  1.0000
  Fe  Fe19      1.0  0.57937  0.10304  0.16418  1.0000
  C   C250      1.0  0.80636  0.05833  0.42612  1.0000
  Fe  Fe20      1.0  0.60329  0.17460  0.22313  1.0000
  S   S38       1.0  0.58673  0.22024  0.27524  1.0000
  S   S39       1.0  0.65005  0.09966  0.13870  1.0000
  S   S40       1.0  0.67592  0.17619  0.20059  1.0000
  C   C251      1.0  0.70561  0.02342  0.29624  1.0000
  H   H197      1.0  0.67870  0.25863  0.00647  1.0000
  H   H198      1.0  0.49631  0.30897  0.36670  1.0000
  H   H199      1.0  0.88649  0.02648  0.35756  1.0000
  S   S41       1.0  0.82651  0.32594  0.03400  1.0000
  C   C252      1.0  0.65720  0.06222  0.41004  1.0000
  H   H200      1.0  0.64873  0.10022  0.31061  1.0000
  C   C253      1.0  0.53436  0.24003  0.29423  1.0000
  C   C254      1.0  0.82886  0.05338  0.38840  1.0000
  H   H201      1.0  0.71283  0.02174  0.42658  1.0000
  C   C255      1.0  0.49491  0.28629  0.34229  1.0000
  H   H202      1.0  0.65723  0.10904  0.05148  1.0000
  C   C256      1.0  0.70612  0.24095  0.06649  1.0000
  H   H203      1.0  0.68751  0.23155  0.37989  1.0000
  C   C257      1.0  0.74214  0.24665  0.09450  1.0000
  H   H204      1.0  0.80616  0.27700  0.10596  1.0000
  H   H205      1.0  0.74251  0.23011  0.12381  1.0000
  C   C258      1.0  0.80481  0.15643  0.12587  1.0000
  C   C259      1.0  0.53544  0.26997  0.32571  1.0000
  H   H206      1.0  0.56790  0.28046  0.33749  1.0000
  C   C260      1.0  0.65647  0.12900  0.32570  1.0000
  C   C261      1.0  0.54769  0.14025  0.41148  1.0000
  C   C262      1.0  0.60980  0.06633  0.40548  1.0000
  H   H207      1.0  0.54535  0.03534  0.41303  1.0000
  H   H208      1.0  0.63659  0.14609  0.49129  1.0000
  H   H209      1.0  0.54513  0.09514  0.46162  1.0000
  C   C263      1.0  0.77497  0.12492  0.06340  1.0000
  H   H210      1.0  0.95934  0.23320  0.22280  1.0000
  C   C264      1.0  0.64285  0.17908  0.37968  1.0000
  H   H211      1.0  0.81404  0.06595  0.35998  1.0000
  C   C265      1.0  0.83632  0.17815  0.10210  1.0000
  C   C266      1.0  0.74225  0.28962  0.01829  1.0000
  C   C267      1.0  0.53238  0.17953  0.39848  1.0000
  H   H212      1.0  0.77428  0.07469  0.42582  1.0000
  H   H213      1.0  0.75091  0.10419  0.04899  1.0000
  C   C268      1.0  0.51874  0.11526  0.31508  1.0000
  C   C269      1.0  0.67623  0.02559  0.42567  1.0000
  C   C270      1.0  0.74263  0.03541  0.27206  1.0000
  C   C271      1.0  0.70630  0.26280  0.02845  1.0000
  C   C272      1.0  0.50225  0.20224  0.42287  1.0000
  C   C273      1.0  0.80620  0.14695  0.03920  1.0000
  H   H214      1.0  0.93959  0.23282  0.14764  1.0000
  C   C274      1.0  0.53874  0.03703  0.28371  1.0000
  H   H215      1.0  0.54367  0.19265  0.36933  1.0000
  H   H216      1.0  0.50081  0.11097  0.06807  1.0000
  C   C275      1.0  0.82495  0.04149  0.46299  1.0000
  H   H217      1.0  0.71270  0.14155  0.28534  1.0000
  C   C276      1.0  0.77867  0.29476  0.04605  1.0000
  C   C277      1.0  0.63042  0.14259  0.35926  1.0000
  H   H218      1.0  0.71159  0.17398  0.47088  1.0000
  H   H219      1.0  0.86240  0.18994  0.04126  1.0000
  H   H220      1.0  0.62451  0.18964  0.40657  1.0000
  C   C278      1.0  0.95776  0.25870  0.16076  1.0000
  C   C279      1.0  0.56329  0.05209  0.31778  1.0000
  H   H221      1.0  0.67991  0.08643  0.40020  1.0000
  C   C280      1.0  0.63189  0.09967  0.02891  1.0000
  C   C281      1.0  0.77822  0.27327  0.08424  1.0000
  C   C282      1.0  0.99077  0.29308  0.22025  1.0000
  H   H222      1.0  0.67195  0.03478  0.28842  1.0000
  C   C283      1.0  0.59147  0.12236  0.02468  1.0000
  H   H223      1.0  0.80365  0.16043  0.15927  1.0000
  S   S42       1.0  0.51865  0.06270  0.14629  1.0000
  C   C284      1.0  0.96947  0.29214  0.13539  1.0000
  C   C285      1.0  0.55314  0.09123  0.33424  1.0000
  C   C286      1.0  0.53347  0.12481  0.45015  1.0000
  H   H224      1.0  0.75010  0.11281  0.12518  1.0000
  H   H225      1.0  0.95938  0.29204  0.10288  1.0000
  C   C287      1.0  0.58188  0.03341  0.41762  1.0000
  P   P10       1.0  0.58515  0.11045  0.37852  1.0000
  H   H226      1.0  0.73167  0.20787  0.31906  1.0000
  H   H227      1.0  0.78145  0.13216  0.48156  1.0000
  C   C288      1.0  0.77434  0.12969  0.10655  1.0000
  C   C289      1.0  0.83740  0.17314  0.05896  1.0000
  C   C290      1.0  0.67909  0.20269  0.36506  1.0000
  C   C291      1.0  0.70403  0.18939  0.33085  1.0000
  C   C292      1.0  0.69310  0.15225  0.31157  1.0000
  C   C293      1.0  0.50442  0.06109  0.26520  1.0000
  C   C294      1.0  0.70942  0.14340  0.48459  1.0000
  H   H228      1.0  0.58615  0.14889  0.04444  1.0000
  H   H229      1.0  0.85953  0.19929  0.11704  1.0000
  C   C295      1.0  0.86962  0.03102  0.38697  1.0000
  H   H230      1.0  0.55182  0.31731  0.21746  1.0000
  C   C296      1.0  0.96870  0.25902  0.20312  1.0000
  C   C297      1.0  0.78580  0.01849  0.28167  1.0000
  H   H231      1.0  0.72390  0.17973  0.00922  1.0000
  C   C298      1.0  0.74889  0.11961  0.49059  1.0000
  C   C299      1.0  0.86543  0.01835  0.46102  1.0000
  C   C300      1.0  0.51159  0.03174  0.10111  1.0000
  C   C301      1.0  0.50355  0.14776  0.47464  1.0000
  C   C302      1.0  0.66720  0.12774  0.49614  1.0000
  H   H232      1.0  0.59087  0.03339  0.33037  1.0000
  H   H233      1.0  0.50239  0.26175  0.19135  1.0000
  C   C303      1.0  0.64016  0.06587  0.00333  1.0000
  H   H234      1.0  0.67126  0.04809  0.00712  1.0000
  H   H235      1.0  0.81462  0.02696  0.26289  1.0000
  H   H236      1.0  0.51087  0.14597  0.32561  1.0000
  H   H237      1.0  0.58111  0.03470  0.08128  1.0000
  C   C304      1.0  0.54763  0.02277  0.07448  1.0000
  C   C305      1.0  0.51537  0.32243  0.21520  1.0000
  C   C306      1.0  0.49452  0.10020  0.28082  1.0000
  C   C307      1.0  0.95570  0.28051  0.78355  1.0000
  C   C308      1.0  0.57422  0.24147  0.89717  1.0000
  C   C309      1.0  0.84675  0.10302  0.61810  1.0000
  C   C310      1.0  0.86098  0.17340  0.92066  1.0000
  S   S43       1.0  0.90612  0.33386  0.83154  1.0000
  C   C311      1.0  0.71673  0.16282  0.98114  1.0000
  H   H238      1.0  0.54447  0.07010  0.94349  1.0000
  H   H239      1.0  0.51241  0.15328  0.89341  1.0000
  H   H240      1.0  0.61455  0.02897  0.95294  1.0000
  H   H241      1.0  0.59035  0.26366  0.87678  1.0000
  C   C312      1.0  0.70391  0.06449  0.51999  1.0000
  H   H242      1.0  0.83456  0.10918  0.64912  1.0000
  H   H243      1.0  0.93541  0.29282  0.75804  1.0000
  C   C313      1.0  0.60837  0.05527  0.97274  1.0000
  H   H244      1.0  0.74212  0.30582  0.98877  1.0000
  H   H245      1.0  0.56296  0.21962  0.99995  1.0000
  C   C314      1.0  0.87141  0.24695  0.91093  1.0000
  H   H246      1.0  0.91432  0.12548  0.63107  1.0000
  C   C315      1.0  0.56826  0.07834  0.96789  1.0000
  H   H247      1.0  0.83791  0.28600  0.95508  1.0000
  C   C316      1.0  0.55909  0.11158  0.99441  1.0000
  C   C317      1.0  0.75059  0.13871  0.96271  1.0000
  H   H248      1.0  0.63183  0.07639  0.52339  1.0000
  P   P11       1.0  0.51074  0.14487  0.98447  1.0000
  C   C318      1.0  0.81813  0.08467  0.58866  1.0000
  C   C319      1.0  0.66343  0.14465  0.92665  1.0000
  C   C320      1.0  0.67339  0.16576  0.96326  1.0000
  C   C321      1.0  0.84475  0.25456  0.94570  1.0000
  C   C322      1.0  0.87902  0.08628  0.53848  1.0000
  C   C323      1.0  0.69727  0.12115  0.90751  1.0000
  H   H249      1.0  0.94272  0.04873  0.97159  1.0000
  C   C324      1.0  0.98815  0.24929  0.77591  1.0000
  H   H250      1.0  0.89980  0.20083  0.87091  1.0000
  C   C325      1.0  0.89157  0.11256  0.60790  1.0000
  C   C326      1.0  0.90750  0.10456  0.56801  1.0000
  H   H251      1.0  0.88504  0.27259  0.89337  1.0000
  C   C327      1.0  0.97543  0.27954  0.85662  1.0000
  C   C328      1.0  0.83431  0.07542  0.54885  1.0000
  C   C329      1.0  0.57839  0.24552  0.94023  1.0000
  C   C330      1.0  0.82628  0.22175  0.96808  1.0000
  C   C331      1.0  0.81098  0.05347  0.97717  1.0000
  C   C332      1.0  0.94881  0.29557  0.82392  1.0000
  H   H252      1.0  0.70083  0.03436  0.53429  1.0000
  H   H253      1.0  0.78373  0.07675  0.59724  1.0000
  H   H254      1.0  0.62961  0.14675  0.91311  1.0000
  C   C333      1.0  0.74096  0.11865  0.92515  1.0000
  C   C334      1.0  0.55798  0.21678  0.96664  1.0000
  H   H255      1.0  0.86631  0.14234  0.90955  1.0000
  H   H256      1.0  0.59809  0.27059  0.95325  1.0000
  C   C335      1.0  0.83495  0.18090  0.95629  1.0000
  C   C336      1.0  0.54996  0.20842  0.88048  1.0000
  H   H257      1.0  0.97085  0.29109  0.88775  1.0000
  C   C337      1.0  0.74633  0.07947  0.50720  1.0000
  H   H258      1.0  0.64761  0.18427  0.97827  1.0000
  H   H259      1.0  0.89261  0.08022  0.50807  1.0000
  C   C338      1.0  0.52964  0.17950  0.90684  1.0000
  C   C339      1.0  0.53271  0.18400  0.95013  1.0000
  H   H260      1.0  0.54740  0.20493  0.84708  1.0000
  H   H261      1.0  0.68980  0.10541  0.87870  1.0000
  C   C340      1.0  0.87957  0.20641  0.89836  1.0000
  P   P12       1.0  0.79771  0.04864  0.51265  1.0000
  H   H262      1.0  0.94253  0.11125  0.56045  1.0000
  C   C341      1.0  0.66452  0.08846  0.51418  1.0000
  H   H263      1.0  0.76730  0.10158  0.90927  1.0000
  P   P13       1.0  0.80764  0.13923  0.98366  1.0000
  C   C342      1.0  0.83603  0.09021  0.97741  1.0000
  H   H264      1.0  0.80476  0.22834  0.99433  1.0000
  H   H265      1.0  0.77431  0.05421  0.98004  1.0000
  H   H266      1.0  0.90375  0.11606  0.97816  1.0000
  C   C343      1.0  0.88370  0.08818  0.97619  1.0000
  C   C344      1.0  0.90591  0.05003  0.97284  1.0000
  H   H267      1.0  0.92278  0.01621  0.60970  1.0000
  C   C345      1.0  0.70171  0.58368  0.42223  1.0000
  C   C346      1.0  0.72534  0.61177  0.39743  1.0000
  C   C347      1.0  0.83327  0.57806  0.46502  1.0000
  C   C348      1.0  0.85524  0.59623  0.49916  1.0000
  C   C349      1.0  0.95043  0.50114  0.05301  1.0000
  C   C350      1.0  0.60457  0.44281  0.41316  1.0000
  H   H268      1.0  0.59614  0.48267  0.35976  1.0000
  C   C351      1.0  0.87616  0.41183  0.09242  1.0000
  H   H269      1.0  0.73700  0.67594  0.38336  1.0000
  P   P14       1.0  0.64139  0.56099  0.48474  1.0000
  H   H270      1.0  0.61321  0.41127  0.47188  1.0000
  C   C352      1.0  0.61754  0.51657  0.41388  1.0000
  H   H271      1.0  0.83707  0.45883  0.12295  1.0000
  H   H272      1.0  0.61655  0.54600  0.39767  1.0000
  H   H273      1.0  0.84937  0.40477  0.07026  1.0000
  H   H274      1.0  0.54464  0.54357  0.46461  1.0000
  C   C353      1.0  0.90329  0.45066  0.15143  1.0000
  C   C354      1.0  0.83766  0.53565  0.45805  1.0000
  H   H275      1.0  0.95550  0.65427  0.41108  1.0000
  C   C355      1.0  0.91757  0.39043  0.09103  1.0000
  H   H276      1.0  0.89789  0.47422  0.17458  1.0000
  H   H277      1.0  0.74852  0.60074  0.37394  1.0000
  H   H278      1.0  0.81202  0.59640  0.44423  1.0000
  C   C356      1.0  0.98475  0.67093  0.09329  1.0000
  C   C357      1.0  0.62784  0.47613  0.47700  1.0000
  C   C358      1.0  0.54622  0.56809  0.48715  1.0000
  C   C359      1.0  0.60561  0.48082  0.39236  1.0000
  H   H279      1.0  0.92709  0.64251  0.26558  1.0000
  C   C360      1.0  0.85042  0.67407  0.42841  1.0000
  C   C361      1.0  0.98187  0.67729  0.41227  1.0000
  H   H280      1.0  0.59437  0.41524  0.39671  1.0000
  C   C362      1.0  0.96000  0.52245  0.09020  1.0000
  C   C363      1.0  0.94477  0.42930  0.15022  1.0000
  H   H281      1.0  0.74114  0.55715  0.49641  1.0000
  H   H282      1.0  0.93407  0.52496  0.11361  1.0000
  H   H283      1.0  0.98524  0.53896  0.37923  1.0000
  C   C364      1.0  0.67096  0.59778  0.45225  1.0000
  C   C365      1.0  0.98352  0.49784  0.02224  1.0000
  H   H284      1.0  0.82076  0.52179  0.43157  1.0000
  H   H285      1.0  0.87610  0.65028  0.42536  1.0000
  C   C366      1.0  0.86909  0.44210  0.12237  1.0000
  C   C367      1.0  0.62931  0.51440  0.45629  1.0000
  H   H286      1.0  0.95952  0.64970  0.10504  1.0000
  H   H287      1.0  0.94337  0.63127  0.50077  1.0000
  H   H288      1.0  0.70749  0.55093  0.41801  1.0000
  H   H289      1.0  0.50427  0.38415  0.37763  1.0000
  C   C368      1.0  0.58806  0.58273  0.50246  1.0000
  H   H290      1.0  0.91742  0.48739  0.04810  1.0000
  C   C369      1.0  0.98162  0.51912  0.44274  1.0000
  C   C370      1.0  0.95252  0.39953  0.11952  1.0000
  C   C371      1.0  0.61542  0.44053  0.45548  1.0000
  H   H291      1.0  0.51841  0.38380  0.23962  1.0000
  H   H292      1.0  0.96263  0.49156  0.43530  1.0000
  H   H293      1.0  0.97070  0.43616  0.17320  1.0000
  C   C372      1.0  0.82754  0.67927  0.46615  1.0000
  H   H294      1.0  0.86575  0.47797  0.48065  1.0000
  H   H295      1.0  0.92189  0.36665  0.06786  1.0000
  H   H296      1.0  0.95385  0.58329  0.22354  1.0000
  C   C373      1.0  0.86296  0.51094  0.48571  1.0000
  C   C374      1.0  0.95350  0.62214  0.27774  1.0000
  H   H297      1.0  0.50523  0.45711  0.39995  1.0000
  C   C375      1.0  0.71893  0.65416  0.40273  1.0000
  C   C376      1.0  0.49626  0.35985  0.22801  1.0000
  C   C377      1.0  0.66509  0.64053  0.45755  1.0000
  H   H298      1.0  0.64227  0.65274  0.48059  1.0000
  C   C378      1.0  0.68907  0.66851  0.43294  1.0000
  C   C379      1.0  0.96843  0.58879  0.25409  1.0000
  H   H299      1.0  0.96284  0.65726  0.33307  1.0000
  C   C380      1.0  0.97396  0.63038  0.31622  1.0000
  C   C381      1.0  0.50524  0.58405  0.50213  1.0000
  H   H300      1.0  0.49312  0.47839  0.11977  1.0000
  Fe  Fe21      1.0  0.91084  0.43379  0.95521  1.0000
  S   S44       1.0  0.84013  0.43603  0.98093  1.0000
  Fe  Fe22      1.0  0.88459  0.36843  0.89008  1.0000
  C   C382      1.0  0.54691  0.62973  0.54746  1.0000
  C   C383      1.0  0.64553  0.65795  0.85833  1.0000
  Fe  Fe23      1.0  0.81564  0.43550  0.91387  1.0000
  S   S45       1.0  0.75574  0.47794  0.89522  1.0000
  H   H301      1.0  0.69137  0.64013  0.57033  1.0000
  S   S46       1.0  0.88652  0.43803  0.88849  1.0000
  H   H302      1.0  0.98412  0.38485  0.82415  1.0000
  Fe  Fe24      1.0  0.63971  0.60036  0.70458  1.0000
  S   S47       1.0  0.56852  0.59406  0.72858  1.0000
  S   S48       1.0  0.70198  0.55982  0.71909  1.0000
  H   H303      1.0  0.55206  0.51952  0.59292  1.0000
  Fe  Fe25      1.0  0.56840  0.66368  0.73161  1.0000
  Fe  Fe26      1.0  0.54510  0.60226  0.66196  1.0000
  H   H304      1.0  0.51798  0.38408  0.58276  1.0000
  S   S49       1.0  0.61636  0.60357  0.63754  1.0000
  H   H305      1.0  0.85640  0.64724  0.60175  1.0000
  C   C384      1.0  0.74176  0.50050  0.84589  1.0000
  C   C385      1.0  0.76832  0.49414  0.81060  1.0000
  C   C386      1.0  0.75570  0.51255  0.77218  1.0000
  C   C387      1.0  0.71640  0.53749  0.76841  1.0000
  C   C388      1.0  0.68990  0.54398  0.80371  1.0000
  C   C389      1.0  0.70256  0.52563  0.84213  1.0000
  H   H306      1.0  0.79853  0.47495  0.81292  1.0000
  H   H307      1.0  0.77649  0.50728  0.74518  1.0000
  H   H308      1.0  0.65956  0.56297  0.80138  1.0000
  H   H309      1.0  0.68174  0.53074  0.86915  1.0000
  C   C390      1.0  0.74302  0.63811  0.61784  1.0000
  C   C391      1.0  0.72745  0.64144  0.57680  1.0000
  H   H310      1.0  0.67116  0.51939  0.63091  1.0000
  C   C392      1.0  0.51954  0.51244  0.57910  1.0000
  C   C393      1.0  0.73345  0.52919  0.59791  1.0000
  H   H311      1.0  0.68581  0.64726  0.80392  1.0000
  C   C394      1.0  0.68624  0.52729  0.60124  1.0000
  H   H312      1.0  0.54693  0.47041  0.53378  1.0000
  C   C395      1.0  0.66823  0.67014  0.82242  1.0000
  S   S50       1.0  0.64171  0.66947  0.71127  1.0000
  H   H313      1.0  0.71902  0.63378  0.64289  1.0000
  C   C396      1.0  0.58790  0.61361  0.53283  1.0000
  C   C397      1.0  0.65848  0.53668  0.56685  1.0000
  C   C398      1.0  0.75826  0.64654  0.54437  1.0000
  C   C399      1.0  0.89662  0.67581  0.52709  1.0000
  H   H314      1.0  0.54721  0.65333  0.57117  1.0000
  S   S51       1.0  0.54061  0.67176  0.66665  1.0000
  C   C400      1.0  0.50559  0.61475  0.53237  1.0000
  C   C401      1.0  0.80502  0.64909  0.55294  1.0000
  H   H315      1.0  0.89536  0.58424  0.55477  1.0000
  Fe  Fe27      1.0  0.61401  0.67246  0.64583  1.0000
  H   H316      1.0  0.62202  0.53530  0.57010  1.0000
  H   H317      1.0  0.75465  0.52293  0.62506  1.0000
  C   C402      1.0  0.82045  0.64607  0.59434  1.0000
  C   C403      1.0  0.51636  0.48438  0.54586  1.0000
  S   S52       1.0  0.81174  0.36588  0.91181  1.0000
  H   H318      1.0  0.64558  0.62568  0.86752  1.0000
  H   H319      1.0  0.61938  0.62514  0.54564  1.0000
  Fe  Fe28      1.0  0.84125  0.36646  0.97676  1.0000
  S   S53       1.0  0.97372  0.47079  0.97494  1.0000
  H   H320      1.0  0.51640  0.64828  0.87477  1.0000
  H   H321      1.0  0.78961  0.54107  0.55741  1.0000
  C   C404      1.0  0.75300  0.53956  0.55986  1.0000
  H   H322      1.0  0.50848  0.41079  0.65428  1.0000
  C   C405      1.0  0.67767  0.54857  0.52892  1.0000
  H   H323      1.0  0.80136  0.63800  0.65855  1.0000
  S   S54       1.0  0.91398  0.36417  0.95463  1.0000
  C   C406      1.0  0.78949  0.64060  0.62662  1.0000
  C   C407      1.0  0.87997  0.57111  0.52717  1.0000
  H   H324      1.0  0.60445  0.67769  0.90957  1.0000
  H   H325      1.0  0.53189  0.58400  0.91517  1.0000
  H   H326      1.0  0.90243  0.50932  0.54249  1.0000
  H   H327      1.0  0.98439  0.50590  0.50845  1.0000
  C   C408      1.0  0.72528  0.54893  0.52538  1.0000
  H   H328      1.0  0.63502  0.47377  0.50999  1.0000
  C   C409      1.0  0.88385  0.52864  0.52041  1.0000
  H   H329      1.0  0.74556  0.64795  0.51273  1.0000
  C   C410      1.0  0.50672  0.60595  0.92602  1.0000
  C   C411      1.0  0.93978  0.66027  0.51688  1.0000
  P   P15       1.0  0.84550  0.64978  0.51121  1.0000
  C   C412      1.0  0.49811  0.64214  0.90333  1.0000
  Fe  Fe29      1.0  0.82327  0.91055  0.41070  1.0000
  S   S55       1.0  0.89594  0.90739  0.38904  1.0000
  S   S56       1.0  0.76225  0.94925  0.38667  1.0000
  C   C413      1.0  0.49714  0.98200  0.02973  1.0000
  S   S57       1.0  0.91400  0.83801  0.46341  1.0000
  H   H330      1.0  0.56869  0.99045  0.01935  1.0000
  Fe  Fe30      1.0  0.91493  0.90763  0.45770  1.0000
  C   C414      1.0  0.95887  0.77110  0.32567  1.0000
  Fe  Fe31      1.0  0.89031  0.83814  0.39659  1.0000
  H   H331      1.0  0.92532  0.72617  0.28722  1.0000
  S   S58       1.0  0.84297  0.91476  0.47866  1.0000
  S   S59       1.0  0.81598  0.84134  0.41414  1.0000
  H   H332      1.0  0.90573  0.82400  0.24818  1.0000
  H   H333      1.0  0.87613  0.80182  0.17938  1.0000
  C   C415      1.0  0.84195  0.70097  0.39499  1.0000
  H   H334      1.0  0.68309  0.98721  0.34860  1.0000
  C   C416      1.0  0.75549  0.98030  0.34078  1.0000
  C   C417      1.0  0.88786  0.01349  0.42328  1.0000
  C   C418      1.0  0.78733  0.73832  0.43633  1.0000
  C   C419      1.0  0.54047  0.99771  0.03931  1.0000
  C   C420      1.0  0.94265  0.79688  0.15199  1.0000
  H   H335      1.0  0.66343  0.96407  0.44814  1.0000
  C   C421      1.0  0.95768  0.73925  0.29610  1.0000
  H   H336      1.0  0.93726  0.72441  0.43668  1.0000
  H   H337      1.0  0.86107  0.69818  0.36647  1.0000
  Fe  Fe32      1.0  0.83993  0.84527  0.48046  1.0000
  H   H338      1.0  0.87990  0.00420  0.48874  1.0000
  H   H339      1.0  0.72563  0.80130  0.49783  1.0000
  H   H340      1.0  0.80513  0.75483  0.37349  1.0000
  H   H341      1.0  0.76389  0.76399  0.43982  1.0000
  C   C422      1.0  0.91241  0.80527  0.18423  1.0000
  C   C423      1.0  0.81047  0.73313  0.39897  1.0000
  H   H342      1.0  0.91913  0.99561  0.42219  1.0000
  C   C424      1.0  0.79214  0.99081  0.31547  1.0000
  C   C425      1.0  0.92895  0.81806  0.22285  1.0000
  S   S60       1.0  0.90688  0.78791  0.34850  1.0000
  H   H343      1.0  0.92926  0.78751  0.12206  1.0000
  C   C426      1.0  0.60110  0.99702  0.43388  1.0000
  H   H344      1.0  0.82555  0.97826  0.32244  1.0000
  C   C427      1.0  0.98984  0.80011  0.15845  1.0000
  C   C428      1.0  0.64831  0.99296  0.43750  1.0000
  C   C429      1.0  0.98796  0.71087  0.10940  1.0000
  C   C430      1.0  0.71208  0.99624  0.33038  1.0000
  S   S61       1.0  0.97504  0.94633  0.48166  1.0000
  H   H345      1.0  0.96508  0.71960  0.13386  1.0000
  C   C431      1.0  0.97156  0.71667  0.42719  1.0000
  H   H346      1.0  0.68436  0.70144  0.43733  1.0000
  H   H347      1.0  0.57949  0.97137  0.44226  1.0000
  H   H348      1.0  0.98834  0.83371  0.25875  1.0000
  C   C432      1.0  0.99229  0.84724  0.00665  1.0000
  H   H349      1.0  0.77998  0.71784  0.49932  1.0000
  C   C433      1.0  0.97561  0.82334  0.22892  1.0000
  H   H350      1.0  0.54735  0.00727  0.27066  1.0000
  H   H351      1.0  0.74018  0.98221  0.48183  1.0000
  C   C434      1.0  0.79619  0.71180  0.46996  1.0000
  H   H352      1.0  0.58681  0.75864  0.75378  1.0000
  S   S62       1.0  0.63376  0.71432  0.59075  1.0000
  H   H353      1.0  0.49617  0.88779  0.88192  1.0000
  H   H354      1.0  0.81637  0.92966  0.60977  1.0000
  C   C435      1.0  0.68459  0.74104  0.57720  1.0000
  C   C436      1.0  0.68600  0.76286  0.53918  1.0000
  C   C437      1.0  0.76268  0.76258  0.59063  1.0000
  C   C438      1.0  0.72314  0.74144  0.60307  1.0000
  C   C439      1.0  0.95100  0.01057  0.58914  1.0000
  H   H355      1.0  0.80513  0.86994  0.88271  1.0000
  H   H356      1.0  0.72256  0.72534  0.63262  1.0000
  H   H357      1.0  0.70846  0.83399  0.68012  1.0000
  H   H358      1.0  0.65630  0.76321  0.51907  1.0000
  C   C440      1.0  0.56081  0.83630  0.81161  1.0000
  H   H359      1.0  0.83296  0.99978  0.58474  1.0000
  H   H360      1.0  0.58897  0.75885  0.67713  1.0000
  C   C441      1.0  0.61430  0.77573  0.69472  1.0000
  H   H361      1.0  0.92855  0.76808  0.56793  1.0000
  C   C442      1.0  0.64378  0.74124  0.83308  1.0000
  C   C443      1.0  0.97487  0.72181  0.54477  1.0000
  P   P16       1.0  0.64525  0.79500  0.81745  1.0000
  C   C444      1.0  0.59696  0.82339  0.83764  1.0000
  C   C445      1.0  0.69603  0.81833  0.83844  1.0000
  C   C446      1.0  0.69886  0.86151  0.84081  1.0000
  H   H362      1.0  0.80066  0.79359  0.87847  1.0000
  C   C447      1.0  0.77475  0.85559  0.87037  1.0000
  C   C448      1.0  0.66757  0.71161  0.80992  1.0000
  C   C449      1.0  0.73308  0.79397  0.85203  1.0000
  C   C450      1.0  0.52453  0.87030  0.86955  1.0000
  H   H363      1.0  0.60329  0.75078  0.88812  1.0000
  C   C451      1.0  0.64851  0.79688  0.67388  1.0000
  H   H364      1.0  0.76119  0.88583  0.57201  1.0000
  C   C452      1.0  0.61322  0.77562  0.73814  1.0000
  C   C453      1.0  0.62244  0.68728  0.88199  1.0000
  H   H365      1.0  0.85989  0.72792  0.55249  1.0000
  C   C454      1.0  0.52497  0.85982  0.82754  1.0000
  C   C455      1.0  0.76721  0.91725  0.56160  1.0000
  C   C456      1.0  0.68045  0.81833  0.73995  1.0000
  C   C457      1.0  0.93195  0.73760  0.55448  1.0000
  H   H366      1.0  0.55975  0.86611  0.92824  1.0000
  S   S63       1.0  0.81574  0.80921  0.53816  1.0000
  H   H367      1.0  0.68539  0.72041  0.78199  1.0000
  C   C458      1.0  0.80767  0.98187  0.56838  1.0000
  H   H368      1.0  0.91244  0.97002  0.54892  1.0000
  H   H369      1.0  0.67074  0.88083  0.83019  1.0000
  C   C459      1.0  0.79842  0.94194  0.58278  1.0000
  C   C460      1.0  0.64604  0.79713  0.76119  1.0000
  C   C461      1.0  0.76419  0.78419  0.55250  1.0000
  H   H370      1.0  0.73198  0.76064  0.85043  1.0000
  C   C462      1.0  0.72534  0.78450  0.52699  1.0000
  H   H371      1.0  0.55964  0.82820  0.77915  1.0000
  C   C463      1.0  0.56029  0.85774  0.89568  1.0000
  C   C464      1.0  0.49482  0.78786  0.00078  1.0000
  C   C465      1.0  0.59647  0.83458  0.87980  1.0000
  H   H372      1.0  0.98139  0.83849  0.97572  1.0000
  C   C466      1.0  0.77225  0.81260  0.86798  1.0000
  C   C467      1.0  0.73807  0.88004  0.85677  1.0000
  H   H373      1.0  0.70675  0.83460  0.75667  1.0000
  H   H374      1.0  0.79238  0.76212  0.61075  1.0000
  C   C468      1.0  0.50018  0.74741  0.84307  1.0000
  H   H375      1.0  0.62409  0.82539  0.90045  1.0000
  H   H376      1.0  0.73998  0.91337  0.85854  1.0000
  C   C469      1.0  0.68163  0.81810  0.69646  1.0000
  H   H377      1.0  0.64950  0.79642  0.64022  1.0000
  C   C470      1.0  0.94492  0.98451  0.55447  1.0000
  C   C471      1.0  0.74551  0.93232  0.52571  1.0000
  H   H378      1.0  0.52218  0.73532  0.86739  1.0000
  H   H379      1.0  0.49665  0.86894  0.80755  1.0000
  C   C472      1.0  0.62177  0.72881  0.86959  1.0000
  C   C473      1.0  0.50442  0.73226  0.80241  1.0000
  H   H380      1.0  0.52804  0.79715  0.99009  1.0000
  C   C474      1.0  0.89299  0.71468  0.54575  1.0000
  C   C475      1.0  0.98090  0.97730  0.52716  1.0000
  S   S64       1.0  0.54473  0.69231  0.79285  1.0000
  C   C476      1.0  0.75525  0.97197  0.51087  1.0000
  C   C477      1.0  0.78559  0.99747  0.53254  1.0000
  H   H381      1.0  0.99118  0.91250  0.99302  1.0000
  C   C478      1.0  0.97880  0.68310  0.52613  1.0000
  H   H382      1.0  0.72289  0.91249  0.50826  1.0000
  H   H383      1.0  0.89796  0.98408  0.96934  1.0000
  C   C479      1.0  0.88071  0.01363  0.97161  1.0000
  C   C480      1.0  0.83327  0.01534  0.97401  1.0000
  H   H384      1.0  0.81377  0.98709  0.97394  1.0000
