data_image0
_chemical_formula_structural       HSCSHFeHCH7CHCSH3CFeHC10H2CHCH3C2H6CHCHCHCSHC3H3C2HC4HC2HCHC3HC4PCPC7H2PC4HCH4CH2CHC3H3C2H3C5HFeHC2HCHC2HC3HCHCH3SC3S2CH2SC2H5CH2CHCHSHSH2FeSCFeS2FeSFeS3FeS2FeS2FeSFeS3FeS2FeS2FeSFeS5C6H4C3H3C7H4C6H4C4HCH3C7H4FeC4HPH2C5H2CHC5H5PH2CHC2H4CH2C4H2C2HC2HCH2C2H4CH3C5HC2H3C2H3C2HCH2CFeHFeH2CH2CHC4SC2H2C2HCHCHCHC5H2C2HCHC6SC3H4C2H2S2CHC6PHC5H7C2HC2HC2PC8HC8H2CH2SCH7C6PC15H19CH2C2H2CHCHCSCHC2HCHC3HC2HC7H2C3HCPC2HC2HCHS2C2HFeC4FeH3SHSHC5HCH2CHCH2CHCHCPC2FeC3HPHCHCH6CHCH2CHCHC6H2CFeC4H3CH3FeS2FeS2FeCFeS3H2C2HCHSCHC2FeC3HC8H2CHC3HC2H6C2H4CH3CH4FeC4H2C2HCSPC3HC2H4CHPC3HCH2C3HC7HCH3C5H3C2H3CH4C4H2SC3HCHCHC3HC2HCH2SCHC3HC3H3CHC3HCH2PHCH2C2HCHCFeHSH2CFeS2FeS2FeS2FeS2FeSFeS3Fe2SHFeSFeS3HCHCHCSH3C2HFeHCHCH6CHC2H2C5H2C6H4CHSHC6H3C6H4C3H3C3SPC17HCHS2CHCH2C6PC6HCH9C6PC18H22C3SCH2CHCHC2HCSH3CHCFeC2HC2HCHC5H2CH2FePHSH3CHC2PC2HCH2C2HC2H2C4HCH2CHC2H2C2H4C4HC2HC2H2CH7C4HC2HC3HCHSHCHC2PC3H3C4SFeC2HSHC3H5CHPCHC5H2CSCHCHC4H3C2FePCH3C3H2C2H2C2H2C2HC6H4CH2C2HC2FeSCSC4H2C2FeHSH2CHSH2CHCHCHCHFeCHC6H2CHC2H5CHC5HPSH2C2HCH2C3H2CHC4HCH3C2PHC2SHCH2C2HC3H2C2FeSHS2FeSFeCSFeHC4HS2H3FeH2SHPFeC3SC2HC5H2FeC2HC6H4CHSHCH3SHC2HCH4FeH2C2HSH2CHCHC3SC2HCFeHCH2CHSC4HC3PH3C3HCSCHC8HSHSHCHSCH6CHCH5CHPC2HCHCH4C2HC2HFeH3CHCHCHCHC2H2C3SC8PC18H21C2HC4PC7H2C9H3FeCHC2H3SCH3SC7HC2H4CHC2HC3FeS2FeCH2C2S2H2FeS2FeHC3FeSHSHSCPH3FeSH2S2HCH2CHC2FeH3CH2CH3C7H2CHC6H4CSHCH4C2HCHC5HCHSHCHCH2C9H4CFeC6PC18H16C2H2S2H3CSHCHC2HPHC5HSC6HC4SC3PHCH2CHC2HCPFeCHCHC3HCHPC4HCHC2HC9H2FeSH2C2HFeHCH3CH3CH2C3PC18H18SC2HC6H3SC2FeH5C4H2SC4SC2H3FeCSC4H4CHPCHC3HC2H2C5H2CHCSC3H4C2HSHFeH7CHC3SCHC2H2CHCHCH5C2FeCFeHSC2HS2C6H4CHC4H6CHC8HCH2C2H2C2H4C4HC6PC3HSHC3SHC3HCH8CHCHC2HCHPHC2HC3HCHC4H2CHC2HSHC2H2C4H3CHC4HCHC2H3CHCPCHCH2C4SH4S2HS2FeHSFeS2FeSHFeS2HS2FeSFeS2HC3SH4C6H3C3H3C6H4C6H4C6H3C6PC18H6CH13C4H4CHCHCSC6PC8H2C4SHCHCH7CH5FeC2H2FeHCH2CH2FeCHC2H4PH3SHC2HCHFeCHCSFeH3SH2C10HCHCHC9HFeHSC8HCH2CH2CH6C2SFeC4H5C2SCHCFeC4SH3C2HC3SC2HPH2CPC5SPH4C2H2C2HC2H5C2HCHSCHCH2CHCH2SC3H3FeC2H2CHC4H2C2HC5H3C3HCHCH2C2FeCHC2SCH2CHCSCFeHC2SC2SHCSCHC2HCHS2CH2C3H2FeS2FeHSFeHFeS3FeCSCH3CSC6H5C6H4CHSH2CFeSC9H4CH2C4HC5HC7H4C2HC2H3CH3CHC7H4C2HC2HC3HC2HC5HCH2CFeSC5HPC3SHFeC2HC6FeHC2H3PH2FeH4CH3C6H2C2HC4H3C2H2CH3C5HC2H5CHPC7PC3SHCS2H3C3HC2PH5PCH5C3HSC2HC4H2FeC3H3CH2CFeC2SHSH3C2H2C2HCHCHCFeCH2SC4HC4HCH2C3HCH2C5S2H5CSFeC2H7C2HC3H3CHC2HC4HFeHCHCHCHC3HCHSCHC3FeH2PCH4FeS2FeSHFeSFeS3PFeS2FeS2FeSFeS3FeSHFeSCFeSFeS4C3FeSHC6SH2C7H2C6H2CHC4HFeHC6H6CPCHCH2C6H5SCH5C4H2C2H3C5H4C6PC18H22SC11H6CH7C11SC3HCHFeCH4CFeCH2SCH3CHCS2H2C2HC4H2C4HSC2H4C2H4CSH5C2PC2HPC6HC9HC4H2C2H8FeC4PC19H10CHCSPHCH2C3HC5HCH3PHC4H3C2FeHCHC2H3C2H2CSHC2HCHSHC2H6CHC4HCH3CHCH2C2H2C3HSH2C4H3CHCH2C2HC7HCH3CH2C5SHCH4CH3CHPC4HC3HSHSC2H2C4HC2H2SC3H2CH6C2H3CHCHC3SHC2HC2HCH2S2HC2PHS2HC3SHCH3C2HCHCH2C2PC4H6C7H4C2HC3H4CH2C3H2CHC2H2C4HCH2C6H2C2HCHC2H2C4H2CHCHCHC5HSH2FeC4H4C2H2CHC3HCHCHC2HCHCH3C3HC4HFeCH2CHC3H3C2HC4FeHCH3C2SHSCHCHC4H2C2H2
_chemical_formula_sum              "H1536 S256 C1920 Fe128 P64"
_cell_length_a       50.6263
_cell_length_b       52.2288
_cell_length_c       55.0087
_cell_angle_alpha    79.5698
_cell_angle_beta     77.6576
_cell_angle_gamma    75.0638

_space_group_name_H-M_alt    "P 1"
_space_group_IT_number       1

loop_
  _space_group_symop_operation_xyz
  'x, y, z'

loop_
  _atom_site_type_symbol
  _atom_site_label
  _atom_site_symmetry_multiplicity
  _atom_site_fract_x
  _atom_site_fract_y
  _atom_site_fract_z
  _atom_site_occupancy
  H   H1        1.0  0.21520  0.28007  0.30036  1.0000
  S   S1        1.0  0.44185  0.04038  0.28042  1.0000
  C   C1        1.0  0.21501  0.47739  0.24025  1.0000
  S   S2        1.0  0.46650  0.14312  0.16881  1.0000
  H   H2        1.0  0.35497  0.12568  0.26376  1.0000
  Fe  Fe1       1.0  0.43979  0.99750  0.28440  1.0000
  H   H3        1.0  0.42245  0.02087  0.15423  1.0000
  C   C2        1.0  0.47716  0.03232  0.10543  1.0000
  H   H4        1.0  0.24793  0.46764  0.18057  1.0000
  H   H5        1.0  0.30422  0.15902  0.30654  1.0000
  H   H6        1.0  0.31725  0.06697  0.25739  1.0000
  H   H7        1.0  0.41501  0.12114  0.16863  1.0000
  H   H8        1.0  0.02508  0.43944  0.19996  1.0000
  H   H9        1.0  0.46720  0.47922  0.04775  1.0000
  H   H10       1.0  0.47962  0.17908  0.24190  1.0000
  C   C3        1.0  0.44403  0.03967  0.07765  1.0000
  H   H11       1.0  0.47449  0.27536  0.07466  1.0000
  C   C4        1.0  0.06098  0.47147  0.21485  1.0000
  S   S3        1.0  0.47119  0.15845  0.09785  1.0000
  H   H12       1.0  0.12648  0.41320  0.21104  1.0000
  H   H13       1.0  0.35703  0.02838  0.26344  1.0000
  H   H14       1.0  0.44168  0.07558  0.05105  1.0000
  C   C5        1.0  0.45723  0.02368  0.09687  1.0000
  Fe  Fe2       1.0  0.01440  0.46862  0.29203  1.0000
  H   H15       1.0  0.45925  0.07782  0.15242  1.0000
  C   C6        1.0  0.40321  0.10086  0.10808  1.0000
  C   C7        1.0  0.31797  0.08280  0.29081  1.0000
  C   C8        1.0  0.07264  0.46021  0.23621  1.0000
  C   C9        1.0  0.36302  0.03963  0.29726  1.0000
  C   C10       1.0  0.36433  0.11435  0.24822  1.0000
  C   C11       1.0  0.21353  0.40975  0.27668  1.0000
  C   C12       1.0  0.46303  0.06025  0.16612  1.0000
  C   C13       1.0  0.40137  0.08320  0.13044  1.0000
  C   C14       1.0  0.41608  0.34346  0.28577  1.0000
  C   C15       1.0  0.33089  0.07938  0.31173  1.0000
  H   H16       1.0  0.39789  0.06372  0.13005  1.0000
  H   H17       1.0  0.41750  0.15216  0.12942  1.0000
  C   C16       1.0  0.40898  0.12571  0.10765  1.0000
  H   H18       1.0  0.10597  0.43276  0.17308  1.0000
  C   C17       1.0  0.41026  0.37306  0.24700  1.0000
  H   H19       1.0  0.38073  0.02313  0.29962  1.0000
  H   H20       1.0  0.33059  0.19325  0.28816  1.0000
  H   H21       1.0  0.43107  0.02053  0.21328  1.0000
  C   C18       1.0  0.44747  0.02814  0.20028  1.0000
  C   C19       1.0  0.13317  0.47247  0.27712  1.0000
  H   H22       1.0  0.35314  0.05375  0.20917  1.0000
  H   H23       1.0  0.10125  0.39911  0.30787  1.0000
  H   H24       1.0  0.33309  0.01495  0.21082  1.0000
  H   H25       1.0  0.03385  0.43344  0.15131  1.0000
  H   H26       1.0  0.42846  0.03317  0.07112  1.0000
  H   H27       1.0  0.09662  0.40559  0.09012  1.0000
  C   C20       1.0  0.48051  0.11395  0.18728  1.0000
  H   H28       1.0  0.40103  0.09492  0.09088  1.0000
  C   C21       1.0  0.41251  0.13313  0.12970  1.0000
  H   H29       1.0  0.41143  0.13894  0.09012  1.0000
  C   C22       1.0  0.36369  0.03864  0.19710  1.0000
  H   H30       1.0  0.10459  0.43016  0.25185  1.0000
  C   C23       1.0  0.09619  0.98631  0.01220  1.0000
  S   S4        1.0  0.44771  0.99338  0.11008  1.0000
  H   H31       1.0  0.30107  0.09989  0.28766  1.0000
  C   C24       1.0  0.46299  0.10157  0.20623  1.0000
  C   C25       1.0  0.36597  0.99650  0.18316  1.0000
  C   C26       1.0  0.44126  0.05113  0.18294  1.0000
  H   H32       1.0  0.16261  0.38796  0.24533  1.0000
  H   H33       1.0  0.44086  0.10992  0.20921  1.0000
  H   H34       1.0  0.46048  0.06830  0.23524  1.0000
  C   C27       1.0  0.01886  0.47780  0.17638  1.0000
  C   C28       1.0  0.32717  0.06431  0.27355  1.0000
  H   H35       1.0  0.07665  0.99354  0.00540  1.0000
  C   C29       1.0  0.19393  0.42940  0.26478  1.0000
  C   C30       1.0  0.10620  0.48406  0.27277  1.0000
  C   C31       1.0  0.15571  0.48224  0.26239  1.0000
  C   C32       1.0  0.45150  0.06367  0.06632  1.0000
  H   H36       1.0  0.33822  0.13981  0.22310  1.0000
  C   C33       1.0  0.49047  0.04683  0.16700  1.0000
  C   C34       1.0  0.39105  0.99834  0.16715  1.0000
  H   H37       1.0  0.22773  0.41507  0.28594  1.0000
  C   C35       1.0  0.24116  0.47676  0.19773  1.0000
  H   H38       1.0  0.44975  0.34996  0.25571  1.0000
  C   C36       1.0  0.32620  0.15427  0.30702  1.0000
  C   C37       1.0  0.39810  0.07706  0.23103  1.0000
  C   C38       1.0  0.38158  0.37958  0.25538  1.0000
  H   H39       1.0  0.09201  0.04049  0.99390  1.0000
  C   C39       1.0  0.41077  0.11555  0.15204  1.0000
  C   C40       1.0  0.34124  0.17369  0.29597  1.0000
  C   C41       1.0  0.40256  0.02017  0.16622  1.0000
  C   C42       1.0  0.17699  0.39412  0.25382  1.0000
  P   P1        1.0  0.40553  0.06719  0.18122  1.0000
  C   C43       1.0  0.47291  0.11517  0.26295  1.0000
  P   P2        1.0  0.19081  0.46459  0.26574  1.0000
  C   C44       1.0  0.34960  0.04264  0.27687  1.0000
  C   C45       1.0  0.44490  0.11873  0.26163  1.0000
  C   C46       1.0  0.42984  0.14360  0.25228  1.0000
  C   C47       1.0  0.44241  0.16531  0.24530  1.0000
  C   C48       1.0  0.47014  0.16207  0.24746  1.0000
  C   C49       1.0  0.47497  0.01478  0.20112  1.0000
  C   C50       1.0  0.36978  0.16813  0.29563  1.0000
  H   H40       1.0  0.40853  0.14594  0.25018  1.0000
  H   H41       1.0  0.43081  0.18455  0.23786  1.0000
  P   P3        1.0  0.05563  0.47529  0.16518  1.0000
  C   C51       1.0  0.21442  0.38263  0.27755  1.0000
  C   C52       1.0  0.38724  0.34980  0.29431  1.0000
  C   C53       1.0  0.38938  0.08534  0.20770  1.0000
  C   C54       1.0  0.36716  0.10767  0.20523  1.0000
  H   H42       1.0  0.43526  0.10185  0.26699  1.0000
  C   C55       1.0  0.01008  0.45681  0.19342  1.0000
  H   H43       1.0  0.41456  0.05954  0.23380  1.0000
  H   H44       1.0  0.35959  0.11406  0.18761  1.0000
  H   H45       1.0  0.48692  0.02026  0.12067  1.0000
  H   H46       1.0  0.41912  0.38196  0.22870  1.0000
  C   C56       1.0  0.37008  0.36804  0.27894  1.0000
  H   H47       1.0  0.48442  0.09535  0.26904  1.0000
  H   H48       1.0  0.12304  0.43822  0.09391  1.0000
  C   C57       1.0  0.47407  0.07812  0.22107  1.0000
  H   H49       1.0  0.47835  0.03860  0.02112  1.0000
  C   C58       1.0  0.38569  0.09162  0.25114  1.0000
  C   C59       1.0  0.48570  0.13689  0.25610  1.0000
  C   C60       1.0  0.40508  0.09047  0.15263  1.0000
  H   H50       1.0  0.47980  0.99019  0.02525  1.0000
  H   H51       1.0  0.24395  0.45765  0.28196  1.0000
  H   H52       1.0  0.34783  0.37339  0.28497  1.0000
  C   C61       1.0  0.05332  0.43479  0.13899  1.0000
  C   C62       1.0  0.35228  0.01666  0.19811  1.0000
  H   H53       1.0  0.47946  0.99750  0.21504  1.0000
  H   H54       1.0  0.21688  0.44829  0.21605  1.0000
  H   H55       1.0  0.16113  0.43586  0.24302  1.0000
  C   C63       1.0  0.06361  0.41764  0.12061  1.0000
  C   C64       1.0  0.08870  0.41888  0.10436  1.0000
  C   C65       1.0  0.10357  0.43725  0.10649  1.0000
  C   C66       1.0  0.09336  0.45440  0.12486  1.0000
  C   C67       1.0  0.06806  0.45342  0.14116  1.0000
  H   H56       1.0  0.13646  0.45535  0.29151  1.0000
  Fe  Fe3       1.0  0.48772  0.02427  0.26967  1.0000
  H   H57       1.0  0.48616  0.16925  0.02747  1.0000
  C   C68       1.0  0.17612  0.42129  0.25277  1.0000
  C   C69       1.0  0.19947  0.46766  0.29523  1.0000
  H   H58       1.0  0.39181  0.29054  0.29434  1.0000
  C   C70       1.0  0.35491  0.12226  0.22534  1.0000
  H   H59       1.0  0.06286  0.46740  0.25394  1.0000
  C   C71       1.0  0.07265  0.46169  0.19190  1.0000
  C   C72       1.0  0.42750  0.35503  0.26220  1.0000
  H   H60       1.0  0.36820  0.39356  0.24358  1.0000
  C   C73       1.0  0.09621  0.43922  0.23491  1.0000
  C   C74       1.0  0.10835  0.42965  0.21200  1.0000
  C   C75       1.0  0.09661  0.44081  0.19050  1.0000
  H   H61       1.0  0.38146  0.18328  0.28753  1.0000
  C   C76       1.0  0.19595  0.37481  0.26644  1.0000
  H   H62       1.0  0.42048  0.24462  0.30159  1.0000
  C   C77       1.0  0.38894  0.04053  0.18111  1.0000
  H   H63       1.0  0.19616  0.35375  0.26800  1.0000
  H   H64       1.0  0.39255  0.08514  0.26907  1.0000
  H   H65       1.0  0.05209  0.40335  0.11900  1.0000
  S   S5        1.0  0.04934  0.43246  0.29739  1.0000
  C   C78       1.0  0.40017  0.28400  0.31156  1.0000
  C   C79       1.0  0.22366  0.46577  0.21793  1.0000
  C   C80       1.0  0.38330  0.14301  0.30595  1.0000
  S   S6        1.0  0.40983  0.98758  0.26492  1.0000
  S   S7        1.0  0.49130  0.22146  0.06436  1.0000
  C   C81       1.0  0.47154  0.07234  0.07466  1.0000
  H   H66       1.0  0.22889  0.36757  0.28757  1.0000
  H   H67       1.0  0.48379  0.17231  0.28941  1.0000
  S   S8        1.0  0.48112  0.10200  0.05895  1.0000
  C   C82       1.0  0.48416  0.05680  0.09448  1.0000
  C   C83       1.0  0.22751  0.46260  0.29771  1.0000
  H   H68       1.0  0.46421  0.13334  0.30849  1.0000
  H   H69       1.0  0.10521  0.46845  0.12636  1.0000
  H   H70       1.0  0.47526  0.15933  0.98882  1.0000
  H   H71       1.0  0.42978  0.32960  0.29736  1.0000
  H   H72       1.0  0.08892  0.47630  0.28397  1.0000
  C   C84       1.0  0.49144  0.16995  0.98741  1.0000
  H   H73       1.0  0.40541  0.13866  0.30526  1.0000
  H   H74       1.0  0.24715  0.23532  0.30481  1.0000
  C   C85       1.0  0.12142  0.98648  0.99560  1.0000
  H   H75       1.0  0.49039  0.28851  0.01742  1.0000
  C   C86       1.0  0.35401  0.05809  0.31443  1.0000
  H   H76       1.0  0.05832  0.08312  0.98540  1.0000
  S   S9        1.0  0.42825  0.05512  0.35154  1.0000
  H   H77       1.0  0.40359  0.09650  0.38218  1.0000
  S   S10       1.0  0.43268  0.41525  0.60946  1.0000
  H   H78       1.0  0.11650  0.40249  0.42225  1.0000
  H   H79       1.0  0.40432  0.14434  0.37594  1.0000
  Fe  Fe4       1.0  0.20130  0.35399  0.35334  1.0000
  S   S11       1.0  0.16013  0.36464  0.37854  1.0000
  C   C87       1.0  0.23464  0.46241  0.32095  1.0000
  Fe  Fe5       1.0  0.22668  0.39014  0.37437  1.0000
  S   S12       1.0  0.18798  0.40314  0.40190  1.0000
  S   S13       1.0  0.26307  0.40933  0.36847  1.0000
  Fe  Fe6       1.0  0.18578  0.36011  0.40808  1.0000
  S   S14       1.0  0.17133  0.33717  0.44481  1.0000
  Fe  Fe7       1.0  0.16557  0.40667  0.37007  1.0000
  S   S15       1.0  0.13056  0.44294  0.36584  1.0000
  S   S16       1.0  0.22685  0.34646  0.38366  1.0000
  S   S17       1.0  0.20439  0.39683  0.34177  1.0000
  Fe  Fe8       1.0  0.39820  0.38498  0.49598  1.0000
  S   S18       1.0  0.40449  0.34299  0.51505  1.0000
  S   S19       1.0  0.42771  0.41025  0.49654  1.0000
  Fe  Fe9       1.0  0.34409  0.38362  0.48159  1.0000
  S   S20       1.0  0.34540  0.34134  0.49999  1.0000
  S   S21       1.0  0.30907  0.41271  0.46519  1.0000
  Fe  Fe10      1.0  0.35931  0.35360  0.53133  1.0000
  S   S22       1.0  0.34681  0.34376  0.57307  1.0000
  Fe  Fe11      1.0  0.39059  0.33433  0.48226  1.0000
  S   S23       1.0  0.41430  0.29700  0.46584  1.0000
  S   S24       1.0  0.35398  0.39653  0.51470  1.0000
  S   S25       1.0  0.38823  0.37575  0.46120  1.0000
  Fe  Fe12      1.0  0.32241  0.21122  0.35639  1.0000
  S   S26       1.0  0.35274  0.17254  0.36344  1.0000
  S   S27       1.0  0.28772  0.21208  0.33639  1.0000
  Fe  Fe13      1.0  0.34978  0.24014  0.38239  1.0000
  S   S28       1.0  0.38244  0.20395  0.39290  1.0000
  S   S29       1.0  0.34287  0.28187  0.39099  1.0000
  Fe  Fe14      1.0  0.38582  0.19576  0.35372  1.0000
  S   S30       1.0  0.42827  0.17726  0.33330  1.0000
  Fe  Fe15      1.0  0.34770  0.18270  0.40212  1.0000
  S   S31       1.0  0.34766  0.14636  0.43071  1.0000
  S   S32       1.0  0.35596  0.23390  0.34206  1.0000
  S   S33       1.0  0.31443  0.21965  0.39609  1.0000
  S   S34       1.0  0.29881  0.22384  0.54368  1.0000
  S   S35       1.0  0.26915  0.28957  0.50546  1.0000
  C   C88       1.0  0.32861  0.15041  0.46076  1.0000
  C   C89       1.0  0.32594  0.12738  0.47763  1.0000
  C   C90       1.0  0.31128  0.12947  0.50202  1.0000
  C   C91       1.0  0.29960  0.15459  0.50978  1.0000
  C   C92       1.0  0.30219  0.17779  0.49297  1.0000
  C   C93       1.0  0.31657  0.17569  0.46826  1.0000
  H   H80       1.0  0.33520  0.10787  0.47179  1.0000
  H   H81       1.0  0.30913  0.11159  0.51495  1.0000
  H   H82       1.0  0.29311  0.19727  0.49894  1.0000
  H   H83       1.0  0.31850  0.19352  0.45514  1.0000
  C   C94       1.0  0.33838  0.31247  0.58232  1.0000
  C   C95       1.0  0.33159  0.29958  0.56516  1.0000
  C   C96       1.0  0.32364  0.27516  0.57305  1.0000
  H   H84       1.0  0.44705  0.19902  0.45178  1.0000
  H   H85       1.0  0.33193  0.30865  0.54591  1.0000
  H   H86       1.0  0.31778  0.26565  0.55979  1.0000
  C   C97       1.0  0.27482  0.34836  0.51721  1.0000
  C   C98       1.0  0.39512  0.29266  0.44455  1.0000
  C   C99       1.0  0.37106  0.31185  0.44020  1.0000
  C   C100      1.0  0.35503  0.30817  0.42390  1.0000
  C   C101      1.0  0.36330  0.28561  0.41146  1.0000
  C   C102      1.0  0.38746  0.26643  0.41566  1.0000
  C   C103      1.0  0.40346  0.26997  0.43217  1.0000
  H   H87       1.0  0.36461  0.32954  0.44944  1.0000
  H   H88       1.0  0.33593  0.32260  0.42125  1.0000
  H   H89       1.0  0.39372  0.24885  0.40633  1.0000
  H   H90       1.0  0.42206  0.25511  0.43545  1.0000
  C   C104      1.0  0.27897  0.40696  0.39450  1.0000
  C   C105      1.0  0.29387  0.42607  0.39463  1.0000
  C   C106      1.0  0.30449  0.42664  0.41598  1.0000
  C   C107      1.0  0.30118  0.40754  0.43709  1.0000
  C   C108      1.0  0.28759  0.38743  0.43653  1.0000
  C   C109      1.0  0.27617  0.38733  0.41533  1.0000
  H   H91       1.0  0.29620  0.44117  0.37854  1.0000
  H   H92       1.0  0.31462  0.44239  0.41639  1.0000
  H   H93       1.0  0.28500  0.37253  0.45269  1.0000
  H   H94       1.0  0.26497  0.37230  0.41521  1.0000
  C   C110      1.0  0.23631  0.11217  0.34299  1.0000
  C   C111      1.0  0.24414  0.28689  0.34845  1.0000
  C   C112      1.0  0.26269  0.26177  0.35062  1.0000
  C   C113      1.0  0.26392  0.24319  0.33479  1.0000
  H   H95       1.0  0.13358  0.40308  0.33441  1.0000
  C   C114      1.0  0.12862  0.42961  0.44058  1.0000
  H   H96       1.0  0.24367  0.30113  0.36049  1.0000
  H   H97       1.0  0.27626  0.25700  0.36433  1.0000
  H   H98       1.0  0.41277  0.29448  0.54500  1.0000
  C   C115      1.0  0.18600  0.47350  0.33940  1.0000
  C   C116      1.0  0.19867  0.32417  0.46145  1.0000
  C   C117      1.0  0.22235  0.33472  0.45553  1.0000
  C   C118      1.0  0.24401  0.32414  0.46923  1.0000
  C   C119      1.0  0.24194  0.30300  0.48870  1.0000
  C   C120      1.0  0.21818  0.29271  0.49466  1.0000
  C   C121      1.0  0.19658  0.30323  0.48102  1.0000
  H   H99       1.0  0.22400  0.35098  0.44043  1.0000
  H   H100      1.0  0.26249  0.33206  0.46451  1.0000
  H   H101      1.0  0.21628  0.27685  0.50995  1.0000
  H   H102      1.0  0.17848  0.29484  0.48551  1.0000
  Fe  Fe16      1.0  0.26183  0.25632  0.53601  1.0000
  C   C122      1.0  0.07407  0.39755  0.58028  1.0000
  C   C123      1.0  0.08292  0.45883  0.34596  1.0000
  C   C124      1.0  0.10777  0.43953  0.34729  1.0000
  C   C125      1.0  0.16227  0.17286  0.60331  1.0000
  H   H103      1.0  0.10618  0.36427  0.56879  1.0000
  P   P4        1.0  0.11451  0.37097  0.51326  1.0000
  H   H104      1.0  0.20773  0.40219  0.48800  1.0000
  H   H105      1.0  0.44776  0.35389  0.63521  1.0000
  C   C126      1.0  0.43176  0.41385  0.57796  1.0000
  C   C127      1.0  0.21563  0.07864  0.63138  1.0000
  C   C128      1.0  0.42905  0.41161  0.52789  1.0000
  C   C129      1.0  0.41777  0.39423  0.54735  1.0000
  C   C130      1.0  0.41955  0.39506  0.57224  1.0000
  H   H106      1.0  0.40738  0.38026  0.54346  1.0000
  H   H107      1.0  0.41038  0.38181  0.58708  1.0000
  C   C131      1.0  0.43264  0.08789  0.34831  1.0000
  H   H108      1.0  0.04117  0.43251  0.58661  1.0000
  C   C132      1.0  0.42757  0.24930  0.33753  1.0000
  C   C133      1.0  0.43348  0.14232  0.34118  1.0000
  C   C134      1.0  0.41727  0.13159  0.36250  1.0000
  C   C135      1.0  0.41691  0.10445  0.36608  1.0000
  C   C136      1.0  0.45065  0.09802  0.32803  1.0000
  H   H109      1.0  0.25626  0.45715  0.32312  1.0000
  H   H110      1.0  0.28586  0.42546  0.51517  1.0000
  H   H111      1.0  0.29745  0.00900  0.58658  1.0000
  H   H112      1.0  0.43981  0.22906  0.34075  1.0000
  H   H113      1.0  0.35662  0.44511  0.46761  1.0000
  P   P5        1.0  0.32055  0.10405  0.33304  1.0000
  H   H114      1.0  0.23490  0.14951  0.57809  1.0000
  H   H115      1.0  0.38200  0.26617  0.54243  1.0000
  C   C137      1.0  0.32969  0.31106  0.32167  1.0000
  H   H116      1.0  0.41173  0.21087  0.60385  1.0000
  C   C138      1.0  0.27280  0.14176  0.34875  1.0000
  C   C139      1.0  0.19825  0.13747  0.53816  1.0000
  H   H117      1.0  0.11122  0.44088  0.55958  1.0000
  H   H118      1.0  0.25552  0.03760  0.60817  1.0000
  H   H119      1.0  0.13913  0.19127  0.48953  1.0000
  H   H120      1.0  0.21538  0.17062  0.54022  1.0000
  C   C140      1.0  0.25834  0.35104  0.56149  1.0000
  H   H121      1.0  0.48816  0.05383  0.35754  1.0000
  H   H122      1.0  0.14113  0.45217  0.46341  1.0000
  C   C141      1.0  0.11986  0.40654  0.43989  1.0000
  C   C142      1.0  0.24639  0.47540  0.56220  1.0000
  C   C143      1.0  0.39588  0.25986  0.55600  1.0000
  C   C144      1.0  0.43178  0.26814  0.57474  1.0000
  H   H123      1.0  0.36066  0.10427  0.56172  1.0000
  H   H124      1.0  0.25762  0.34167  0.58081  1.0000
  C   C145      1.0  0.28347  0.11714  0.33946  1.0000
  C   C146      1.0  0.40539  0.29216  0.35206  1.0000
  H   H125      1.0  0.35942  0.44066  0.53824  1.0000
  C   C147      1.0  0.45052  0.32521  0.61047  1.0000
  C   C148      1.0  0.28921  0.45355  0.53770  1.0000
  H   H126      1.0  0.31253  0.05390  0.36349  1.0000
  C   C149      1.0  0.10081  0.30503  0.49220  1.0000
  H   H127      1.0  0.31153  0.45018  0.53201  1.0000
  H   H128      1.0  0.14085  0.21081  0.52698  1.0000
  C   C150      1.0  0.14341  0.21530  0.63169  1.0000
  C   C151      1.0  0.28171  0.33511  0.32315  1.0000
  H   H129      1.0  0.28666  0.33704  0.50219  1.0000
  H   H130      1.0  0.40922  0.13268  0.42399  1.0000
  H   H131      1.0  0.13541  0.32241  0.48994  1.0000
  H   H132      1.0  0.33311  0.15109  0.55944  1.0000
  C   C152      1.0  0.24139  0.45303  0.47618  1.0000
  H   H133      1.0  0.10963  0.37053  0.46048  1.0000
  H   H134      1.0  0.07137  0.42050  0.50956  1.0000
  H   H135      1.0  0.11329  0.28827  0.48273  1.0000
  C   C153      1.0  0.17164  0.31772  0.55144  1.0000
  C   C154      1.0  0.43568  0.31295  0.59892  1.0000
  C   C155      1.0  0.35617  0.42731  0.57740  1.0000
  C   C156      1.0  0.12980  0.41655  0.48497  1.0000
  C   C157      1.0  0.36056  0.44577  0.55599  1.0000
  H   H136      1.0  0.45247  0.44579  0.56257  1.0000
  C   C158      1.0  0.41662  0.25811  0.31545  1.0000
  C   C159      1.0  0.22066  0.11307  0.58148  1.0000
  H   H137      1.0  0.13384  0.42063  0.50228  1.0000
  H   H138      1.0  0.44393  0.23844  0.60580  1.0000
  H   H139      1.0  0.13168  0.47839  0.53573  1.0000
  C   C160      1.0  0.39406  0.30110  0.33003  1.0000
  C   C161      1.0  0.24201  0.45897  0.45023  1.0000
  H   H140      1.0  0.28211  0.31512  0.54622  1.0000
  H   H141      1.0  0.35183  0.40844  0.57575  1.0000
  H   H142      1.0  0.19084  0.19589  0.58072  1.0000
  C   C162      1.0  0.43945  0.15693  0.41475  1.0000
  C   C163      1.0  0.28854  0.35800  0.32728  1.0000
  H   H143      1.0  0.44728  0.15102  0.39615  1.0000
  C   C164      1.0  0.14705  0.33097  0.54256  1.0000
  H   H144      1.0  0.18957  0.14698  0.52152  1.0000
  H   H145      1.0  0.36833  0.45984  0.62054  1.0000
  C   C165      1.0  0.27519  0.47144  0.55476  1.0000
  Fe  Fe17      1.0  0.44476  0.45198  0.61529  1.0000
  H   H146      1.0  0.28664  0.15333  0.35138  1.0000
  Fe  Fe18      1.0  0.22327  0.23539  0.58058  1.0000
  H   H147      1.0  0.38060  0.22461  0.57230  1.0000
  H   H148      1.0  0.34327  0.31034  0.62064  1.0000
  C   C166      1.0  0.27455  0.43961  0.52807  1.0000
  H   H149      1.0  0.48827  0.18892  0.32679  1.0000
  H   H150      1.0  0.13181  0.44338  0.42347  1.0000
  C   C167      1.0  0.24562  0.44357  0.53528  1.0000
  H   H151      1.0  0.46419  0.34404  0.56087  1.0000
  C   C168      1.0  0.27259  0.33614  0.54208  1.0000
  C   C169      1.0  0.19241  0.23418  0.48559  1.0000
  C   C170      1.0  0.15404  0.20323  0.48843  1.0000
  C   C171      1.0  0.26502  0.10208  0.33717  1.0000
  S   S36       1.0  0.12985  0.14141  0.63403  1.0000
  C   C172      1.0  0.43912  0.18396  0.44635  1.0000
  C   C173      1.0  0.12077  0.39337  0.48449  1.0000
  H   H152      1.0  0.31001  0.47299  0.46294  1.0000
  H   H153      1.0  0.45009  0.44372  0.51855  1.0000
  C   C174      1.0  0.24630  0.24963  0.31707  1.0000
  C   C175      1.0  0.05462  0.42916  0.54718  1.0000
  H   H154      1.0  0.33404  0.02928  0.55829  1.0000
  C   C176      1.0  0.14668  0.35330  0.52388  1.0000
  H   H155      1.0  0.07441  0.39098  0.60010  1.0000
  C   C177      1.0  0.14499  0.45884  0.53981  1.0000
  H   H156      1.0  0.21539  0.31575  0.54772  1.0000
  C   C178      1.0  0.46128  0.21689  0.52616  1.0000
  H   H157      1.0  0.36542  0.05578  0.32959  1.0000
  C   C179      1.0  0.44993  0.17569  0.42267  1.0000
  C   C180      1.0  0.17370  0.45470  0.53144  1.0000
  C   C181      1.0  0.21695  0.41836  0.47772  1.0000
  C   C182      1.0  0.05624  0.32944  0.51182  1.0000
  C   C183      1.0  0.07222  0.30754  0.49997  1.0000
  H   H158      1.0  0.03404  0.33145  0.51770  1.0000
  H   H159      1.0  0.06246  0.29262  0.49664  1.0000
  C   C184      1.0  0.32915  0.08824  0.36323  1.0000
  C   C185      1.0  0.15494  0.21427  0.50950  1.0000
  H   H160      1.0  0.28849  0.10126  0.62335  1.0000
  C   C186      1.0  0.23160  0.46143  0.55259  1.0000
  H   H161      1.0  0.46599  0.18430  0.41019  1.0000
  C   C187      1.0  0.15062  0.41245  0.55812  1.0000
  C   C188      1.0  0.32240  0.06363  0.37364  1.0000
  C   C189      1.0  0.32871  0.05122  0.39712  1.0000
  C   C190      1.0  0.34145  0.06347  0.41049  1.0000
  C   C191      1.0  0.34775  0.08816  0.40043  1.0000
  C   C192      1.0  0.34157  0.10056  0.37693  1.0000
  S   S37       1.0  0.20561  0.32593  0.32526  1.0000
  C   C193      1.0  0.43636  0.34372  0.62699  1.0000
  C   C194      1.0  0.48478  0.26916  0.58803  1.0000
  C   C195      1.0  0.19610  0.32644  0.54149  1.0000
  H   H162      1.0  0.32393  0.03201  0.40486  1.0000
  H   H163      1.0  0.34660  0.05384  0.42858  1.0000
  H   H164      1.0  0.35768  0.09765  0.41076  1.0000
  H   H165      1.0  0.34667  0.11962  0.36955  1.0000
  C   C196      1.0  0.40656  0.31966  0.60403  1.0000
  C   C197      1.0  0.42229  0.26645  0.35564  1.0000
  H   H166      1.0  0.18453  0.10119  0.54057  1.0000
  H   H167      1.0  0.40888  0.36977  0.32760  1.0000
  S   S38       1.0  0.25686  0.20112  0.59261  1.0000
  S   S39       1.0  0.18022  0.24408  0.60351  1.0000
  C   C198      1.0  0.21390  0.46770  0.34182  1.0000
  H   H168      1.0  0.03985  0.44710  0.54127  1.0000
  C   C199      1.0  0.37373  0.35399  0.34841  1.0000
  C   C200      1.0  0.35460  0.35365  0.37101  1.0000
  C   C201      1.0  0.35512  0.36877  0.38936  1.0000
  C   C202      1.0  0.37488  0.38408  0.38550  1.0000
  C   C203      1.0  0.39421  0.38434  0.36318  1.0000
  C   C204      1.0  0.39369  0.36934  0.34467  1.0000
  P   P6        1.0  0.45391  0.28964  0.57698  1.0000
  H   H169      1.0  0.20523  0.07917  0.57799  1.0000
  C   C205      1.0  0.24416  0.15189  0.35443  1.0000
  C   C206      1.0  0.35883  0.43247  0.60066  1.0000
  C   C207      1.0  0.17440  0.19507  0.59682  1.0000
  C   C208      1.0  0.11598  0.38844  0.46171  1.0000
  C   C209      1.0  0.39247  0.33815  0.62057  1.0000
  H   H170      1.0  0.43080  0.25963  0.37275  1.0000
  H   H171      1.0  0.40091  0.30477  0.36672  1.0000
  H   H172      1.0  0.39461  0.31109  0.59489  1.0000
  H   H173      1.0  0.33930  0.34159  0.37458  1.0000
  H   H174      1.0  0.34028  0.36842  0.40672  1.0000
  H   H175      1.0  0.37520  0.39559  0.39993  1.0000
  H   H176      1.0  0.40963  0.39612  0.36027  1.0000
  C   C210      1.0  0.41276  0.22876  0.59052  1.0000
  C   C211      1.0  0.29536  0.03043  0.58424  1.0000
  H   H177      1.0  0.26409  0.38410  0.49218  1.0000
  C   C212      1.0  0.19113  0.42944  0.53661  1.0000
  C   C213      1.0  0.07266  0.41406  0.52922  1.0000
  H   H178      1.0  0.26043  0.33549  0.32238  1.0000
  C   C214      1.0  0.41780  0.17336  0.46239  1.0000
  C   C215      1.0  0.40700  0.15493  0.45403  1.0000
  P   P7        1.0  0.40178  0.18581  0.49196  1.0000
  C   C216      1.0  0.38864  0.15995  0.51398  1.0000
  C   C217      1.0  0.42632  0.19701  0.50469  1.0000
  C   C218      1.0  0.43842  0.18176  0.52496  1.0000
  C   C219      1.0  0.20698  0.09937  0.57025  1.0000
  C   C220      1.0  0.44940  0.23212  0.50592  1.0000
  C   C221      1.0  0.43202  0.22225  0.49526  1.0000
  C   C222      1.0  0.36300  0.16612  0.53005  1.0000
  C   C223      1.0  0.17161  0.36123  0.51338  1.0000
  H   H179      1.0  0.16925  0.15654  0.59223  1.0000
  C   C224      1.0  0.39410  0.11334  0.53245  1.0000
  C   C225      1.0  0.40416  0.13340  0.51531  1.0000
  C   C226      1.0  0.37411  0.21463  0.48667  1.0000
  C   C227      1.0  0.36273  0.21939  0.46477  1.0000
  C   C228      1.0  0.34381  0.24331  0.45932  1.0000
  C   C229      1.0  0.33603  0.26263  0.47567  1.0000
  C   C230      1.0  0.34637  0.25759  0.49803  1.0000
  C   C231      1.0  0.36524  0.23357  0.50365  1.0000
  H   H180      1.0  0.38945  0.14760  0.46534  1.0000
  H   H181      1.0  0.43411  0.16243  0.53285  1.0000
  C   C232      1.0  0.36962  0.47492  0.58121  1.0000
  H   H182      1.0  0.42249  0.23473  0.47999  1.0000
  H   H183      1.0  0.35044  0.18628  0.52921  1.0000
  S   S40       1.0  0.44302  0.98892  0.32525  1.0000
  C   C233      1.0  0.09178  0.39065  0.53666  1.0000
  H   H184      1.0  0.40602  0.09285  0.53322  1.0000
  H   H185      1.0  0.42397  0.12821  0.50300  1.0000
  H   H186      1.0  0.36878  0.20507  0.45150  1.0000
  H   H187      1.0  0.33580  0.24711  0.44196  1.0000
  H   H188      1.0  0.32199  0.28158  0.47107  1.0000
  H   H189      1.0  0.33988  0.27250  0.51079  1.0000
  H   H190      1.0  0.37334  0.23008  0.52092  1.0000
  C   C234      1.0  0.16709  0.28541  0.39441  1.0000
  C   C235      1.0  0.17039  0.27500  0.37200  1.0000
  C   C236      1.0  0.18595  0.24899  0.36950  1.0000
  C   C237      1.0  0.19880  0.23356  0.38917  1.0000
  C   C238      1.0  0.19637  0.24427  0.41141  1.0000
  C   C239      1.0  0.17987  0.27008  0.41410  1.0000
  P   P8        1.0  0.21626  0.22711  0.43556  1.0000
  C   C240      1.0  0.23864  0.19513  0.42923  1.0000
  C   C241      1.0  0.24046  0.24643  0.43725  1.0000
  C   C242      1.0  0.24495  0.26804  0.41874  1.0000
  C   C243      1.0  0.26495  0.28178  0.41953  1.0000
  C   C244      1.0  0.28042  0.27424  0.43881  1.0000
  C   C245      1.0  0.27635  0.25254  0.45708  1.0000
  C   C246      1.0  0.25689  0.23834  0.45601  1.0000
  C   C247      1.0  0.25764  0.19330  0.40659  1.0000
  C   C248      1.0  0.27797  0.16983  0.40295  1.0000
  C   C249      1.0  0.27971  0.14804  0.42189  1.0000
  C   C250      1.0  0.26110  0.14972  0.44461  1.0000
  C   C251      1.0  0.24072  0.17318  0.44835  1.0000
  C   C252      1.0  0.19195  0.22286  0.46446  1.0000
  C   C253      1.0  0.17241  0.20757  0.46595  1.0000
  C   C254      1.0  0.36558  0.45624  0.60256  1.0000
  H   H191      1.0  0.15545  0.30573  0.39624  1.0000
  H   H192      1.0  0.16145  0.28736  0.35636  1.0000
  H   H193      1.0  0.18889  0.24118  0.35192  1.0000
  H   H194      1.0  0.21113  0.21374  0.38657  1.0000
  H   H195      1.0  0.17811  0.27895  0.43093  1.0000
  H   H196      1.0  0.23355  0.27419  0.40338  1.0000
  H   H197      1.0  0.26863  0.29826  0.40515  1.0000
  H   H198      1.0  0.29544  0.28543  0.43952  1.0000
  H   H199      1.0  0.28796  0.24684  0.47233  1.0000
  H   H200      1.0  0.25460  0.22115  0.46993  1.0000
  H   H201      1.0  0.25774  0.21048  0.39219  1.0000
  H   H202      1.0  0.29329  0.16909  0.38590  1.0000
  H   H203      1.0  0.29627  0.13032  0.41937  1.0000
  H   H204      1.0  0.26334  0.13327  0.45972  1.0000
  H   H205      1.0  0.22763  0.17447  0.46661  1.0000
  H   H206      1.0  0.17162  0.19885  0.44976  1.0000
  H   H207      1.0  0.20692  0.24631  0.48490  1.0000
  H   H208      1.0  0.13578  0.23185  0.64257  1.0000
  H   H209      1.0  0.35658  0.41768  0.61706  1.0000
  C   C255      1.0  0.46407  0.30793  0.54657  1.0000
  H   H210      1.0  0.46590  0.26772  0.62738  1.0000
  H   H211      1.0  0.17464  0.23858  0.52430  1.0000
  C   C256      1.0  0.17401  0.22987  0.50801  1.0000
  C   C257      1.0  0.39524  0.23641  0.57272  1.0000
  H   H212      1.0  0.23444  0.38938  0.57109  1.0000
  H   H213      1.0  0.12841  0.32361  0.55016  1.0000
  C   C258      1.0  0.24529  0.37795  0.55590  1.0000
  H   H214      1.0  0.38310  0.45545  0.49592  1.0000
  C   C259      1.0  0.43098  0.24452  0.59157  1.0000
  H   H215      1.0  0.28710  0.10733  0.57385  1.0000
  C   C260      1.0  0.41363  0.27586  0.55733  1.0000
  S   S41       1.0  0.23312  0.22877  0.54011  1.0000
  C   C261      1.0  0.35309  0.14610  0.54728  1.0000
  H   H216      1.0  0.17255  0.37698  0.49777  1.0000
  C   C262      1.0  0.44178  0.43001  0.53350  1.0000
  C   C263      1.0  0.32169  0.47806  0.47507  1.0000
  H   H217      1.0  0.17728  0.09967  0.61827  1.0000
  C   C264      1.0  0.32355  0.26306  0.59793  1.0000
  H   H218      1.0  0.14180  0.39593  0.56826  1.0000
  C   C265      1.0  0.09215  0.38241  0.56237  1.0000
  C   C266      1.0  0.31596  0.04185  0.56826  1.0000
  C   C267      1.0  0.19611  0.34796  0.52230  1.0000
  H   H219      1.0  0.17192  0.30032  0.56568  1.0000
  C   C268      1.0  0.48452  0.26145  0.61390  1.0000
  C   C269      1.0  0.11436  0.41799  0.33356  1.0000
  H   H220      1.0  0.27274  0.08248  0.33115  1.0000
  C   C270      1.0  0.13346  0.43773  0.55320  1.0000
  C   C271      1.0  0.21770  0.42427  0.45185  1.0000
  C   C272      1.0  0.26173  0.37510  0.51156  1.0000
  C   C273      1.0  0.22901  0.43249  0.49005  1.0000
  C   C274      1.0  0.46842  0.29607  0.52464  1.0000
  C   C275      1.0  0.05534  0.42093  0.57270  1.0000
  C   C276      1.0  0.41803  0.14654  0.43045  1.0000
  H   H221      1.0  0.21548  0.35352  0.51359  1.0000
  H   H222      1.0  0.23630  0.17122  0.36107  1.0000
  C   C277      1.0  0.14176  0.17116  0.62469  1.0000
  C   C278      1.0  0.22725  0.29377  0.33009  1.0000
  C   C279      1.0  0.44297  0.43128  0.55848  1.0000
  H   H223      1.0  0.21951  0.46652  0.36001  1.0000
  C   C280      1.0  0.22371  0.13877  0.57035  1.0000
  P   P9        1.0  0.22773  0.42399  0.52350  1.0000
  C   C281      1.0  0.24595  0.38981  0.53078  1.0000
  C   C282      1.0  0.06882  0.34883  0.51596  1.0000
  H   H224      1.0  0.05602  0.36569  0.52499  1.0000
  C   C283      1.0  0.23022  0.44456  0.43807  1.0000
  C   C284      1.0  0.33812  0.30043  0.60725  1.0000
  H   H225      1.0  0.19186  0.38827  0.55317  1.0000
  C   C285      1.0  0.36699  0.46995  0.55768  1.0000
  H   H226      1.0  0.20941  0.41248  0.44240  1.0000
  S   S42       1.0  0.47390  0.47365  0.58794  1.0000
  S   S43       1.0  0.28209  0.15605  0.54070  1.0000
  C   C286      1.0  0.21259  0.15088  0.54877  1.0000
  C   C287      1.0  0.11338  0.32433  0.49637  1.0000
  H   H227      1.0  0.23161  0.44844  0.41784  1.0000
  Fe  Fe19      1.0  0.26912  0.19713  0.55165  1.0000
  C   C288      1.0  0.36857  0.11972  0.54847  1.0000
  C   C289      1.0  0.09758  0.34630  0.50832  1.0000
  C   C290      1.0  0.26887  0.07453  0.59360  1.0000
  C   C291      1.0  0.33121  0.27552  0.61494  1.0000
  Fe  Fe20      1.0  0.28370  0.23073  0.58364  1.0000
  H   H228      1.0  0.07768  0.47539  0.35675  1.0000
  H   H229      1.0  0.27248  0.37602  0.32988  1.0000
  H   H230      1.0  0.15698  0.47675  0.31538  1.0000
  S   S44       1.0  0.24905  0.26567  0.57549  1.0000
  H   H231      1.0  0.47444  0.22471  0.53467  1.0000
  S   S45       1.0  0.31310  0.23281  0.60799  1.0000
  H   H232      1.0  0.25125  0.46397  0.48508  1.0000
  C   C292      1.0  0.45584  0.19170  0.53563  1.0000
  C   C293      1.0  0.16507  0.21627  0.61111  1.0000
  C   C294      1.0  0.17929  0.40824  0.54974  1.0000
  C   C295      1.0  0.22351  0.14171  0.63120  1.0000
  C   C296      1.0  0.19545  0.11170  0.54890  1.0000
  H   H233      1.0  0.34494  0.29248  0.32005  1.0000
  C   C297      1.0  0.27162  0.11784  0.62865  1.0000
  H   H234      1.0  0.22480  0.24437  0.62991  1.0000
  H   H235      1.0  0.36997  0.34381  0.62374  1.0000
  C   C298      1.0  0.31293  0.06956  0.56467  1.0000
  H   H236      1.0  0.47298  0.32094  0.60629  1.0000
  C   C299      1.0  0.33692  0.33417  0.32523  1.0000
  H   H237      1.0  0.25257  0.47403  0.43936  1.0000
  H   H238      1.0  0.37927  0.10448  0.32574  1.0000
  C   C300      1.0  0.31597  0.35757  0.32841  1.0000
  H   H239      1.0  0.32843  0.07857  0.55174  1.0000
  C   C301      1.0  0.13383  0.43451  0.46306  1.0000
  H   H240      1.0  0.48376  0.37914  0.59376  1.0000
  C   C302      1.0  0.24502  0.12032  0.62345  1.0000
  P   P10       1.0  0.23763  0.09623  0.60764  1.0000
  C   C303      1.0  0.09608  0.41577  0.31853  1.0000
  C   C304      1.0  0.46761  0.33412  0.54448  1.0000
  Fe  Fe21      1.0  0.44944  0.03070  0.32011  1.0000
  C   C305      1.0  0.17874  0.47333  0.31628  1.0000
  C   C306      1.0  0.28947  0.08583  0.57724  1.0000
  C   C307      1.0  0.45139  0.12520  0.32474  1.0000
  H   H241      1.0  0.29686  0.29372  0.31766  1.0000
  P   P11       1.0  0.37271  0.33451  0.32473  1.0000
  H   H242      1.0  0.39646  0.36513  0.64427  1.0000
  C   C308      1.0  0.36296  0.46824  0.49373  1.0000
  H   H243      1.0  0.33107  0.26626  0.63421  1.0000
  C   C309      1.0  0.27172  0.04672  0.59670  1.0000
  H   H244      1.0  0.20946  0.46428  0.55905  1.0000
  H   H245      1.0  0.48050  0.42837  0.48085  1.0000
  H   H246      1.0  0.29730  0.13546  0.64429  1.0000
  H   H247      1.0  0.16992  0.47700  0.35576  1.0000
  H   H248      1.0  0.45307  0.25184  0.49855  1.0000
  H   H249      1.0  0.20273  0.14356  0.62797  1.0000
  C   C310      1.0  0.22588  0.13714  0.35147  1.0000
  H   H250      1.0  0.20366  0.14502  0.35590  1.0000
  C   C311      1.0  0.22824  0.27495  0.31455  1.0000
  H   H251      1.0  0.47668  0.36874  0.51933  1.0000
  H   H252      1.0  0.32076  0.37556  0.33175  1.0000
  C   C312      1.0  0.30225  0.31163  0.32045  1.0000
  H   H253      1.0  0.04537  0.47148  0.33008  1.0000
  C   C313      1.0  0.13186  0.19273  0.63853  1.0000
  H   H254      1.0  0.46591  0.27596  0.52575  1.0000
  C   C314      1.0  0.27667  0.13706  0.64074  1.0000
  C   C315      1.0  0.40735  0.35011  0.63213  1.0000
  C   C316      1.0  0.06460  0.45659  0.33098  1.0000
  C   C317      1.0  0.18687  0.08450  0.63195  1.0000
  C   C318      1.0  0.36833  0.12373  0.31752  1.0000
  C   C319      1.0  0.47479  0.34828  0.52086  1.0000
  H   H255      1.0  0.18234  0.47108  0.52062  1.0000
  H   H256      1.0  0.22214  0.10058  0.34103  1.0000
  C   C320      1.0  0.34802  0.46231  0.47767  1.0000
  Fe  Fe22      1.0  0.48992  0.47706  0.62186  1.0000
  C   C321      1.0  0.07119  0.43503  0.31723  1.0000
  C   C322      1.0  0.33949  0.12945  0.31868  1.0000
  C   C323      1.0  0.47506  0.31047  0.50103  1.0000
  C   C324      1.0  0.47811  0.33663  0.49914  1.0000
  H   H257      1.0  0.46484  0.18000  0.55146  1.0000
  H   H258      1.0  0.48226  0.34816  0.48086  1.0000
  H   H259      1.0  0.47687  0.30170  0.48414  1.0000
  C   C325      1.0  0.22866  0.16101  0.64297  1.0000
  H   H260      1.0  0.28675  0.48192  0.56243  1.0000
  H   H261      1.0  0.26641  0.24674  0.64549  1.0000
  H   H262      1.0  0.46327  0.08512  0.31454  1.0000
  Fe  Fe23      1.0  0.11362  0.12736  0.72918  1.0000
  S   S46       1.0  0.10141  0.16334  0.70162  1.0000
  S   S47       1.0  0.14395  0.12809  0.75335  1.0000
  Fe  Fe24      1.0  0.07907  0.09702  0.71254  1.0000
  S   S48       1.0  0.06349  0.13036  0.68343  1.0000
  S   S49       1.0  0.07007  0.05622  0.72118  1.0000
  Fe  Fe25      1.0  0.10745  0.13509  0.67400  1.0000
  C   C326      1.0  0.20981  0.04721  0.66955  1.0000
  Fe  Fe26      1.0  0.05858  0.15623  0.71325  1.0000
  S   S50       1.0  0.02591  0.19413  0.71699  1.0000
  S   S51       1.0  0.12364  0.09929  0.70058  1.0000
  S   S52       1.0  0.07012  0.12252  0.74348  1.0000
  H   H263      1.0  0.07795  0.00403  0.69397  1.0000
  H   H264      1.0  0.15385  0.11584  0.84652  1.0000
  C   C327      1.0  0.09492  0.07759  0.86007  1.0000
  C   C328      1.0  0.41586  0.46808  0.76368  1.0000
  H   H265      1.0  0.05094  0.21230  0.76685  1.0000
  C   C329      1.0  0.03355  0.17241  0.82099  1.0000
  H   H266      1.0  0.18755  0.22597  0.65838  1.0000
  S   S53       1.0  0.09921  0.01139  0.83423  1.0000
  C   C330      1.0  0.18426  0.22928  0.75188  1.0000
  H   H267      1.0  0.02839  0.05940  0.77748  1.0000
  C   C331      1.0  0.44213  0.45610  0.72357  1.0000
  C   C332      1.0  0.14210  0.07854  0.86145  1.0000
  Fe  Fe27      1.0  0.14335  0.99693  0.83953  1.0000
  C   C333      1.0  0.14554  0.22373  0.70735  1.0000
  C   C334      1.0  0.11127  0.11824  0.84429  1.0000
  C   C335      1.0  0.09591  0.22612  0.71478  1.0000
  H   H268      1.0  0.11074  0.28263  0.67903  1.0000
  C   C336      1.0  0.13675  0.03211  0.74141  1.0000
  C   C337      1.0  0.06730  0.07894  0.81054  1.0000
  C   C338      1.0  0.16979  0.99097  0.92620  1.0000
  C   C339      1.0  0.23136  0.21916  0.69963  1.0000
  C   C340      1.0  0.01319  0.09097  0.80110  1.0000
  C   C341      1.0  0.03280  0.12596  0.86887  1.0000
  C   C342      1.0  0.03931  0.05481  0.71237  1.0000
  C   C343      1.0  0.03055  0.07065  0.69091  1.0000
  H   H269      1.0  0.04293  0.08385  0.67937  1.0000
  H   H270      1.0  0.18675  0.10933  0.78310  1.0000
  C   C344      1.0  0.12089  0.06475  0.86630  1.0000
  H   H271      1.0  0.00434  0.12142  0.82498  1.0000
  C   C345      1.0  0.13691  0.07888  0.77772  1.0000
  C   C346      1.0  0.15231  0.09841  0.77376  1.0000
  C   C347      1.0  0.17479  0.09425  0.78614  1.0000
  H   H272      1.0  0.11941  0.08214  0.76830  1.0000
  C   C348      1.0  0.46213  0.47648  0.74940  1.0000
  C   C349      1.0  0.06695  0.07030  0.97084  1.0000
  H   H273      1.0  0.19926  0.06746  0.81196  1.0000
  H   H274      1.0  0.00048  0.05182  0.90893  1.0000
  H   H275      1.0  0.18637  0.24845  0.78276  1.0000
  H   H276      1.0  0.15610  0.18052  0.68072  1.0000
  H   H277      1.0  0.24888  0.05642  0.65115  1.0000
  H   H278      1.0  0.12487  0.04384  0.87416  1.0000
  C   C350      1.0  0.01365  0.10999  0.87888  1.0000
  C   C351      1.0  0.46406  0.46574  0.72730  1.0000
  H   H279      1.0  0.40054  0.45119  0.73798  1.0000
  H   H280      1.0  0.06393  0.06762  0.91021  1.0000
  H   H281      1.0  0.00773  0.15156  0.75390  1.0000
  H   H282      1.0  0.01396  0.21137  0.80444  1.0000
  C   C352      1.0  0.99719  0.17071  0.76007  1.0000
  H   H283      1.0  0.12233  0.05132  0.73905  1.0000
  H   H284      1.0  0.99939  0.08094  0.66734  1.0000
  H   H285      1.0  0.04864  0.15872  0.87459  1.0000
  C   C353      1.0  0.08590  0.04598  0.97564  1.0000
  H   H286      1.0  0.48412  0.43399  0.78103  1.0000
  H   H287      1.0  0.20522  0.00485  0.74199  1.0000
  H   H288      1.0  0.04402  0.09672  0.94360  1.0000
  H   H289      1.0  0.18832  0.24598  0.73794  1.0000
  Fe  Fe28      1.0  0.08893  0.99166  0.87352  1.0000
  C   C354      1.0  0.03383  0.14630  0.88196  1.0000
  C   C355      1.0  0.02344  0.03746  0.72704  1.0000
  C   C356      1.0  0.13726  0.10532  0.85059  1.0000
  C   C357      1.0  0.05645  0.15053  0.81854  1.0000
  H   H290      1.0  0.10791  0.13893  0.83585  1.0000
  H   H291      1.0  0.00757  0.02355  0.82595  1.0000
  C   C358      1.0  0.18128  0.05264  0.66952  1.0000
  C   C359      1.0  0.09163  0.25126  0.70039  1.0000
  H   H292      1.0  0.27118  0.22977  0.68976  1.0000
  C   C360      1.0  0.12675  0.00885  0.74689  1.0000
  S   S54       1.0  0.46323  0.45232  0.64880  1.0000
  P   P12       1.0  0.17993  0.20529  0.71204  1.0000
  C   C361      1.0  0.17992  0.20647  0.74462  1.0000
  C   C362      1.0  0.17683  0.20982  0.79557  1.0000
  C   C363      1.0  0.11410  0.26306  0.69007  1.0000
  H   H293      1.0  0.07844  0.21695  0.72265  1.0000
  C   C364      1.0  0.02007  0.10532  0.81697  1.0000
  C   C365      1.0  0.00212  0.04585  0.89075  1.0000
  H   H294      1.0  0.01550  0.16734  0.91408  1.0000
  H   H295      1.0  0.16782  0.04288  0.68429  1.0000
  H   H296      1.0  0.11520  0.19217  0.65439  1.0000
  H   H297      1.0  0.21851  0.03322  0.68447  1.0000
  C   C366      1.0  0.03201  0.19485  0.80268  1.0000
  H   H298      1.0  0.17557  0.21111  0.81524  1.0000
  P   P13       1.0  0.05667  0.12000  0.83995  1.0000
  C   C367      1.0  0.18192  0.07055  0.80238  1.0000
  C   C368      1.0  0.16637  0.05105  0.80658  1.0000
  C   C369      1.0  0.20535  0.22726  0.66572  1.0000
  H   H299      1.0  0.07879  0.06646  0.86356  1.0000
  C   C370      1.0  0.03336  0.07059  0.78995  1.0000
  H   H300      1.0  0.09125  0.17342  0.76199  1.0000
  H   H301      1.0  0.16249  0.06820  0.86550  1.0000
  C   C371      1.0  0.12273  0.21250  0.71845  1.0000
  C   C372      1.0  0.02572  0.02741  0.88109  1.0000
  C   C373      1.0  0.06038  0.06460  0.79468  1.0000
  H   H302      1.0  0.09419  0.13381  0.79412  1.0000
  C   C374      1.0  0.14401  0.05516  0.79406  1.0000
  C   C375      1.0  0.17626  0.13896  0.68421  1.0000
  C   C376      1.0  0.19606  0.11880  0.69497  1.0000
  C   C377      1.0  0.21131  0.12493  0.71065  1.0000
  C   C378      1.0  0.20644  0.15118  0.71584  1.0000
  C   C379      1.0  0.18579  0.17132  0.70584  1.0000
  C   C380      1.0  0.17128  0.16515  0.68946  1.0000
  H   H303      1.0  0.01275  0.09413  0.86915  1.0000
  C   C381      1.0  0.18297  0.23082  0.77726  1.0000
  H   H304      1.0  0.23395  0.21149  0.71881  1.0000
  H   H305      1.0  0.13234  0.03996  0.79668  1.0000
  H   H306      1.0  0.10466  0.01014  0.74876  1.0000
  C   C382      1.0  0.14094  0.24950  0.69375  1.0000
  C   C383      1.0  0.17183  0.18735  0.78851  1.0000
  C   C384      1.0  0.17319  0.18575  0.76316  1.0000
  C   C385      1.0  0.02751  0.01932  0.85779  1.0000
  C   C386      1.0  0.04713  0.09919  0.82206  1.0000
  H   H307      1.0  0.02989  0.02568  0.74391  1.0000
  H   H308      1.0  0.08852  0.07447  0.81333  1.0000
  H   H309      1.0  0.15421  0.03231  0.97110  1.0000
  C   C387      1.0  0.07551  0.17352  0.77876  1.0000
  C   C388      1.0  0.00596  0.06894  0.68409  1.0000
  H   H310      1.0  0.16649  0.17124  0.80264  1.0000
  H   H311      1.0  0.12581  0.19292  0.72957  1.0000
  H   H312      1.0  0.16468  0.13431  0.67180  1.0000
  C   C389      1.0  0.25262  0.22929  0.68321  1.0000
  H   H313      1.0  0.39699  0.46939  0.77753  1.0000
  H   H314      1.0  0.19942  0.09847  0.69123  1.0000
  H   H315      1.0  0.22654  0.10928  0.71912  1.0000
  H   H316      1.0  0.21839  0.15565  0.72801  1.0000
  C   C390      1.0  0.08964  0.03771  0.93297  1.0000
  C   C391      1.0  0.25006  0.23871  0.65818  1.0000
  C   C392      1.0  0.41791  0.45759  0.74156  1.0000
  C   C393      1.0  0.05898  0.07808  0.94728  1.0000
  H   H317      1.0  0.15790  0.25923  0.68591  1.0000
  H   H318      1.0  0.16851  0.16852  0.75818  1.0000
  S   S55       1.0  0.17531  0.02194  0.82771  1.0000
  C   C394      1.0  0.09014  0.10424  0.84848  1.0000
  C   C395      1.0  0.05288  0.19536  0.78151  1.0000
  C   C396      1.0  0.07722  0.15111  0.79712  1.0000
  H   H319      1.0  0.17252  0.04882  0.73600  1.0000
  C   C397      1.0  0.16505  0.03057  0.73960  1.0000
  H   H320      1.0  0.07599  0.04899  0.78578  1.0000
  C   C398      1.0  0.99596  0.13533  0.91404  1.0000
  H   H321      1.0  0.07087  0.26151  0.69726  1.0000
  C   C399      1.0  0.00245  0.19438  0.74544  1.0000
  C   C400      1.0  0.09686  0.02917  0.95688  1.0000
  C   C401      1.0  0.20721  0.21877  0.69114  1.0000
  H   H322      1.0  0.01623  0.17187  0.83638  1.0000
  C   C402      1.0  0.99521  0.11472  0.90134  1.0000
  C   C403      1.0  0.00607  0.02994  0.84396  1.0000
  H   H323      1.0  0.00319  0.09173  0.74251  1.0000
  C   C404      1.0  0.43800  0.47720  0.76776  1.0000
  H   H324      1.0  0.48229  0.46485  0.71279  1.0000
  H   H325      1.0  0.44341  0.44852  0.70618  1.0000
  S   S56       1.0  0.05249  0.01375  0.89851  1.0000
  C   C405      1.0  0.99871  0.03598  0.72042  1.0000
  H   H326      1.0  0.43621  0.48480  0.78522  1.0000
  C   C406      1.0  0.22692  0.06031  0.65064  1.0000
  C   C407      1.0  0.01528  0.15110  0.90437  1.0000
  C   C408      1.0  0.22656  0.23748  0.64942  1.0000
  H   H327      1.0  0.25919  0.17394  0.65667  1.0000
  C   C409      1.0  0.18339  0.00566  0.74324  1.0000
  C   C410      1.0  0.16987  0.07133  0.65076  1.0000
  C   C411      1.0  0.07037  0.06180  0.92837  1.0000
  H   H328      1.0  0.07114  0.99252  0.94606  1.0000
  H   H329      1.0  0.03262  0.99440  0.69372  1.0000
  H   H330      1.0  0.04502  0.00433  0.85055  1.0000
  C   C412      1.0  0.25520  0.15869  0.64783  1.0000
  H   H331      1.0  0.09836  0.02542  0.91800  1.0000
  C   C413      1.0  0.20600  0.01477  0.92231  1.0000
  C   C414      1.0  0.16563  0.02207  0.95527  1.0000
  C   C415      1.0  0.19118  0.02754  0.94300  1.0000
  H   H332      1.0  0.99261  0.23735  0.74209  1.0000
  C   C416      1.0  0.19524  0.99655  0.91388  1.0000
  H   H333      1.0  0.19946  0.04176  0.94946  1.0000
  H   H334      1.0  0.14762  0.07623  0.65107  1.0000
  P   P14       1.0  0.12132  0.99766  0.96263  1.0000
  H   H335      1.0  0.20656  0.98675  0.89772  1.0000
  C   C417      1.0  0.15486  0.00352  0.94709  1.0000
  H   H336      1.0  0.22576  0.01901  0.91275  1.0000
  H   H337      1.0  0.21206  0.17795  0.64795  1.0000
  C   C418      1.0  0.25974  0.57219  0.25016  1.0000
  C   C419      1.0  0.44620  0.93942  0.26024  1.0000
  H   H338      1.0  0.37682  0.53210  0.13862  1.0000
  C   C420      1.0  0.38960  0.54258  0.14478  1.0000
  H   H339      1.0  0.45403  0.64392  0.02407  1.0000
  C   C421      1.0  0.43726  0.73166  0.01151  1.0000
  Fe  Fe29      1.0  0.48185  0.95937  0.12242  1.0000
  H   H340      1.0  0.48691  0.84573  0.99391  1.0000
  S   S57       1.0  0.24436  0.78106  0.04693  1.0000
  H   H341      1.0  0.17479  0.61497  0.15317  1.0000
  H   H342      1.0  0.16944  0.54188  0.15778  1.0000
  C   C422      1.0  0.00306  0.64376  0.25567  1.0000
  Fe  Fe30      1.0  0.44923  0.69131  0.14466  1.0000
  S   S58       1.0  0.43634  0.69618  0.10718  1.0000
  S   S59       1.0  0.44565  0.65798  0.17658  1.0000
  Fe  Fe31      1.0  0.42228  0.74006  0.11147  1.0000
  S   S60       1.0  0.38012  0.76535  0.10567  1.0000
  S   S61       1.0  0.43150  0.73408  0.15052  1.0000
  Fe  Fe32      1.0  0.33092  0.58647  0.11219  1.0000
  S   S62       1.0  0.30605  0.58205  0.15090  1.0000
  S   S63       1.0  0.35056  0.55061  0.09216  1.0000
  Fe  Fe33      1.0  0.32043  0.64644  0.10935  1.0000
  S   S64       1.0  0.29399  0.64758  0.14751  1.0000
  S   S65       1.0  0.33331  0.68268  0.08682  1.0000
  Fe  Fe34      1.0  0.32658  0.61207  0.15875  1.0000
  S   S66       1.0  0.34025  0.60889  0.19554  1.0000
  Fe  Fe35      1.0  0.27569  0.61777  0.13614  1.0000
  S   S67       1.0  0.23150  0.61456  0.14876  1.0000
  S   S68       1.0  0.35476  0.61289  0.12137  1.0000
  S   S69       1.0  0.29889  0.62011  0.09663  1.0000
  Fe  Fe36      1.0  0.07486  0.64347  0.15578  1.0000
  Fe  Fe37      1.0  0.04615  0.70082  0.14008  1.0000
  S   S70       1.0  0.05828  0.69657  0.09914  1.0000
  H   H343      1.0  0.21672  0.51006  0.25872  1.0000
  Fe  Fe38      1.0  0.04574  0.65733  0.11057  1.0000
  S   S71       1.0  0.01850  0.64962  0.08649  1.0000
  Fe  Fe39      1.0  0.09956  0.67375  0.10846  1.0000
  S   S72       1.0  0.14029  0.67927  0.08477  1.0000
  S   S73       1.0  0.03104  0.66312  0.15106  1.0000
  S   S74       1.0  0.08883  0.68194  0.14853  1.0000
  H   H344      1.0  0.42274  0.63304  0.11287  1.0000
  C   C423      1.0  0.37622  0.95253  0.09680  1.0000
  H   H345      1.0  0.11958  0.53194  0.22434  1.0000
  C   C424      1.0  0.27233  0.59259  0.04250  1.0000
  H   H346      1.0  0.24670  0.58749  0.10540  1.0000
  C   C425      1.0  0.18571  0.64588  0.03340  1.0000
  S   S75       1.0  0.48880  0.89817  0.20353  1.0000
  H   H347      1.0  0.27970  0.54335  0.10423  1.0000
  H   H348      1.0  0.47766  0.62445  0.09134  1.0000
  H   H349      1.0  0.32309  0.89629  0.03972  1.0000
  C   C426      1.0  0.08697  0.65525  0.23781  1.0000
  C   C427      1.0  0.47147  0.85136  0.01014  1.0000
  H   H350      1.0  0.31983  0.58447  0.98650  1.0000
  Fe  Fe40      1.0  0.48889  0.97787  0.31142  1.0000
  H   H351      1.0  0.20023  0.85450  0.99374  1.0000
  C   C428      1.0  0.00860  0.71168  0.22774  1.0000
  H   H352      1.0  0.17730  0.55164  0.25712  1.0000
  C   C429      1.0  0.14332  0.81535  0.99822  1.0000
  H   H353      1.0  0.04184  0.70985  0.19572  1.0000
  H   H354      1.0  0.20638  0.80786  0.01452  1.0000
  H   H355      1.0  0.39406  0.66399  0.08417  1.0000
  H   H356      1.0  0.21676  0.54563  0.16001  1.0000
  H   H357      1.0  0.12731  0.80475  0.99914  1.0000
  H   H358      1.0  0.02220  0.70142  0.24090  1.0000
  C   C430      1.0  0.00008  0.62462  0.09931  1.0000
  H   H359      1.0  0.00295  0.73755  0.10273  1.0000
  C   C431      1.0  0.43183  0.59288  0.06790  1.0000
  C   C432      1.0  0.18420  0.84365  0.99517  1.0000
  H   H360      1.0  0.00899  0.57955  0.28472  1.0000
  H   H361      1.0  0.24783  0.52912  0.22294  1.0000
  C   C433      1.0  0.20738  0.63206  0.12961  1.0000
  C   C434      1.0  0.21445  0.64946  0.10801  1.0000
  C   C435      1.0  0.19401  0.66369  0.09371  1.0000
  C   C436      1.0  0.16657  0.66071  0.10134  1.0000
  C   C437      1.0  0.15980  0.64318  0.12283  1.0000
  H   H362      1.0  0.23550  0.65217  0.10251  1.0000
  H   H363      1.0  0.19934  0.67726  0.07707  1.0000
  C   C438      1.0  0.41553  0.64566  0.18184  1.0000
  C   C439      1.0  0.39860  0.65115  0.16367  1.0000
  C   C440      1.0  0.37481  0.64072  0.16818  1.0000
  C   C441      1.0  0.36814  0.62451  0.19075  1.0000
  C   C442      1.0  0.38476  0.61951  0.20914  1.0000
  C   C443      1.0  0.40856  0.62987  0.20459  1.0000
  H   H364      1.0  0.40386  0.66335  0.14611  1.0000
  H   H365      1.0  0.36163  0.64544  0.15419  1.0000
  H   H366      1.0  0.37968  0.60706  0.22664  1.0000
  H   H367      1.0  0.42163  0.62564  0.21869  1.0000
  C   C444      1.0  0.25869  0.58172  0.08766  1.0000
  H   H368      1.0  0.24322  0.61944  0.06693  1.0000
  S   S76       1.0  0.08582  0.61397  0.18934  1.0000
  H   H369      1.0  0.05834  0.55197  0.09805  1.0000
  C   C445      1.0  0.39080  0.80757  0.03591  1.0000
  C   C446      1.0  0.39623  0.79250  0.05898  1.0000
  C   C447      1.0  0.37488  0.78322  0.07611  1.0000
  C   C448      1.0  0.34823  0.78920  0.07016  1.0000
  C   C449      1.0  0.34287  0.80428  0.04720  1.0000
  C   C450      1.0  0.07882  0.55482  0.12762  1.0000
  H   H370      1.0  0.41672  0.78828  0.06365  1.0000
  H   H371      1.0  0.33159  0.78229  0.08344  1.0000
  H   H372      1.0  0.32213  0.80941  0.04297  1.0000
  C   C451      1.0  0.26775  0.75441  0.06103  1.0000
  C   C452      1.0  0.29523  0.75603  0.05861  1.0000
  C   C453      1.0  0.31494  0.73415  0.06732  1.0000
  C   C454      1.0  0.30720  0.71044  0.07888  1.0000
  C   C455      1.0  0.27933  0.70901  0.08264  1.0000
  C   C456      1.0  0.25956  0.73111  0.07372  1.0000
  H   H373      1.0  0.30135  0.77425  0.04992  1.0000
  H   H374      1.0  0.33631  0.73563  0.06482  1.0000
  H   H375      1.0  0.27321  0.69076  0.09179  1.0000
  H   H376      1.0  0.23820  0.72985  0.07602  1.0000
  C   C457      1.0  0.36332  0.54388  0.04248  1.0000
  C   C458      1.0  0.35801  0.56180  0.05997  1.0000
  C   C459      1.0  0.35801  0.58874  0.05162  1.0000
  H   H377      1.0  0.36337  0.52304  0.04889  1.0000
  H   H378      1.0  0.35432  0.60262  0.06502  1.0000
  H   H379      1.0  0.41307  0.60398  0.03495  1.0000
  C   C460      1.0  0.31171  0.64192  0.98775  1.0000
  C   C461      1.0  0.47533  0.59401  0.12377  1.0000
  C   C462      1.0  0.48013  0.51269  0.02359  1.0000
  S   S77       1.0  0.46278  0.75031  0.09276  1.0000
  P   P15       1.0  0.40616  0.87600  0.07962  1.0000
  C   C463      1.0  0.43148  0.86587  0.05239  1.0000
  C   C464      1.0  0.41813  0.85547  0.10701  1.0000
  C   C465      1.0  0.42421  0.82752  0.10844  1.0000
  C   C466      1.0  0.42066  0.57232  0.15973  1.0000
  C   C467      1.0  0.25269  0.72099  0.01447  1.0000
  C   C468      1.0  0.31327  0.66556  0.02886  1.0000
  C   C469      1.0  0.42345  0.86098  0.03103  1.0000
  C   C470      1.0  0.13985  0.84188  0.98656  1.0000
  C   C471      1.0  0.05656  0.51893  0.12775  1.0000
  C   C472      1.0  0.20856  0.75167  0.00903  1.0000
  C   C473      1.0  0.45984  0.86245  0.05260  1.0000
  C   C474      1.0  0.37250  0.87185  0.07687  1.0000
  C   C475      1.0  0.35833  0.88844  0.05834  1.0000
  C   C476      1.0  0.18019  0.62873  0.13675  1.0000
  C   C477      1.0  0.32164  0.86425  0.07028  1.0000
  C   C478      1.0  0.33502  0.84838  0.08939  1.0000
  C   C479      1.0  0.36038  0.85203  0.09265  1.0000
  H   H380      1.0  0.42213  0.81813  0.09314  1.0000
  C   C480      1.0  0.40595  0.72310  0.05062  1.0000
  H   H381      1.0  0.40197  0.86227  0.03038  1.0000
  S   S78       1.0  0.31250  0.78337  0.99776  1.0000
  S   S79       1.0  0.02182  0.51007  0.28290  1.0000
  C   C481      1.0  0.48418  0.48610  0.03492  1.0000
  H   H382      1.0  0.08841  0.69046  0.28360  1.0000
  C   C482      1.0  0.99889  0.50045  0.16897  1.0000
  H   H383      1.0  0.32633  0.83243  0.10109  1.0000
  H   H384      1.0  0.46013  0.52645  0.02762  1.0000
  C   C483      1.0  0.42489  0.71694  0.00009  1.0000
  C   C484      1.0  0.27723  0.58526  0.23177  1.0000
  C   C485      1.0  0.26626  0.60411  0.21293  1.0000
  C   C486      1.0  0.23790  0.60979  0.21230  1.0000
  C   C487      1.0  0.22012  0.59663  0.23053  1.0000
  C   C488      1.0  0.23129  0.57776  0.24954  1.0000
  P   P16       1.0  0.18385  0.60281  0.22801  1.0000
  C   C489      1.0  0.17243  0.63795  0.21672  1.0000
  C   C490      1.0  0.15558  0.64641  0.19822  1.0000
  C   C491      1.0  0.14827  0.67348  0.18874  1.0000
  C   C492      1.0  0.15736  0.69240  0.19783  1.0000
  C   C493      1.0  0.17383  0.68424  0.21648  1.0000
  C   C494      1.0  0.18136  0.65715  0.22589  1.0000
  H   H385      1.0  0.28122  0.64590  0.04888  1.0000
  C   C495      1.0  0.40488  0.64427  0.07941  1.0000
  H   H386      1.0  0.29935  0.58085  0.23199  1.0000
  H   H387      1.0  0.27986  0.61419  0.19863  1.0000
  H   H388      1.0  0.22996  0.62425  0.19732  1.0000
  H   H389      1.0  0.14819  0.63231  0.19075  1.0000
  H   H390      1.0  0.13577  0.67970  0.17406  1.0000
  H   H391      1.0  0.15185  0.71332  0.19019  1.0000
  H   H392      1.0  0.18116  0.69888  0.22331  1.0000
  H   H393      1.0  0.19450  0.65110  0.24005  1.0000
  H   H394      1.0  0.13488  0.58965  0.21762  1.0000
  C   C496      1.0  0.24777  0.68130  0.25885  1.0000
  C   C497      1.0  0.26653  0.65641  0.25912  1.0000
  C   C498      1.0  0.28619  0.65027  0.23773  1.0000
  C   C499      1.0  0.28705  0.66887  0.21601  1.0000
  C   C500      1.0  0.26877  0.69418  0.21578  1.0000
  C   C501      1.0  0.24884  0.70014  0.23726  1.0000
  P   P17       1.0  0.26995  0.71795  0.18751  1.0000
  C   C502      1.0  0.30565  0.71459  0.17176  1.0000
  C   C503      1.0  0.24805  0.71269  0.16781  1.0000
  C   C504      1.0  0.24082  0.73225  0.14770  1.0000
  C   C505      1.0  0.22329  0.72873  0.13274  1.0000
  C   C506      1.0  0.21291  0.70564  0.13765  1.0000
  C   C507      1.0  0.21966  0.68629  0.15783  1.0000
  C   C508      1.0  0.23709  0.68978  0.17294  1.0000
  C   C509      1.0  0.32686  0.70969  0.18603  1.0000
  C   C510      1.0  0.35427  0.70904  0.17416  1.0000
  C   C511      1.0  0.36071  0.71330  0.14803  1.0000
  C   C512      1.0  0.33991  0.71782  0.13369  1.0000
  C   C513      1.0  0.31247  0.71831  0.14544  1.0000
  C   C514      1.0  0.25686  0.75165  0.19532  1.0000
  C   C515      1.0  0.22809  0.76258  0.19961  1.0000
  C   C516      1.0  0.21773  0.78878  0.20524  1.0000
  C   C517      1.0  0.23599  0.80428  0.20659  1.0000
  C   C518      1.0  0.26461  0.79360  0.20234  1.0000
  C   C519      1.0  0.27505  0.76741  0.19673  1.0000
  H   H395      1.0  0.23261  0.68610  0.27549  1.0000
  H   H396      1.0  0.26599  0.64191  0.27590  1.0000
  H   H397      1.0  0.30097  0.63111  0.23788  1.0000
  H   H398      1.0  0.30227  0.66353  0.19950  1.0000
  H   H399      1.0  0.23428  0.71933  0.23749  1.0000
  H   H400      1.0  0.24905  0.75009  0.14335  1.0000
  H   H401      1.0  0.21829  0.74372  0.11698  1.0000
  H   H402      1.0  0.19997  0.70250  0.12564  1.0000
  H   H403      1.0  0.21165  0.66837  0.16158  1.0000
  H   H404      1.0  0.24233  0.67427  0.18820  1.0000
  H   H405      1.0  0.32224  0.70680  0.20634  1.0000
  H   H406      1.0  0.37067  0.70519  0.18511  1.0000
  H   H407      1.0  0.38185  0.71316  0.13881  1.0000
  H   H408      1.0  0.34515  0.72122  0.11338  1.0000
  H   H409      1.0  0.29693  0.72179  0.13374  1.0000
  H   H410      1.0  0.21367  0.75090  0.19845  1.0000
  H   H411      1.0  0.19554  0.79714  0.20836  1.0000
  H   H412      1.0  0.22799  0.82465  0.21078  1.0000
  H   H413      1.0  0.27883  0.80567  0.20316  1.0000
  H   H414      1.0  0.29732  0.75981  0.19324  1.0000
  H   H415      1.0  0.10721  0.68653  0.23853  1.0000
  H   H416      1.0  0.09450  0.65393  0.21797  1.0000
  C   C520      1.0  0.41116  0.55137  0.12766  1.0000
  C   C521      1.0  0.20515  0.68162  0.00776  1.0000
  C   C522      1.0  0.15304  0.57952  0.20564  1.0000
  S   S80       1.0  0.00287  0.53731  0.21444  1.0000
  C   C523      1.0  0.23522  0.63787  0.01665  1.0000
  H   H417      1.0  0.15233  0.53939  0.29972  1.0000
  H   H418      1.0  0.16390  0.72409  0.06158  1.0000
  C   C524      1.0  0.16973  0.76455  0.05569  1.0000
  H   H419      1.0  0.08278  0.51161  0.18146  1.0000
  C   C525      1.0  0.00339  0.59741  0.27173  1.0000
  H   H420      1.0  0.26564  0.70715  0.02667  1.0000
  C   C526      1.0  0.43504  0.60097  0.08985  1.0000
  C   C527      1.0  0.08836  0.54882  0.29524  1.0000
  H   H421      1.0  0.00484  0.51744  0.15669  1.0000
  C   C528      1.0  0.06294  0.59255  0.19673  1.0000
  S   S81       1.0  0.47246  0.91891  0.13590  1.0000
  H   H422      1.0  0.43099  0.58532  0.16554  1.0000
  H   H423      1.0  0.44868  0.94581  0.18844  1.0000
  H   H424      1.0  0.01565  0.57446  0.17181  1.0000
  C   C529      1.0  0.18235  0.67251  0.02236  1.0000
  H   H425      1.0  0.30383  0.56136  0.02490  1.0000
  C   C530      1.0  0.14929  0.75213  0.01362  1.0000
  Fe  Fe41      1.0  0.31892  0.82504  0.99188  1.0000
  C   C531      1.0  0.40313  0.70561  0.01370  1.0000
  C   C532      1.0  0.09605  0.97646  0.03762  1.0000
  H   H426      1.0  0.45307  0.79052  0.02351  1.0000
  C   C533      1.0  0.48451  0.75607  0.01207  1.0000
  C   C534      1.0  0.33321  0.88438  0.05485  1.0000
  H   H427      1.0  0.39354  0.69460  0.00455  1.0000
  C   C535      1.0  0.33080  0.67040  0.00608  1.0000
  H   H428      1.0  0.05705  0.66225  0.30796  1.0000
  C   C536      1.0  0.00259  0.73090  0.18514  1.0000
  C   C537      1.0  0.42923  0.96139  0.24818  1.0000
  C   C538      1.0  0.39351  0.70887  0.03893  1.0000
  C   C539      1.0  0.47968  0.85584  0.03139  1.0000
  C   C540      1.0  0.18770  0.81719  0.00680  1.0000
  H   H429      1.0  0.00618  0.56395  0.13551  1.0000
  H   H430      1.0  0.09781  0.71702  0.99656  1.0000
  C   C541      1.0  0.14653  0.97577  0.00457  1.0000
  H   H431      1.0  0.48300  0.91809  0.31074  1.0000
  H   H432      1.0  0.15536  0.72024  0.10765  1.0000
  Fe  Fe42      1.0  0.99544  0.51583  0.25358  1.0000
  P   P18       1.0  0.03363  0.62186  0.29383  1.0000
  H   H433      1.0  0.36726  0.90385  0.04598  1.0000
  S   S82       1.0  0.08837  0.63380  0.11619  1.0000
  H   H434      1.0  0.46668  0.86495  0.06921  1.0000
  H   H435      1.0  0.13882  0.64059  0.12881  1.0000
  H   H436      1.0  0.30267  0.86050  0.06706  1.0000
  C   C542      1.0  0.48514  0.58333  0.14634  1.0000
  H   H437      1.0  0.03170  0.60017  0.11949  1.0000
  C   C543      1.0  0.15066  0.50405  0.24344  1.0000
  C   C544      1.0  0.40178  0.63610  0.05756  1.0000
  P   P19       1.0  0.46405  0.74761  0.99279  1.0000
  C   C545      1.0  0.16350  0.59429  0.25826  1.0000
  C   C546      1.0  0.36342  0.59773  0.02585  1.0000
  H   H438      1.0  0.09635  0.55319  0.16033  1.0000
  C   C547      1.0  0.42166  0.86703  0.12696  1.0000
  H   H439      1.0  0.37043  0.83892  0.10722  1.0000
  H   H440      1.0  0.21834  0.56723  0.26389  1.0000
  C   C548      1.0  0.09401  0.67363  0.24938  1.0000
  C   C549      1.0  0.21192  0.62846  0.03018  1.0000
  H   H441      1.0  0.12868  0.56424  0.18648  1.0000
  C   C550      1.0  0.38394  0.54813  0.16950  1.0000
  C   C551      1.0  0.14655  0.61420  0.27243  1.0000
  H   H442      1.0  0.26833  0.55762  0.26480  1.0000
  H   H443      1.0  0.14456  0.63515  0.26522  1.0000
  C   C552      1.0  0.06144  0.57554  0.21954  1.0000
  C   C553      1.0  0.36793  0.55305  0.01668  1.0000
  C   C554      1.0  0.17968  0.58215  0.20669  1.0000
  C   C555      1.0  0.07628  0.57588  0.28906  1.0000
  H   H444      1.0  0.16631  0.97452  0.99196  1.0000
  C   C556      1.0  0.39967  0.56270  0.17700  1.0000
  H   H445      1.0  0.44745  0.90965  0.06966  1.0000
  H   H446      1.0  0.06349  0.62550  0.24199  1.0000
  C   C557      1.0  0.40346  0.91074  0.08208  1.0000
  H   H447      1.0  0.41794  0.88847  0.12622  1.0000
  C   C558      1.0  0.06928  0.63912  0.25153  1.0000
  C   C559      1.0  0.42724  0.92140  0.07658  1.0000
  H   H448      1.0  0.39881  0.98294  0.09481  1.0000
  H   H449      1.0  0.44601  0.93794  0.28013  1.0000
  C   C560      1.0  0.25668  0.59976  0.06565  1.0000
  C   C561      1.0  0.37799  0.92645  0.09259  1.0000
  H   H450      1.0  0.35958  0.91841  0.09807  1.0000
  H   H451      1.0  0.47966  0.56546  0.15732  1.0000
  H   H452      1.0  0.47657  0.90236  0.25583  1.0000
  H   H453      1.0  0.17651  0.80359  0.05699  1.0000
  C   C562      1.0  0.02822  0.57490  0.18522  1.0000
  C   C563      1.0  0.27710  0.55677  0.08700  1.0000
  C   C564      1.0  0.47756  0.55016  0.09787  1.0000
  C   C565      1.0  0.43050  0.85079  0.14821  1.0000
  H   H454      1.0  0.41631  0.98020  0.21310  1.0000
  C   C566      1.0  0.05834  0.64129  0.27699  1.0000
  C   C567      1.0  0.17238  0.55252  0.17180  1.0000
  H   H455      1.0  0.37634  0.70048  0.04943  1.0000
  C   C568      1.0  0.14944  0.56500  0.18805  1.0000
  C   C569      1.0  0.42540  0.94739  0.08097  1.0000
  H   H456      1.0  0.99576  0.62419  0.16270  1.0000
  H   H457      1.0  0.08727  0.73484  0.03726  1.0000
  C   C570      1.0  0.15465  0.74278  0.99026  1.0000
  H   H458      1.0  0.39831  0.72563  0.07019  1.0000
  H   H459      1.0  0.10752  0.53960  0.28401  1.0000
  H   H460      1.0  0.38858  0.64951  0.04530  1.0000
  H   H461      1.0  0.08421  0.57353  0.11874  1.0000
  H   H462      1.0  0.30798  0.53055  0.06386  1.0000
  H   H463      1.0  0.35744  0.97924  0.18425  1.0000
  H   H464      1.0  0.22340  0.57134  0.19046  1.0000
  C   C571      1.0  0.12110  0.96631  0.04652  1.0000
  C   C572      1.0  0.20267  0.56928  0.19050  1.0000
  C   C573      1.0  0.47285  0.64184  0.03123  1.0000
  C   C574      1.0  0.14632  0.96586  0.02998  1.0000
  H   H465      1.0  0.43387  0.85970  0.16329  1.0000
  C   C575      1.0  0.04634  0.59219  0.17960  1.0000
  C   C576      1.0  0.42125  0.62670  0.09562  1.0000
  H   H466      1.0  0.04787  0.60478  0.16171  1.0000
  C   C577      1.0  0.10144  0.50524  0.25359  1.0000
  C   C578      1.0  0.19900  0.55457  0.17311  1.0000
  C   C579      1.0  0.44777  0.94385  0.20850  1.0000
  H   H467      1.0  0.44395  0.95524  0.07726  1.0000
  C   C580      1.0  0.41541  0.61046  0.05179  1.0000
  H   H468      1.0  0.04090  0.54627  0.24322  1.0000
  S   S83       1.0  0.49196  0.69767  0.12882  1.0000
  H   H469      1.0  0.07411  0.57590  0.23292  1.0000
  C   C581      1.0  0.23152  0.66447  0.00502  1.0000
  H   H470      1.0  0.36679  0.54195  0.18265  1.0000
  C   C582      1.0  0.29301  0.54957  0.06420  1.0000
  C   C583      1.0  0.08569  0.54331  0.15107  1.0000
  P   P20       1.0  0.45398  0.57786  0.11208  1.0000
  C   C584      1.0  0.01135  0.62098  0.27257  1.0000
  C   C585      1.0  0.04288  0.55855  0.22530  1.0000
  C   C586      1.0  0.02628  0.55821  0.20809  1.0000
  H   H471      1.0  0.39470  0.56761  0.19599  1.0000
  H   H472      1.0  0.16802  0.63897  0.04497  1.0000
  H   H473      1.0  0.48891  0.69088  0.00045  1.0000
  C   C587      1.0  0.29067  0.56733  0.04204  1.0000
  C   C588      1.0  0.43553  0.82302  0.14983  1.0000
  C   C589      1.0  0.29488  0.64901  0.03115  1.0000
  C   C590      1.0  0.48020  0.52389  0.11030  1.0000
  S   S84       1.0  0.27549  0.84306  0.00979  1.0000
  Fe  Fe43      1.0  0.47334  0.74097  0.13150  1.0000
  C   C591      1.0  0.42713  0.56599  0.13510  1.0000
  C   C592      1.0  0.16140  0.75948  0.10836  1.0000
  H   H474      1.0  0.40719  0.81454  0.02249  1.0000
  S   S85       1.0  0.01673  0.73779  0.15325  1.0000
  H   H475      1.0  0.44159  0.57296  0.06327  1.0000
  C   C593      1.0  0.12357  0.51541  0.23909  1.0000
  C   C594      1.0  0.47373  0.77858  0.02476  1.0000
  C   C595      1.0  0.43243  0.81143  0.12995  1.0000
  H   H476      1.0  0.15796  0.75759  0.12865  1.0000
  H   H477      1.0  0.11854  0.62256  0.30699  1.0000
  H   H478      1.0  0.16934  0.79892  0.10295  1.0000
  H   H479      1.0  0.24900  0.67214  0.99409  1.0000
  H   H480      1.0  0.11896  0.75805  0.04779  1.0000
  C   C596      1.0  0.17162  0.78540  0.06769  1.0000
  H   H481      1.0  0.34512  0.68315  0.00444  1.0000
  P   P21       1.0  0.26955  0.61603  0.01398  1.0000
  C   C597      1.0  0.29411  0.63678  0.01069  1.0000
  H   H482      1.0  0.43735  0.74508  0.04652  1.0000
  C   C598      1.0  0.01158  0.60201  0.11477  1.0000
  C   C599      1.0  0.36409  0.81350  0.03006  1.0000
  C   C600      1.0  0.16758  0.78280  0.09391  1.0000
  C   C601      1.0  0.46484  0.92196  0.22060  1.0000
  C   C602      1.0  0.42792  0.73433  0.03704  1.0000
  H   H483      1.0  0.36383  0.61847  0.01952  1.0000
  H   H484      1.0  0.37168  0.53926  0.00318  1.0000
  C   C603      1.0  0.22507  0.73227  0.02413  1.0000
  S   S86       1.0  0.35704  0.83278  0.00150  1.0000
  C   C604      1.0  0.36818  0.57996  0.00839  1.0000
  H   H485      1.0  0.45940  0.68011  0.04509  1.0000
  C   C605      1.0  0.16488  0.56728  0.26801  1.0000
  H   H486      1.0  0.46750  0.51968  0.12838  1.0000
  C   C606      1.0  0.16007  0.73843  0.09657  1.0000
  C   C607      1.0  0.15074  0.56028  0.29208  1.0000
  C   C608      1.0  0.44337  0.85368  0.01007  1.0000
  C   C609      1.0  0.01979  0.71662  0.20218  1.0000
  H   H487      1.0  0.16208  0.68607  0.02542  1.0000
  H   H488      1.0  0.21704  0.72629  0.04355  1.0000
  H   H489      1.0  0.08628  0.58710  0.27281  1.0000
  C   C610      1.0  0.06426  0.54264  0.11597  1.0000
  C   C611      1.0  0.27572  0.59856  0.98696  1.0000
  Fe  Fe44      1.0  0.26819  0.80189  0.01276  1.0000
  P   P22       1.0  0.17347  0.76795  0.02183  1.0000
  C   C612      1.0  0.10599  0.73720  0.02402  1.0000
  H   H490      1.0  0.04516  0.50980  0.11851  1.0000
  H   H491      1.0  0.12101  0.95843  0.06617  1.0000
  H   H492      1.0  0.44275  0.81034  0.16613  1.0000
  C   C613      1.0  0.11198  0.72712  0.00112  1.0000
  C   C614      1.0  0.06563  0.65971  0.28855  1.0000
  C   C615      1.0  0.16465  0.74077  0.07038  1.0000
  H   H493      1.0  0.35659  0.96447  0.10505  1.0000
  H   H494      1.0  0.00850  0.66220  0.25642  1.0000
  C   C616      1.0  0.47583  0.66229  0.04323  1.0000
  C   C617      1.0  0.12428  0.75008  0.03007  1.0000
  H   H495      1.0  0.08053  0.51377  0.25004  1.0000
  H   H496      1.0  0.00860  0.72940  0.05862  1.0000
  C   C618      1.0  0.39993  0.96297  0.09102  1.0000
  C   C619      1.0  0.48933  0.78544  0.03968  1.0000
  H   H497      1.0  0.31400  0.67461  0.04480  1.0000
  H   H498      1.0  0.41482  0.54742  0.10840  1.0000
  C   C620      1.0  0.46353  0.91942  0.24654  1.0000
  C   C621      1.0  0.99712  0.58163  0.12388  1.0000
  H   H499      1.0  0.43700  0.78990  0.13107  1.0000
  C   C622      1.0  0.13180  0.60713  0.29623  1.0000
  C   C623      1.0  0.48403  0.61638  0.10928  1.0000
  C   C624      1.0  0.06325  0.50729  0.15140  1.0000
  C   C625      1.0  0.26389  0.72841  0.98948  1.0000
  C   C626      1.0  0.08344  0.67579  0.27477  1.0000
  C   C627      1.0  0.07775  0.51976  0.16307  1.0000
  H   H500      1.0  0.21403  0.60785  0.03881  1.0000
  H   H501      1.0  0.16577  0.95747  0.03676  1.0000
  H   H502      1.0  0.20254  0.70212  0.99894  1.0000
  H   H503      1.0  0.23263  0.60825  0.98224  1.0000
  C   C628      1.0  0.42947  0.96328  0.22243  1.0000
  H   H504      1.0  0.16748  0.51197  0.23153  1.0000
  H   H505      1.0  0.43684  0.84973  0.99387  1.0000
  C   C629      1.0  0.16746  0.80274  0.00828  1.0000
  C   C630      1.0  0.13415  0.58021  0.30618  1.0000
  H   H506      1.0  0.04243  0.48746  0.21639  1.0000
  C   C631      1.0  0.16035  0.85596  0.98495  1.0000
  C   C632      1.0  0.24110  0.51139  0.22163  1.0000
  Fe  Fe45      1.0  0.47772  0.70602  0.09176  1.0000
  S   S87       1.0  0.42402  0.63502  0.98579  1.0000
  C   C633      1.0  0.13615  0.73017  0.98413  1.0000
  S   S88       1.0  0.48520  0.98199  0.27113  1.0000
  C   C634      1.0  0.24991  0.49953  0.19959  1.0000
  C   C635      1.0  0.33012  0.65842  0.98558  1.0000
  C   C636      1.0  0.48922  0.87558  0.31123  1.0000
  C   C637      1.0  0.21988  0.75876  0.98380  1.0000
  H   H507      1.0  0.48040  0.80211  0.05031  1.0000
  H   H508      1.0  0.26346  0.50804  0.18391  1.0000
  C   C638      1.0  0.22358  0.50049  0.24185  1.0000
  C   C639      1.0  0.05131  0.58796  0.30350  1.0000
  Fe  Fe46      1.0  0.46596  0.60684  0.98297  1.0000
  H   H509      1.0  0.40206  0.98258  0.15580  1.0000
  S   S89       1.0  0.49222  0.59320  0.01295  1.0000
  H   H510      1.0  0.07651  0.97640  0.05036  1.0000
  H   H511      1.0  0.28558  0.72037  0.98222  1.0000
  C   C640      1.0  0.44284  0.49896  0.48141  1.0000
  H   H512      1.0  0.31844  0.51447  0.56446  1.0000
  S   S90       1.0  0.46089  0.51656  0.62844  1.0000
  H   H513      1.0  0.29877  0.55690  0.58238  1.0000
  H   H514      1.0  0.41898  0.57731  0.60772  1.0000
  C   C641      1.0  0.35714  0.57217  0.54545  1.0000
  H   H515      1.0  0.23557  0.48900  0.57571  1.0000
  C   C642      1.0  0.39310  0.70249  0.63845  1.0000
  H   H516      1.0  0.46645  0.56207  0.58716  1.0000
  C   C643      1.0  0.45864  0.60889  0.63461  1.0000
  H   H517      1.0  0.47325  0.66200  0.54480  1.0000
  C   C644      1.0  0.47698  0.62467  0.63532  1.0000
  H   H518      1.0  0.32381  0.59363  0.57079  1.0000
  Fe  Fe47      1.0  0.44224  0.51095  0.59702  1.0000
  C   C645      1.0  0.02294  0.63135  0.34379  1.0000
  H   H519      1.0  0.36850  0.58790  0.54085  1.0000
  C   C646      1.0  0.45140  0.49800  0.52317  1.0000
  C   C647      1.0  0.01344  0.63755  0.32075  1.0000
  C   C648      1.0  0.45288  0.56110  0.55284  1.0000
  C   C649      1.0  0.31802  0.55458  0.56896  1.0000
  C   C650      1.0  0.40421  0.58020  0.62493  1.0000
  C   C651      1.0  0.40226  0.60163  0.63789  1.0000
  H   H520      1.0  0.03970  0.53324  0.34494  1.0000
  H   H521      1.0  0.37484  0.49322  0.58313  1.0000
  C   C652      1.0  0.35167  0.48989  0.50754  1.0000
  H   H522      1.0  0.44921  0.73959  0.59974  1.0000
  C   C653      1.0  0.41552  0.49689  0.49139  1.0000
  C   C654      1.0  0.40603  0.49482  0.51748  1.0000
  H   H523      1.0  0.29000  0.51216  0.48627  1.0000
  H   H524      1.0  0.38795  0.54640  0.52228  1.0000
  H   H525      1.0  0.43525  0.74173  0.64546  1.0000
  H   H526      1.0  0.01433  0.63814  0.38252  1.0000
  H   H527      1.0  0.47063  0.64621  0.63208  1.0000
  C   C655      1.0  0.32530  0.50587  0.50455  1.0000
  H   H528      1.0  0.01836  0.58084  0.33443  1.0000
  C   C656      1.0  0.07546  0.53351  0.31556  1.0000
  C   C657      1.0  0.32917  0.53062  0.55871  1.0000
  C   C658      1.0  0.00710  0.64320  0.36472  1.0000
  C   C659      1.0  0.36822  0.54837  0.53498  1.0000
  C   C660      1.0  0.35444  0.52725  0.54171  1.0000
  H   H529      1.0  0.39640  0.61784  0.58629  1.0000
  P   P23       1.0  0.42503  0.62453  0.62609  1.0000
  S   S91       1.0  0.42711  0.54366  0.56725  1.0000
  H   H530      1.0  0.40736  0.62613  0.54028  1.0000
  H   H531      1.0  0.44404  0.56354  0.51580  1.0000
  C   C661      1.0  0.45116  0.64661  0.58008  1.0000
  C   C662      1.0  0.31043  0.49997  0.48833  1.0000
  H   H532      1.0  0.48218  0.58593  0.49465  1.0000
  C   C663      1.0  0.33208  0.57530  0.56243  1.0000
  H   H533      1.0  0.48163  0.50196  0.48955  1.0000
  H   H534      1.0  0.31601  0.52273  0.51478  1.0000
  C   C664      1.0  0.45692  0.56846  0.52681  1.0000
  C   C665      1.0  0.41362  0.62691  0.57766  1.0000
  C   C666      1.0  0.38773  0.56171  0.63445  1.0000
  H   H535      1.0  0.46342  0.65299  0.59068  1.0000
  H   H536      1.0  0.04248  0.61726  0.34562  1.0000
  C   C667      1.0  0.46045  0.72503  0.61277  1.0000
  H   H537      1.0  0.39984  0.68028  0.60765  1.0000
  C   C668      1.0  0.43024  0.63313  0.59221  1.0000
  C   C669      1.0  0.40138  0.67907  0.62716  1.0000
  C   C670      1.0  0.46957  0.56747  0.56703  1.0000
  C   C671      1.0  0.44107  0.64443  0.53956  1.0000
  H   H538      1.0  0.08453  0.51240  0.31997  1.0000
  C   C672      1.0  0.41938  0.63211  0.55143  1.0000
  H   H539      1.0  0.12273  0.57476  0.32465  1.0000
  H   H540      1.0  0.46499  0.49930  0.53548  1.0000
  H   H541      1.0  0.44600  0.64792  0.51925  1.0000
  C   C673      1.0  0.45662  0.65210  0.55391  1.0000
  C   C674      1.0  0.46727  0.58099  0.63951  1.0000
  P   P24       1.0  0.36993  0.49524  0.53053  1.0000
  H   H542      1.0  0.47118  0.87398  0.32562  1.0000
  C   C675      1.0  0.49024  0.58128  0.55520  1.0000
  C   C676      1.0  0.48289  0.70513  0.60372  1.0000
  S   S92       1.0  0.41174  0.48901  0.62158  1.0000
  H   H543      1.0  0.45346  0.56838  0.63966  1.0000
  C   C677      1.0  0.05042  0.54528  0.32979  1.0000
  H   H544      1.0  0.41733  0.49469  0.55334  1.0000
  H   H545      1.0  0.38951  0.54532  0.62425  1.0000
  C   C678      1.0  0.03838  0.57238  0.32380  1.0000
  C   C679      1.0  0.42423  0.49547  0.53325  1.0000
  H   H546      1.0  0.40183  0.49752  0.47857  1.0000
  C   C680      1.0  0.45260  0.72626  0.63861  1.0000
  C   C681      1.0  0.41226  0.65459  0.64086  1.0000
  C   C682      1.0  0.47839  0.58121  0.51488  1.0000
  H   H547      1.0  0.38558  0.72146  0.62759  1.0000
  H   H548      1.0  0.44996  0.50055  0.46130  1.0000
  C   C683      1.0  0.48921  0.68725  0.64664  1.0000
  C   C684      1.0  0.46073  0.49967  0.49729  1.0000
  Fe  Fe48      1.0  0.44057  0.65235  0.94690  1.0000
  S   S93       1.0  0.43555  0.69652  0.93569  1.0000
  H   H549      1.0  0.40741  0.76935  0.98073  1.0000
  S   S94       1.0  0.31253  0.76140  0.93556  1.0000
  S   S95       1.0  0.43424  0.65939  0.74492  1.0000
  Fe  Fe49      1.0  0.44587  0.61785  0.73456  1.0000
  S   S96       1.0  0.40991  0.59837  0.74021  1.0000
  Fe  Fe50      1.0  0.13562  0.94228  0.86606  1.0000
  C   C685      1.0  0.12831  0.83606  0.70850  1.0000
  S   S97       1.0  0.15676  0.90060  0.88160  1.0000
  Fe  Fe51      1.0  0.10341  0.97074  0.82419  1.0000
  H   H550      1.0  0.04478  0.95763  0.83400  1.0000
  C   C686      1.0  0.39548  0.70158  0.66346  1.0000
  C   C687      1.0  0.48733  0.53208  0.81019  1.0000
  C   C688      1.0  0.22712  0.95023  0.72752  1.0000
  C   C689      1.0  0.38396  0.60372  0.66098  1.0000
  H   H551      1.0  0.99665  0.95282  0.83639  1.0000
  S   S98       1.0  0.14884  0.95778  0.82574  1.0000
  S   S99       1.0  0.09036  0.95165  0.86320  1.0000
  H   H552      1.0  0.11799  0.81235  0.74401  1.0000
  H   H553      1.0  0.28987  0.56193  0.92819  1.0000
  H   H554      1.0  0.99688  0.92409  0.75795  1.0000
  Fe  Fe52      1.0  0.29966  0.79393  0.96022  1.0000
  H   H555      1.0  0.20727  0.98442  0.78503  1.0000
  H   H556      1.0  0.46388  0.83578  0.94172  1.0000
  S   S100      1.0  0.48365  0.62665  0.94563  1.0000
  H   H557      1.0  0.42930  0.56801  0.78752  1.0000
  P   P25       1.0  0.19737  0.94980  0.75232  1.0000
  Fe  Fe53      1.0  0.46776  0.59836  0.92952  1.0000
  C   C690      1.0  0.43215  0.56166  0.70613  1.0000
  C   C691      1.0  0.04844  0.97909  0.70189  1.0000
  C   C692      1.0  0.41074  0.57093  0.72550  1.0000
  S   S101      1.0  0.42592  0.62583  0.92749  1.0000
  C   C693      1.0  0.38859  0.55830  0.73366  1.0000
  C   C694      1.0  0.19313  0.87193  0.91257  1.0000
  H   H558      1.0  0.37208  0.56532  0.74866  1.0000
  C   C695      1.0  0.18175  0.89730  0.90063  1.0000
  C   C696      1.0  0.46989  0.64542  0.85116  1.0000
  C   C697      1.0  0.21853  0.89158  0.93425  1.0000
  C   C698      1.0  0.20737  0.91689  0.92209  1.0000
  C   C699      1.0  0.18929  0.91971  0.90513  1.0000
  H   H559      1.0  0.21274  0.93436  0.92587  1.0000
  H   H560      1.0  0.18088  0.93923  0.89579  1.0000
  Fe  Fe54      1.0  0.41340  0.60584  0.96624  1.0000
  C   C700      1.0  0.17350  0.98208  0.74860  1.0000
  C   C701      1.0  0.25386  0.93674  0.73184  1.0000
  H   H561      1.0  0.45069  0.73318  0.88028  1.0000
  C   C702      1.0  0.40063  0.71369  0.93994  1.0000
  C   C703      1.0  0.37956  0.70026  0.94162  1.0000
  C   C704      1.0  0.35219  0.71492  0.94093  1.0000
  C   C705      1.0  0.34577  0.74279  0.93977  1.0000
  C   C706      1.0  0.36644  0.75590  0.94028  1.0000
  C   C707      1.0  0.39400  0.74143  0.93966  1.0000
  H   H562      1.0  0.38469  0.67884  0.94169  1.0000
  H   H563      1.0  0.33617  0.70482  0.94054  1.0000
  H   H564      1.0  0.36138  0.77737  0.93995  1.0000
  H   H565      1.0  0.41028  0.75176  0.93845  1.0000
  C   C708      1.0  0.02406  0.89914  0.73091  1.0000
  H   H566      1.0  0.45282  0.77961  0.77315  1.0000
  S   S102      1.0  0.45502  0.70839  0.68794  1.0000
  H   H567      1.0  0.03672  0.91953  0.88403  1.0000
  C   C709      1.0  0.42158  0.71735  0.78269  1.0000
  H   H568      1.0  0.13654  0.96639  0.75453  1.0000
  H   H569      1.0  0.47305  0.63426  0.89011  1.0000
  H   H570      1.0  0.42467  0.72376  0.74242  1.0000
  S   S103      1.0  0.45396  0.57595  0.96676  1.0000
  H   H571      1.0  0.31183  0.63302  0.97152  1.0000
  C   C710      1.0  0.41456  0.65386  0.66598  1.0000
  C   C711      1.0  0.44811  0.77824  0.97510  1.0000
  H   H572      1.0  0.44370  0.53279  0.75997  1.0000
  C   C712      1.0  0.38740  0.53680  0.72240  1.0000
  H   H573      1.0  0.22005  0.84947  0.93854  1.0000
  H   H574      1.0  0.11409  0.96922  0.71283  1.0000
  H   H575      1.0  0.16192  0.97693  0.91927  1.0000
  H   H576      1.0  0.13325  0.86414  0.67486  1.0000
  Fe  Fe55      1.0  0.43274  0.49171  0.65258  1.0000
  H   H577      1.0  0.44943  0.57128  0.69983  1.0000
  H   H578      1.0  0.04848  0.88736  0.84547  1.0000
  C   C713      1.0  0.21168  0.96390  0.79383  1.0000
  C   C714      1.0  0.42424  0.82568  0.94681  1.0000
  H   H579      1.0  0.06102  0.95656  0.92906  1.0000
  S   S104      1.0  0.24005  0.88919  0.95631  1.0000
  H   H580      1.0  0.02240  0.95126  0.71357  1.0000
  H   H581      1.0  0.05170  0.98023  0.75449  1.0000
  C   C715      1.0  0.18048  0.92407  0.74949  1.0000
  H   H582      1.0  0.48300  0.69411  0.89768  1.0000
  C   C716      1.0  0.40864  0.80671  0.95763  1.0000
  H   H583      1.0  0.99453  0.90113  0.89207  1.0000
  C   C717      1.0  0.28588  0.57205  0.94458  1.0000
  C   C718      1.0  0.47435  0.63685  0.82776  1.0000
  C   C719      1.0  0.46331  0.55213  0.80782  1.0000
  S   S105      1.0  0.08749  0.96668  0.79040  1.0000
  C   C720      1.0  0.46438  0.78489  0.81743  1.0000
  C   C721      1.0  0.30266  0.58485  0.97756  1.0000
  H   H584      1.0  0.14061  0.72264  0.96624  1.0000
  C   C722      1.0  0.40817  0.52786  0.70262  1.0000
  Fe  Fe56      1.0  0.46587  0.66859  0.71147  1.0000
  H   H585      1.0  0.29742  0.92686  0.71600  1.0000
  C   C723      1.0  0.25883  0.58508  0.95412  1.0000
  H   H586      1.0  0.04463  0.87463  0.70139  1.0000
  H   H587      1.0  0.38703  0.81056  0.95572  1.0000
  C   C724      1.0  0.45562  0.53193  0.77442  1.0000
  H   H588      1.0  0.01928  0.87754  0.78097  1.0000
  S   S106      1.0  0.47462  0.62812  0.69911  1.0000
  C   C725      1.0  0.48537  0.69978  0.87754  1.0000
  C   C726      1.0  0.09991  0.92897  0.93392  1.0000
  C   C727      1.0  0.22136  0.91163  0.81885  1.0000
  C   C728      1.0  0.42035  0.78323  0.97196  1.0000
  H   H589      1.0  0.39000  0.71980  0.67199  1.0000
  C   C729      1.0  0.15362  0.88448  0.74566  1.0000
  C   C730      1.0  0.43801  0.74849  0.80043  1.0000
  C   C731      1.0  0.42684  0.72591  0.80349  1.0000
  P   P26       1.0  0.44643  0.75799  0.82736  1.0000
  H   H590      1.0  0.07926  0.84783  0.76053  1.0000
  H   H591      1.0  0.08640  0.91719  0.77244  1.0000
  H   H592      1.0  0.35469  0.58597  0.68896  1.0000
  C   C732      1.0  0.21161  0.86904  0.92923  1.0000
  C   C733      1.0  0.43081  0.54007  0.69461  1.0000
  C   C734      1.0  0.46655  0.70708  0.65561  1.0000
  H   H593      1.0  0.45067  0.85253  0.80045  1.0000
  C   C735      1.0  0.44909  0.81121  0.81223  1.0000
  S   S107      1.0  0.40414  0.50190  0.68835  1.0000
  C   C736      1.0  0.20849  0.94307  0.78251  1.0000
  H   H594      1.0  0.00333  0.97659  0.75684  1.0000
  C   C737      1.0  0.21946  0.95857  0.81750  1.0000
  C   C738      1.0  0.41535  0.77073  0.84892  1.0000
  C   C739      1.0  0.38885  0.77183  0.84415  1.0000
  C   C740      1.0  0.36501  0.78251  0.86066  1.0000
  C   C741      1.0  0.36740  0.79223  0.88194  1.0000
  C   C742      1.0  0.39363  0.79185  0.88647  1.0000
  C   C743      1.0  0.41750  0.78140  0.86993  1.0000
  C   C744      1.0  0.36791  0.58483  0.67071  1.0000
  H   H595      1.0  0.42308  0.71431  0.82183  1.0000
  S   S108      1.0  0.37405  0.59133  0.97618  1.0000
  H   H596      1.0  0.09559  0.91318  0.92611  1.0000
  S   S109      1.0  0.46545  0.66067  0.80238  1.0000
  H   H597      1.0  0.42668  0.81544  0.81416  1.0000
  C   C745      1.0  0.48553  0.72475  0.97151  1.0000
  H   H598      1.0  0.48981  0.60322  0.80705  1.0000
  S   S110      1.0  0.25470  0.80951  0.97522  1.0000
  C   C746      1.0  0.44743  0.55199  0.78999  1.0000
  H   H599      1.0  0.44716  0.53296  0.67959  1.0000
  H   H600      1.0  0.38639  0.76437  0.82787  1.0000
  H   H601      1.0  0.34460  0.78293  0.85722  1.0000
  H   H602      1.0  0.34890  0.79983  0.89508  1.0000
  H   H603      1.0  0.39542  0.79936  0.90304  1.0000
  H   H604      1.0  0.43764  0.78150  0.87363  1.0000
  C   C747      1.0  0.40605  0.67725  0.67723  1.0000
  H   H605      1.0  0.20314  0.97439  0.69979  1.0000
  C   C748      1.0  0.14798  0.89574  0.76790  1.0000
  H   H606      1.0  0.17674  0.88439  0.70795  1.0000
  H   H607      1.0  0.21231  0.90020  0.78664  1.0000
  H   H608      1.0  0.17317  0.74501  0.97682  1.0000
  H   H609      1.0  0.40858  0.67666  0.69640  1.0000
  H   H610      1.0  0.20047  0.91900  0.71110  1.0000
  C   C749      1.0  0.11266  0.97079  0.95158  1.0000
  H   H611      1.0  0.25624  0.75314  0.95481  1.0000
  P   P27       1.0  0.49122  0.48714  0.75512  1.0000
  C   C750      1.0  0.12503  0.92502  0.94224  1.0000
  C   C751      1.0  0.25373  0.59831  0.97522  1.0000
  H   H612      1.0  0.38243  0.61935  0.67196  1.0000
  C   C752      1.0  0.02500  0.88432  0.71170  1.0000
  H   H613      1.0  0.01600  0.87171  0.82669  1.0000
  C   C753      1.0  0.43871  0.75361  0.75546  1.0000
  H   H614      1.0  0.45736  0.56822  0.81925  1.0000
  H   H615      1.0  0.25706  0.92585  0.75010  1.0000
  H   H616      1.0  0.44386  0.76386  0.73671  1.0000
  H   H617      1.0  0.22885  0.92863  0.84892  1.0000
  C   C754      1.0  0.03572  0.96202  0.81722  1.0000
  C   C755      1.0  0.99696  0.96399  0.79667  1.0000
  H   H618      1.0  0.03188  0.96768  0.88547  1.0000
  C   C756      1.0  0.46692  0.72202  0.86745  1.0000
  C   C757      1.0  0.01630  0.93235  0.88859  1.0000
  H   H619      1.0  0.42325  0.63523  0.67679  1.0000
  Fe  Fe57      1.0  0.46979  0.64581  0.76574  1.0000
  H   H620      1.0  0.24381  0.97528  0.66592  1.0000
  H   H621      1.0  0.14326  0.86921  0.74425  1.0000
  H   H622      1.0  0.41470  0.84417  0.93636  1.0000
  C   C758      1.0  0.27681  0.93726  0.71253  1.0000
  H   H623      1.0  0.43180  0.71465  0.98050  1.0000
  C   C759      1.0  0.27322  0.95118  0.68880  1.0000
  H   H624      1.0  0.41400  0.69929  0.78513  1.0000
  C   C760      1.0  0.05160  0.96885  0.79392  1.0000
  H   H625      1.0  0.22104  0.97486  0.82643  1.0000
  C   C761      1.0  0.21409  0.91676  0.79499  1.0000
  H   H626      1.0  0.48514  0.79395  0.96643  1.0000
  C   C762      1.0  0.01364  0.95947  0.88933  1.0000
  C   C763      1.0  0.04271  0.95446  0.71332  1.0000
  H   H627      1.0  0.13325  0.88932  0.78376  1.0000
  H   H628      1.0  0.22443  0.89152  0.82891  1.0000
  C   C764      1.0  0.46918  0.72884  0.84129  1.0000
  C   C765      1.0  0.03341  0.88494  0.78862  1.0000
  C   C766      1.0  0.22390  0.93254  0.83016  1.0000
  S   S111      1.0  0.31022  0.83415  0.95244  1.0000
  C   C767      1.0  0.47953  0.51149  0.77689  1.0000
  C   C768      1.0  0.03176  0.88110  0.81469  1.0000
  C   C769      1.0  0.36782  0.66386  0.79432  1.0000
  C   C770      1.0  0.37006  0.64030  0.78468  1.0000
  C   C771      1.0  0.36997  0.61636  0.80083  1.0000
  C   C772      1.0  0.36750  0.61598  0.82671  1.0000
  C   C773      1.0  0.36536  0.63959  0.83657  1.0000
  C   C774      1.0  0.36541  0.66359  0.82015  1.0000
  P   P28       1.0  0.36240  0.63899  0.87001  1.0000
  C   C775      1.0  0.32719  0.63962  0.88615  1.0000
  C   C776      1.0  0.38560  0.60909  0.88211  1.0000
  C   C777      1.0  0.37838  0.59577  0.90631  1.0000
  C   C778      1.0  0.39644  0.57262  0.91544  1.0000
  C   C779      1.0  0.42185  0.56270  0.90068  1.0000
  C   C780      1.0  0.42909  0.57568  0.87659  1.0000
  C   C781      1.0  0.41125  0.59892  0.86735  1.0000
  C   C782      1.0  0.31813  0.64856  0.90982  1.0000
  C   C783      1.0  0.29080  0.64951  0.92225  1.0000
  C   C784      1.0  0.27247  0.64117  0.91137  1.0000
  C   C785      1.0  0.28141  0.63191  0.88801  1.0000
  C   C786      1.0  0.30866  0.63117  0.87539  1.0000
  C   C787      1.0  0.37221  0.66821  0.87506  1.0000
  C   C788      1.0  0.35246  0.69263  0.87646  1.0000
  C   C789      1.0  0.36002  0.71528  0.88035  1.0000
  C   C790      1.0  0.38733  0.71375  0.88269  1.0000
  C   C791      1.0  0.40706  0.68964  0.88114  1.0000
  C   C792      1.0  0.39964  0.66702  0.87703  1.0000
  H   H629      1.0  0.36834  0.68228  0.78165  1.0000
  H   H630      1.0  0.37222  0.64052  0.76461  1.0000
  H   H631      1.0  0.37222  0.59807  0.79309  1.0000
  H   H632      1.0  0.36759  0.59723  0.83897  1.0000
  H   H633      1.0  0.36401  0.68208  0.82704  1.0000
  H   H634      1.0  0.35920  0.60335  0.91849  1.0000
  H   H635      1.0  0.39107  0.56271  0.93428  1.0000
  H   H636      1.0  0.43623  0.54530  0.90811  1.0000
  H   H637      1.0  0.44895  0.56801  0.86542  1.0000
  H   H638      1.0  0.41775  0.60919  0.84891  1.0000
  H   H639      1.0  0.33220  0.65486  0.91866  1.0000
  H   H640      1.0  0.28381  0.65685  0.94029  1.0000
  H   H641      1.0  0.25132  0.64191  0.92107  1.0000
  H   H642      1.0  0.26718  0.62545  0.87957  1.0000
  H   H643      1.0  0.31510  0.62409  0.85726  1.0000
  H   H644      1.0  0.33117  0.69416  0.87480  1.0000
  H   H645      1.0  0.34448  0.73374  0.88266  1.0000
  H   H646      1.0  0.39289  0.73083  0.88710  1.0000
  H   H647      1.0  0.42786  0.68822  0.88413  1.0000
  H   H648      1.0  0.41525  0.64856  0.87588  1.0000
  H   H649      1.0  0.15609  0.92442  0.78700  1.0000
  C   C793      1.0  0.44379  0.76241  0.77624  1.0000
  C   C794      1.0  0.11299  0.83156  0.73258  1.0000
  H   H650      1.0  0.20781  0.77398  0.97181  1.0000
  C   C795      1.0  0.30778  0.57192  0.95635  1.0000
  C   C796      1.0  0.09967  0.88096  0.70292  1.0000
  C   C797      1.0  0.08453  0.87676  0.72729  1.0000
  C   C798      1.0  0.09107  0.85177  0.74192  1.0000
  P   P29       1.0  0.05568  0.90254  0.73900  1.0000
  C   C799      1.0  0.05288  0.89832  0.77287  1.0000
  C   C800      1.0  0.06279  0.93474  0.72462  1.0000
  C   C801      1.0  0.08894  0.93999  0.72360  1.0000
  C   C802      1.0  0.17249  0.89304  0.72524  1.0000
  C   C803      1.0  0.03959  0.97455  0.77236  1.0000
  C   C804      1.0  0.18593  0.91273  0.72712  1.0000
  C   C805      1.0  0.16118  0.91555  0.76977  1.0000
  H   H651      1.0  0.46108  0.66625  0.85302  1.0000
  H   H652      1.0  0.32883  0.56181  0.94915  1.0000
  C   C806      1.0  0.05007  0.88981  0.82527  1.0000
  C   C807      1.0  0.07011  0.90222  0.80978  1.0000
  C   C808      1.0  0.07140  0.90661  0.78375  1.0000
  C   C809      1.0  0.36978  0.56385  0.65745  1.0000
  C   C810      1.0  0.13142  0.94576  0.95111  1.0000
  C   C811      1.0  0.48732  0.60022  0.86984  1.0000
  C   C812      1.0  0.08060  0.95337  0.93545  1.0000
  C   C813      1.0  0.47648  0.62725  0.87214  1.0000
  C   C814      1.0  0.09440  0.96484  0.71255  1.0000
  H   H653      1.0  0.09445  0.89981  0.69100  1.0000
  H   H654      1.0  0.37001  0.52737  0.72874  1.0000
  H   H655      1.0  0.10507  0.92508  0.73156  1.0000
  Fe  Fe58      1.0  0.26588  0.84913  0.97070  1.0000
  C   C815      1.0  0.00855  0.95914  0.81853  1.0000
  H   H656      1.0  0.15124  0.94239  0.95709  1.0000
  C   C816      1.0  0.46261  0.83228  0.80440  1.0000
  C   C817      1.0  0.42774  0.73103  0.75866  1.0000
  H   H657      1.0  0.18735  0.85451  0.90920  1.0000
  H   H658      1.0  0.13987  0.90604  0.94111  1.0000
  H   H659      1.0  0.08387  0.90970  0.81796  1.0000
  S   S112      1.0  0.13284  0.98076  0.88021  1.0000
  C   C818      1.0  0.01223  0.97249  0.77371  1.0000
  H   H660      1.0  0.12140  0.85149  0.97854  1.0000
  H   H661      1.0  0.24179  0.58492  0.94518  1.0000
  H   H662      1.0  0.14522  0.82035  0.70126  1.0000
  S   S113      1.0  0.47872  0.60335  0.75861  1.0000
  C   C819      1.0  0.12161  0.86073  0.69366  1.0000
  C   C820      1.0  0.07410  0.98444  0.70182  1.0000
  C   C821      1.0  0.45183  0.82099  0.94998  1.0000
  C   C822      1.0  0.22365  0.96406  0.70358  1.0000
  C   C823      1.0  0.00036  0.88220  0.70536  1.0000
  C   C824      1.0  0.99815  0.91194  0.74349  1.0000
  C   C825      1.0  0.08671  0.97403  0.94468  1.0000
  H   H663      1.0  0.34436  0.66138  0.96816  1.0000
  C   C826      1.0  0.46374  0.79737  0.96409  1.0000
  C   C827      1.0  0.24664  0.96456  0.68433  1.0000
  H   H664      1.0  0.35806  0.54869  0.66539  1.0000
  H   H665      1.0  0.29105  0.95153  0.67388  1.0000
  H   H666      1.0  0.48625  0.75392  0.93802  1.0000
  H   H667      1.0  0.00111  0.87109  0.69032  1.0000
  C   C828      1.0  0.24733  0.74696  0.97405  1.0000
  H   H668      1.0  0.15800  0.87635  0.97568  1.0000
  C   C829      1.0  0.14501  0.98396  0.75038  1.0000
  C   C830      1.0  0.48581  0.60989  0.82520  1.0000
  H   H669      1.0  0.49140  0.71683  0.80531  1.0000
  C   C831      1.0  0.49150  0.82724  0.80163  1.0000
  C   C832      1.0  0.99256  0.92204  0.89317  1.0000
  C   C833      1.0  0.48979  0.71265  0.82554  1.0000
  Fe  Fe59      1.0  0.64825  0.03456  0.21426  1.0000
  S   S114      1.0  0.62625  0.00098  0.22701  1.0000
  S   S115      1.0  0.62550  0.07718  0.20507  1.0000
  Fe  Fe60      1.0  0.70274  0.00126  0.22804  1.0000
  C   C834      1.0  0.71022  0.05199  0.28664  1.0000
  H   H670      1.0  0.50111  0.30932  0.07375  1.0000
  H   H671      1.0  0.71992  0.39993  0.99783  1.0000
  C   C835      1.0  0.91252  0.03768  0.22600  1.0000
  C   C836      1.0  0.84341  0.39856  0.09872  1.0000
  S   S116      1.0  0.68627  0.01079  0.19177  1.0000
  S   S117      1.0  0.66639  0.02736  0.24917  1.0000
  H   H672      1.0  0.86107  0.40430  0.00268  1.0000
  H   H673      1.0  0.53486  0.00279  0.13778  1.0000
  Fe  Fe61      1.0  0.54929  0.13113  0.09848  1.0000
  S   S118      1.0  0.59515  0.11339  0.09652  1.0000
  S   S119      1.0  0.53235  0.14524  0.06266  1.0000
  Fe  Fe62      1.0  0.59910  0.30511  0.03524  1.0000
  H   H674      1.0  0.93219  0.48043  0.14038  1.0000
  C   C837      1.0  0.52016  0.07953  0.19804  1.0000
  C   C838      1.0  0.54078  0.16753  0.18536  1.0000
  C   C839      1.0  0.90240  0.41125  0.03719  1.0000
  Fe  Fe63      1.0  0.65950  0.27751  0.02344  1.0000
  S   S120      1.0  0.68809  0.23933  0.03640  1.0000
  H   H675      1.0  0.59406  0.22938  0.01329  1.0000
  S   S121      1.0  0.63687  0.30942  0.04771  1.0000
  H   H676      1.0  0.65524  0.20642  0.00178  1.0000
  S   S122      1.0  0.87712  0.24736  0.01510  1.0000
  C   C840      1.0  0.85669  0.99093  0.31251  1.0000
  P   P30       1.0  0.52183  0.13273  0.25796  1.0000
  H   H677      1.0  0.51260  0.44797  0.03870  1.0000
  H   H678      1.0  0.92474  0.45557  0.10895  1.0000
  H   H679      1.0  0.52272  0.11229  0.16825  1.0000
  Fe  Fe64      1.0  0.86746  0.29228  0.01171  1.0000
  S   S123      1.0  0.85784  0.31403  0.04555  1.0000
  H   H680      1.0  0.57271  0.15344  0.24584  1.0000
  H   H681      1.0  0.94265  0.46662  0.06153  1.0000
  S   S124      1.0  0.81610  0.43959  0.02997  1.0000
  S   S125      1.0  0.51833  0.10601  0.11552  1.0000
  H   H682      1.0  0.61282  0.06562  0.26193  1.0000
  C   C841      1.0  0.55578  0.10230  0.01474  1.0000
  H   H683      1.0  0.54823  0.36607  0.04372  1.0000
  H   H684      1.0  0.58348  0.06183  0.11867  1.0000
  C   C842      1.0  0.66156  0.37393  0.05261  1.0000
  H   H685      1.0  0.81491  0.04027  0.24614  1.0000
  C   C843      1.0  0.55493  0.25716  0.05860  1.0000
  C   C844      1.0  0.66999  0.38354  0.07129  1.0000
  Fe  Fe65      1.0  0.49284  0.14353  0.13068  1.0000
  H   H686      1.0  0.86284  0.46641  0.28248  1.0000
  H   H687      1.0  0.92828  0.04598  0.21267  1.0000
  H   H688      1.0  0.80218  0.99722  0.25583  1.0000
  C   C845      1.0  0.51083  0.24418  0.06589  1.0000
  H   H689      1.0  0.55966  0.98829  0.19870  1.0000
  H   H690      1.0  0.88662  0.43231  0.11847  1.0000
  C   C846      1.0  0.80459  0.04494  0.26471  1.0000
  H   H691      1.0  0.94039  0.48196  0.20229  1.0000
  H   H692      1.0  0.92426  0.99987  0.21161  1.0000
  H   H693      1.0  0.57355  0.15666  0.00495  1.0000
  C   C847      1.0  0.56873  0.05859  0.24449  1.0000
  C   C848      1.0  0.84425  0.34858  0.03877  1.0000
  C   C849      1.0  0.82001  0.36095  0.05387  1.0000
  C   C850      1.0  0.81031  0.38884  0.05036  1.0000
  C   C851      1.0  0.82551  0.40454  0.03234  1.0000
  C   C852      1.0  0.84944  0.39219  0.01684  1.0000
  C   C853      1.0  0.85859  0.36421  0.01981  1.0000
  H   H694      1.0  0.80888  0.34891  0.06843  1.0000
  H   H695      1.0  0.79171  0.39824  0.06224  1.0000
  C   C854      1.0  0.50321  0.16533  0.29633  1.0000
  H   H696      1.0  0.52126  0.32040  0.00500  1.0000
  C   C855      1.0  0.72380  0.23658  0.02577  1.0000
  C   C856      1.0  0.74084  0.21096  0.02548  1.0000
  C   C857      1.0  0.76954  0.20745  0.01840  1.0000
  C   C858      1.0  0.78159  0.22947  0.01133  1.0000
  C   C859      1.0  0.76470  0.25537  0.01158  1.0000
  C   C860      1.0  0.73561  0.25892  0.01859  1.0000
  H   H697      1.0  0.73186  0.19369  0.03082  1.0000
  H   H698      1.0  0.78261  0.18752  0.01851  1.0000
  H   H699      1.0  0.51785  0.01434  0.18560  1.0000
  H   H700      1.0  0.83581  0.48379  0.24799  1.0000
  C   C861      1.0  0.66031  0.38928  0.02906  1.0000
  S   S126      1.0  0.81771  0.22280  0.00169  1.0000
  H   H701      1.0  0.59530  0.17663  0.20704  1.0000
  C   C862      1.0  0.54569  0.01566  0.12374  1.0000
  H   H702      1.0  0.57730  0.25218  0.05391  1.0000
  H   H703      1.0  0.68376  0.20528  0.11875  1.0000
  H   H704      1.0  0.64240  0.98590  0.15567  1.0000
  H   H705      1.0  0.87034  0.43992  0.05600  1.0000
  C   C863      1.0  0.57340  0.04869  0.11288  1.0000
  C   C864      1.0  0.88968  0.44248  0.13273  1.0000
  H   H706      1.0  0.50714  0.24254  0.00774  1.0000
  C   C865      1.0  0.51115  0.28238  0.00693  1.0000
  H   H707      1.0  0.51624  0.05365  0.03117  1.0000
  C   C866      1.0  0.71953  0.04116  0.26396  1.0000
  C   C867      1.0  0.73759  0.01592  0.26320  1.0000
  C   C868      1.0  0.64038  0.47621  0.99108  1.0000
  C   C869      1.0  0.58180  0.19499  0.00645  1.0000
  C   C870      1.0  0.56338  0.15750  0.22922  1.0000
  H   H708      1.0  0.71214  0.05208  0.24713  1.0000
  C   C871      1.0  0.76736  0.07234  0.29083  1.0000
  H   H709      1.0  0.96261  0.42283  0.00089  1.0000
  S   S127      1.0  0.52532  0.16741  0.11677  1.0000
  H   H710      1.0  0.72240  0.27880  0.01854  1.0000
  C   C872      1.0  0.57372  0.05490  0.02712  1.0000
  H   H711      1.0  0.59426  0.99240  0.00638  1.0000
  C   C873      1.0  0.80060  0.03652  0.30998  1.0000
  H   H712      1.0  0.89373  0.00691  0.30245  1.0000
  H   H713      1.0  0.86016  0.05440  0.27458  1.0000
  C   C874      1.0  0.87154  0.01623  0.26038  1.0000
  C   C875      1.0  0.55867  0.38149  0.04463  1.0000
  C   C876      1.0  0.55514  0.40524  0.02798  1.0000
  C   C877      1.0  0.61675  0.08598  0.17498  1.0000
  C   C878      1.0  0.63225  0.07250  0.15491  1.0000
  C   C879      1.0  0.62577  0.08113  0.13073  1.0000
  C   C880      1.0  0.60327  0.10268  0.12677  1.0000
  C   C881      1.0  0.58742  0.11565  0.14698  1.0000
  C   C882      1.0  0.59454  0.10765  0.17090  1.0000
  H   H714      1.0  0.64951  0.05581  0.15795  1.0000
  H   H715      1.0  0.63787  0.07079  0.11520  1.0000
  H   H716      1.0  0.56995  0.13214  0.14412  1.0000
  H   H717      1.0  0.58263  0.11808  0.18636  1.0000
  C   C883      1.0  0.57576  0.10163  0.99286  1.0000
  Fe  Fe66      1.0  0.77124  0.45760  0.04484  1.0000
  C   C884      1.0  0.81260  0.23957  0.06556  1.0000
  C   C885      1.0  0.81348  0.22429  0.08911  1.0000
  C   C886      1.0  0.79397  0.23267  0.10993  1.0000
  C   C887      1.0  0.77378  0.25650  0.10718  1.0000
  C   C888      1.0  0.77333  0.27240  0.08368  1.0000
  C   C889      1.0  0.79275  0.26359  0.06281  1.0000
  P   P31       1.0  0.74873  0.30430  0.08133  1.0000
  C   C890      1.0  0.71477  0.29826  0.09478  1.0000
  C   C891      1.0  0.75817  0.32776  0.09656  1.0000
  C   C892      1.0  0.74467  0.35493  0.09329  1.0000
  C   C893      1.0  0.75265  0.37354  0.10388  1.0000
  C   C894      1.0  0.77432  0.36534  0.11757  1.0000
  C   C895      1.0  0.78804  0.33841  0.12077  1.0000
  C   C896      1.0  0.78013  0.31969  0.11022  1.0000
  C   C897      1.0  0.70617  0.27818  0.08670  1.0000
  C   C898      1.0  0.67909  0.27470  0.09500  1.0000
  C   C899      1.0  0.66044  0.29111  0.11154  1.0000
  C   C900      1.0  0.66895  0.31094  0.11990  1.0000
  C   C901      1.0  0.69604  0.31455  0.11156  1.0000
  C   C902      1.0  0.74821  0.31943  0.04919  1.0000
  C   C903      1.0  0.77168  0.32790  0.03495  1.0000
  C   C904      1.0  0.77116  0.34078  0.01044  1.0000
  C   C905      1.0  0.74723  0.34540  0.00011  1.0000
  C   C906      1.0  0.72370  0.33742  0.01414  1.0000
  C   C907      1.0  0.72401  0.32467  0.03868  1.0000
  H   H718      1.0  0.82743  0.23287  0.04933  1.0000
  H   H719      1.0  0.82917  0.20586  0.09107  1.0000
  H   H720      1.0  0.79452  0.22073  0.12816  1.0000
  H   H721      1.0  0.75891  0.26294  0.12347  1.0000
  H   H722      1.0  0.79286  0.27505  0.04437  1.0000
  H   H723      1.0  0.72820  0.36187  0.08225  1.0000
  H   H724      1.0  0.74225  0.39446  0.10108  1.0000
  H   H725      1.0  0.78076  0.37997  0.12526  1.0000
  H   H726      1.0  0.80531  0.33214  0.13083  1.0000
  H   H727      1.0  0.79188  0.29922  0.11214  1.0000
  H   H728      1.0  0.72006  0.26593  0.07314  1.0000
  H   H729      1.0  0.67239  0.25982  0.08789  1.0000
  H   H730      1.0  0.63924  0.28881  0.11747  1.0000
  H   H731      1.0  0.65436  0.32397  0.13239  1.0000
  H   H732      1.0  0.70196  0.33044  0.11777  1.0000
  H   H733      1.0  0.79039  0.32456  0.04275  1.0000
  C   C908      1.0  0.51787  0.03244  0.03253  1.0000
  C   C909      1.0  0.89441  0.05297  0.24375  1.0000
  H   H734      1.0  0.70502  0.34166  0.00605  1.0000
  H   H735      1.0  0.70513  0.31944  0.04920  1.0000
  S   S128      1.0  0.51680  0.03847  0.23622  1.0000
  S   S129      1.0  0.68938  0.41983  0.08884  1.0000
  H   H736      1.0  0.58089  0.04929  0.22836  1.0000
  H   H737      1.0  0.64076  0.16997  0.98826  1.0000
  H   H738      1.0  0.86441  0.45641  0.19276  1.0000
  C   C910      1.0  0.85266  0.37089  0.10405  1.0000
  S   S130      1.0  0.91419  0.47359  0.29018  1.0000
  H   H739      1.0  0.57401  0.02200  0.27005  1.0000
  C   C911      1.0  0.49696  0.99672  0.02909  1.0000
  H   H740      1.0  0.69564  0.07116  0.28727  1.0000
  C   C912      1.0  0.56921  0.42498  0.02865  1.0000
  C   C913      1.0  0.78438  0.14918  0.98973  1.0000
  H   H741      1.0  0.74858  0.08805  0.29279  1.0000
  P   P32       1.0  0.56575  0.45482  0.00590  1.0000
  H   H742      1.0  0.77392  0.27254  0.00599  1.0000
  C   C914      1.0  0.52086  0.25612  0.00138  1.0000
  C   C915      1.0  0.61582  0.07371  0.27766  1.0000
  C   C916      1.0  0.57631  0.17065  0.20720  1.0000
  C   C917      1.0  0.85682  0.37604  0.14595  1.0000
  C   C918      1.0  0.89059  0.43673  0.04422  1.0000
  H   H743      1.0  0.78915  0.34761  0.99951  1.0000
  S   S131      1.0  0.62114  0.27099  0.01375  1.0000
  C   C919      1.0  0.53349  0.19719  0.98414  1.0000
  C   C920      1.0  0.90470  0.45751  0.03575  1.0000
  C   C921      1.0  0.59292  0.47146  0.00566  1.0000
  C   C922      1.0  0.54809  0.24762  0.98862  1.0000
  C   C923      1.0  0.52853  0.30032  0.99999  1.0000
  C   C924      1.0  0.52807  0.15404  0.20721  1.0000
  H   H744      1.0  0.50118  0.48251  0.10889  1.0000
  C   C925      1.0  0.91582  0.46952  0.14490  1.0000
  C   C926      1.0  0.54988  0.13771  0.29473  1.0000
  C   C927      1.0  0.51199  0.28935  0.06988  1.0000
  C   C928      1.0  0.53888  0.14947  0.22952  1.0000
  S   S132      1.0  0.49563  0.01894  0.30908  1.0000
  C   C929      1.0  0.52522  0.14651  0.28474  1.0000
  C   C930      1.0  0.53468  0.08219  0.28531  1.0000
  C   C931      1.0  0.74759  0.00223  0.28494  1.0000
  P   P33       1.0  0.84507  0.00280  0.28270  1.0000
  H   H745      1.0  0.60447  0.39317  0.07605  1.0000
  C   C932      1.0  0.62808  0.09554  0.27321  1.0000
  H   H746      1.0  0.80033  0.41575  0.99082  1.0000
  H   H747      1.0  0.82882  0.13837  0.98833  1.0000
  C   C933      1.0  0.87721  0.45612  0.17425  1.0000
  H   H748      1.0  0.57490  0.18600  0.16829  1.0000
  C   C934      1.0  0.58687  0.42054  0.04628  1.0000
  C   C935      1.0  0.94255  0.42672  0.01307  1.0000
  H   H749      1.0  0.77999  0.13676  0.00743  1.0000
  C   C936      1.0  0.98185  0.45825  0.20253  1.0000
  P   P34       1.0  0.56158  0.21322  0.98271  1.0000
  Fe  Fe67      1.0  0.64179  0.33753  0.01184  1.0000
  C   C937      1.0  0.53217  0.47733  0.01318  1.0000
  H   H750      1.0  0.55804  0.03328  0.15081  1.0000
  C   C938      1.0  0.57530  0.04743  0.08738  1.0000
  H   H751      1.0  0.89122  0.39544  0.04363  1.0000
  C   C939      1.0  0.53896  0.09779  0.26181  1.0000
  C   C940      1.0  0.61667  0.98800  0.06150  1.0000
  C   C941      1.0  0.61921  0.46359  0.99102  1.0000
  H   H752      1.0  0.50698  0.05471  0.15458  1.0000
  C   C942      1.0  0.87219  0.44272  0.15632  1.0000
  H   H753      1.0  0.85468  0.35817  0.08986  1.0000
  P   P35       1.0  0.84393  0.42563  0.16401  1.0000
  C   C943      1.0  0.81056  0.44924  0.16544  1.0000
  C   C944      1.0  0.84748  0.40390  0.14072  1.0000
  C   C945      1.0  0.84087  0.41496  0.11692  1.0000
  C   C946      1.0  0.54121  0.98631  0.04311  1.0000
  H   H754      1.0  0.87731  0.35479  0.00806  1.0000
  C   C947      1.0  0.96217  0.48071  0.19489  1.0000
  H   H755      1.0  0.83816  0.40737  0.08046  1.0000
  C   C948      1.0  0.80618  0.47364  0.17475  1.0000
  C   C949      1.0  0.59396  0.05445  0.00519  1.0000
  H   H756      1.0  0.64247  0.12242  0.28995  1.0000
  C   C950      1.0  0.76248  0.46111  0.15914  1.0000
  C   C951      1.0  0.78827  0.44293  0.15809  1.0000
  C   C952      1.0  0.84562  0.40612  0.19452  1.0000
  C   C953      1.0  0.87147  0.39443  0.20188  1.0000
  C   C954      1.0  0.87283  0.37996  0.22577  1.0000
  C   C955      1.0  0.84845  0.37689  0.24240  1.0000
  C   C956      1.0  0.82267  0.38817  0.23510  1.0000
  C   C957      1.0  0.82122  0.40272  0.21123  1.0000
  C   C958      1.0  0.59030  0.39675  0.06293  1.0000
  H   H757      1.0  0.53942  0.08002  0.04890  1.0000
  H   H758      1.0  0.57955  0.35841  0.07442  1.0000
  Fe  Fe68      1.0  0.84308  0.25388  0.99301  1.0000
  S   S133      1.0  0.66827  0.30594  0.98868  1.0000
  H   H759      1.0  0.83378  0.43632  0.11240  1.0000
  H   H760      1.0  0.53205  0.17108  0.16839  1.0000
  C   C959      1.0  0.55596  0.08576  0.24140  1.0000
  C   C960      1.0  0.87058  0.47940  0.26637  1.0000
  H   H761      1.0  0.61045  0.99030  0.12589  1.0000
  Fe  Fe69      1.0  0.49930  0.12308  0.08124  1.0000
  H   H762      1.0  0.53803  0.00012  0.09311  1.0000
  C   C961      1.0  0.57634  0.37717  0.06201  1.0000
  H   H763      1.0  0.74564  0.45664  0.15258  1.0000
  H   H764      1.0  0.79069  0.42410  0.15133  1.0000
  H   H765      1.0  0.86664  0.33817  0.13167  1.0000
  C   C962      1.0  0.49616  0.02395  0.02676  1.0000
  H   H766      1.0  0.84953  0.36589  0.26101  1.0000
  H   H767      1.0  0.80376  0.38588  0.24804  1.0000
  H   H768      1.0  0.80103  0.41147  0.20602  1.0000
  C   C963      1.0  0.89870  0.46967  0.16843  1.0000
  H   H769      1.0  0.74150  0.16435  0.98675  1.0000
  H   H770      1.0  0.65604  0.35479  0.05642  1.0000
  C   C964      1.0  0.66110  0.14262  0.15084  1.0000
  C   C965      1.0  0.67696  0.13583  0.12769  1.0000
  C   C966      1.0  0.69606  0.11101  0.12690  1.0000
  P   P36       1.0  0.67515  0.15958  0.09952  1.0000
  C   C967      1.0  0.67669  0.14279  0.07320  1.0000
  C   C968      1.0  0.64224  0.18365  0.10157  1.0000
  C   C969      1.0  0.64064  0.21057  0.09138  1.0000
  C   C970      1.0  0.61493  0.22891  0.09284  1.0000
  C   C971      1.0  0.59061  0.22033  0.10396  1.0000
  C   C972      1.0  0.59196  0.19337  0.11314  1.0000
  C   C973      1.0  0.61763  0.17507  0.11187  1.0000
  C   C974      1.0  0.68717  0.15331  0.04875  1.0000
  C   C975      1.0  0.68875  0.13992  0.02846  1.0000
  C   C976      1.0  0.67851  0.11680  0.03227  1.0000
  C   C977      1.0  0.66695  0.10690  0.05644  1.0000
  C   C978      1.0  0.66619  0.11976  0.07684  1.0000
  C   C979      1.0  0.70471  0.17420  0.09541  1.0000
  C   C980      1.0  0.73033  0.16226  0.08174  1.0000
  C   C981      1.0  0.75317  0.17375  0.07814  1.0000
  C   C982      1.0  0.75067  0.19699  0.08840  1.0000
  C   C983      1.0  0.72577  0.20803  0.10335  1.0000
  C   C984      1.0  0.70289  0.19655  0.10705  1.0000
  H   H771      1.0  0.64673  0.16184  0.15211  1.0000
  H   H772      1.0  0.70898  0.10562  0.10936  1.0000
  H   H773      1.0  0.65910  0.21739  0.08192  1.0000
  H   H774      1.0  0.61374  0.24969  0.08490  1.0000
  H   H775      1.0  0.57064  0.23449  0.10500  1.0000
  H   H776      1.0  0.57307  0.18657  0.12102  1.0000
  H   H777      1.0  0.61823  0.15416  0.11870  1.0000
  H   H778      1.0  0.69408  0.17183  0.04539  1.0000
  H   H779      1.0  0.69775  0.14761  0.00978  1.0000
  H   H780      1.0  0.67929  0.10670  0.01650  1.0000
  H   H781      1.0  0.65824  0.08942  0.05951  1.0000
  H   H782      1.0  0.65682  0.11206  0.09537  1.0000
  H   H783      1.0  0.73266  0.14430  0.07355  1.0000
  H   H784      1.0  0.77263  0.16512  0.06676  1.0000
  H   H785      1.0  0.76799  0.20649  0.08453  1.0000
  H   H786      1.0  0.72415  0.22566  0.11182  1.0000
  H   H787      1.0  0.63446  0.10414  0.25403  1.0000
  H   H788      1.0  0.55046  0.21735  0.05707  1.0000
  S   S134      1.0  0.73519  0.45304  0.02968  1.0000
  C   C985      1.0  0.56488  0.17588  0.18534  1.0000
  C   C986      1.0  0.67577  0.42365  0.04279  1.0000
  H   H789      1.0  0.68086  0.44299  0.03890  1.0000
  C   C987      1.0  0.55888  0.03265  0.13106  1.0000
  C   C988      1.0  0.56466  0.04320  0.26794  1.0000
  C   C989      1.0  0.49695  0.27012  0.07055  1.0000
  C   C990      1.0  0.66739  0.41403  0.02427  1.0000
  C   C991      1.0  0.67739  0.40831  0.06622  1.0000
  C   C992      1.0  0.87401  0.04230  0.26090  1.0000
  H   H790      1.0  0.61154  0.99628  0.07903  1.0000
  H   H791      1.0  0.61987  0.15709  0.06140  1.0000
  H   H792      1.0  0.54033  0.12055  0.01815  1.0000
  S   S135      1.0  0.75122  0.45184  0.08531  1.0000
  C   C993      1.0  0.69841  0.09280  0.14878  1.0000
  C   C994      1.0  0.54748  0.01428  0.09827  1.0000
  Fe  Fe70      1.0  0.71395  0.45053  0.07007  1.0000
  H   H793      1.0  0.54190  0.40796  0.01420  1.0000
  H   H794      1.0  0.71261  0.07338  0.14805  1.0000
  H   H795      1.0  0.76228  0.39561  0.01551  1.0000
  H   H796      1.0  0.77289  0.07687  0.25053  1.0000
  H   H797      1.0  0.86219  0.36689  0.16405  1.0000
  C   C995      1.0  0.60921  0.19456  0.03789  1.0000
  C   C996      1.0  0.92831  0.40625  0.02158  1.0000
  C   C997      1.0  0.66349  0.12433  0.17267  1.0000
  C   C998      1.0  0.56255  0.02994  0.07990  1.0000
  H   H798      1.0  0.61875  0.20520  0.04748  1.0000
  H   H799      1.0  0.52305  0.19319  0.02462  1.0000
  S   S136      1.0  0.64977  0.37861  0.00508  1.0000
  C   C999      1.0  0.61013  0.16743  0.04556  1.0000
  C   C1000     1.0  0.78100  0.06594  0.26707  1.0000
  C   C1001     1.0  0.51005  0.46842  0.02969  1.0000
  C   C1002     1.0  0.68210  0.09945  0.17163  1.0000
  S   S137      1.0  0.55892  0.30797  0.06244  1.0000
  C   C1003     1.0  0.55555  0.29211  0.98719  1.0000
  C   C1004     1.0  0.54766  0.05502  0.28836  1.0000
  H   H800      1.0  0.65039  0.12904  0.19036  1.0000
  H   H801      1.0  0.56704  0.12298  0.28630  1.0000
  H   H802      1.0  0.83397  0.48291  0.04576  1.0000
  Fe  Fe71      1.0  0.50568  0.17939  0.08236  1.0000
  C   C1005     1.0  0.53986  0.23747  0.06047  1.0000
  S   S138      1.0  0.60202  0.33595  0.00138  1.0000
  C   C1006     1.0  0.54095  0.28308  0.06349  1.0000
  C   C1007     1.0  0.91024  0.01170  0.22541  1.0000
  C   C1008     1.0  0.93082  0.45224  0.02011  1.0000
  C   C1009     1.0  0.54074  0.01368  0.04056  1.0000
  H   H803      1.0  0.89058  0.39670  0.18926  1.0000
  H   H804      1.0  0.58741  0.05951  0.07368  1.0000
  H   H805      1.0  0.67114  0.37171  0.08946  1.0000
  H   H806      1.0  0.59817  0.13277  0.03959  1.0000
  C   C1010     1.0  0.55511  0.07919  0.03203  1.0000
  H   H807      1.0  0.68340  0.08508  0.18850  1.0000
  P   P37       1.0  0.56931  0.02439  0.04749  1.0000
  C   C1011     1.0  0.59776  0.15377  0.03324  1.0000
  H   H808      1.0  0.66708  0.42544  0.00588  1.0000
  C   C1012     1.0  0.91147  0.45570  0.12716  1.0000
  C   C1013     1.0  0.85937  0.35964  0.12765  1.0000
  C   C1014     1.0  0.56539  0.26587  0.98168  1.0000
  H   H809      1.0  0.59870  0.43492  0.04681  1.0000
  C   C1015     1.0  0.59507  0.07778  0.98824  1.0000
  C   C1016     1.0  0.73672  0.40861  0.98693  1.0000
  H   H810      1.0  0.54228  0.07096  0.19476  1.0000
  H   H811      1.0  0.55895  0.09700  0.22292  1.0000
  C   C1017     1.0  0.51851  0.18903  0.00756  1.0000
  C   C1018     1.0  0.63250  0.10577  0.29340  1.0000
  C   C1019     1.0  0.58368  0.16744  0.01373  1.0000
  C   C1020     1.0  0.59520  0.20826  0.01836  1.0000
  C   C1021     1.0  0.71930  0.03775  0.30858  1.0000
  H   H812      1.0  0.89613  0.07313  0.24418  1.0000
  H   H813      1.0  0.90169  0.48074  0.18209  1.0000
  C   C1022     1.0  0.81439  0.02979  0.28617  1.0000
  H   H814      1.0  0.93721  0.38652  0.01598  1.0000
  C   C1023     1.0  0.50265  0.06737  0.21735  1.0000
  S   S139      1.0  0.74473  0.00028  0.23600  1.0000
  C   C1024     1.0  0.88985  0.00098  0.24251  1.0000
  C   C1025     1.0  0.73839  0.01307  0.30763  1.0000
  C   C1026     1.0  0.50908  0.10278  0.18294  1.0000
  H   H815      1.0  0.60877  0.03617  0.00095  1.0000
  H   H816      1.0  0.97522  0.44230  0.21609  1.0000
  H   H817      1.0  0.52091  0.09095  0.30109  1.0000
  H   H818      1.0  0.89281  0.37136  0.23151  1.0000
  C   C1027     1.0  0.60026  0.99786  0.04274  1.0000
  C   C1028     1.0  0.76072  0.40587  0.99672  1.0000
  H   H819      1.0  0.89904  0.19387  0.98679  1.0000
  S   S140      1.0  0.83121  0.29820  0.99252  1.0000
  H   H820      1.0  0.79353  0.48275  0.07977  1.0000
  Fe  Fe72      1.0  0.64820  0.99160  0.25982  1.0000
  H   H821      1.0  0.94196  0.46800  0.01314  1.0000
  H   H822      1.0  0.59953  0.04434  0.30522  1.0000
  H   H823      1.0  0.49973  0.06326  0.10099  1.0000
  H   H824      1.0  0.54419  0.04289  0.30635  1.0000
  H   H825      1.0  0.82257  0.47921  0.18086  1.0000
  H   H826      1.0  0.50989  0.14709  0.20649  1.0000
  H   H827      1.0  0.56908  0.30599  0.98184  1.0000
  C   C1029     1.0  0.49760  0.17546  0.00921  1.0000
  H   H828      1.0  0.74654  0.35604  0.98145  1.0000
  C   C1030     1.0  0.60706  0.98559  0.02079  1.0000
  C   C1031     1.0  0.49650  0.02410  0.18444  1.0000
  C   C1032     1.0  0.60819  0.06183  0.30219  1.0000
  S   S141      1.0  0.99168  0.47322  0.26006  1.0000
  C   C1033     1.0  0.66761  0.19647  0.98603  1.0000
  H   H829      1.0  0.59799  0.40642  0.98427  1.0000
  C   C1034     1.0  0.77722  0.05771  0.31224  1.0000
  C   C1035     1.0  0.78226  0.41728  0.98271  1.0000
  H   H830      1.0  0.97342  0.48523  0.07915  1.0000
  H   H831      1.0  0.54394  0.40152  0.62507  1.0000
  C   C1036     1.0  0.63146  0.44816  0.56797  1.0000
  H   H832      1.0  0.66965  0.43835  0.62422  1.0000
  C   C1037     1.0  0.83527  0.01117  0.51970  1.0000
  H   H833      1.0  0.55081  0.22451  0.61230  1.0000
  C   C1038     1.0  0.51691  0.07906  0.35374  1.0000
  H   H834      1.0  0.61933  0.45122  0.55330  1.0000
  H   H835      1.0  0.71061  0.98720  0.60054  1.0000
  H   H836      1.0  0.69571  0.05193  0.47457  1.0000
  H   H837      1.0  0.62820  0.10250  0.33329  1.0000
  H   H838      1.0  0.82444  0.04423  0.40339  1.0000
  C   C1039     1.0  0.54170  0.38217  0.48061  1.0000
  C   C1040     1.0  0.50571  0.17493  0.31767  1.0000
  Fe  Fe73      1.0  0.72237  0.02128  0.36852  1.0000
  C   C1041     1.0  0.50949  0.05448  0.35724  1.0000
  Fe  Fe74      1.0  0.74990  0.01335  0.41395  1.0000
  H   H839      1.0  0.55153  0.23773  0.56655  1.0000
  S   S142      1.0  0.76882  0.03557  0.43446  1.0000
  C   C1042     1.0  0.53762  0.47464  0.55042  1.0000
  C   C1043     1.0  0.86864  0.03297  0.38990  1.0000
  H   H840      1.0  0.52135  0.98610  0.41524  1.0000
  S   S143      1.0  0.76692  0.01006  0.37324  1.0000
  S   S144      1.0  0.70560  0.02846  0.40834  1.0000
  C   C1044     1.0  0.75898  0.01592  0.51990  1.0000
  C   C1045     1.0  0.87710  0.01252  0.62954  1.0000
  C   C1046     1.0  0.76769  0.00070  0.47900  1.0000
  C   C1047     1.0  0.76524  0.02720  0.46727  1.0000
  C   C1048     1.0  0.76012  0.04782  0.48188  1.0000
  C   C1049     1.0  0.75651  0.04226  0.50807  1.0000
  H   H841      1.0  0.57262  0.01276  0.36024  1.0000
  H   H842      1.0  0.64994  0.40195  0.61728  1.0000
  H   H843      1.0  0.75836  0.06826  0.47292  1.0000
  H   H844      1.0  0.75199  0.05844  0.51921  1.0000
  C   C1050     1.0  0.65964  0.44070  0.60812  1.0000
  H   H845      1.0  0.50987  0.26588  0.55099  1.0000
  C   C1051     1.0  0.88471  0.00843  0.51234  1.0000
  C   C1052     1.0  0.84408  0.03095  0.40670  1.0000
  C   C1053     1.0  0.53280  0.24437  0.57977  1.0000
  C   C1054     1.0  0.69215  0.03340  0.48574  1.0000
  H   H846      1.0  0.90888  0.98854  0.48116  1.0000
  H   H847      1.0  0.92382  0.19860  0.64152  1.0000
  H   H848      1.0  0.50123  0.09747  0.35134  1.0000
  H   H849      1.0  0.85539  0.02716  0.54225  1.0000
  H   H850      1.0  0.71624  0.00928  0.45752  1.0000
  H   H851      1.0  0.89067  0.15212  0.63352  1.0000
  C   C1055     1.0  0.79432  0.05504  0.58564  1.0000
  H   H852      1.0  0.80755  0.02554  0.32693  1.0000
  C   C1056     1.0  0.50826  0.24543  0.62259  1.0000
  C   C1057     1.0  0.85821  0.01661  0.52631  1.0000
  C   C1058     1.0  0.62826  0.37996  0.53879  1.0000
  C   C1059     1.0  0.64524  0.39564  0.52293  1.0000
  C   C1060     1.0  0.63331  0.41988  0.50978  1.0000
  C   C1061     1.0  0.60441  0.42859  0.51270  1.0000
  C   C1062     1.0  0.58721  0.41344  0.52922  1.0000
  C   C1063     1.0  0.59935  0.38872  0.54184  1.0000
  H   H853      1.0  0.90693  0.12069  0.60174  1.0000
  C   C1064     1.0  0.53483  0.41139  0.56409  1.0000
  H   H854      1.0  0.49865  0.44405  0.51242  1.0000
  H   H855      1.0  0.50351  0.38113  0.63070  1.0000
  C   C1065     1.0  0.80642  0.04225  0.62711  1.0000
  C   C1066     1.0  0.64318  0.46856  0.57147  1.0000
  H   H856      1.0  0.74590  0.00221  0.32440  1.0000
  H   H857      1.0  0.83987  0.08960  0.59300  1.0000
  C   C1067     1.0  0.61570  0.01063  0.38593  1.0000
  C   C1068     1.0  0.87535  0.03436  0.64187  1.0000
  H   H858      1.0  0.66765  0.38894  0.52075  1.0000
  H   H859      1.0  0.64645  0.43199  0.49735  1.0000
  H   H860      1.0  0.59552  0.44717  0.50215  1.0000
  H   H861      1.0  0.95635  0.16246  0.61907  1.0000
  C   C1069     1.0  0.51221  0.39941  0.56742  1.0000
  C   C1070     1.0  0.89440  0.99649  0.41574  1.0000
  C   C1071     1.0  0.85673  0.09175  0.63959  1.0000
  C   C1072     1.0  0.55250  0.14771  0.31581  1.0000
  H   H862      1.0  0.66773  0.05209  0.51760  1.0000
  C   C1073     1.0  0.63695  0.08816  0.39816  1.0000
  C   C1074     1.0  0.61438  0.10141  0.41427  1.0000
  C   C1075     1.0  0.58730  0.10161  0.41207  1.0000
  C   C1076     1.0  0.58275  0.08862  0.39372  1.0000
  C   C1077     1.0  0.60535  0.07561  0.37722  1.0000
  C   C1078     1.0  0.63247  0.07524  0.37979  1.0000
  P   P38       1.0  0.60070  0.05733  0.35413  1.0000
  C   C1079     1.0  0.56489  0.05607  0.35597  1.0000
  C   C1080     1.0  0.88951  0.98707  0.34021  1.0000
  C   C1081     1.0  0.51593  0.39571  0.47426  1.0000
  H   H863      1.0  0.81461  0.01779  0.53023  1.0000
  S   S145      1.0  0.53587  0.47270  0.61753  1.0000
  H   H864      1.0  0.66413  0.48090  0.59628  1.0000
  C   C1082     1.0  0.55287  0.45042  0.64017  1.0000
  C   C1083     1.0  0.55729  0.03145  0.35901  1.0000
  C   C1084     1.0  0.52971  0.03070  0.35969  1.0000
  S   S146      1.0  0.75406  0.01032  0.55288  1.0000
  H   H865      1.0  0.63751  0.36104  0.54883  1.0000
  C   C1085     1.0  0.54456  0.07986  0.35273  1.0000
  C   C1086     1.0  0.62110  0.02412  0.36155  1.0000
  C   C1087     1.0  0.53036  0.16621  0.32737  1.0000
  H   H866      1.0  0.81370  0.08490  0.56161  1.0000
  C   C1088     1.0  0.58133  0.44797  0.63842  1.0000
  H   H867      1.0  0.64829  0.02224  0.32527  1.0000
  H   H868      1.0  0.76609  0.06227  0.33067  1.0000
  H   H869      1.0  0.65802  0.08752  0.40002  1.0000
  H   H870      1.0  0.61793  0.11120  0.42864  1.0000
  H   H871      1.0  0.56984  0.11152  0.42485  1.0000
  H   H872      1.0  0.56169  0.08836  0.39293  1.0000
  H   H873      1.0  0.65027  0.06465  0.36771  1.0000
  H   H874      1.0  0.50755  0.38876  0.46074  1.0000
  C   C1089     1.0  0.61224  0.07213  0.32260  1.0000
  H   H875      1.0  0.88622  0.08184  0.60595  1.0000
  C   C1090     1.0  0.84465  0.01183  0.42804  1.0000
  H   H876      1.0  0.57163  0.14087  0.32330  1.0000
  C   C1091     1.0  0.87814  0.09598  0.61942  1.0000
  C   C1092     1.0  0.86970  0.99415  0.43243  1.0000
  H   H877      1.0  0.54320  0.46642  0.48933  1.0000
  C   C1093     1.0  0.64847  0.42027  0.60421  1.0000
  H   H878      1.0  0.55012  0.09900  0.34942  1.0000
  P   P39       1.0  0.84458  0.06120  0.64433  1.0000
  H   H879      1.0  0.82549  0.01070  0.44107  1.0000
  C   C1094     1.0  0.89010  0.11785  0.61710  1.0000
  C   C1095     1.0  0.86559  0.98738  0.48628  1.0000
  H   H880      1.0  0.66078  0.00965  0.54323  1.0000
  C   C1096     1.0  0.70374  0.00929  0.47601  1.0000
  C   C1097     1.0  0.67654  0.03343  0.50995  1.0000
  C   C1098     1.0  0.65889  0.98650  0.35064  1.0000
  H   H881      1.0  0.96816  0.11640  0.64162  1.0000
  C   C1099     1.0  0.63424  0.42406  0.58422  1.0000
  H   H882      1.0  0.55341  0.36465  0.47193  1.0000
  C   C1100     1.0  0.65673  0.46483  0.59202  1.0000
  C   C1101     1.0  0.54147  0.46117  0.52963  1.0000
  C   C1102     1.0  0.62450  0.09422  0.31804  1.0000
  C   C1103     1.0  0.76473  0.99501  0.50538  1.0000
  H   H883      1.0  0.50258  0.39888  0.55181  1.0000
  H   H884      1.0  0.91295  0.01774  0.38174  1.0000
  C   C1104     1.0  0.53524  0.40070  0.60894  1.0000
  H   H885      1.0  0.62454  0.40868  0.58188  1.0000
  C   C1105     1.0  0.79166  0.03972  0.60925  1.0000
  C   C1106     1.0  0.55227  0.39111  0.49824  1.0000
  H   H886      1.0  0.78313  0.05263  0.57172  1.0000
  S   S147      1.0  0.70706  0.05119  0.33697  1.0000
  H   H887      1.0  0.59946  0.02002  0.39999  1.0000
  C   C1107     1.0  0.89384  0.01588  0.39452  1.0000
  C   C1108     1.0  0.81162  0.07311  0.57997  1.0000
  H   H888      1.0  0.82084  0.99312  0.49469  1.0000
  H   H889      1.0  0.53868  0.46384  0.56893  1.0000
  C   C1109     1.0  0.64309  0.01208  0.34402  1.0000
  C   C1110     1.0  0.50067  0.41815  0.48557  1.0000
  C   C1111     1.0  0.82389  0.06030  0.62160  1.0000
  C   C1112     1.0  0.50908  0.26040  0.57101  1.0000
  H   H890      1.0  0.59237  0.45951  0.62323  1.0000
  H   H891      1.0  0.86811  0.04793  0.37346  1.0000
  H   H892      1.0  0.90834  0.99101  0.34349  1.0000
  C   C1113     1.0  0.88099  0.13553  0.63501  1.0000
  H   H893      1.0  0.58653  0.37623  0.55410  1.0000
  C   C1114     1.0  0.53241  0.23691  0.60554  1.0000
  C   C1115     1.0  0.83892  0.99682  0.49966  1.0000
  C   C1116     1.0  0.92338  0.99284  0.63871  1.0000
  C   C1117     1.0  0.51106  0.42703  0.50332  1.0000
  H   H894      1.0  0.80467  0.02956  0.64504  1.0000
  C   C1118     1.0  0.54640  0.41174  0.58507  1.0000
  H   H895      1.0  0.56382  0.42087  0.58316  1.0000
  C   C1119     1.0  0.67288  0.00929  0.52447  1.0000
  C   C1120     1.0  0.94740  0.15820  0.63867  1.0000
  H   H896      1.0  0.57214  0.38022  0.50307  1.0000
  H   H897      1.0  0.85987  0.01084  0.62167  1.0000
  H   H898      1.0  0.69601  0.48486  0.55533  1.0000
  C   C1121     1.0  0.82642  0.07572  0.59785  1.0000
  H   H899      1.0  0.77863  0.02535  0.61358  1.0000
  C   C1122     1.0  0.53989  0.47622  0.50582  1.0000
  P   P40       1.0  0.54989  0.42496  0.53309  1.0000
  C   C1123     1.0  0.53705  0.41372  0.50963  1.0000
  H   H900      1.0  0.52410  0.01165  0.36147  1.0000
  C   C1124     1.0  0.51261  0.38906  0.61210  1.0000
  H   H901      1.0  0.90247  0.01282  0.51734  1.0000
  H   H902      1.0  0.53222  0.17374  0.34388  1.0000
  C   C1125     1.0  0.50139  0.38808  0.59129  1.0000
  C   C1126     1.0  0.88110  0.99604  0.31689  1.0000
  C   C1127     1.0  0.90117  0.99205  0.62773  1.0000
  C   C1128     1.0  0.88833  0.99431  0.49207  1.0000
  S   S148      1.0  0.97576  0.47929  0.32051  1.0000
  H   H903      1.0  0.50793  0.23962  0.64258  1.0000
  H   H904      1.0  0.60136  0.46439  0.86117  1.0000
  H   H905      1.0  0.51782  0.39298  0.79370  1.0000
  H   H906      1.0  0.79969  0.08518  0.78382  1.0000
  S   S149      1.0  0.72408  0.40319  0.72265  1.0000
  S   S150      1.0  0.64147  0.41802  0.74121  1.0000
  H   H907      1.0  0.65045  0.35059  0.70222  1.0000
  S   S151      1.0  0.62102  0.29944  0.94247  1.0000
  S   S152      1.0  0.85660  0.32792  0.92173  1.0000
  Fe  Fe75      1.0  0.72583  0.42793  0.85200  1.0000
  H   H908      1.0  0.98125  0.13935  0.93116  1.0000
  S   S153      1.0  0.76044  0.42414  0.81875  1.0000
  Fe  Fe76      1.0  0.71338  0.40466  0.90648  1.0000
  S   S154      1.0  0.67066  0.43109  0.91346  1.0000
  S   S155      1.0  0.72787  0.37030  0.93463  1.0000
  Fe  Fe77      1.0  0.66777  0.42084  0.87647  1.0000
  S   S156      1.0  0.63126  0.40709  0.87116  1.0000
  H   H909      1.0  0.52120  0.44842  0.86645  1.0000
  Fe  Fe78      1.0  0.65261  0.46897  0.68072  1.0000
  S   S157      1.0  0.70912  0.39243  0.87104  1.0000
  S   S158      1.0  0.73404  0.43784  0.88718  1.0000
  H   H910      1.0  0.77609  0.38854  0.73957  1.0000
  S   S159      1.0  0.91661  0.13351  0.81350  1.0000
  S   S160      1.0  0.94027  0.19934  0.81861  1.0000
  Fe  Fe79      1.0  0.87523  0.13824  0.83896  1.0000
  S   S161      1.0  0.83605  0.14205  0.82403  1.0000
  Fe  Fe80      1.0  0.93974  0.02088  0.71970  1.0000
  S   S162      1.0  0.95922  0.04960  0.69050  1.0000
  S   S163      1.0  0.89854  0.01617  0.71546  1.0000
  H   H911      1.0  0.69216  0.36321  0.70896  1.0000
  C   C1129     1.0  0.78023  0.43096  0.95856  1.0000
  C   C1130     1.0  0.90601  0.16163  0.93633  1.0000
  C   C1131     1.0  0.80586  0.45346  0.90856  1.0000
  S   S164      1.0  0.89129  0.13879  0.92672  1.0000
  H   H912      1.0  0.65241  0.33532  0.85538  1.0000
  H   H913      1.0  0.90095  0.08357  0.91895  1.0000
  H   H914      1.0  0.81513  0.09962  0.72917  1.0000
  H   H915      1.0  0.56801  0.39273  0.78683  1.0000
  C   C1132     1.0  0.76586  0.16800  0.90114  1.0000
  C   C1133     1.0  0.83852  0.11356  0.81003  1.0000
  C   C1134     1.0  0.81558  0.11035  0.80148  1.0000
  C   C1135     1.0  0.84267  0.06855  0.78664  1.0000
  C   C1136     1.0  0.86559  0.07197  0.79499  1.0000
  C   C1137     1.0  0.86339  0.09411  0.80710  1.0000
  H   H916      1.0  0.88511  0.05765  0.79215  1.0000
  H   H917      1.0  0.88118  0.09623  0.81381  1.0000
  H   H918      1.0  0.54538  0.48178  0.95898  1.0000
  C   C1138     1.0  0.92543  0.14733  0.68978  1.0000
  C   C1139     1.0  0.61994  0.37519  0.81949  1.0000
  C   C1140     1.0  0.80411  0.48274  0.86892  1.0000
  H   H919      1.0  0.89006  0.01567  0.81321  1.0000
  H   H920      1.0  0.64518  0.44100  0.79685  1.0000
  H   H921      1.0  0.95935  0.23938  0.78222  1.0000
  C   C1141     1.0  0.82103  0.33697  0.92123  1.0000
  C   C1142     1.0  0.80346  0.32250  0.93778  1.0000
  C   C1143     1.0  0.77478  0.33256  0.94115  1.0000
  C   C1144     1.0  0.76351  0.35664  0.92748  1.0000
  C   C1145     1.0  0.78089  0.36971  0.90897  1.0000
  C   C1146     1.0  0.80980  0.35994  0.90600  1.0000
  H   H922      1.0  0.97342  0.15370  0.79377  1.0000
  H   H923      1.0  0.57970  0.40072  0.83029  1.0000
  H   H924      1.0  0.77222  0.38786  0.89775  1.0000
  H   H925      1.0  0.82350  0.37076  0.89279  1.0000
  C   C1147     1.0  0.62373  0.32959  0.92302  1.0000
  C   C1148     1.0  0.64335  0.34335  0.92500  1.0000
  C   C1149     1.0  0.64623  0.36679  0.90864  1.0000
  C   C1150     1.0  0.62874  0.37712  0.89091  1.0000
  C   C1151     1.0  0.60876  0.36363  0.88923  1.0000
  C   C1152     1.0  0.60655  0.33968  0.90500  1.0000
  H   H926      1.0  0.65647  0.33597  0.93907  1.0000
  H   H927      1.0  0.66150  0.37720  0.91032  1.0000
  H   H928      1.0  0.59509  0.37164  0.87568  1.0000
  H   H929      1.0  0.59126  0.32917  0.90351  1.0000
  C   C1153     1.0  0.73382  0.41043  0.74892  1.0000
  C   C1154     1.0  0.71465  0.42590  0.76601  1.0000
  C   C1155     1.0  0.72252  0.43004  0.78774  1.0000
  C   C1156     1.0  0.74992  0.41972  0.79171  1.0000
  C   C1157     1.0  0.76932  0.40532  0.77400  1.0000
  C   C1158     1.0  0.76118  0.40031  0.75286  1.0000
  H   H930      1.0  0.69362  0.43420  0.76272  1.0000
  H   H931      1.0  0.70749  0.44137  0.80127  1.0000
  H   H932      1.0  0.79050  0.39738  0.77699  1.0000
  C   C1159     1.0  0.83162  0.26609  0.78736  1.0000
  C   C1160     1.0  0.82904  0.23973  0.78947  1.0000
  C   C1161     1.0  0.82134  0.22585  0.81309  1.0000
  C   C1162     1.0  0.81610  0.23835  0.83459  1.0000
  C   C1163     1.0  0.81877  0.26482  0.83265  1.0000
  C   C1164     1.0  0.82637  0.27868  0.80886  1.0000
  P   P41       1.0  0.80980  0.28146  0.86033  1.0000
  C   C1165     1.0  0.77246  0.29352  0.86716  1.0000
  C   C1166     1.0  0.82272  0.25843  0.88621  1.0000
  C   C1167     1.0  0.81006  0.26188  0.91106  1.0000
  C   C1168     1.0  0.82057  0.24452  0.93103  1.0000
  C   C1169     1.0  0.84372  0.22358  0.92641  1.0000
  C   C1170     1.0  0.85684  0.22029  0.90180  1.0000
  C   C1171     1.0  0.84656  0.23774  0.88174  1.0000
  C   C1172     1.0  0.76076  0.31288  0.88344  1.0000
  C   C1173     1.0  0.73212  0.32342  0.88776  1.0000
  C   C1174     1.0  0.71485  0.31483  0.87589  1.0000
  C   C1175     1.0  0.72625  0.29554  0.85966  1.0000
  C   C1176     1.0  0.75493  0.28496  0.85523  1.0000
  C   C1177     1.0  0.82595  0.30959  0.85495  1.0000
  C   C1178     1.0  0.81193  0.33509  0.84532  1.0000
  C   C1179     1.0  0.82447  0.35681  0.84081  1.0000
  C   C1180     1.0  0.85108  0.35329  0.84608  1.0000
  C   C1181     1.0  0.86507  0.32807  0.85590  1.0000
  C   C1182     1.0  0.85266  0.30626  0.86023  1.0000
  H   H933      1.0  0.83794  0.27671  0.76907  1.0000
  H   H934      1.0  0.83339  0.22990  0.77284  1.0000
  H   H935      1.0  0.81984  0.20521  0.81481  1.0000
  H   H936      1.0  0.81008  0.22732  0.85276  1.0000
  H   H937      1.0  0.82841  0.29911  0.80686  1.0000
  H   H938      1.0  0.79258  0.27829  0.91517  1.0000
  C   C1183     1.0  0.80607  0.47867  0.89442  1.0000
  H   H939      1.0  0.85319  0.14479  0.66940  1.0000
  H   H940      1.0  0.87544  0.20459  0.89841  1.0000
  H   H941      1.0  0.85769  0.23530  0.86286  1.0000
  H   H942      1.0  0.77384  0.32021  0.89245  1.0000
  H   H943      1.0  0.72324  0.33828  0.90043  1.0000
  H   H944      1.0  0.69268  0.32329  0.87937  1.0000
  H   H945      1.0  0.71292  0.28908  0.85021  1.0000
  H   H946      1.0  0.76326  0.27055  0.84216  1.0000
  H   H947      1.0  0.79112  0.33840  0.84171  1.0000
  H   H948      1.0  0.81325  0.37649  0.83377  1.0000
  H   H949      1.0  0.86056  0.37021  0.84325  1.0000
  H   H950      1.0  0.88525  0.32550  0.86095  1.0000
  H   H951      1.0  0.86382  0.28704  0.86817  1.0000
  C   C1184     1.0  0.71398  0.35668  0.81672  1.0000
  C   C1185     1.0  0.74190  0.35604  0.81612  1.0000
  C   C1186     1.0  0.76278  0.33969  0.80103  1.0000
  C   C1187     1.0  0.65077  0.29396  0.86560  1.0000
  H   H952      1.0  0.69809  0.36954  0.82849  1.0000
  H   H953      1.0  0.74731  0.36877  0.82689  1.0000
  H   H954      1.0  0.78430  0.34007  0.79980  1.0000
  H   H955      1.0  0.73839  0.47406  0.74471  1.0000
  C   C1188     1.0  0.75585  0.32324  0.78718  1.0000
  H   H956      1.0  0.62808  0.32863  0.78160  1.0000
  C   C1189     1.0  0.97005  0.07568  0.76663  1.0000
  H   H957      1.0  0.55390  0.46833  0.91697  1.0000
  C   C1190     1.0  0.80499  0.43226  0.89664  1.0000
  S   S165      1.0  0.88929  0.10515  0.86870  1.0000
  C   C1191     1.0  0.91858  0.20581  0.74837  1.0000
  C   C1192     1.0  0.89986  0.20622  0.77106  1.0000
  C   C1193     1.0  0.88372  0.18720  0.77838  1.0000
  C   C1194     1.0  0.88596  0.16801  0.76289  1.0000
  C   C1195     1.0  0.90432  0.16778  0.73980  1.0000
  C   C1196     1.0  0.92125  0.18635  0.73303  1.0000
  P   P42       1.0  0.91102  0.13996  0.72246  1.0000
  C   C1197     1.0  0.93458  0.11439  0.73890  1.0000
  C   C1198     1.0  0.88039  0.12810  0.72296  1.0000
  C   C1199     1.0  0.88322  0.10166  0.71887  1.0000
  C   C1200     1.0  0.85968  0.09161  0.72088  1.0000
  C   C1201     1.0  0.83322  0.10790  0.72665  1.0000
  C   C1202     1.0  0.83022  0.13451  0.72985  1.0000
  C   C1203     1.0  0.85374  0.14469  0.72781  1.0000
  C   C1204     1.0  0.84767  0.10973  0.65746  1.0000
  H   H958      1.0  0.85330  0.02522  0.69103  1.0000
  H   H959      1.0  0.55778  0.48259  0.67518  1.0000
  C   C1205     1.0  0.94146  0.07854  0.77333  1.0000
  C   C1206     1.0  0.92380  0.09775  0.75948  1.0000
  C   C1207     1.0  0.96331  0.11258  0.73311  1.0000
  C   C1208     1.0  0.78019  0.07189  0.70369  1.0000
  S   S166      1.0  0.61008  0.46578  0.70142  1.0000
  H   H960      1.0  0.53072  0.46320  0.71341  1.0000
  C   C1209     1.0  0.65480  0.31653  0.84848  1.0000
  H   H961      1.0  0.80969  0.14701  0.73465  1.0000
  C   C1210     1.0  0.81560  0.47986  0.97324  1.0000
  H   H962      1.0  0.89894  0.22037  0.78360  1.0000
  H   H963      1.0  0.87065  0.18630  0.79673  1.0000
  H   H964      1.0  0.87452  0.15245  0.76972  1.0000
  H   H965      1.0  0.70353  0.46995  0.93855  1.0000
  H   H966      1.0  0.90363  0.08849  0.71496  1.0000
  H   H967      1.0  0.86195  0.07086  0.71890  1.0000
  H   H968      1.0  0.95746  0.99834  0.85360  1.0000
  C   C1211     1.0  0.50578  0.43446  0.77848  1.0000
  H   H969      1.0  0.85106  0.16524  0.73062  1.0000
  H   H970      1.0  0.83195  0.10667  0.67367  1.0000
  H   H971      1.0  0.93341  0.07925  0.94780  1.0000
  H   H972      1.0  0.93304  0.06587  0.78942  1.0000
  H   H973      1.0  0.90169  0.09985  0.76497  1.0000
  Fe  Fe81      1.0  0.62740  0.46261  0.73637  1.0000
  C   C1212     1.0  0.89293  0.39113  0.94801  1.0000
  C   C1213     1.0  0.66681  0.28984  0.81429  1.0000
  H   H974      1.0  0.65159  0.25201  0.87051  1.0000
  H   H975      1.0  0.85212  0.21055  0.94201  1.0000
  Fe  Fe82      1.0  0.92460  0.16248  0.83495  1.0000
  H   H976      1.0  0.80083  0.19431  0.92683  1.0000
  C   C1214     1.0  0.98083  0.05693  0.87662  1.0000
  H   H977      1.0  0.90841  0.42697  0.94091  1.0000
  H   H978      1.0  0.60520  0.39310  0.94252  1.0000
  C   C1215     1.0  0.67877  0.35461  0.72471  1.0000
  H   H979      1.0  0.96271  0.99555  0.94103  1.0000
  H   H980      1.0  0.98638  0.02278  0.73209  1.0000
  Fe  Fe83      1.0  0.86295  0.29971  0.95710  1.0000
  C   C1216     1.0  0.92566  0.00801  0.83121  1.0000
  H   H981      1.0  0.89982  0.04484  0.89976  1.0000
  C   C1217     1.0  0.89625  0.16918  0.96040  1.0000
  C   C1218     1.0  0.66257  0.26735  0.83146  1.0000
  H   H982      1.0  0.89713  0.05176  0.66227  1.0000
  H   H983      1.0  0.70146  0.35939  0.75157  1.0000
  H   H984      1.0  0.71993  0.31121  0.94703  1.0000
  H   H985      1.0  0.90356  0.18893  0.68628  1.0000
  P   P43       1.0  0.74081  0.20050  0.93858  1.0000
  H   H986      1.0  0.57603  0.11951  0.97940  1.0000
  H   H987      1.0  0.72623  0.48224  0.66854  1.0000
  H   H988      1.0  0.80167  0.41990  0.86228  1.0000
  S   S167      1.0  0.84455  0.04049  0.77211  1.0000
  H   H989      1.0  0.71309  0.16040  0.93034  1.0000
  C   C1219     1.0  0.92874  0.19808  0.95273  1.0000
  C   C1220     1.0  0.81754  0.16642  0.95647  1.0000
  H   H990      1.0  0.79625  0.12523  0.80380  1.0000
  C   C1221     1.0  0.50601  0.17828  0.96393  1.0000
  H   H991      1.0  0.57221  0.43243  0.86430  1.0000
  Fe  Fe84      1.0  0.88710  0.01646  0.75707  1.0000
  C   C1222     1.0  0.75213  0.24513  0.95183  1.0000
  H   H992      1.0  0.97989  0.10281  0.90860  1.0000
  C   C1223     1.0  0.64283  0.33508  0.76581  1.0000
  S   S168      1.0  0.68379  0.45551  0.85363  1.0000
  Fe  Fe85      1.0  0.62712  0.42151  0.70478  1.0000
  H   H993      1.0  0.54203  0.40652  0.69326  1.0000
  H   H994      1.0  0.75954  0.08456  0.70727  1.0000
  H   H995      1.0  0.67799  0.39759  0.79153  1.0000
  S   S169      1.0  0.88179  0.17003  0.85793  1.0000
  H   H996      1.0  0.94857  0.10672  0.68635  1.0000
  H   H997      1.0  0.69747  0.24661  0.92423  1.0000
  C   C1224     1.0  0.79643  0.07399  0.67969  1.0000
  C   C1225     1.0  0.94316  0.12688  0.67678  1.0000
  C   C1226     1.0  0.83321  0.03870  0.69440  1.0000
  C   C1227     1.0  0.68416  0.35217  0.74901  1.0000
  C   C1228     1.0  0.96426  0.19672  0.79059  1.0000
  C   C1229     1.0  0.72420  0.29014  0.94505  1.0000
  C   C1230     1.0  0.81755  0.08772  0.79014  1.0000
  C   C1231     1.0  0.65532  0.34753  0.72095  1.0000
  C   C1232     1.0  0.56301  0.45472  0.93189  1.0000
  C   C1233     1.0  0.97777  0.17190  0.78258  1.0000
  H   H998      1.0  0.61056  0.07719  0.97127  1.0000
  C   C1234     1.0  0.79593  0.18185  0.94443  1.0000
  H   H999      1.0  0.76920  0.23163  0.95975  1.0000
  C   C1235     1.0  0.89030  0.41881  0.94321  1.0000
  H   H1000     1.0  0.97207  0.12611  0.71809  1.0000
  C   C1236     1.0  0.73509  0.23570  0.94025  1.0000
  C   C1237     1.0  0.59544  0.43125  0.65671  1.0000
  C   C1238     1.0  0.54318  0.45767  0.76444  1.0000
  C   C1239     1.0  0.73454  0.42213  0.96290  1.0000
  C   C1240     1.0  0.52485  0.41111  0.78571  1.0000
  C   C1241     1.0  0.80245  0.46158  0.85736  1.0000
  C   C1242     1.0  0.58325  0.21187  0.95204  1.0000
  C   C1243     1.0  0.72797  0.32384  0.78772  1.0000
  C   C1244     1.0  0.92719  0.17239  0.92041  1.0000
  H   H1001     1.0  0.93743  0.18512  0.71657  1.0000
  Fe  Fe86      1.0  0.93126  0.10253  0.84462  1.0000
  H   H1002     1.0  0.96455  0.03510  0.95875  1.0000
  S   S170      1.0  0.95708  0.06286  0.83494  1.0000
  C   C1245     1.0  0.60333  0.18852  0.94672  1.0000
  C   C1246     1.0  0.62006  0.18733  0.92296  1.0000
  C   C1247     1.0  0.61674  0.20939  0.90432  1.0000
  C   C1248     1.0  0.59646  0.23255  0.90932  1.0000
  C   C1249     1.0  0.57956  0.23371  0.93298  1.0000
  C   C1250     1.0  0.80323  0.43626  0.87116  1.0000
  C   C1251     1.0  0.71182  0.25362  0.93201  1.0000
  C   C1252     1.0  0.63821  0.42263  0.80340  1.0000
  H   H1003     1.0  0.58399  0.43426  0.76864  1.0000
  C   C1253     1.0  0.55303  0.41790  0.67782  1.0000
  H   H1004     1.0  0.60600  0.17121  0.96087  1.0000
  H   H1005     1.0  0.50100  0.17421  0.94704  1.0000
  C   C1254     1.0  0.93882  0.19027  0.92875  1.0000
  H   H1006     1.0  0.78819  0.08843  0.66481  1.0000
  H   H1007     1.0  0.69847  0.21921  0.98071  1.0000
  C   C1255     1.0  0.86433  0.43591  0.94116  1.0000
  H   H1008     1.0  0.58361  0.42381  0.90859  1.0000
  H   H1009     1.0  0.63562  0.16932  0.91897  1.0000
  H   H1010     1.0  0.62977  0.20849  0.88596  1.0000
  H   H1011     1.0  0.59379  0.24972  0.89493  1.0000
  H   H1012     1.0  0.56369  0.25172  0.93631  1.0000
  H   H1013     1.0  0.82619  0.38871  0.94992  1.0000
  C   C1256     1.0  0.70855  0.19135  0.95330  1.0000
  C   C1257     1.0  0.66653  0.34190  0.76971  1.0000
  S   S171      1.0  0.94191  0.22177  0.96277  1.0000
  Fe  Fe87      1.0  0.68116  0.42555  0.71713  1.0000
  C   C1258     1.0  0.61037  0.42361  0.81380  1.0000
  C   C1259     1.0  0.94923  0.01467  0.93589  1.0000
  C   C1260     1.0  0.95017  0.03698  0.94618  1.0000
  C   C1261     1.0  0.88814  0.00458  0.87632  1.0000
  H   H1014     1.0  0.81140  0.24775  0.95022  1.0000
  H   H1015     1.0  0.75362  0.44488  0.93065  1.0000
  H   H1016     1.0  0.99213  0.09576  0.79762  1.0000
  H   H1017     1.0  0.93893  0.01512  0.65968  1.0000
  H   H1018     1.0  0.71253  0.47857  0.97901  1.0000
  C   C1262     1.0  0.63732  0.33782  0.74147  1.0000
  C   C1263     1.0  0.65458  0.26942  0.85711  1.0000
  S   S172      1.0  0.59913  0.39664  0.69979  1.0000
  C   C1264     1.0  0.75605  0.43365  0.94886  1.0000
  H   H1019     1.0  0.64504  0.29541  0.88554  1.0000
  C   C1265     1.0  0.93539  0.00142  0.85397  1.0000
  Fe  Fe88      1.0  0.90054  0.13650  0.88517  1.0000
  C   C1266     1.0  0.89740  0.01182  0.83090  1.0000
  C   C1267     1.0  0.70682  0.34125  0.80184  1.0000
  C   C1268     1.0  0.59195  0.41237  0.94619  1.0000
  C   C1269     1.0  0.56266  0.45361  0.86348  1.0000
  S   S173      1.0  0.94393  0.13099  0.86346  1.0000
  H   H1020     1.0  0.77028  0.15199  0.91628  1.0000
  H   H1021     1.0  0.66578  0.24826  0.82487  1.0000
  H   H1022     1.0  0.59594  0.44281  0.81528  1.0000
  C   C1270     1.0  0.55307  0.41096  0.78199  1.0000
  C   C1271     1.0  0.74682  0.27226  0.95399  1.0000
  H   H1023     1.0  0.80507  0.41279  0.90737  1.0000
  C   C1272     1.0  0.84072  0.42543  0.94446  1.0000
  C   C1273     1.0  0.57920  0.47183  0.86156  1.0000
  C   C1274     1.0  0.84373  0.39754  0.94849  1.0000
  S   S174      1.0  0.66820  0.42465  0.68090  1.0000
  C   C1275     1.0  0.91676  0.99894  0.87668  1.0000
  C   C1276     1.0  0.82326  0.05763  0.67502  1.0000
  H   H1024     1.0  0.76011  0.27921  0.96303  1.0000
  P   P44       1.0  0.67093  0.34296  0.80115  1.0000
  H   H1025     1.0  0.96276  0.07147  0.88387  1.0000
  H   H1026     1.0  0.93216  0.21965  0.74333  1.0000
  C   C1277     1.0  0.75118  0.19379  0.90628  1.0000
  P   P45       1.0  0.92952  0.98826  0.90595  1.0000
  C   C1278     1.0  0.77592  0.16283  0.87637  1.0000
  C   C1279     1.0  0.77112  0.18319  0.85648  1.0000
  C   C1280     1.0  0.75632  0.20883  0.86132  1.0000
  C   C1281     1.0  0.74657  0.21423  0.88610  1.0000
  C   C1282     1.0  0.57977  0.42972  0.92711  1.0000
  S   S175      1.0  0.92732  0.02447  0.76075  1.0000
  P   P46       1.0  0.80721  0.44743  0.94168  1.0000
  H   H1027     1.0  0.86265  0.45727  0.93701  1.0000
  H   H1028     1.0  0.81197  0.30387  0.94841  1.0000
  H   H1029     1.0  0.76134  0.32226  0.95511  1.0000
  H   H1030     1.0  0.58668  0.25982  0.97228  1.0000
  C   C1283     1.0  0.86969  0.38054  0.95049  1.0000
  C   C1284     1.0  0.51491  0.45783  0.76740  1.0000
  H   H1031     1.0  0.66071  0.46963  0.98007  1.0000
  H   H1032     1.0  0.83880  0.16716  0.94828  1.0000
  C   C1285     1.0  0.80036  0.47785  0.95542  1.0000
  C   C1286     1.0  0.65684  0.39800  0.80073  1.0000
  H   H1033     1.0  0.68837  0.29441  0.92823  1.0000
  C   C1287     1.0  0.58752  0.41995  0.97005  1.0000
  C   C1288     1.0  0.70651  0.28074  0.93432  1.0000
  H   H1034     1.0  0.87174  0.35905  0.95378  1.0000
  H   H1035     1.0  0.77936  0.17906  0.83734  1.0000
  H   H1036     1.0  0.75295  0.22465  0.84584  1.0000
  H   H1037     1.0  0.73608  0.23444  0.88924  1.0000
  H   H1038     1.0  0.78808  0.14313  0.87248  1.0000
  C   C1289     1.0  0.52694  0.19193  0.96224  1.0000
  C   C1290     1.0  0.90722  0.18768  0.96840  1.0000
  H   H1039     1.0  0.61853  0.33348  0.73849  1.0000
  C   C1291     1.0  0.53396  0.46262  0.86483  1.0000
  H   H1040     1.0  0.67369  0.28780  0.79455  1.0000
  S   S176      1.0  0.87120  0.25608  0.95583  1.0000
  C   C1292     1.0  0.96980  0.22023  0.77604  1.0000
  H   H1041     1.0  0.83199  0.46337  0.97882  1.0000
  C   C1293     1.0  0.79059  0.05332  0.72306  1.0000
  H   H1042     1.0  0.91298  0.37777  0.94950  1.0000
  H   H1043     1.0  0.93470  0.16693  0.90172  1.0000
  C   C1294     1.0  0.66269  0.31463  0.82270  1.0000
  H   H1044     1.0  0.61241  0.35705  0.82538  1.0000
  C   C1295     1.0  0.64794  0.37411  0.80888  1.0000
  H   H1045     1.0  0.77208  0.31050  0.77558  1.0000
  H   H1046     1.0  0.74512  0.45462  0.70538  1.0000
  S   S177      1.0  0.66841  0.47003  0.71558  1.0000
  C   C1296     1.0  0.60125  0.39990  0.82202  1.0000
  C   C1297     1.0  0.91789  0.17307  0.67676  1.0000
  C   C1298     1.0  0.70044  0.17072  0.94572  1.0000
  H   H1047     1.0  0.77824  0.05167  0.74174  1.0000
  H   H1048     1.0  0.95509  0.19861  0.91636  1.0000
  H   H1049     1.0  0.82501  0.02202  0.73328  1.0000
  Fe  Fe89      1.0  0.69084  0.46327  0.89033  1.0000
  C   C1299     1.0  0.56214  0.43430  0.77162  1.0000
  C   C1300     1.0  0.81701  0.03664  0.71835  1.0000
  H   H1050     1.0  0.53789  0.19828  0.94390  1.0000
  H   H1051     1.0  0.72289  0.31129  0.77657  1.0000
  C   C1301     1.0  0.76828  0.18125  0.95507  1.0000
  H   H1052     1.0  0.71614  0.42352  0.95522  1.0000
  C   C1302     1.0  0.58138  0.41610  0.67633  1.0000
  C   C1303     1.0  0.91445  0.06430  0.92358  1.0000
  C   C1304     1.0  0.55824  0.46228  0.95586  1.0000
  C   C1305     1.0  0.93275  0.06181  0.94002  1.0000
  H   H1053     1.0  0.87325  0.00400  0.89362  1.0000
  H   H1054     1.0  0.94026  0.00988  0.81380  1.0000
  C   C1306     1.0  0.91380  0.04219  0.91287  1.0000
  C   C1307     1.0  0.89802  0.03531  0.65237  1.0000
  H   H1055     1.0  0.66986  0.14698  0.95255  1.0000
  C   C1308     1.0  0.92187  0.01457  0.65087  1.0000
  C   C1309     1.0  0.98298  0.04911  0.85313  1.0000
  C   C1310     1.0  0.67595  0.16309  0.95825  1.0000
  C   C1311     1.0  0.93120  0.01716  0.91894  1.0000
  C   C1312     1.0  0.53865  0.43543  0.65993  1.0000
  H   H1056     1.0  0.85656  0.01463  0.85306  1.0000
  H   H1057     1.0  0.87974  0.16117  0.97277  1.0000
  H   H1058     1.0  0.55076  0.47542  0.75592  1.0000
  C   C1313     1.0  0.57037  0.44487  0.97519  1.0000
  C   C1314     1.0  0.87855  0.01073  0.85345  1.0000
  C   C1315     1.0  0.69221  0.20383  0.97386  1.0000
  H   H1059     1.0  0.80031  0.46474  0.83777  1.0000
  C   C1316     1.0  0.98858  0.21908  0.75337  1.0000
  H   H1060     1.0  0.98569  0.99744  0.89389  1.0000
  C   C1317     1.0  0.98100  0.09320  0.74699  1.0000
  H   H1061     1.0  0.90981  0.98628  0.96070  1.0000
  H   H1062     1.0  0.98345  0.06013  0.77718  1.0000
  C   C1318     1.0  0.73478  0.47549  0.70620  1.0000
  C   C1319     1.0  0.76260  0.16490  0.97792  1.0000
  Fe  Fe90      1.0  0.90461  0.25239  0.97761  1.0000
  C   C1320     1.0  0.92912  0.17855  0.65134  1.0000
  H   H1063     1.0  0.51667  0.43738  0.66153  1.0000
  C   C1321     1.0  0.85979  0.13147  0.65516  1.0000
  C   C1322     1.0  0.95418  0.13232  0.65135  1.0000
  S   S178      1.0  0.89871  0.29691  0.97619  1.0000
  C   C1323     1.0  0.81185  0.15008  0.97907  1.0000
  H   H1064     1.0  0.62374  0.44732  0.97993  1.0000
  H   H1065     1.0  0.61723  0.43022  0.65572  1.0000
  C   C1324     1.0  0.98998  0.05168  0.69892  1.0000
  H   H1066     1.0  0.81591  0.98665  0.69811  1.0000
  C   C1325     1.0  0.65948  0.17607  0.97831  1.0000
  S   S179      1.0  0.60128  0.48450  0.76795  1.0000
  C   C1326     1.0  0.52790  0.48473  0.70948  1.0000
  Fe  Fe91      1.0  0.62795  0.30223  0.98085  1.0000
  H   H1067     1.0  0.56681  0.64772  0.10999  1.0000
  C   C1327     1.0  0.52195  0.63725  0.04880  1.0000
  C   C1328     1.0  0.96729  0.72040  0.11545  1.0000
  S   S180      1.0  0.88726  0.75088  0.26807  1.0000
  C   C1329     1.0  0.85248  0.92790  0.26541  1.0000
  C   C1330     1.0  0.50172  0.59606  0.15515  1.0000
  S   S181      1.0  0.69545  0.49448  0.06846  1.0000
  H   H1068     1.0  0.77106  0.69822  0.29003  1.0000
  C   C1331     1.0  0.80601  0.56291  0.25606  1.0000
  S   S182      1.0  0.53939  0.89681  0.13966  1.0000
  C   C1332     1.0  0.53842  0.95609  0.21153  1.0000
  H   H1069     1.0  0.91990  0.55929  0.21495  1.0000
  C   C1333     1.0  0.61473  0.97211  0.13879  1.0000
  C   C1334     1.0  0.80388  0.81625  0.29463  1.0000
  H   H1070     1.0  0.89519  0.65474  0.16039  1.0000
  C   C1335     1.0  0.81646  0.97811  0.25879  1.0000
  H   H1071     1.0  0.79852  0.93541  0.19599  1.0000
  S   S183      1.0  0.95523  0.53049  0.27858  1.0000
  S   S184      1.0  0.50827  0.68803  0.05999  1.0000
  C   C1336     1.0  0.82596  0.64960  0.26906  1.0000
  H   H1072     1.0  0.59677  0.97047  0.26968  1.0000
  H   H1073     1.0  0.77713  0.57155  0.20377  1.0000
  C   C1337     1.0  0.66460  0.57941  0.06530  1.0000
  C   C1338     1.0  0.89862  0.76734  0.16345  1.0000
  C   C1339     1.0  0.91404  0.50474  0.05398  1.0000
  H   H1074     1.0  0.57253  0.62078  0.01601  1.0000
  H   H1075     1.0  0.60812  0.64562  0.01982  1.0000
  Fe  Fe92      1.0  0.85439  0.60955  0.15574  1.0000
  S   S185      1.0  0.88394  0.57765  0.17612  1.0000
  S   S186      1.0  0.82936  0.65057  0.16368  1.0000
  Fe  Fe93      1.0  0.85422  0.57366  0.11789  1.0000
  H   H1076     1.0  0.94077  0.74084  0.22571  1.0000
  S   S187      1.0  0.83716  0.57171  0.08381  1.0000
  Fe  Fe94      1.0  0.85925  0.54945  0.17175  1.0000
  H   H1077     1.0  0.87389  0.94643  0.28448  1.0000
  Fe  Fe95      1.0  0.90687  0.56953  0.13750  1.0000
  S   S188      1.0  0.70206  0.52898  0.99978  1.0000
  S   S189      1.0  0.82746  0.58198  0.15479  1.0000
  S   S190      1.0  0.87927  0.60355  0.11726  1.0000
  Fe  Fe96      1.0  0.86563  0.72228  0.25873  1.0000
  C   C1340     1.0  0.91515  0.60068  0.25744  1.0000
  S   S191      1.0  0.83945  0.73507  0.22855  1.0000
  C   C1341     1.0  0.61389  0.51637  0.08407  1.0000
  H   H1078     1.0  0.94884  0.58090  0.23087  1.0000
  H   H1079     1.0  0.86347  0.72902  0.13729  1.0000
  H   H1080     1.0  0.89243  0.77279  0.20240  1.0000
  C   C1342     1.0  0.64600  0.95421  0.03651  1.0000
  S   S192      1.0  0.90019  0.68597  0.26388  1.0000
  C   C1343     1.0  0.90548  0.74872  0.14645  1.0000
  C   C1344     1.0  0.91135  0.72119  0.15506  1.0000
  C   C1345     1.0  0.56725  0.54405  0.09075  1.0000
  C   C1346     1.0  0.62527  0.56784  0.00028  1.0000
  C   C1347     1.0  0.83233  0.83088  0.24678  1.0000
  C   C1348     1.0  0.91043  0.71254  0.18082  1.0000
  H   H1081     1.0  0.50147  0.85387  0.03173  1.0000
  H   H1082     1.0  0.82871  0.86838  0.25940  1.0000
  H   H1083     1.0  0.89424  0.78852  0.15673  1.0000
  H   H1084     1.0  0.52717  0.53820  0.04607  1.0000
  H   H1085     1.0  0.51990  0.72283  0.00542  1.0000
  C   C1349     1.0  0.83385  0.67265  0.18234  1.0000
  C   C1350     1.0  0.85253  0.66538  0.19925  1.0000
  C   C1351     1.0  0.85500  0.68449  0.21331  1.0000
  C   C1352     1.0  0.83842  0.71058  0.21075  1.0000
  C   C1353     1.0  0.81976  0.71752  0.19400  1.0000
  C   C1354     1.0  0.81739  0.69866  0.18003  1.0000
  H   H1086     1.0  0.86496  0.64516  0.20151  1.0000
  H   H1087     1.0  0.86962  0.67901  0.22610  1.0000
  H   H1088     1.0  0.80688  0.73752  0.19188  1.0000
  H   H1089     1.0  0.80270  0.70427  0.16724  1.0000
  C   C1355     1.0  0.91038  0.57229  0.22924  1.0000
  H   H1090     1.0  0.54705  0.73520  0.03162  1.0000
  S   S193      1.0  0.96605  0.71153  0.26799  1.0000
  H   H1091     1.0  0.52782  0.77506  0.05379  1.0000
  H   H1092     1.0  0.64496  0.53499  0.06004  1.0000
  C   C1356     1.0  0.82703  0.80534  0.25323  1.0000
  Fe  Fe97      1.0  0.91998  0.71394  0.27673  1.0000
  S   S194      1.0  0.58289  0.95340  0.11494  1.0000
  C   C1357     1.0  0.97409  0.73991  0.19368  1.0000
  C   C1358     1.0  0.77749  0.87677  0.21421  1.0000
  C   C1359     1.0  0.75842  0.53953  0.10268  1.0000
  C   C1360     1.0  0.76948  0.54477  0.12195  1.0000
  C   C1361     1.0  0.79350  0.55487  0.11626  1.0000
  C   C1362     1.0  0.80566  0.56123  0.09128  1.0000
  C   C1363     1.0  0.79309  0.55816  0.07199  1.0000
  C   C1364     1.0  0.76974  0.54701  0.07769  1.0000
  C   C1365     1.0  0.83789  0.49496  0.11230  1.0000
  H   H1093     1.0  0.80309  0.55660  0.13127  1.0000
  H   H1094     1.0  0.80176  0.56376  0.05264  1.0000
  H   H1095     1.0  0.76068  0.54401  0.06278  1.0000
  H   H1096     1.0  0.58368  0.68857  0.03539  1.0000
  C   C1366     1.0  0.90787  0.53207  0.05650  1.0000
  H   H1097     1.0  0.78034  0.54085  0.98979  1.0000
  H   H1098     1.0  0.90645  0.75572  0.12657  1.0000
  C   C1367     1.0  0.90373  0.73120  0.19767  1.0000
  C   C1368     1.0  0.62993  0.96396  0.01765  1.0000
  C   C1369     1.0  0.89772  0.75854  0.18909  1.0000
  C   C1370     1.0  0.92516  0.54231  0.06700  1.0000
  H   H1099     1.0  0.96606  0.72314  0.13477  1.0000
  C   C1371     1.0  0.94885  0.52546  0.07499  1.0000
  C   C1372     1.0  0.51958  0.97791  0.03706  1.0000
  C   C1373     1.0  0.74853  0.92601  0.27291  1.0000
  C   C1374     1.0  0.49431  0.61893  0.02851  1.0000
  C   C1375     1.0  0.60955  0.50445  0.02054  1.0000
  H   H1100     1.0  0.81031  0.77769  0.28263  1.0000
  C   C1376     1.0  0.93786  0.48790  0.06224  1.0000
  C   C1377     1.0  0.69902  0.59046  0.01957  1.0000
  C   C1378     1.0  0.77278  0.65592  0.29823  1.0000
  C   C1379     1.0  0.95570  0.61489  0.17498  1.0000
  C   C1380     1.0  0.61532  0.87709  0.30078  1.0000
  C   C1381     1.0  0.76967  0.77763  0.24831  1.0000
  C   C1382     1.0  0.74942  0.79139  0.26594  1.0000
  H   H1101     1.0  0.81746  0.88677  0.20707  1.0000
  H   H1102     1.0  0.87815  0.61604  0.28261  1.0000
  H   H1103     1.0  0.79175  0.77947  0.21025  1.0000
  H   H1104     1.0  0.92798  0.60972  0.26516  1.0000
  C   C1383     1.0  0.79203  0.55763  0.23883  1.0000
  C   C1384     1.0  0.76873  0.90292  0.27849  1.0000
  H   H1105     1.0  0.90295  0.72437  0.21749  1.0000
  C   C1385     1.0  0.57664  0.56557  0.07551  1.0000
  C   C1386     1.0  0.91716  0.64839  0.16096  1.0000
  H   H1106     1.0  0.89842  0.52527  0.20817  1.0000
  H   H1107     1.0  0.51999  0.95676  0.03929  1.0000
  H   H1108     1.0  0.52157  0.62924  0.14816  1.0000
  C   C1387     1.0  0.84483  0.55298  0.00162  1.0000
  H   H1109     1.0  0.63218  0.90614  0.18343  1.0000
  H   H1110     1.0  0.59870  0.91117  0.15476  1.0000
  H   H1111     1.0  0.87916  0.49946  0.09730  1.0000
  C   C1388     1.0  0.58938  0.62265  0.08163  1.0000
  H   H1112     1.0  0.91494  0.69150  0.18807  1.0000
  C   C1389     1.0  0.69291  0.57706  0.06451  1.0000
  C   C1390     1.0  0.74884  0.88644  0.21440  1.0000
  C   C1391     1.0  0.51422  0.53402  0.06406  1.0000
  C   C1392     1.0  0.57374  0.67079  0.07363  1.0000
  C   C1393     1.0  0.60022  0.62173  0.05596  1.0000
  C   C1394     1.0  0.57590  0.64709  0.09033  1.0000
  C   C1395     1.0  0.88442  0.50560  0.99309  1.0000
  H   H1113     1.0  0.84865  0.54175  0.04038  1.0000
  H   H1114     1.0  0.79553  0.49091  0.12190  1.0000
  H   H1115     1.0  0.51022  0.82421  0.07097  1.0000
  H   H1116     1.0  0.84413  0.83618  0.22849  1.0000
  C   C1396     1.0  0.58564  0.60517  0.00553  1.0000
  C   C1397     1.0  0.58584  0.92873  0.23150  1.0000
  H   H1117     1.0  0.70161  0.57076  0.08162  1.0000
  C   C1398     1.0  0.59901  0.64576  0.03949  1.0000
  C   C1399     1.0  0.84338  0.71143  0.11639  1.0000
  H   H1118     1.0  0.91976  0.56326  0.06959  1.0000
  C   C1400     1.0  0.59442  0.88589  0.28621  1.0000
  C   C1401     1.0  0.86634  0.71381  0.12542  1.0000
  C   C1402     1.0  0.86100  0.49501  0.09320  1.0000
  H   H1119     1.0  0.82792  0.68874  0.09581  1.0000
  C   C1403     1.0  0.52903  0.85509  0.28233  1.0000
  C   C1404     1.0  0.89216  0.69592  0.11999  1.0000
  H   H1120     1.0  0.59112  0.60459  0.09497  1.0000
  C   C1405     1.0  0.60239  0.95105  0.13842  1.0000
  C   C1406     1.0  0.60916  0.58830  0.01416  1.0000
  C   C1407     1.0  0.79681  0.59953  0.21311  1.0000
  C   C1408     1.0  0.81214  0.95639  0.24983  1.0000
  C   C1409     1.0  0.65339  0.58686  0.04310  1.0000
  H   H1121     1.0  0.53452  0.59819  0.03680  1.0000
  C   C1410     1.0  0.56335  0.91667  0.23491  1.0000
  H   H1122     1.0  0.68705  0.83189  0.22328  1.0000
  H   H1123     1.0  0.91324  0.61168  0.18481  1.0000
  C   C1411     1.0  0.58426  0.95457  0.21870  1.0000
  Fe  Fe98      1.0  0.87809  0.68164  0.30379  1.0000
  S   S195      1.0  0.73265  0.52104  0.11018  1.0000
  C   C1412     1.0  0.67352  0.84392  0.18767  1.0000
  C   C1413     1.0  0.67520  0.86106  0.16500  1.0000
  C   C1414     1.0  0.69238  0.87911  0.16024  1.0000
  C   C1415     1.0  0.70802  0.88003  0.17805  1.0000
  C   C1416     1.0  0.70630  0.86304  0.20096  1.0000
  H   H1124     1.0  0.78056  0.75719  0.25346  1.0000
  P   P47       1.0  0.72472  0.86479  0.22515  1.0000
  C   C1417     1.0  0.70054  0.88045  0.25032  1.0000
  C   C1418     1.0  0.74237  0.83082  0.23473  1.0000
  C   C1419     1.0  0.73565  0.81783  0.25916  1.0000
  S   S196      1.0  0.51458  0.87304  0.08542  1.0000
  H   H1125     1.0  0.65266  0.92341  0.30047  1.0000
  Fe  Fe99      1.0  0.54312  0.93902  0.12590  1.0000
  C   C1420     1.0  0.76220  0.81657  0.21698  1.0000
  C   C1421     1.0  0.70968  0.88134  0.27246  1.0000
  H   H1126     1.0  0.73056  0.87115  0.27518  1.0000
  C   C1422     1.0  0.66596  0.91103  0.28683  1.0000
  C   C1423     1.0  0.65687  0.91054  0.26475  1.0000
  C   C1424     1.0  0.67390  0.89509  0.24665  1.0000
  C   C1425     1.0  0.51832  0.61623  0.03826  1.0000
  C   C1426     1.0  0.60077  0.97063  0.30789  1.0000
  C   C1427     1.0  0.52784  0.50410  0.00191  1.0000
  Fe  Fe100     1.0  0.98116  0.52131  0.30864  1.0000
  H   H1127     1.0  0.55798  0.97137  0.05027  1.0000
  C   C1428     1.0  0.60493  0.56287  0.06508  1.0000
  C   C1429     1.0  0.63285  0.96962  0.15558  1.0000
  H   H1128     1.0  0.66285  0.86075  0.15124  1.0000
  H   H1129     1.0  0.69297  0.89301  0.14302  1.0000
  H   H1130     1.0  0.72072  0.89455  0.17396  1.0000
  P   P48       1.0  0.61677  0.59021  0.04434  1.0000
  H   H1131     1.0  0.71961  0.82780  0.27294  1.0000
  H   H1132     1.0  0.50082  0.83359  0.30763  1.0000
  Fe  Fe101     1.0  0.66551  0.97640  0.20741  1.0000
  H   H1133     1.0  0.79349  0.61370  0.19639  1.0000
  H   H1134     1.0  0.76710  0.82592  0.19782  1.0000
  H   H1135     1.0  0.54191  0.83731  0.27474  1.0000
  H   H1136     1.0  0.98206  0.66049  0.22430  1.0000
  C   C1430     1.0  0.85589  0.53623  0.02163  1.0000
  H   H1137     1.0  0.63687  0.92283  0.26141  1.0000
  H   H1138     1.0  0.66659  0.89570  0.22939  1.0000
  H   H1139     1.0  0.60488  0.91807  0.23796  1.0000
  C   C1431     1.0  0.67073  0.59277  0.02027  1.0000
  C   C1432     1.0  0.71010  0.58257  0.04165  1.0000
  C   C1433     1.0  0.94842  0.70843  0.10879  1.0000
  C   C1434     1.0  0.50317  0.79759  0.10526  1.0000
  C   C1435     1.0  0.62715  0.92460  0.17109  1.0000
  C   C1436     1.0  0.62336  0.53793  0.06898  1.0000
  H   H1140     1.0  0.88916  0.54546  0.05137  1.0000
  H   H1141     1.0  0.80928  0.54843  0.27246  1.0000
  C   C1437     1.0  0.63933  0.96622  0.05842  1.0000
  C   C1438     1.0  0.85658  0.94949  0.27481  1.0000
  H   H1142     1.0  0.54448  0.51152  0.98914  1.0000
  C   C1439     1.0  0.86999  0.59239  0.25795  1.0000
  C   C1440     1.0  0.81589  0.58640  0.25164  1.0000
  C   C1441     1.0  0.81123  0.60464  0.23001  1.0000
  C   C1442     1.0  0.99154  0.72403  0.07246  1.0000
  H   H1143     1.0  0.50197  0.81167  0.16350  1.0000
  H   H1144     1.0  0.79465  0.80952  0.31348  1.0000
  H   H1145     1.0  0.91377  0.66062  0.10238  1.0000
  C   C1443     1.0  0.88683  0.60433  0.26734  1.0000
  C   C1444     1.0  0.88199  0.57620  0.23891  1.0000
  H   H1146     1.0  0.50129  0.78177  0.09605  1.0000
  H   H1147     1.0  0.95537  0.51968  0.17313  1.0000
  C   C1445     1.0  0.78744  0.57592  0.21737  1.0000
  H   H1148     1.0  0.82942  0.57126  0.00509  1.0000
  H   H1149     1.0  0.81799  0.69250  0.26387  1.0000
  H   H1150     1.0  0.55159  0.95718  0.28157  1.0000
  C   C1446     1.0  0.77601  0.79023  0.22386  1.0000
  C   C1447     1.0  0.51125  0.74069  0.01436  1.0000
  C   C1448     1.0  0.50809  0.82165  0.09113  1.0000
  C   C1449     1.0  0.49511  0.55508  0.07502  1.0000
  C   C1450     1.0  0.85007  0.54305  0.29855  1.0000
  H   H1151     1.0  0.81893  0.62278  0.22601  1.0000
  C   C1451     1.0  0.60811  0.92749  0.15503  1.0000
  C   C1452     1.0  0.78345  0.67835  0.28748  1.0000
  H   H1152     1.0  0.62833  0.49720  0.08710  1.0000
  H   H1153     1.0  0.73874  0.49983  0.16816  1.0000
  H   H1154     1.0  0.60183  0.96358  0.21563  1.0000
  H   H1155     1.0  0.86960  0.56598  0.23203  1.0000
  H   H1156     1.0  0.83454  0.79088  0.23998  1.0000
  C   C1453     1.0  0.58829  0.49189  0.02058  1.0000
  H   H1157     1.0  0.82335  0.72474  0.12126  1.0000
  P   P49       1.0  0.88938  0.49092  0.04397  1.0000
  C   C1454     1.0  0.81375  0.49019  0.10745  1.0000
  C   C1455     1.0  0.54891  0.84373  0.19849  1.0000
  C   C1456     1.0  0.57317  0.84133  0.18052  1.0000
  C   C1457     1.0  0.59542  0.85067  0.18401  1.0000
  C   C1458     1.0  0.59348  0.86218  0.20559  1.0000
  C   C1459     1.0  0.56937  0.86412  0.22404  1.0000
  C   C1460     1.0  0.54689  0.85528  0.22004  1.0000
  P   P50       1.0  0.56566  0.88272  0.24971  1.0000
  C   C1461     1.0  0.59404  0.87174  0.26694  1.0000
  C   C1462     1.0  0.69230  0.89631  0.29079  1.0000
  C   C1463     1.0  0.93527  0.66469  0.14828  1.0000
  S   S197      1.0  0.84190  0.71563  0.29756  1.0000
  H   H1158     1.0  0.66009  0.83001  0.19139  1.0000
  C   C1464     1.0  0.80853  0.84217  0.28817  1.0000
  S   S198      1.0  0.88415  0.53887  0.13463  1.0000
  S   S199      1.0  0.49370  0.76445  0.14950  1.0000
  H   H1159     1.0  0.97804  0.66789  0.13917  1.0000
  H   H1160     1.0  0.50817  0.58856  0.17315  1.0000
  H   H1161     1.0  0.63479  0.95433  0.00086  1.0000
  C   C1465     1.0  0.61477  0.84853  0.26254  1.0000
  C   C1466     1.0  0.53520  0.88016  0.27318  1.0000
  C   C1467     1.0  0.51872  0.90276  0.28392  1.0000
  H   H1162     1.0  0.78613  0.85586  0.21964  1.0000
  C   C1468     1.0  0.52686  0.74770  0.02920  1.0000
  C   C1469     1.0  0.58587  0.51946  0.09506  1.0000
  P   P51       1.0  0.83445  0.59400  0.27298  1.0000
  H   H1163     1.0  0.53106  0.83786  0.19516  1.0000
  H   H1164     1.0  0.57421  0.83320  0.16345  1.0000
  H   H1165     1.0  0.61368  0.84992  0.16949  1.0000
  H   H1166     1.0  0.61033  0.87049  0.20749  1.0000
  H   H1167     1.0  0.52716  0.85855  0.23272  1.0000
  P   P52       1.0  0.92167  0.69746  0.13279  1.0000
  C   C1470     1.0  0.92688  0.58461  0.23835  1.0000
  H   H1168     1.0  0.52261  0.92102  0.22621  1.0000
  H   H1169     1.0  0.65155  0.57521  0.08320  1.0000
  H   H1170     1.0  0.75201  0.65834  0.30915  1.0000
  H   H1171     1.0  0.61448  0.83684  0.24830  1.0000
  H   H1172     1.0  0.71639  0.92201  0.20871  1.0000
  C   C1471     1.0  0.50942  0.61891  0.14103  1.0000
  C   C1472     1.0  0.58551  0.67015  0.04827  1.0000
  C   C1473     1.0  0.96272  0.73399  0.21913  1.0000
  H   H1173     1.0  0.56256  0.68963  0.08028  1.0000
  S   S200      1.0  0.51930  0.94382  0.09474  1.0000
  C   C1474     1.0  0.68889  0.84499  0.20564  1.0000
  C   C1475     1.0  0.63616  0.85422  0.29608  1.0000
  H   H1174     1.0  0.57831  0.90361  0.29015  1.0000
  C   C1476     1.0  0.63963  0.94559  0.17128  1.0000
  C   C1477     1.0  0.73413  0.94187  0.29157  1.0000
  C   C1478     1.0  0.78478  0.92171  0.20109  1.0000
  C   C1479     1.0  0.97378  0.63109  0.16250  1.0000
  H   H1175     1.0  0.56184  0.58434  0.07202  1.0000
  H   H1176     1.0  0.54549  0.54648  0.09920  1.0000
  Fe  Fe102     1.0  0.71987  0.49728  0.02926  1.0000
  C   C1480     1.0  0.53977  0.93038  0.22457  1.0000
  C   C1481     1.0  0.89046  0.51281  0.22455  1.0000
  C   C1482     1.0  0.50997  0.84243  0.10315  1.0000
  H   H1177     1.0  0.77899  0.89074  0.26383  1.0000
  H   H1178     1.0  0.76058  0.53945  0.14131  1.0000
  H   H1179     1.0  0.73203  0.58067  0.04105  1.0000
  C   C1483     1.0  0.83015  0.93134  0.25306  1.0000
  H   H1180     1.0  0.54109  0.63565  0.05522  1.0000
  H   H1181     1.0  0.81980  0.50357  0.99978  1.0000
  C   C1484     1.0  0.58759  0.96705  0.28925  1.0000
  Fe  Fe103     1.0  0.51224  0.90316  0.11078  1.0000
  C   C1485     1.0  0.50785  0.83874  0.12926  1.0000
  C   C1486     1.0  0.75632  0.93151  0.20150  1.0000
  S   S201      1.0  0.68591  0.96472  0.24139  1.0000
  H   H1182     1.0  0.96985  0.61823  0.22174  1.0000
  S   S202      1.0  0.75776  0.50227  0.04087  1.0000
  H   H1183     1.0  0.74380  0.93176  0.25413  1.0000
  H   H1184     1.0  0.50712  0.64632  0.10676  1.0000
  H   H1185     1.0  0.96373  0.59535  0.18473  1.0000
  C   C1487     1.0  0.78866  0.63032  0.29428  1.0000
  C   C1488     1.0  0.81304  0.79798  0.27722  1.0000
  H   H1186     1.0  0.74795  0.95280  0.19699  1.0000
  H   H1187     1.0  0.52349  0.92224  0.27791  1.0000
  C   C1489     1.0  0.92734  0.62381  0.17457  1.0000
  C   C1490     1.0  0.82335  0.84914  0.26424  1.0000
  H   H1188     1.0  0.50913  0.85469  0.13872  1.0000
  C   C1491     1.0  0.79538  0.89435  0.20739  1.0000
  H   H1189     1.0  0.83839  0.49958  0.13061  1.0000
  C   C1492     1.0  0.63592  0.83997  0.27694  1.0000
  H   H1190     1.0  0.77984  0.61312  0.30195  1.0000
  C   C1493     1.0  0.81255  0.48570  0.08354  1.0000
  Fe  Fe104     1.0  0.49996  0.91593  0.16365  1.0000
  C   C1494     1.0  0.81559  0.62694  0.28004  1.0000
  H   H1191     1.0  0.96077  0.75106  0.18054  1.0000
  H   H1192     1.0  0.57860  0.50276  0.10683  1.0000
  S   S203      1.0  0.66488  0.94073  0.19018  1.0000
  C   C1495     1.0  0.96365  0.65588  0.14914  1.0000
  C   C1496     1.0  0.73845  0.91399  0.20818  1.0000
  C   C1497     1.0  0.87148  0.67322  0.09665  1.0000
  C   C1498     1.0  0.86512  0.50603  0.22596  1.0000
  H   H1193     1.0  0.74436  0.78151  0.28483  1.0000
  C   C1499     1.0  0.95158  0.70411  0.08377  1.0000
  C   C1500     1.0  0.89442  0.67537  0.10583  1.0000
  C   C1501     1.0  0.97992  0.71971  0.23617  1.0000
  C   C1502     1.0  0.97069  0.58427  0.11845  1.0000
  H   H1194     1.0  0.82673  0.91468  0.24598  1.0000
  C   C1503     1.0  0.50095  0.79395  0.13135  1.0000
  H   H1195     1.0  0.52038  0.96618  0.20319  1.0000
  H   H1196     1.0  0.85796  0.53663  0.28017  1.0000
  C   C1504     1.0  0.56056  0.96835  0.20882  1.0000
  C   C1505     1.0  0.95894  0.60710  0.10332  1.0000
  C   C1506     1.0  0.83682  0.56987  0.30089  1.0000
  H   H1197     1.0  0.66327  0.93703  0.03441  1.0000
  C   C1507     1.0  0.77498  0.89574  0.30285  1.0000
  H   H1198     1.0  0.56843  0.49802  0.03239  1.0000
  H   H1199     1.0  0.86643  0.90840  0.26804  1.0000
  C   C1508     1.0  0.49943  0.50278  0.09939  1.0000
  C   C1509     1.0  0.84593  0.69112  0.10207  1.0000
  C   C1510     1.0  0.97065  0.50184  0.17829  1.0000
  C   C1511     1.0  0.51594  0.77007  0.04182  1.0000
  C   C1512     1.0  0.80994  0.67516  0.27280  1.0000
  S   S204      1.0  0.95358  0.55802  0.12967  1.0000
  S   S205      1.0  0.50596  0.95791  0.15262  1.0000
  H   H1200     1.0  0.84607  0.64770  0.25707  1.0000
  H   H1201     1.0  0.77738  0.51066  0.18265  1.0000
  H   H1202     1.0  0.65194  0.82213  0.27340  1.0000
  H   H1203     1.0  0.71851  0.95980  0.28711  1.0000
  H   H1204     1.0  0.79462  0.95909  0.24047  1.0000
  C   C1513     1.0  0.56213  0.95934  0.29600  1.0000
  S   S206      1.0  0.84548  0.51762  0.20172  1.0000
  Fe  Fe105     1.0  0.73453  0.49630  0.08011  1.0000
  C   C1514     1.0  0.50097  0.66050  0.05089  1.0000
  C   C1515     1.0  0.50380  0.81437  0.14329  1.0000
  H   H1205     1.0  0.87327  0.65717  0.08598  1.0000
  H   H1206     1.0  0.78541  0.53901  0.24174  1.0000
  H   H1207     1.0  0.60580  0.52028  0.03193  1.0000
  H   H1208     1.0  0.98047  0.66169  0.30132  1.0000
  H   H1209     1.0  0.93791  0.69436  0.07816  1.0000
  H   H1210     1.0  0.65246  0.84762  0.30728  1.0000
  H   H1211     1.0  0.87851  0.96141  0.99034  1.0000
  C   C1516     1.0  0.50099  0.62875  0.11789  1.0000
  C   C1517     1.0  0.90571  0.50319  0.24428  1.0000
  H   H1212     1.0  0.97600  0.70765  0.04664  1.0000
  C   C1518     1.0  0.98097  0.61904  0.23620  1.0000
  C   C1519     1.0  0.83861  0.97483  0.27153  1.0000
  C   C1520     1.0  0.50593  0.85287  0.30109  1.0000
  H   H1213     1.0  0.92521  0.50859  0.24323  1.0000
  H   H1214     1.0  0.96191  0.53347  0.08351  1.0000
  H   H1215     1.0  0.53105  0.49143  0.06775  1.0000
  C   C1521     1.0  0.86004  0.49026  0.06911  1.0000
  H   H1216     1.0  0.65247  0.50557  0.00650  1.0000
  C   C1522     1.0  0.95526  0.49828  0.07254  1.0000
  C   C1523     1.0  0.49576  0.90045  0.30277  1.0000
  H   H1217     1.0  0.66261  0.59889  0.00293  1.0000
  C   C1524     1.0  0.51636  0.50783  0.07623  1.0000
  C   C1525     1.0  0.57828  0.60157  0.98348  1.0000
  C   C1526     1.0  0.83547  0.48598  0.06434  1.0000
  C   C1527     1.0  0.87584  0.51244  0.01759  1.0000
  H   H1218     1.0  0.93873  0.60908  0.09876  1.0000
  Fe  Fe106     1.0  0.86637  0.74089  0.30762  1.0000
  H   H1219     1.0  0.69967  0.89738  0.30757  1.0000
  C   C1528     1.0  0.63570  0.49642  0.00600  1.0000
  H   H1220     1.0  0.71244  0.59428  0.00181  1.0000
  C   C1529     1.0  0.78031  0.49163  0.17599  1.0000
  H   H1221     1.0  0.64328  0.55435  0.00678  1.0000
  C   C1530     1.0  0.97388  0.62701  0.09337  1.0000
  H   H1222     1.0  0.96509  0.64437  0.08121  1.0000
  C   C1531     1.0  0.85530  0.48922  0.24686  1.0000
  C   C1532     1.0  0.98847  0.72848  0.09728  1.0000
  C   C1533     1.0  0.89580  0.48635  0.26519  1.0000
  H   H1223     1.0  0.65111  0.95820  0.07350  1.0000
  C   C1534     1.0  0.97311  0.71184  0.06571  1.0000
  H   H1224     1.0  0.98306  0.57790  0.25273  1.0000
  S   S207      1.0  0.63248  0.98015  0.30052  1.0000
  C   C1535     1.0  0.98800  0.64281  0.23749  1.0000
  H   H1225     1.0  0.89935  0.48724  0.98931  1.0000
  C   C1536     1.0  0.80864  0.50268  0.98531  1.0000
  C   C1537     1.0  0.98832  0.59648  0.25356  1.0000
  C   C1538     1.0  0.50194  0.52161  0.00702  1.0000
  Fe  Fe107     1.0  0.95344  0.48739  0.28763  1.0000
  H   H1226     1.0  0.49876  0.54221  0.99820  1.0000
  H   H1227     1.0  0.49379  0.57530  0.06566  1.0000
  P   P53       1.0  0.79959  0.86510  0.31130  1.0000
  C   C1539     1.0  0.75852  0.48547  0.16803  1.0000
  H   H1228     1.0  0.88845  0.98087  0.24161  1.0000
  H   H1229     1.0  0.76157  0.98278  0.28457  1.0000
  H   H1230     1.0  0.85463  0.83022  0.31248  1.0000
  H   H1231     1.0  0.96092  0.87926  0.45074  1.0000
  Fe  Fe108     1.0  0.56762  0.62090  0.58158  1.0000
  S   S208      1.0  0.58684  0.60868  0.54350  1.0000
  S   S209      1.0  0.57696  0.60234  0.61985  1.0000
  Fe  Fe109     1.0  0.52801  0.67027  0.56103  1.0000
  S   S210      1.0  0.54427  0.66312  0.52105  1.0000
  H   H1232     1.0  0.86448  0.50381  0.31785  1.0000
  Fe  Fe110     1.0  0.54293  0.62050  0.53591  1.0000
  S   S211      1.0  0.52423  0.60020  0.51317  1.0000
  Fe  Fe111     1.0  0.58635  0.65219  0.53198  1.0000
  S   S212      1.0  0.62490  0.66406  0.50925  1.0000
  S   S213      1.0  0.52383  0.62846  0.57519  1.0000
  S   S214      1.0  0.57011  0.66370  0.57063  1.0000
  P   P54       1.0  0.68187  0.95375  0.53439  1.0000
  Fe  Fe112     1.0  0.65584  0.79257  0.52609  1.0000
  S   S215      1.0  0.69244  0.78079  0.49633  1.0000
  S   S216      1.0  0.61535  0.78149  0.52883  1.0000
  Fe  Fe113     1.0  0.68397  0.82640  0.54689  1.0000
  S   S217      1.0  0.72333  0.81784  0.51844  1.0000
  S   S218      1.0  0.67395  0.85333  0.57692  1.0000
  Fe  Fe114     1.0  0.69448  0.82384  0.49097  1.0000
  S   S219      1.0  0.70221  0.84462  0.45145  1.0000
  Fe  Fe115     1.0  0.71785  0.77562  0.52632  1.0000
  S   S220      1.0  0.75045  0.73767  0.53279  1.0000
  S   S221      1.0  0.65576  0.83608  0.51856  1.0000
  S   S222      1.0  0.68064  0.78366  0.55698  1.0000
  Fe  Fe116     1.0  0.90866  0.80571  0.42624  1.0000
  S   S223      1.0  0.86873  0.79298  0.44115  1.0000
  H   H1233     1.0  0.59885  0.96920  0.34754  1.0000
  Fe  Fe117     1.0  0.91312  0.81778  0.47669  1.0000
  S   S224      1.0  0.87320  0.80688  0.49584  1.0000
  C   C1540     1.0  0.50369  0.61278  0.64024  1.0000
  Fe  Fe118     1.0  0.88763  0.77205  0.47438  1.0000
  S   S225      1.0  0.87829  0.73293  0.49363  1.0000
  Fe  Fe119     1.0  0.85718  0.82888  0.46115  1.0000
  S   S226      1.0  0.81333  0.85254  0.46322  1.0000
  S   S227      1.0  0.92945  0.78076  0.45774  1.0000
  S   S228      1.0  0.89577  0.84361  0.44384  1.0000
  S   S229      1.0  0.82953  0.91768  0.60703  1.0000
  C   C1541     1.0  0.74366  0.83433  0.36662  1.0000
  C   C1542     1.0  0.62419  0.91091  0.53615  1.0000
  C   C1543     1.0  0.75375  0.83407  0.38843  1.0000
  Fe  Fe120     1.0  0.83976  0.94043  0.56914  1.0000
  S   S230      1.0  0.88412  0.93366  0.54970  1.0000
  H   H1234     1.0  0.54866  0.56956  0.55272  1.0000
  C   C1544     1.0  0.80757  0.87182  0.43450  1.0000
  C   C1545     1.0  0.82957  0.87382  0.41446  1.0000
  C   C1546     1.0  0.82505  0.89208  0.39282  1.0000
  C   C1547     1.0  0.79851  0.90818  0.39130  1.0000
  C   C1548     1.0  0.77638  0.90488  0.41064  1.0000
  C   C1549     1.0  0.78081  0.88666  0.43216  1.0000
  S   S231      1.0  0.78131  0.87548  0.60180  1.0000
  H   H1235     1.0  0.75599  0.91713  0.40935  1.0000
  H   H1236     1.0  0.76366  0.88488  0.44737  1.0000
  C   C1550     1.0  0.92278  0.85699  0.51464  1.0000
  C   C1551     1.0  0.83180  0.87117  0.31532  1.0000
  C   C1552     1.0  0.92569  0.89053  0.53863  1.0000
  C   C1553     1.0  0.89771  0.90277  0.53833  1.0000
  C   C1554     1.0  0.88185  0.89136  0.52722  1.0000
  C   C1555     1.0  0.89455  0.86879  0.51483  1.0000
  C   C1556     1.0  0.56826  0.72579  0.58548  1.0000
  H   H1237     1.0  0.86013  0.90045  0.52730  1.0000
  H   H1238     1.0  0.88258  0.86069  0.50529  1.0000
  C   C1557     1.0  0.70358  0.86127  0.58245  1.0000
  C   C1558     1.0  0.72981  0.84618  0.57378  1.0000
  C   C1559     1.0  0.75338  0.85151  0.57926  1.0000
  C   C1560     1.0  0.75117  0.87223  0.59293  1.0000
  C   C1561     1.0  0.72495  0.88795  0.60119  1.0000
  C   C1562     1.0  0.70108  0.88213  0.59627  1.0000
  H   H1239     1.0  0.73200  0.82982  0.56351  1.0000
  H   H1240     1.0  0.77345  0.83946  0.57291  1.0000
  C   C1563     1.0  0.53434  0.50418  0.50307  1.0000
  H   H1241     1.0  0.68071  0.89342  0.60347  1.0000
  C   C1564     1.0  0.69176  0.87958  0.44865  1.0000
  C   C1565     1.0  0.70621  0.89472  0.42934  1.0000
  C   C1566     1.0  0.69843  0.92265  0.42664  1.0000
  C   C1567     1.0  0.66904  0.89248  0.46495  1.0000
  H   H1242     1.0  0.72387  0.88487  0.41677  1.0000
  Fe  Fe121     1.0  0.78131  0.97377  0.57059  1.0000
  H   H1243     1.0  0.65774  0.88095  0.47986  1.0000
  C   C1568     1.0  0.78567  0.73886  0.52374  1.0000
  C   C1569     1.0  0.80569  0.71704  0.53227  1.0000
  C   C1570     1.0  0.83402  0.71567  0.52330  1.0000
  C   C1571     1.0  0.84263  0.73627  0.50591  1.0000
  C   C1572     1.0  0.82271  0.75875  0.49816  1.0000
  C   C1573     1.0  0.79420  0.75999  0.50700  1.0000
  H   H1244     1.0  0.79924  0.70070  0.54526  1.0000
  H   H1245     1.0  0.84929  0.69839  0.52949  1.0000
  H   H1246     1.0  0.82915  0.77493  0.48496  1.0000
  H   H1247     1.0  0.77887  0.77699  0.50047  1.0000
  H   H1248     1.0  0.80130  0.74503  0.40543  1.0000
  H   H1249     1.0  0.66945  0.58404  0.54095  1.0000
  C   C1574     1.0  0.54299  0.73800  0.57749  1.0000
  P   P55       1.0  0.86986  0.96954  0.45995  1.0000
  C   C1575     1.0  0.59356  0.51411  0.59307  1.0000
  H   H1250     1.0  0.62746  0.78801  0.45772  1.0000
  C   C1576     1.0  0.95556  0.90122  0.62778  1.0000
  H   H1251     1.0  0.76643  0.97461  0.51443  1.0000
  H   H1252     1.0  0.69303  0.91933  0.49548  1.0000
  C   C1577     1.0  0.62244  0.69753  0.51193  1.0000
  C   C1578     1.0  0.64655  0.70699  0.50913  1.0000
  C   C1579     1.0  0.64466  0.73283  0.51428  1.0000
  C   C1580     1.0  0.61860  0.74965  0.52094  1.0000
  C   C1581     1.0  0.59456  0.74078  0.52194  1.0000
  C   C1582     1.0  0.59643  0.71455  0.51804  1.0000
  H   H1253     1.0  0.66667  0.69390  0.50420  1.0000
  H   H1254     1.0  0.66332  0.73947  0.51355  1.0000
  H   H1255     1.0  0.57445  0.75401  0.52653  1.0000
  H   H1256     1.0  0.57772  0.70746  0.51992  1.0000
  H   H1257     1.0  0.85023  0.86208  0.41598  1.0000
  S   S232      1.0  0.71736  0.97910  0.37471  1.0000
  C   C1583     1.0  0.94450  0.92224  0.61053  1.0000
  H   H1258     1.0  0.66589  0.95360  0.38034  1.0000
  H   H1259     1.0  0.53306  0.51584  0.48476  1.0000
  H   H1260     1.0  0.59980  0.81002  0.35459  1.0000
  H   H1261     1.0  0.54080  0.73789  0.55836  1.0000
  H   H1262     1.0  0.97404  0.90165  0.63448  1.0000
  C   C1584     1.0  0.49524  0.58752  0.52901  1.0000
  C   C1585     1.0  0.68374  0.89886  0.36447  1.0000
  C   C1586     1.0  0.55827  0.87203  0.34441  1.0000
  C   C1587     1.0  0.49398  0.56908  0.64450  1.0000
  H   H1263     1.0  0.64379  0.93053  0.47480  1.0000
  H   H1264     1.0  0.83445  0.80374  0.37245  1.0000
  C   C1588     1.0  0.94790  0.57725  0.32942  1.0000
  C   C1589     1.0  0.69706  0.97594  0.59671  1.0000
  H   H1265     1.0  0.62766  0.97499  0.41144  1.0000
  H   H1266     1.0  0.84234  0.89456  0.37798  1.0000
  H   H1267     1.0  0.59138  0.96983  0.50663  1.0000
  C   C1590     1.0  0.64294  0.53896  0.61294  1.0000
  C   C1591     1.0  0.62320  0.56251  0.60690  1.0000
  C   C1592     1.0  0.60009  0.57124  0.62493  1.0000
  C   C1593     1.0  0.84180  0.95312  0.46360  1.0000
  C   C1594     1.0  0.98188  0.66157  0.36271  1.0000
  H   H1268     1.0  0.66137  0.53269  0.59943  1.0000
  H   H1269     1.0  0.62630  0.57445  0.58877  1.0000
  H   H1270     1.0  0.52688  0.53884  0.52179  1.0000
  H   H1271     1.0  0.73289  0.78788  0.45485  1.0000
  C   C1595     1.0  0.82446  0.70678  0.36261  1.0000
  C   C1596     1.0  0.81348  0.68590  0.35943  1.0000
  C   C1597     1.0  0.82017  0.66088  0.37365  1.0000
  C   C1598     1.0  0.83839  0.65656  0.39058  1.0000
  C   C1599     1.0  0.85054  0.67711  0.39296  1.0000
  C   C1600     1.0  0.84285  0.70250  0.37934  1.0000
  P   P56       1.0  0.87293  0.67158  0.41571  1.0000
  C   C1601     1.0  0.84970  0.67347  0.44540  1.0000
  C   C1602     1.0  0.89846  0.64034  0.41451  1.0000
  C   C1603     1.0  0.91414  0.63077  0.43382  1.0000
  C   C1604     1.0  0.93464  0.60700  0.43284  1.0000
  C   C1605     1.0  0.93981  0.59279  0.41245  1.0000
  C   C1606     1.0  0.92471  0.60252  0.39293  1.0000
  C   C1607     1.0  0.90443  0.62642  0.39367  1.0000
  C   C1608     1.0  0.83212  0.69815  0.45056  1.0000
  C   C1609     1.0  0.81283  0.69989  0.47281  1.0000
  C   C1610     1.0  0.81113  0.67707  0.49023  1.0000
  C   C1611     1.0  0.82837  0.65234  0.48515  1.0000
  C   C1612     1.0  0.84740  0.65044  0.46263  1.0000
  C   C1613     1.0  0.89321  0.69646  0.40973  1.0000
  C   C1614     1.0  0.89624  0.70875  0.42934  1.0000
  C   C1615     1.0  0.91315  0.72705  0.42453  1.0000
  C   C1616     1.0  0.92733  0.73302  0.40026  1.0000
  C   C1617     1.0  0.92469  0.72059  0.38073  1.0000
  C   C1618     1.0  0.90786  0.70220  0.38549  1.0000
  H   H1272     1.0  0.81932  0.72618  0.35163  1.0000
  H   H1273     1.0  0.80031  0.68891  0.34556  1.0000
  H   H1274     1.0  0.81217  0.64455  0.37076  1.0000
  H   H1275     1.0  0.84354  0.63701  0.40136  1.0000
  H   H1276     1.0  0.85114  0.71904  0.38135  1.0000
  H   H1277     1.0  0.91061  0.64185  0.44954  1.0000
  H   H1278     1.0  0.95568  0.57437  0.41154  1.0000
  H   H1279     1.0  0.94148  0.97637  0.63831  1.0000
  H   H1280     1.0  0.92892  0.59158  0.37706  1.0000
  H   H1281     1.0  0.89382  0.63399  0.37778  1.0000
  H   H1282     1.0  0.83342  0.71608  0.43740  1.0000
  H   H1283     1.0  0.79923  0.71902  0.47659  1.0000
  H   H1284     1.0  0.79612  0.67861  0.50750  1.0000
  H   H1285     1.0  0.82681  0.63465  0.49860  1.0000
  H   H1286     1.0  0.86004  0.63104  0.45869  1.0000
  H   H1287     1.0  0.88584  0.70422  0.44842  1.0000
  H   H1288     1.0  0.91520  0.73661  0.43971  1.0000
  H   H1289     1.0  0.94026  0.74741  0.39657  1.0000
  H   H1290     1.0  0.93555  0.72540  0.36187  1.0000
  H   H1291     1.0  0.90625  0.69240  0.37031  1.0000
  H   H1292     1.0  0.83701  0.95713  0.37003  1.0000
  H   H1293     1.0  0.77809  0.77085  0.33181  1.0000
  S   S233      1.0  0.66876  0.97050  0.44108  1.0000
  C   C1619     1.0  0.57029  0.84514  0.34210  1.0000
  C   C1620     1.0  0.83003  0.84304  0.55411  1.0000
  C   C1621     1.0  0.82015  0.84312  0.53223  1.0000
  C   C1622     1.0  0.81057  0.82127  0.52922  1.0000
  C   C1623     1.0  0.81117  0.79924  0.54789  1.0000
  C   C1624     1.0  0.82097  0.79900  0.56995  1.0000
  C   C1625     1.0  0.83057  0.82099  0.57294  1.0000
  C   C1626     1.0  0.85111  0.74369  0.58470  1.0000
  C   C1627     1.0  0.86800  0.74591  0.56093  1.0000
  C   C1628     1.0  0.89138  0.72559  0.55475  1.0000
  C   C1629     1.0  0.89791  0.70282  0.57202  1.0000
  H   H1294     1.0  0.83681  0.86028  0.55667  1.0000
  H   H1295     1.0  0.82007  0.86000  0.51748  1.0000
  H   H1296     1.0  0.80306  0.82116  0.51221  1.0000
  H   H1297     1.0  0.80383  0.78242  0.54519  1.0000
  H   H1298     1.0  0.83783  0.82156  0.58989  1.0000
  H   H1299     1.0  0.72450  0.82814  0.36800  1.0000
  C   C1630     1.0  0.51226  0.58502  0.64459  1.0000
  H   H1300     1.0  0.86329  0.76312  0.54696  1.0000
  H   H1301     1.0  0.90424  0.72743  0.53631  1.0000
  H   H1302     1.0  0.91587  0.68703  0.56693  1.0000
  H   H1303     1.0  0.69492  0.72097  0.44280  1.0000
  H   H1304     1.0  0.84183  0.93973  0.50310  1.0000
  H   H1305     1.0  0.78585  0.84251  0.40375  1.0000
  H   H1306     1.0  0.83164  0.77144  0.41385  1.0000
  C   C1631     1.0  0.53066  0.51727  0.52395  1.0000
  C   C1632     1.0  0.61103  0.49661  0.51334  1.0000
  C   C1633     1.0  0.57052  0.72440  0.61065  1.0000
  C   C1634     1.0  0.62466  0.68627  0.59930  1.0000
  C   C1635     1.0  0.58875  0.96620  0.33316  1.0000
  C   C1636     1.0  0.63846  0.64395  0.58234  1.0000
  C   C1637     1.0  0.65860  0.65359  0.56403  1.0000
  C   C1638     1.0  0.66203  0.67940  0.56344  1.0000
  C   C1639     1.0  0.64479  0.69589  0.58063  1.0000
  C   C1640     1.0  0.83314  0.89617  0.32027  1.0000
  C   C1641     1.0  0.52220  0.74821  0.61949  1.0000
  S   S234      1.0  0.74745  0.97049  0.42420  1.0000
  C   C1642     1.0  0.63589  0.49641  0.52090  1.0000
  C   C1643     1.0  0.62632  0.77803  0.61682  1.0000
  C   C1644     1.0  0.65081  0.94479  0.53102  1.0000
  H   H1307     1.0  0.91147  0.94182  0.49258  1.0000
  C   C1645     1.0  0.60380  0.92943  0.52454  1.0000
  H   H1308     1.0  0.54301  0.88337  0.33299  1.0000
  Fe  Fe122     1.0  0.76058  0.96828  0.38284  1.0000
  C   C1646     1.0  0.66117  0.95103  0.61107  1.0000
  H   H1309     1.0  0.67086  0.64143  0.54977  1.0000
  H   H1310     1.0  0.67733  0.68708  0.54901  1.0000
  H   H1311     1.0  0.64687  0.71631  0.57888  1.0000
  H   H1312     1.0  0.82042  0.59876  0.32729  1.0000
  C   C1647     1.0  0.60688  0.95560  0.51607  1.0000
  Fe  Fe123     1.0  0.80520  0.95710  0.61861  1.0000
  C   C1648     1.0  0.70246  0.54918  0.54674  1.0000
  H   H1313     1.0  0.51787  0.62505  0.64058  1.0000
  H   H1314     1.0  0.62826  0.60935  0.63165  1.0000
  S   S235      1.0  0.84347  0.77123  0.33345  1.0000
  C   C1649     1.0  0.88119  0.70042  0.59570  1.0000
  H   H1315     1.0  0.87863  0.58579  0.33186  1.0000
  H   H1316     1.0  0.95037  0.81103  0.62013  1.0000
  H   H1317     1.0  0.64572  0.73920  0.45902  1.0000
  C   C1650     1.0  0.60306  0.51952  0.56715  1.0000
  H   H1318     1.0  0.82213  0.97231  0.32884  1.0000
  C   C1651     1.0  0.93805  0.86740  0.52724  1.0000
  S   S236      1.0  0.90069  0.70627  0.31738  1.0000
  S   S237      1.0  0.80343  0.93575  0.55457  1.0000
  H   H1319     1.0  0.89277  0.93458  0.42149  1.0000
  H   H1320     1.0  0.50305  0.94636  0.41531  1.0000
  C   C1652     1.0  0.63035  0.96327  0.51922  1.0000
  C   C1653     1.0  0.66223  0.51959  0.55068  1.0000
  H   H1321     1.0  0.76043  0.73697  0.31767  1.0000
  C   C1654     1.0  0.65526  0.54765  0.54603  1.0000
  C   C1655     1.0  0.67524  0.56236  0.54420  1.0000
  C   C1656     1.0  0.55048  0.95432  0.32139  1.0000
  C   C1657     1.0  0.61072  0.49551  0.48818  1.0000
  H   H1322     1.0  0.83779  0.96123  0.42427  1.0000
  H   H1323     1.0  0.95325  0.68264  0.33792  1.0000
  C   C1658     1.0  0.55129  0.54797  0.58958  1.0000
  C   C1659     1.0  0.56092  0.55385  0.56396  1.0000
  C   C1660     1.0  0.58666  0.53984  0.55276  1.0000
  C   C1661     1.0  0.66192  0.94741  0.58631  1.0000
  H   H1324     1.0  0.84882  0.51798  0.36018  1.0000
  S   S238      1.0  0.79326  0.93451  0.36688  1.0000
  C   C1662     1.0  0.92069  0.92171  0.60184  1.0000
  C   C1663     1.0  0.53207  0.50252  0.54764  1.0000
  H   H1325     1.0  0.93594  0.77696  0.34260  1.0000
  H   H1326     1.0  0.70418  0.90284  0.35730  1.0000
  H   H1327     1.0  0.63433  0.55834  0.54409  1.0000
  H   H1328     1.0  0.68367  0.73557  0.63559  1.0000
  C   C1664     1.0  0.62099  0.73211  0.62432  1.0000
  C   C1665     1.0  0.68058  0.95774  0.56661  1.0000
  H   H1329     1.0  0.61531  0.88817  0.31565  1.0000
  H   H1330     1.0  0.53131  0.55899  0.59816  1.0000
  H   H1331     1.0  0.84515  0.71880  0.62050  1.0000
  H   H1332     1.0  0.51530  0.67139  0.61367  1.0000
  C   C1666     1.0  0.83062  0.95167  0.44277  1.0000
  S   S239      1.0  0.97751  0.55196  0.33355  1.0000
  H   H1333     1.0  0.70986  0.96666  0.48251  1.0000
  H   H1334     1.0  0.76298  0.81472  0.46211  1.0000
  H   H1335     1.0  0.81194  0.80707  0.44147  1.0000
  H   H1336     1.0  0.93135  0.79820  0.55152  1.0000
  H   H1337     1.0  0.86940  0.76827  0.61623  1.0000
  C   C1667     1.0  0.57242  0.91794  0.40344  1.0000
  C   C1668     1.0  0.54359  0.92008  0.40840  1.0000
  P   P57       1.0  0.59578  0.88603  0.39840  1.0000
  C   C1669     1.0  0.58563  0.87020  0.37632  1.0000
  C   C1670     1.0  0.63046  0.89015  0.38476  1.0000
  H   H1338     1.0  0.60578  0.65242  0.61350  1.0000
  P   P58       1.0  0.90184  0.85157  0.63848  1.0000
  C   C1671     1.0  0.66895  0.59350  0.64124  1.0000
  C   C1672     1.0  0.66094  0.91368  0.35363  1.0000
  C   C1673     1.0  0.63451  0.90895  0.36343  1.0000
  C   C1674     1.0  0.59810  0.84333  0.37349  1.0000
  C   C1675     1.0  0.59035  0.83083  0.35652  1.0000
  C   C1676     1.0  0.88079  0.87839  0.32642  1.0000
  H   H1339     1.0  0.95163  0.90391  0.48716  1.0000
  C   C1677     1.0  0.56615  0.88461  0.36117  1.0000
  C   C1678     1.0  0.59477  0.86676  0.42921  1.0000
  C   C1679     1.0  0.58063  0.84594  0.43612  1.0000
  C   C1680     1.0  0.57935  0.83179  0.46037  1.0000
  C   C1681     1.0  0.59186  0.83851  0.47790  1.0000
  C   C1682     1.0  0.60538  0.85959  0.47132  1.0000
  C   C1683     1.0  0.60665  0.87384  0.44717  1.0000
  C   C1684     1.0  0.52009  0.74942  0.59439  1.0000
  C   C1685     1.0  0.85754  0.89970  0.32588  1.0000
  H   H1340     1.0  0.53523  0.90288  0.40870  1.0000
  C   C1686     1.0  0.65252  0.76944  0.62370  1.0000
  C   C1687     1.0  0.93583  0.81497  0.60733  1.0000
  C   C1688     1.0  0.90018  0.94235  0.45653  1.0000
  C   C1689     1.0  0.70979  0.52124  0.55079  1.0000
  H   H1341     1.0  0.61706  0.92039  0.35481  1.0000
  H   H1342     1.0  0.61367  0.83203  0.38454  1.0000
  C   C1690     1.0  0.86675  0.78192  0.34661  1.0000
  C   C1691     1.0  0.90592  0.92852  0.43564  1.0000
  H   H1343     1.0  0.94663  0.59967  0.44781  1.0000
  H   H1344     1.0  0.55695  0.90559  0.36202  1.0000
  H   H1345     1.0  0.57024  0.84080  0.42306  1.0000
  H   H1346     1.0  0.56856  0.81563  0.46571  1.0000
  H   H1347     1.0  0.59093  0.82748  0.49666  1.0000
  H   H1348     1.0  0.61479  0.86494  0.48504  1.0000
  H   H1349     1.0  0.61699  0.89032  0.44253  1.0000
  H   H1350     1.0  0.85802  0.91875  0.33069  1.0000
  Fe  Fe124     1.0  0.70440  0.98509  0.41532  1.0000
  C   C1692     1.0  0.74166  0.72274  0.35501  1.0000
  C   C1693     1.0  0.73724  0.72512  0.38059  1.0000
  C   C1694     1.0  0.74776  0.74384  0.38876  1.0000
  C   C1695     1.0  0.76161  0.76102  0.37085  1.0000
  P   P59       1.0  0.74211  0.74630  0.42192  1.0000
  C   C1696     1.0  0.70529  0.75978  0.43136  1.0000
  C   C1697     1.0  0.75170  0.71385  0.43981  1.0000
  C   C1698     1.0  0.74142  0.71012  0.46571  1.0000
  C   C1699     1.0  0.74694  0.68469  0.47948  1.0000
  C   C1700     1.0  0.76343  0.66296  0.46765  1.0000
  C   C1701     1.0  0.77498  0.66682  0.44216  1.0000
  C   C1702     1.0  0.76926  0.69222  0.42828  1.0000
  C   C1703     1.0  0.69418  0.78748  0.42881  1.0000
  C   C1704     1.0  0.66620  0.79765  0.43840  1.0000
  C   C1705     1.0  0.64885  0.78024  0.44948  1.0000
  C   C1706     1.0  0.65926  0.75268  0.45047  1.0000
  C   C1707     1.0  0.68732  0.74244  0.44139  1.0000
  C   C1708     1.0  0.76432  0.76532  0.42856  1.0000
  C   C1709     1.0  0.79262  0.76026  0.41773  1.0000
  C   C1710     1.0  0.80988  0.77513  0.42246  1.0000
  C   C1711     1.0  0.79902  0.79496  0.43819  1.0000
  C   C1712     1.0  0.77125  0.79941  0.44976  1.0000
  C   C1713     1.0  0.75410  0.78431  0.44534  1.0000
  C   C1714     1.0  0.71094  0.92697  0.52500  1.0000
  H   H1351     1.0  0.88624  0.68273  0.60908  1.0000
  H   H1352     1.0  0.72584  0.71219  0.39405  1.0000
  H   H1353     1.0  0.76930  0.77621  0.37638  1.0000
  H   H1354     1.0  0.72883  0.72681  0.47524  1.0000
  H   H1355     1.0  0.73861  0.68200  0.49941  1.0000
  H   H1356     1.0  0.76781  0.64329  0.47839  1.0000
  H   H1357     1.0  0.78843  0.65015  0.43318  1.0000
  H   H1358     1.0  0.77853  0.69491  0.40865  1.0000
  H   H1359     1.0  0.70731  0.80129  0.42049  1.0000
  H   H1360     1.0  0.65826  0.81899  0.43821  1.0000
  C   C1715     1.0  0.66103  0.92054  0.46199  1.0000
  H   H1361     1.0  0.67828  0.96799  0.63543  1.0000
  C   C1716     1.0  0.63534  0.49302  0.47062  1.0000
  S   S240      1.0  0.93974  0.82945  0.49865  1.0000
  P   P60       1.0  0.82147  0.77015  0.59363  1.0000
  H   H1362     1.0  0.86691  0.81839  0.39192  1.0000
  C   C1717     1.0  0.90049  0.82684  0.57219  1.0000
  H   H1363     1.0  0.59376  0.54522  0.53292  1.0000
  H   H1364     1.0  0.80836  0.71861  0.59086  1.0000
  C   C1718     1.0  0.56377  0.95784  0.33990  1.0000
  C   C1719     1.0  0.76624  0.75839  0.34534  1.0000
  C   C1720     1.0  0.85656  0.79781  0.36597  1.0000
  H   H1365     1.0  0.69752  0.86780  0.39360  1.0000
  C   C1721     1.0  0.74040  0.93507  0.31575  1.0000
  C   C1722     1.0  0.87496  0.80576  0.37725  1.0000
  C   C1723     1.0  0.75791  0.84324  0.34318  1.0000
  C   C1724     1.0  0.73928  0.77247  0.59714  1.0000
  C   C1725     1.0  0.85793  0.72082  0.60207  1.0000
  H   H1366     1.0  0.58573  0.71698  0.57211  1.0000
  C   C1726     1.0  0.75562  0.89753  0.53033  1.0000
  H   H1367     1.0  0.56022  0.52336  0.62397  1.0000
  H   H1368     1.0  0.72014  0.78779  0.59758  1.0000
  H   H1369     1.0  0.88741  0.83204  0.55802  1.0000
  P   P61       1.0  0.60252  0.70760  0.62164  1.0000
  H   H1370     1.0  0.76367  0.79978  0.59877  1.0000
  C   C1727     1.0  0.56763  0.52807  0.60412  1.0000
  C   C1728     1.0  0.78285  0.85113  0.34137  1.0000
  C   C1729     1.0  0.61059  0.75950  0.61709  1.0000
  C   C1730     1.0  0.71029  0.91332  0.50545  1.0000
  H   H1371     1.0  0.52887  0.51266  0.56398  1.0000
  H   H1372     1.0  0.68016  0.49284  0.50856  1.0000
  H   H1373     1.0  0.90336  0.76306  0.32249  1.0000
  C   C1731     1.0  0.90365  0.79764  0.36934  1.0000
  C   C1732     1.0  0.91024  0.83347  0.61172  1.0000
  Fe  Fe125     1.0  0.79123  0.91596  0.59375  1.0000
  H   H1374     1.0  0.90212  0.97507  0.61861  1.0000
  C   C1733     1.0  0.91652  0.93300  0.47536  1.0000
  H   H1375     1.0  0.77056  0.86630  0.50660  1.0000
  C   C1734     1.0  0.82437  0.77857  0.62333  1.0000
  C   C1735     1.0  0.78924  0.73368  0.59356  1.0000
  H   H1376     1.0  0.73539  0.92937  0.55213  1.0000
  H   H1377     1.0  0.92120  0.54991  0.33436  1.0000
  H   H1378     1.0  0.64825  0.93620  0.58277  1.0000
  C   C1736     1.0  0.62170  0.66013  0.60002  1.0000
  C   C1737     1.0  0.78929  0.76001  0.59591  1.0000
  H   H1379     1.0  0.65652  0.70250  0.63525  1.0000
  H   H1380     1.0  0.74940  0.84424  0.32648  1.0000
  C   C1738     1.0  0.67628  0.93560  0.44324  1.0000
  S   S241      1.0  0.92699  0.80479  0.38527  1.0000
  H   H1381     1.0  0.60472  0.93890  0.40182  1.0000
  C   C1739     1.0  0.80069  0.78859  0.64050  1.0000
  C   C1740     1.0  0.89832  0.59096  0.33000  1.0000
  H   H1382     1.0  0.65141  0.85976  0.41117  1.0000
  C   C1741     1.0  0.76407  0.77927  0.59767  1.0000
  H   H1383     1.0  0.77307  0.89124  0.54018  1.0000
  S   S242      1.0  0.66426  0.49464  0.64415  1.0000
  H   H1384     1.0  0.72050  0.74125  0.59309  1.0000
  C   C1742     1.0  0.85076  0.77513  0.62945  1.0000
  C   C1743     1.0  0.76436  0.72685  0.59321  1.0000
  H   H1385     1.0  0.76456  0.70687  0.59023  1.0000
  H   H1386     1.0  0.57214  0.98202  0.40894  1.0000
  H   H1387     1.0  0.95439  0.93889  0.60379  1.0000
  H   H1388     1.0  0.73039  0.88040  0.48451  1.0000
  H   H1389     1.0  0.70977  0.93424  0.41187  1.0000
  H   H1390     1.0  0.92669  0.64517  0.31980  1.0000
  C   C1744     1.0  0.79285  0.85068  0.36343  1.0000
  H   H1391     1.0  0.64714  0.94253  0.62623  1.0000
  C   C1745     1.0  0.92242  0.57067  0.33130  1.0000
  C   C1746     1.0  0.84940  0.96786  0.35511  1.0000
  C   C1747     1.0  0.91836  0.87941  0.62824  1.0000
  C   C1748     1.0  0.75641  0.73920  0.33741  1.0000
  H   H1392     1.0  0.78505  0.91302  0.47122  1.0000
  C   C1749     1.0  0.63908  0.52369  0.63666  1.0000
  H   H1393     1.0  0.55431  0.95478  0.35940  1.0000
  H   H1394     1.0  0.58580  0.92340  0.52186  1.0000
  H   H1395     1.0  0.56424  0.83556  0.32892  1.0000
  C   C1750     1.0  0.89536  0.77486  0.33782  1.0000
  H   H1396     1.0  0.96958  0.67073  0.37891  1.0000
  C   C1751     1.0  0.97260  0.66822  0.33972  1.0000
  H   H1397     1.0  0.80180  0.93615  0.42949  1.0000
  H   H1398     1.0  0.63511  0.62425  0.58240  1.0000
  C   C1752     1.0  0.75420  0.88341  0.51154  1.0000
  C   C1753     1.0  0.83283  0.93940  0.48703  1.0000
  H   H1399     1.0  0.61850  0.79904  0.61059  1.0000
  H   H1400     1.0  0.59078  0.76666  0.61083  1.0000
  C   C1754     1.0  0.85534  0.84992  0.31563  1.0000
  C   C1755     1.0  0.92541  0.80770  0.56849  1.0000
  C   C1756     1.0  0.89323  0.84023  0.59332  1.0000
  H   H1401     1.0  0.62214  0.89051  0.54258  1.0000
  S   S243      1.0  0.76574  0.95352  0.60864  1.0000
  H   H1402     1.0  0.87467  0.85622  0.59486  1.0000
  H   H1403     1.0  0.67945  0.48986  0.46457  1.0000
  C   C1757     1.0  0.94443  0.89721  0.45197  1.0000
  C   C1758     1.0  0.58263  0.94027  0.40436  1.0000
  C   C1759     1.0  0.66064  0.49342  0.50321  1.0000
  C   C1760     1.0  0.90770  0.90037  0.61060  1.0000
  H   H1404     1.0  0.59178  0.49817  0.52673  1.0000
  H   H1405     1.0  0.72985  0.94784  0.33003  1.0000
  H   H1406     1.0  0.87988  0.96638  0.37751  1.0000
  C   C1761     1.0  0.83257  0.55918  0.34627  1.0000
  H   H1407     1.0  0.91224  0.93781  0.58823  1.0000
  C   C1762     1.0  0.93903  0.91100  0.47266  1.0000
  H   H1408     1.0  0.50409  0.75617  0.63277  1.0000
  H   H1409     1.0  0.93795  0.89919  0.54734  1.0000
  C   C1763     1.0  0.94321  0.80194  0.58593  1.0000
  C   C1764     1.0  0.84106  0.97650  0.33174  1.0000
  H   H1410     1.0  0.71786  0.56063  0.54555  1.0000
  C   C1765     1.0  0.73944  0.74626  0.59483  1.0000
  C   C1766     1.0  0.67873  0.96530  0.61627  1.0000
  C   C1767     1.0  0.73159  0.89139  0.49902  1.0000
  C   C1768     1.0  0.64756  0.72361  0.63083  1.0000
  C   C1769     1.0  0.66034  0.49168  0.47820  1.0000
  C   C1770     1.0  0.77828  0.84226  0.38681  1.0000
  C   C1771     1.0  0.64760  0.91855  0.53931  1.0000
  H   H1411     1.0  0.96305  0.78787  0.58246  1.0000
  C   C1772     1.0  0.65358  0.87482  0.39508  1.0000
  H   H1412     1.0  0.76525  0.90726  0.34031  1.0000
  H   H1413     1.0  0.85845  0.94214  0.63722  1.0000
  H   H1414     1.0  0.89942  0.88086  0.33153  1.0000
  C   C1773     1.0  0.94940  0.60412  0.32540  1.0000
  H   H1415     1.0  0.74241  0.82805  0.40671  1.0000
  H   H1416     1.0  0.81159  0.85725  0.36289  1.0000
  C   C1774     1.0  0.91379  0.78290  0.34908  1.0000
  C   C1775     1.0  0.84517  0.53242  0.34375  1.0000
  C   C1776     1.0  0.73407  0.91923  0.53711  1.0000
  C   C1777     1.0  0.68984  0.50647  0.55251  1.0000
  C   C1778     1.0  0.81018  0.93733  0.44561  1.0000
  S   S244      1.0  0.86925  0.64277  0.32432  1.0000
  H   H1417     1.0  0.72300  0.90382  0.61211  1.0000
  C   C1779     1.0  0.68004  0.87919  0.38495  1.0000
  H   H1418     1.0  0.88956  0.90013  0.60329  1.0000
  H   H1419     1.0  0.73090  0.51101  0.55273  1.0000
  H   H1420     1.0  0.66479  0.78389  0.62297  1.0000
  H   H1421     1.0  0.66344  0.90392  0.54802  1.0000
  C   C1780     1.0  0.87975  0.85358  0.32107  1.0000
  H   H1422     1.0  0.95976  0.85815  0.52736  1.0000
  H   H1423     1.0  0.73386  0.70795  0.34889  1.0000
  H   H1424     1.0  0.93151  0.89474  0.41784  1.0000
  C   C1781     1.0  0.81237  0.92504  0.48976  1.0000
  H   H1425     1.0  0.80568  0.91427  0.50777  1.0000
  P   P62       1.0  0.63617  0.50088  0.55269  1.0000
  C   C1782     1.0  0.56422  0.96476  0.40860  1.0000
  C   C1783     1.0  0.87358  0.97311  0.35935  1.0000
  C   C1784     1.0  0.64004  0.60134  0.64664  1.0000
  C   C1785     1.0  0.80086  0.92420  0.46911  1.0000
  H   H1426     1.0  0.60611  0.49941  0.60498  1.0000
  C   C1786     1.0  0.89977  0.61782  0.32584  1.0000
  C   C1787     1.0  0.54735  0.73581  0.62761  1.0000
  C   C1788     1.0  0.52527  0.94464  0.41240  1.0000
  H   H1427     1.0  0.66356  0.92941  0.33809  1.0000
  S   S245      1.0  0.81885  0.98025  0.58181  1.0000
  H   H1428     1.0  0.67956  0.59577  0.62195  1.0000
  S   S246      1.0  0.51870  0.94488  0.33018  1.0000
  C   C1789     1.0  0.69822  0.97192  0.57206  1.0000
  C   C1790     1.0  0.82865  0.57793  0.32493  1.0000
  H   H1429     1.0  0.96912  0.60913  0.32395  1.0000
  H   H1430     1.0  0.82666  0.56558  0.36471  1.0000
  C   C1791     1.0  0.76067  0.91212  0.32140  1.0000
  C   C1792     1.0  0.92541  0.62445  0.32315  1.0000
  C   C1793     1.0  0.94279  0.87968  0.63637  1.0000
  C   C1794     1.0  0.53558  0.96703  0.41233  1.0000
  H   H1431     1.0  0.85214  0.83428  0.63306  1.0000
  C   C1795     1.0  0.92784  0.90595  0.43347  1.0000
  C   C1796     1.0  0.65312  0.97303  0.37486  1.0000
  H   H1432     1.0  0.81529  0.91283  0.32042  1.0000
  H   H1433     1.0  0.50257  0.58647  0.56642  1.0000
  S   S247      1.0  0.49232  0.70440  0.57117  1.0000
  C   C1797     1.0  0.85396  0.52440  0.31989  1.0000
  C   C1798     1.0  0.66313  0.74224  0.63075  1.0000
  C   C1799     1.0  0.49764  0.68652  0.62062  1.0000
  H   H1434     1.0  0.67581  0.97738  0.33693  1.0000
  H   H1435     1.0  0.89757  0.83686  0.32199  1.0000
  C   C1800     1.0  0.63156  0.98512  0.39248  1.0000
  H   H1436     1.0  0.63501  0.49235  0.45111  1.0000
  H   H1437     1.0  0.59133  0.49684  0.48221  1.0000
  H   H1438     1.0  0.50043  0.75829  0.58816  1.0000
  H   H1439     1.0  0.71290  0.97993  0.55716  1.0000
  H   H1440     1.0  0.54854  0.73469  0.64721  1.0000
  H   H1441     1.0  0.78011  0.79218  0.63624  1.0000
  C   C1801     1.0  0.84558  0.85107  0.64356  1.0000
  C   C1802     1.0  0.98828  0.65631  0.31883  1.0000
  H   H1442     1.0  0.63270  0.98341  0.51198  1.0000
  H   H1443     1.0  0.56196  0.67423  0.63727  1.0000
  H   H1444     1.0  0.91407  0.98352  0.41921  1.0000
  C   C1803     1.0  0.68529  0.98489  0.51500  1.0000
  H   H1445     1.0  0.77180  0.98465  0.46780  1.0000
  C   C1804     1.0  0.70040  0.98508  0.49048  1.0000
  H   H1446     1.0  0.80223  0.85142  0.64728  1.0000
  C   C1805     1.0  0.70468  0.49506  0.96549  1.0000
  C   C1806     1.0  0.90647  0.97021  0.92805  1.0000
  C   C1807     1.0  0.57106  0.57839  0.85570  1.0000
  S   S248      1.0  0.68169  0.50611  0.89717  1.0000
  H   H1447     1.0  0.70639  0.57618  0.65620  1.0000
  C   C1808     1.0  0.57198  0.67334  0.65308  1.0000
  C   C1809     1.0  0.72915  0.62594  0.69723  1.0000
  H   H1448     1.0  0.55030  0.54575  0.94638  1.0000
  C   C1810     1.0  0.83467  0.97456  0.68866  1.0000
  C   C1811     1.0  0.76337  0.58552  0.70714  1.0000
  H   H1449     1.0  0.57035  0.64363  0.71351  1.0000
  C   C1812     1.0  0.70920  0.61090  0.70018  1.0000
  H   H1450     1.0  0.62952  0.58468  0.70975  1.0000
  H   H1451     1.0  0.51468  0.72164  0.90989  1.0000
  S   S249      1.0  0.55037  0.59598  0.71068  1.0000
  S   S250      1.0  0.49247  0.57730  0.89679  1.0000
  H   H1452     1.0  0.60357  0.60381  0.67529  1.0000
  C   C1813     1.0  0.56682  0.53557  0.90902  1.0000
  C   C1814     1.0  0.49446  0.69773  0.98076  1.0000
  P   P63       1.0  0.69001  0.56405  0.71042  1.0000
  H   H1453     1.0  0.75257  0.53714  0.95909  1.0000
  S   S251      1.0  0.96432  0.95735  0.79795  1.0000
  S   S252      1.0  0.91375  0.94279  0.69987  1.0000
  H   H1454     1.0  0.94818  0.93049  0.90183  1.0000
  C   C1815     1.0  0.96346  0.96607  0.89996  1.0000
  C   C1816     1.0  0.85333  0.78061  0.65269  1.0000
  C   C1817     1.0  0.55298  0.60554  0.81961  1.0000
  S   S253      1.0  0.95860  0.97702  0.72532  1.0000
  H   H1455     1.0  0.52356  0.67784  0.82341  1.0000
  C   C1818     1.0  0.85548  0.88478  0.66293  1.0000
  H   H1456     1.0  0.83165  0.79503  0.68756  1.0000
  H   H1457     1.0  0.93321  0.78927  0.72848  1.0000
  H   H1458     1.0  0.85926  0.97542  0.71601  1.0000
  C   C1819     1.0  0.50832  0.69060  0.83573  1.0000
  C   C1820     1.0  0.52170  0.48988  0.86469  1.0000
  H   H1459     1.0  0.72359  0.64744  0.69223  1.0000
  C   C1821     1.0  0.83432  0.96512  0.66649  1.0000
  H   H1460     1.0  0.67563  0.55416  0.91735  1.0000
  C   C1822     1.0  0.56405  0.65763  0.67550  1.0000
  H   H1461     1.0  0.56699  0.53952  0.81370  1.0000
  H   H1462     1.0  0.62037  0.69714  0.67134  1.0000
  C   C1823     1.0  0.62581  0.50056  0.82047  1.0000
  C   C1824     1.0  0.77068  0.52150  0.96248  1.0000
  P   P64       1.0  0.58801  0.52247  0.86055  1.0000
  C   C1825     1.0  0.59657  0.55619  0.64865  1.0000
  C   C1826     1.0  0.50689  0.80112  0.80672  1.0000
  C   C1827     1.0  0.68859  0.54255  0.95335  1.0000
  C   C1828     1.0  0.56505  0.55727  0.82213  1.0000
  H   H1463     1.0  0.52930  0.79722  0.80454  1.0000
  H   H1464     1.0  0.90970  0.86577  0.68513  1.0000
  H   H1465     1.0  0.54924  0.58405  0.79110  1.0000
  H   H1466     1.0  0.68399  0.56290  0.95745  1.0000
  H   H1467     1.0  0.87003  0.89417  0.66765  1.0000
  H   H1468     1.0  0.63051  0.54844  0.96759  1.0000
  C   C1829     1.0  0.66945  0.58483  0.75617  1.0000
  C   C1830     1.0  0.58630  0.51556  0.75289  1.0000
  C   C1831     1.0  0.56116  0.53105  0.76389  1.0000
  C   C1832     1.0  0.54949  0.55581  0.75105  1.0000
  C   C1833     1.0  0.56341  0.56519  0.72759  1.0000
  C   C1834     1.0  0.58868  0.54978  0.71707  1.0000
  C   C1835     1.0  0.59981  0.52486  0.72940  1.0000
  H   H1469     1.0  0.55058  0.52372  0.78200  1.0000
  H   H1470     1.0  0.52998  0.56758  0.75936  1.0000
  H   H1471     1.0  0.59960  0.55698  0.69916  1.0000
  H   H1472     1.0  0.61920  0.51308  0.72075  1.0000
  C   C1836     1.0  0.91807  0.80354  0.66938  1.0000
  C   C1837     1.0  0.68914  0.51143  0.92535  1.0000
  H   H1473     1.0  0.61446  0.54180  0.77739  1.0000
  C   C1838     1.0  0.87078  0.94186  0.96214  1.0000
  C   C1839     1.0  0.67010  0.57841  0.68559  1.0000
  C   C1840     1.0  0.61213  0.50529  0.90353  1.0000
  H   H1474     1.0  0.50198  0.84358  0.79553  1.0000
  H   H1475     1.0  0.68605  0.52746  0.83206  1.0000
  H   H1476     1.0  0.60637  0.66904  0.71068  1.0000
  H   H1477     1.0  0.69288  0.50294  0.79560  1.0000
  C   C1841     1.0  0.87645  0.93879  0.93670  1.0000
  H   H1478     1.0  0.52830  0.52908  0.86373  1.0000
  H   H1479     1.0  0.50005  0.53260  0.82351  1.0000
  C   C1842     1.0  0.56077  0.60351  0.84290  1.0000
  C   C1843     1.0  0.51023  0.67939  0.96468  1.0000
  C   C1844     1.0  0.50695  0.52930  0.72056  1.0000
  H   H1480     1.0  0.85698  0.93096  0.97528  1.0000
  H   H1481     1.0  0.61258  0.52060  0.67268  1.0000
  C   C1845     1.0  0.82708  0.89417  0.67128  1.0000
  H   H1482     1.0  0.51439  0.49674  0.79659  1.0000
  C   C1846     1.0  0.62611  0.59818  0.67136  1.0000
  C   C1847     1.0  0.87326  0.52236  0.97308  1.0000
  H   H1483     1.0  0.68444  0.59718  0.75058  1.0000
  H   H1484     1.0  0.59190  0.51852  0.96392  1.0000
  C   C1848     1.0  0.78631  0.52358  0.97981  1.0000
  C   C1849     1.0  0.61300  0.50430  0.92893  1.0000
  C   C1850     1.0  0.62990  0.55374  0.77157  1.0000
  C   C1851     1.0  0.82965  0.79027  0.66975  1.0000
  H   H1485     1.0  0.71385  0.52128  0.74714  1.0000
  C   C1852     1.0  0.57652  0.65602  0.69621  1.0000
  H   H1486     1.0  0.81990  0.91121  0.68166  1.0000
  H   H1487     1.0  0.54837  0.64646  0.67673  1.0000
  C   C1853     1.0  0.56714  0.49929  0.86058  1.0000
  C   C1854     1.0  0.73081  0.48645  0.72843  1.0000
  C   C1855     1.0  0.67300  0.50644  0.80808  1.0000
  C   C1856     1.0  0.88317  0.95188  0.68706  1.0000
  C   C1857     1.0  0.58945  0.52164  0.89319  1.0000
  C   C1858     1.0  0.55529  0.58242  0.80916  1.0000
  H   H1488     1.0  0.80756  0.49521  0.90297  1.0000
  H   H1489     1.0  0.65269  0.60101  0.79114  1.0000
  C   C1859     1.0  0.97361  0.90941  0.73737  1.0000
  C   C1860     1.0  0.62185  0.51425  0.84119  1.0000
  H   H1490     1.0  0.92301  0.83884  0.72404  1.0000
  C   C1861     1.0  0.59095  0.51914  0.94433  1.0000
  H   H1491     1.0  0.57773  0.57731  0.87334  1.0000
  C   C1862     1.0  0.50957  0.50151  0.72613  1.0000
  C   C1863     1.0  0.74347  0.57041  0.71008  1.0000
  H   H1492     1.0  0.84474  0.55897  0.96187  1.0000
  H   H1493     1.0  0.92957  0.76673  0.69371  1.0000
  C   C1864     1.0  0.66912  0.52033  0.82851  1.0000
  C   C1865     1.0  0.63154  0.57173  0.78683  1.0000
  C   C1866     1.0  0.71670  0.51312  0.72977  1.0000
  C   C1867     1.0  0.50920  0.71499  0.92973  1.0000
  H   H1494     1.0  0.64097  0.53531  0.86056  1.0000
  H   H1495     1.0  0.52110  0.56137  0.69507  1.0000
  C   C1868     1.0  0.57281  0.55505  0.84558  1.0000
  H   H1496     1.0  0.78499  0.80241  0.67657  1.0000
  C   C1869     1.0  0.65135  0.49655  0.80408  1.0000
  H   H1497     1.0  0.57921  0.56349  0.66286  1.0000
  C   C1870     1.0  0.71620  0.58301  0.70663  1.0000
  H   H1498     1.0  0.95367  0.91944  0.74711  1.0000
  C   C1871     1.0  0.64361  0.52438  0.84491  1.0000
  C   C1872     1.0  0.64840  0.55082  0.74890  1.0000
  C   C1873     1.0  0.88277  0.94232  0.66499  1.0000
  C   C1874     1.0  0.54095  0.52311  0.68261  1.0000
  C   C1875     1.0  0.80337  0.79440  0.66358  1.0000
  H   H1499     1.0  0.78437  0.57566  0.70982  1.0000
  S   S254      1.0  0.90078  0.97173  0.76552  1.0000
  H   H1500     1.0  0.51629  0.65845  0.97211  1.0000
  H   H1501     1.0  0.61757  0.57355  0.80464  1.0000
  Fe  Fe126     1.0  0.94215  0.97977  0.76625  1.0000
  C   C1876     1.0  0.92758  0.80103  0.71121  1.0000
  C   C1877     1.0  0.77741  0.49858  0.95058  1.0000
  C   C1878     1.0  0.59267  0.68753  0.65105  1.0000
  C   C1879     1.0  0.66798  0.56666  0.74080  1.0000
  H   H1502     1.0  0.55868  0.62142  0.85112  1.0000
  H   H1503     1.0  0.60908  0.49342  0.81658  1.0000
  H   H1504     1.0  0.76419  0.49673  0.93818  1.0000
  H   H1505     1.0  0.54461  0.62496  0.80984  1.0000
  C   C1880     1.0  0.68380  0.53763  0.93068  1.0000
  C   C1881     1.0  0.71001  0.51773  0.68671  1.0000
  H   H1506     1.0  0.87370  0.77770  0.65734  1.0000
  H   H1507     1.0  0.74958  0.54898  0.71498  1.0000
  C   C1882     1.0  0.59689  0.67025  0.69452  1.0000
  H   H1508     1.0  0.49328  0.54288  0.73295  1.0000
  C   C1883     1.0  0.85853  0.94932  0.65443  1.0000
  C   C1884     1.0  0.49343  0.77999  0.81458  1.0000
  C   C1885     1.0  0.52270  0.53998  0.69892  1.0000
  H   H1509     1.0  0.52944  0.67367  0.92660  1.0000
  C   C1886     1.0  0.69973  0.49014  0.94266  1.0000
  H   H1510     1.0  0.50030  0.67260  0.65971  1.0000
  C   C1887     1.0  0.70655  0.52912  0.70878  1.0000
  H   H1511     1.0  0.54848  0.54722  0.90172  1.0000
  C   C1888     1.0  0.69867  0.52134  0.97094  1.0000
  C   C1889     1.0  0.91447  0.84414  0.68652  1.0000
  H   H1512     1.0  0.55965  0.61428  0.97736  1.0000
  C   C1890     1.0  0.51758  0.68799  0.93912  1.0000
  H   H1513     1.0  0.55339  0.53125  0.66604  1.0000
  C   C1891     1.0  0.72430  0.49110  0.68540  1.0000
  H   H1514     1.0  0.64717  0.53650  0.73742  1.0000
  H   H1515     1.0  0.63100  0.49212  0.93651  1.0000
  H   H1516     1.0  0.58880  0.57840  0.95267  1.0000
  C   C1892     1.0  0.60489  0.68606  0.67206  1.0000
  C   C1893     1.0  0.56770  0.53455  0.93444  1.0000
  C   C1894     1.0  0.61803  0.56439  0.97811  1.0000
  H   H1517     1.0  0.87974  0.51686  0.95428  1.0000
  C   C1895     1.0  0.75622  0.61326  0.70072  1.0000
  C   C1896     1.0  0.53819  0.50814  0.86286  1.0000
  C   C1897     1.0  0.65140  0.58716  0.77921  1.0000
  C   C1898     1.0  0.80789  0.88218  0.66558  1.0000
  H   H1518     1.0  0.50583  0.75999  0.81838  1.0000
  Fe  Fe127     1.0  0.50676  0.61713  0.72410  1.0000
  C   C1899     1.0  0.85914  0.96819  0.69881  1.0000
  H   H1519     1.0  0.50110  0.57070  0.84440  1.0000
  H   H1520     1.0  0.90135  0.92976  0.65591  1.0000
  C   C1900     1.0  0.96622  0.93882  0.89879  1.0000
  H   H1521     1.0  0.77168  0.62491  0.69844  1.0000
  C   C1901     1.0  0.85351  0.54607  0.97733  1.0000
  C   C1902     1.0  0.88291  0.95900  0.97062  1.0000
  C   C1903     1.0  0.90070  0.97312  0.95368  1.0000
  H   H1522     1.0  0.68825  0.62103  0.69750  1.0000
  H   H1523     1.0  0.62926  0.49328  0.89203  1.0000
  H   H1524     1.0  0.70130  0.52891  0.67060  1.0000
  C   C1904     1.0  0.98736  0.97631  0.89449  1.0000
  C   C1905     1.0  0.91303  0.83155  0.66646  1.0000
  H   H1525     1.0  0.86704  0.92553  0.93008  1.0000
  C   C1906     1.0  0.89422  0.95287  0.91972  1.0000
  C   C1907     1.0  0.81717  0.86047  0.65196  1.0000
  C   C1908     1.0  0.97469  0.89473  0.71821  1.0000
  C   C1909     1.0  0.92556  0.78835  0.69160  1.0000
  Fe  Fe128     1.0  0.91611  0.97238  0.72407  1.0000
  H   H1526     1.0  0.78584  0.89000  0.67134  1.0000
  C   C1910     1.0  0.59452  0.58123  0.96973  1.0000
  H   H1527     1.0  0.89842  0.95023  0.90005  1.0000
  H   H1528     1.0  0.51985  0.66657  0.86968  1.0000
  H   H1529     1.0  0.80356  0.50235  0.85818  1.0000
  C   C1911     1.0  0.92192  0.82892  0.70870  1.0000
  C   C1912     1.0  0.50620  0.68424  0.86174  1.0000
  S   S255      1.0  0.80315  0.97258  0.65477  1.0000
  H   H1530     1.0  0.91595  0.79337  0.65469  1.0000
  S   S256      1.0  0.50057  0.65857  0.73319  1.0000
  C   C1913     1.0  0.86495  0.86363  0.64844  1.0000
  H   H1531     1.0  0.95555  0.89354  0.71309  1.0000
  C   C1914     1.0  0.49243  0.59155  0.84628  1.0000
  H   H1532     1.0  0.49937  0.49684  0.86644  1.0000
  C   C1915     1.0  0.64102  0.58690  0.69083  1.0000
  C   C1916     1.0  0.61562  0.53215  0.65434  1.0000
  C   C1917     1.0  0.54339  0.49558  0.68777  1.0000
  C   C1918     1.0  0.68398  0.58225  0.66066  1.0000
  H   H1533     1.0  0.53313  0.57603  0.64803  1.0000
  H   H1534     1.0  0.50051  0.54749  0.64813  1.0000
  C   C1919     1.0  0.49542  0.51177  0.79483  1.0000
  C   C1920     1.0  0.49310  0.73332  0.94581  1.0000
  H   H1535     1.0  0.65417  0.48611  0.78805  1.0000
  H   H1536     1.0  0.95219  0.86331  0.64915  1.0000
