data_image0
_chemical_formula_structural       FeSHFeSCFeSFeHS2CSC6H5C2HCH8CH2C4HPC2HC2HC4H2CSFeC2HC2H4C2H2CHCHC2HC2HCHCHC2H2CSC3H3S2HC4HCH2C5HCHFePC3H2C5H3CHC2HCHC5H2C2HCH2CHCH2C2FeSHFeSHFeSFeCS4C6H4C2PC3H4CHCSHC2HCH4C2HC2HPH2SC5H3SCHCH3C3H3CH5C5H3C4HC2H3S2FeSHFeSFeHSHCSC6H5C5H8C2HCH2C3HCHC2H4C2H3CH2C7PFeHFeCPHCH3CSCFeCHCH3C2HSH2C2HPC3HCHC6H3C5HCH4C5H2C11H2C2H2CSC3S2C2HC2H2FeSCFeSHFeSFeHS2HSC6H4C2HSC2HCH5CHC2HCHCHC3HC7HC3HC2HCH4CH3C4H4SCHC3HCSH3C4PC2SCH2CH3CH2PH2CHC4H2C3PCHCFeS2FeS2FeSFeHS2HCFeS2FeSCSH3PCH6C7HC4HC2HC2HC2H3C2H2CHC3HPC4HCH2C2HCH2CHC2HC2HC8PCH3CH4C2H3C7HCHCH3C3HC6H2CH5CHCHC7PC4HCH2CHC2HCH2CH2CH2C2HC3SCH2CH2C4HCHCHFeSCFeS2FeSFeS3HCFeS2FeSHSC2H2SHCH3FeC8HCHC4H3PCH2C6HC3PC3HCHCHCH2C2HCHCH2C2H5CHC2H5CHCH5FeHSCHCHCHC5HCHC2H4C3FeS2FeS2FeSFeS3H2FeS2FeCHSH3CH2CH4C6SC4HC2H2CH2CHC2H2C3HC5PC4H2CHC7HC2H3CH8CH2CH9C4HC5PC3HC3H2C3H4CHCHPC2H2CHC5HCH3C3HC2HSC4FeSCFeS2FeSFeCS2H2FeS2FeHFeSHCHCH6C8SCH5CH2C2H3C2HCHCHCSFeCHC3H3C2H2CSC6PC15H7CH7CHC2HCHC3HC5HC3H3CH2CHC2HCPHCH3CHC2H2C3HCH2CH2C2H2CHC2HCFeS2FeS2FeSFeCS2H7C5H3C6SH2CPC6H4C4H12CH2C2HCH2PC5HCHC3HC2HCHC2HCSC3HCHC2HC2H3CH4C3HC3HC2SCH2C4H2C3HC6HC4H4C2HCH2C2HCHC2H5C3FeSHFeS2FeSFeHS2C2H2CH3C3HSH2C6H4CH2C5HC7PHCHCHC2H2C6H4C2HC5H4C3H4C4HCH3CHC2H3CHCHCH3C2HC3H4C6PC16HCH7CH5PC2HC3HC2HSCH2SC2H2FeSHFeS2FeSFeCS2C2H2CH2C4H6C5H2SHC5H3SC4H2CHC2HCHCHCH2C2H3CH6C2HCH3C3H2C2HC5HC2H2C4H2C6PC3H3CH2CPC9H3CH3CHCH3C4H4C2HCHC3HC3FeS2FeS2FeSFeCS2CHCHCHCHC5H2SC6H2C5HPCH3C3HC5PC3HC5HC8HCH3C3H3CH11CH2SH2CHSC3HC3HC2HCH4C3H3C2HC7HCHPCH11CHC4H2CHCHC3HCH2C2PHC5H
_chemical_formula_sum              "Fe64 S128 H768 C960 P32"
_cell_length_a       34.5645
_cell_length_b       31.5305
_cell_length_c       31.1893
_cell_angle_alpha    90.531
_cell_angle_beta     90.5138
_cell_angle_gamma    89.8978

_space_group_name_H-M_alt    "P 1"
_space_group_IT_number       1

loop_
  _space_group_symop_operation_xyz
  'x, y, z'

loop_
  _atom_site_type_symbol
  _atom_site_label
  _atom_site_symmetry_multiplicity
  _atom_site_fract_x
  _atom_site_fract_y
  _atom_site_fract_z
  _atom_site_occupancy
  Fe  Fe1       1.0  0.03319  0.14455  0.16797  1.0000
  S   S1        1.0  0.03195  0.17520  0.10364  1.0000
  H   H1        1.0  0.32713  0.19489  0.15191  1.0000
  Fe  Fe2       1.0  0.09304  0.07935  0.13862  1.0000
  S   S2        1.0  0.09667  0.10610  0.07222  1.0000
  C   C1        1.0  0.31260  0.39448  0.38374  1.0000
  Fe  Fe3       1.0  0.09680  0.16940  0.10661  1.0000
  S   S3        1.0  0.12788  0.22947  0.08702  1.0000
  Fe  Fe4       1.0  0.03171  0.10917  0.07550  1.0000
  H   H2        1.0  0.08156  0.02746  0.23965  1.0000
  S   S4        1.0  0.09810  0.14221  0.17311  1.0000
  S   S5        1.0  0.02812  0.07891  0.13975  1.0000
  C   C2        1.0  0.23023  0.12050  0.03027  1.0000
  S   S6        1.0  0.30292  0.27436  0.13252  1.0000
  C   C3        1.0  0.17597  0.24198  0.10209  1.0000
  C   C4        1.0  0.19008  0.28299  0.09445  1.0000
  C   C5        1.0  0.22857  0.29383  0.10490  1.0000
  C   C6        1.0  0.25345  0.26342  0.12233  1.0000
  C   C7        1.0  0.23926  0.22242  0.13003  1.0000
  C   C8        1.0  0.20059  0.21184  0.12042  1.0000
  H   H3        1.0  0.17118  0.30647  0.08023  1.0000
  H   H4        1.0  0.23915  0.32542  0.09857  1.0000
  H   H5        1.0  0.25808  0.19862  0.14362  1.0000
  H   H6        1.0  0.19003  0.18021  0.12652  1.0000
  H   H7        1.0  0.03026  0.39884  0.35027  1.0000
  C   C9        1.0  0.19324  0.04774  0.13500  1.0000
  C   C10       1.0  0.23289  0.04296  0.12665  1.0000
  H   H8        1.0  0.27828  0.34562  0.44494  1.0000
  C   C11       1.0  0.21646  0.46191  0.17902  1.0000
  H   H9        1.0  0.07845  0.27043  0.31605  1.0000
  H   H10       1.0  0.18015  0.07895  0.13480  1.0000
  H   H11       1.0  0.25030  0.07064  0.12025  1.0000
  H   H12       1.0  0.22848  0.43029  0.18113  1.0000
  H   H13       1.0  0.15703  0.44070  0.17985  1.0000
  H   H14       1.0  0.30844  0.15352  0.08729  1.0000
  H   H15       1.0  0.16962  0.10612  0.44853  1.0000
  H   H16       1.0  0.19422  0.49827  0.26154  1.0000
  C   C12       1.0  0.20893  0.42258  0.45224  1.0000
  H   H17       1.0  0.08348  0.36163  0.01737  1.0000
  H   H18       1.0  0.25393  0.14554  0.40438  1.0000
  C   C13       1.0  0.19995  0.14989  0.02928  1.0000
  C   C14       1.0  0.03371  0.49091  0.31601  1.0000
  C   C15       1.0  0.03988  0.18752  0.37069  1.0000
  C   C16       1.0  0.11170  0.22478  0.24891  1.0000
  H   H19       1.0  0.14847  0.04852  0.25861  1.0000
  P   P1        1.0  0.27649  0.43045  0.40485  1.0000
  C   C17       1.0  0.30118  0.47190  0.43489  1.0000
  C   C18       1.0  0.24993  0.45321  0.36021  1.0000
  H   H20       1.0  0.33138  0.07897  0.07894  1.0000
  C   C19       1.0  0.19374  0.45283  0.31251  1.0000
  C   C20       1.0  0.21393  0.43618  0.34760  1.0000
  H   H21       1.0  0.28079  0.37917  0.32534  1.0000
  C   C21       1.0  0.08671  0.05643  0.25780  1.0000
  C   C22       1.0  0.15641  0.21523  0.39369  1.0000
  C   C23       1.0  0.24338  0.40270  0.43927  1.0000
  C   C24       1.0  0.28916  0.48385  0.47624  1.0000
  H   H22       1.0  0.15187  0.24612  0.37952  1.0000
  H   H23       1.0  0.16076  0.11574  0.29810  1.0000
  C   C25       1.0  0.23941  0.19754  0.98789  1.0000
  S   S7        1.0  0.29162  0.49202  0.18584  1.0000
  Fe  Fe5       1.0  0.32900  0.33989  0.14236  1.0000
  C   C26       1.0  0.13312  0.21380  0.28561  1.0000
  C   C27       1.0  0.19028  0.24513  0.25393  1.0000
  H   H24       1.0  0.04563  0.15499  0.37971  1.0000
  C   C28       1.0  0.07104  0.35457  0.43910  1.0000
  C   C29       1.0  0.25164  0.36156  0.45359  1.0000
  H   H25       1.0  0.16602  0.43966  0.30282  1.0000
  H   H26       1.0  0.20156  0.40958  0.36427  1.0000
  H   H27       1.0  0.01850  0.30437  0.34072  1.0000
  H   H28       1.0  0.20211  0.45439  0.44172  1.0000
  C   C30       1.0  0.17280  0.22336  0.28754  1.0000
  C   C31       1.0  0.22562  0.34063  0.48016  1.0000
  H   H29       1.0  0.22092  0.25234  0.25518  1.0000
  H   H30       1.0  0.19053  0.21338  0.31432  1.0000
  C   C32       1.0  0.33455  0.49057  0.41809  1.0000
  H   H31       1.0  0.02011  0.17732  0.47604  1.0000
  C   C33       1.0  0.16846  0.25687  0.21800  1.0000
  H   H32       1.0  0.28848  0.10669  0.01199  1.0000
  C   C34       1.0  0.05223  0.31051  0.04657  1.0000
  C   C35       1.0  0.06613  0.20961  0.34503  1.0000
  H   H33       1.0  0.18209  0.27336  0.19178  1.0000
  C   C36       1.0  0.32659  0.13921  0.11171  1.0000
  C   C37       1.0  0.03257  0.38562  0.38217  1.0000
  H   H34       1.0  0.11273  0.25426  0.18672  1.0000
  C   C38       1.0  0.12927  0.24640  0.21533  1.0000
  H   H35       1.0  0.32464  0.03300  0.20226  1.0000
  C   C39       1.0  0.24109  0.49707  0.17872  1.0000
  H   H36       1.0  0.19189  0.24000  0.44547  1.0000
  C   C40       1.0  0.26531  0.12971  0.01036  1.0000
  C   C41       1.0  0.17601  0.46788  0.17841  1.0000
  H   H37       1.0  0.08153  0.21585  0.24600  1.0000
  H   H38       1.0  0.09401  0.37530  0.37872  1.0000
  C   C42       1.0  0.10021  0.13272  0.30272  1.0000
  S   S8        1.0  0.32347  0.40028  0.10476  1.0000
  C   C43       1.0  0.06838  0.37217  0.39816  1.0000
  C   C44       1.0  0.13125  0.10633  0.29104  1.0000
  C   C45       1.0  0.24585  0.50219  0.30046  1.0000
  H   H39       1.0  0.31082  0.31581  0.04847  1.0000
  H   H40       1.0  0.26152  0.22339  0.39634  1.0000
  H   H41       1.0  0.03820  0.14180  0.29664  1.0000
  S   S9        1.0  0.12142  0.01733  0.15667  1.0000
  S   S10       1.0  0.32658  0.37174  0.20712  1.0000
  H   H42       1.0  0.22651  0.09074  0.04682  1.0000
  C   C46       1.0  0.17896  0.21193  0.43102  1.0000
  C   C47       1.0  0.06246  0.12099  0.29063  1.0000
  C   C48       1.0  0.30675  0.37368  0.34417  1.0000
  C   C49       1.0  0.16649  0.13645  0.43274  1.0000
  H   H43       1.0  0.33510  0.45595  0.27427  1.0000
  C   C50       1.0  0.20450  0.18829  0.00801  1.0000
  H   H44       1.0  0.01553  0.26092  0.06874  1.0000
  H   H45       1.0  0.13015  0.11142  0.38256  1.0000
  C   C51       1.0  0.12446  0.06828  0.26876  1.0000
  C   C52       1.0  0.30556  0.13856  0.44295  1.0000
  C   C53       1.0  0.05577  0.08281  0.26863  1.0000
  C   C54       1.0  0.14422  0.13959  0.39520  1.0000
  C   C55       1.0  0.13965  0.17891  0.37492  1.0000
  H   H46       1.0  0.17302  0.14328  0.04543  1.0000
  C   C56       1.0  0.01852  0.28600  0.04562  1.0000
  H   H47       1.0  0.29458  0.24124  0.03449  1.0000
  Fe  Fe6       1.0  0.32569  0.43236  0.16955  1.0000
  P   P2        1.0  0.10998  0.18380  0.32724  1.0000
  C   C57       1.0  0.28270  0.20539  0.41442  1.0000
  C   C58       1.0  0.31342  0.25732  0.01234  1.0000
  C   C59       1.0  0.02943  0.50770  0.35728  1.0000
  H   H48       1.0  0.07462  0.30417  0.07027  1.0000
  H   H49       1.0  0.01944  0.35727  0.12860  1.0000
  C   C60       1.0  0.05742  0.34255  0.01651  1.0000
  C   C61       1.0  0.30053  0.01335  0.98762  1.0000
  C   C62       1.0  0.18416  0.17251  0.45039  1.0000
  C   C63       1.0  0.27834  0.16162  0.41920  1.0000
  C   C64       1.0  0.26584  0.48622  0.33605  1.0000
  H   H50       1.0  0.02016  0.31498  0.22555  1.0000
  H   H51       1.0  0.29641  0.01668  0.02195  1.0000
  H   H52       1.0  0.02669  0.07448  0.25851  1.0000
  C   C65       1.0  0.02467  0.27183  0.34934  1.0000
  H   H53       1.0  0.03031  0.24129  0.19970  1.0000
  C   C66       1.0  0.32294  0.29970  0.02079  1.0000
  C   C67       1.0  0.05855  0.25221  0.33505  1.0000
  H   H54       1.0  0.18101  0.21121  0.00785  1.0000
  C   C68       1.0  0.20969  0.48581  0.28904  1.0000
  H   H55       1.0  0.32816  0.10629  0.35491  1.0000
  C   C69       1.0  0.33695  0.16259  0.14817  1.0000
  C   C70       1.0  0.06252  0.50652  0.28939  1.0000
  C   C71       1.0  0.33951  0.09745  0.10706  1.0000
  C   C72       1.0  0.27029  0.16848  0.98925  1.0000
  C   C73       1.0  0.17086  0.01222  0.14451  1.0000
  H   H56       1.0  0.09898  0.34426  0.45115  1.0000
  H   H57       1.0  0.29391  0.49918  0.34379  1.0000
  C   C74       1.0  0.18336  0.40181  0.47941  1.0000
  C   C75       1.0  0.33738  0.15916  0.46209  1.0000
  H   H58       1.0  0.30214  0.10457  0.44592  1.0000
  C   C76       1.0  0.03782  0.35022  0.46432  1.0000
  H   H59       1.0  0.06552  0.49400  0.25704  1.0000
  H   H60       1.0  0.20131  0.17008  0.47956  1.0000
  C   C77       1.0  0.33494  0.34595  0.32815  1.0000
  H   H61       1.0  0.33089  0.33067  0.29715  1.0000
  C   C78       1.0  0.31457  0.22598  0.43287  1.0000
  H   H62       1.0  0.01437  0.46620  0.30438  1.0000
  H   H63       1.0  0.31800  0.26000  0.42963  1.0000
  C   C79       1.0  0.34208  0.20293  0.45616  1.0000
  C   C80       1.0  0.02918  0.34962  0.98500  1.0000
  Fe  Fe7       1.0  0.05540  0.15397  0.66773  1.0000
  S   S11       1.0  0.05908  0.18227  0.60223  1.0000
  H   H64       1.0  0.08743  0.30573  0.59381  1.0000
  Fe  Fe8       1.0  0.12349  0.09209  0.64836  1.0000
  S   S12       1.0  0.13202  0.11833  0.58222  1.0000
  H   H65       1.0  0.01714  0.25481  0.67432  1.0000
  Fe  Fe9       1.0  0.12328  0.18194  0.61415  1.0000
  S   S13       1.0  0.15156  0.24582  0.60560  1.0000
  Fe  Fe10      1.0  0.06695  0.11542  0.57727  1.0000
  C   C81       1.0  0.08585  0.39876  0.53886  1.0000
  S   S14       1.0  0.11948  0.15606  0.68104  1.0000
  S   S15       1.0  0.05857  0.08691  0.64185  1.0000
  S   S16       1.0  0.03777  0.08985  0.51626  1.0000
  S   S17       1.0  0.31694  0.28109  0.52928  1.0000
  C   C82       1.0  0.19904  0.25298  0.58730  1.0000
  C   C83       1.0  0.21696  0.29227  0.59469  1.0000
  C   C84       1.0  0.25401  0.30032  0.57874  1.0000
  C   C85       1.0  0.27285  0.26950  0.55414  1.0000
  C   C86       1.0  0.25494  0.23016  0.54647  1.0000
  C   C87       1.0  0.21824  0.22165  0.56358  1.0000
  H   H66       1.0  0.20216  0.31665  0.61288  1.0000
  H   H67       1.0  0.26744  0.33088  0.58431  1.0000
  H   H68       1.0  0.26945  0.20636  0.52723  1.0000
  H   H69       1.0  0.20454  0.19129  0.55795  1.0000
  C   C88       1.0  0.27043  0.03064  0.66612  1.0000
  C   C89       1.0  0.23164  0.04441  0.66322  1.0000
  P   P3        1.0  0.31602  0.18140  0.96483  1.0000
  C   C90       1.0  0.11171  0.42184  0.56460  1.0000
  C   C91       1.0  0.25068  0.46998  0.59070  1.0000
  C   C92       1.0  0.21153  0.48066  0.58433  1.0000
  H   H70       1.0  0.22507  0.07789  0.66125  1.0000
  H   H71       1.0  0.29355  0.05372  0.66613  1.0000
  H   H72       1.0  0.26190  0.44027  0.57831  1.0000
  H   H73       1.0  0.19290  0.45895  0.56692  1.0000
  C   C93       1.0  0.30126  0.05718  0.56154  1.0000
  H   H74       1.0  0.07173  0.41447  0.51222  1.0000
  C   C94       1.0  0.04124  0.20093  0.48577  1.0000
  S   S18       1.0  0.34295  0.40405  0.52885  1.0000
  H   H75       1.0  0.10223  0.03214  0.55459  1.0000
  C   C95       1.0  0.02996  0.24302  0.49308  1.0000
  C   C96       1.0  0.32819  0.23636  0.97596  1.0000
  H   H76       1.0  0.13460  0.34593  0.63751  1.0000
  C   C97       1.0  0.02630  0.44689  0.63442  1.0000
  H   H77       1.0  0.30051  0.11940  0.53411  1.0000
  H   H78       1.0  0.11756  0.45471  0.55743  1.0000
  H   H79       1.0  0.26740  0.10665  0.74691  1.0000
  H   H80       1.0  0.23218  0.30894  0.49109  1.0000
  C   C98       1.0  0.01491  0.41162  0.70166  1.0000
  C   C99       1.0  0.26015  0.07908  0.76563  1.0000
  H   H81       1.0  0.03303  0.37450  0.96164  1.0000
  C   C100      1.0  0.27968  0.02115  0.81193  1.0000
  C   C101      1.0  0.09459  0.33788  0.58477  1.0000
  H   H82       1.0  0.25018  0.17875  0.90296  1.0000
  P   P4        1.0  0.04243  0.32728  0.51696  1.0000
  H   H83       1.0  0.04108  0.44846  0.60403  1.0000
  H   H84       1.0  0.13648  0.20919  0.51251  1.0000
  S   S19       1.0  0.15240  0.03094  0.67053  1.0000
  C   C102      1.0  0.28885  0.05795  0.78916  1.0000
  C   C103      1.0  0.12953  0.40286  0.59997  1.0000
  C   C104      1.0  0.12105  0.36080  0.60994  1.0000
  C   C105      1.0  0.05718  0.27311  0.50740  1.0000
  C   C106      1.0  0.20151  0.01503  0.66613  1.0000
  H   H85       1.0  0.32530  0.42193  0.71844  1.0000
  H   H86       1.0  0.01893  0.02647  0.58101  1.0000
  H   H87       1.0  0.24753  0.17086  0.82445  1.0000
  S   S20       1.0  0.32397  0.48437  0.62415  1.0000
  C   C107      1.0  0.30925  0.16472  0.81763  1.0000
  H   H88       1.0  0.30804  0.16219  0.78296  1.0000
  C   C108      1.0  0.31273  0.17351  0.90733  1.0000
  H   H89       1.0  0.05220  0.38730  0.65239  1.0000
  H   H90       1.0  0.01151  0.14871  0.92586  1.0000
  H   H91       1.0  0.20017  0.07959  0.74578  1.0000
  C   C109      1.0  0.27523  0.16984  0.84103  1.0000
  C   C110      1.0  0.27689  0.17430  0.88572  1.0000
  C   C111      1.0  0.07765  0.35632  0.54835  1.0000
  H   H92       1.0  0.14942  0.42102  0.62002  1.0000
  H   H93       1.0  0.27279  0.06040  0.57550  1.0000
  H   H94       1.0  0.25411  0.03256  0.89349  1.0000
  C   C112      1.0  0.27687  0.02183  0.91480  1.0000
  H   H95       1.0  0.18384  0.01443  0.78486  1.0000
  H   H96       1.0  0.02039  0.38556  0.72335  1.0000
  H   H97       1.0  0.17094  0.02539  0.57734  1.0000
  H   H98       1.0  0.26483  0.46880  0.49132  1.0000
  H   H99       1.0  0.31815  0.06996  0.78880  1.0000
  C   C113      1.0  0.03284  0.41268  0.66174  1.0000
  C   C114      1.0  0.27494  0.49721  0.61411  1.0000
  C   C115      1.0  0.19176  0.36087  0.49357  1.0000
  C   C116      1.0  0.27192  0.02710  0.95902  1.0000
  C   C117      1.0  0.22224  0.06377  0.76480  1.0000
  H   H100      1.0  0.11790  0.28331  0.52282  1.0000
  H   H101      1.0  0.24557  0.04126  0.97119  1.0000
  H   H102      1.0  0.24242  0.22765  0.97180  1.0000
  C   C118      1.0  0.09599  0.26086  0.51260  1.0000
  C   C119      1.0  0.21302  0.02692  0.78689  1.0000
  C   C120      1.0  0.07978  0.18886  0.49199  1.0000
  C   C121      1.0  0.10699  0.21875  0.50577  1.0000
  H   H103      1.0  0.17242  0.34501  0.51545  1.0000
  C   C122      1.0  0.31699  0.09041  0.53794  1.0000
  C   C123      1.0  0.32254  0.01997  0.56786  1.0000
  H   H104      1.0  0.15729  0.41772  0.48986  1.0000
  H   H105      1.0  0.08841  0.15614  0.48703  1.0000
  H   H106      1.0  0.04219  0.97992  0.16226  1.0000
  S   S21       1.0  0.03954  0.68386  0.11774  1.0000
  S   S22       1.0  0.32768  0.90581  0.04148  1.0000
  Fe  Fe11      1.0  0.08510  0.57892  0.15812  1.0000
  S   S23       1.0  0.10694  0.61179  0.09953  1.0000
  H   H107      1.0  0.10891  0.55009  0.28216  1.0000
  Fe  Fe12      1.0  0.10109  0.67151  0.13920  1.0000
  S   S24       1.0  0.14436  0.72375  0.15523  1.0000
  Fe  Fe13      1.0  0.04351  0.62029  0.08346  1.0000
  H   H108      1.0  0.26051  0.82690  0.47240  1.0000
  S   S25       1.0  0.08344  0.63757  0.19914  1.0000
  H   H109      1.0  0.01928  0.90388  0.27290  1.0000
  C   C124      1.0  0.06302  0.90840  0.44492  1.0000
  S   S26       1.0  0.28802  0.79110  0.04972  1.0000
  C   C125      1.0  0.18556  0.73929  0.12604  1.0000
  C   C126      1.0  0.21047  0.76964  0.14447  1.0000
  C   C127      1.0  0.24208  0.78550  0.12159  1.0000
  C   C128      1.0  0.24942  0.77069  0.08012  1.0000
  C   C129      1.0  0.22540  0.73911  0.06217  1.0000
  C   C130      1.0  0.19352  0.72344  0.08502  1.0000
  H   H110      1.0  0.20501  0.78134  0.17653  1.0000
  H   H111      1.0  0.26057  0.80939  0.13595  1.0000
  H   H112      1.0  0.23127  0.72705  0.03030  1.0000
  H   H113      1.0  0.17507  0.69939  0.07084  1.0000
  H   H114      1.0  0.30237  0.60652  0.15536  1.0000
  C   C131      1.0  0.18478  0.54383  0.17460  1.0000
  C   C132      1.0  0.22509  0.53794  0.17630  1.0000
  C   C133      1.0  0.13372  0.55322  0.44131  1.0000
  C   C134      1.0  0.22770  0.96703  0.13584  1.0000
  C   C135      1.0  0.18820  0.97197  0.14520  1.0000
  H   H115      1.0  0.17275  0.57550  0.17297  1.0000
  H   H116      1.0  0.24393  0.56523  0.17596  1.0000
  H   H117      1.0  0.24084  0.93586  0.13606  1.0000
  H   H118      1.0  0.17090  0.94461  0.15279  1.0000
  H   H119      1.0  0.08581  0.99723  0.07077  1.0000
  H   H120      1.0  0.05618  0.69128  0.99388  1.0000
  H   H121      1.0  0.17831  0.79410  0.00967  1.0000
  H   H122      1.0  0.06297  0.92461  0.21354  1.0000
  C   C136      1.0  0.08742  0.63681  0.39218  1.0000
  C   C137      1.0  0.32200  0.68661  0.08350  1.0000
  H   H123      1.0  0.12883  0.85012  0.99926  1.0000
  C   C138      1.0  0.25012  0.00261  0.12665  1.0000
  H   H124      1.0  0.06398  0.99998  0.99495  1.0000
  H   H125      1.0  0.21000  0.59536  0.24690  1.0000
  C   C139      1.0  0.23765  0.66941  0.47198  1.0000
  C   C140      1.0  0.13213  0.66100  0.30703  1.0000
  C   C141      1.0  0.05507  0.79910  0.05551  1.0000
  H   H126      1.0  0.14918  0.75093  0.44234  1.0000
  C   C142      1.0  0.10214  0.65924  0.42783  1.0000
  H   H127      1.0  0.09051  0.96899  0.43348  1.0000
  C   C143      1.0  0.15059  0.67792  0.27128  1.0000
  C   C144      1.0  0.34127  0.61709  0.39025  1.0000
  H   H128      1.0  0.22661  0.69089  0.44791  1.0000
  H   H129      1.0  0.11045  0.77808  0.08144  1.0000
  H   H130      1.0  0.13417  0.86517  0.08676  1.0000
  H   H131      1.0  0.10322  0.82391  0.23569  1.0000
  C   C145      1.0  0.30698  0.75486  0.38528  1.0000
  C   C146      1.0  0.27927  0.76376  0.45593  1.0000
  H   H132      1.0  0.31838  0.57439  0.29261  1.0000
  H   H133      1.0  0.24476  0.56816  0.43308  1.0000
  H   H134      1.0  0.10406  0.79785  0.48044  1.0000
  C   C147      1.0  0.02801  0.67798  0.39658  1.0000
  H   H135      1.0  0.02491  0.72312  0.44870  1.0000
  H   H136      1.0  0.20450  0.85920  0.38704  1.0000
  C   C148      1.0  0.14196  0.62029  0.32171  1.0000
  C   C149      1.0  0.06739  0.94755  0.42437  1.0000
  C   C150      1.0  0.08666  0.77126  0.05966  1.0000
  C   C151      1.0  0.28622  0.65327  0.35875  1.0000
  C   C152      1.0  0.13023  0.85602  0.45813  1.0000
  C   C153      1.0  0.12640  0.81182  0.46103  1.0000
  C   C154      1.0  0.05040  0.64680  0.37636  1.0000
  P   P5        1.0  0.11616  0.59652  0.36579  1.0000
  Fe  Fe14      1.0  0.32983  0.93527  0.10685  1.0000
  H   H137      1.0  0.30497  0.95864  0.20950  1.0000
  Fe  Fe15      1.0  0.32727  0.84351  0.07563  1.0000
  C   C155      1.0  0.17874  0.65436  0.24972  1.0000
  P   P6        1.0  0.31082  0.68439  0.43848  1.0000
  H   H138      1.0  0.11111  0.71108  0.04104  1.0000
  C   C156      1.0  0.03470  0.93925  0.21665  1.0000
  H   H139      1.0  0.26734  0.62971  0.29692  1.0000
  H   H140      1.0  0.04905  0.55361  0.40357  1.0000
  H   H141      1.0  0.05178  0.82386  0.18100  1.0000
  C   C157      1.0  0.32940  0.70357  0.12429  1.0000
  S   S27       1.0  0.02204  0.58421  0.14011  1.0000
  C   C158      1.0  0.04175  0.95939  0.39160  1.0000
  Fe  Fe16      1.0  0.02259  0.64693  0.17564  1.0000
  C   C159      1.0  0.17989  0.80199  0.41227  1.0000
  H   H142      1.0  0.03043  0.84982  0.44561  1.0000
  C   C160      1.0  0.03370  0.88062  0.43098  1.0000
  H   H143      1.0  0.13074  0.65253  0.44038  1.0000
  H   H144      1.0  0.04474  0.98993  0.37636  1.0000
  H   H145      1.0  0.14202  0.70868  0.25904  1.0000
  C   C161      1.0  0.16008  0.50888  0.17652  1.0000
  C   C162      1.0  0.15830  0.53734  0.47322  1.0000
  H   H146      1.0  0.26362  0.67708  0.36026  1.0000
  S   S28       1.0  0.32447  0.87331  0.14127  1.0000
  H   H147      1.0  0.08030  0.93123  0.11148  1.0000
  H   H148      1.0  0.16097  0.90693  0.42740  1.0000
  C   C163      1.0  0.07962  0.69030  0.44809  1.0000
  C   C164      1.0  0.18921  0.57996  0.40323  1.0000
  H   H149      1.0  0.17006  0.84503  0.21686  1.0000
  P   P7        1.0  0.05148  0.84616  0.08886  1.0000
  C   C165      1.0  0.08886  0.84541  0.12976  1.0000
  C   C166      1.0  0.05619  0.89447  0.05834  1.0000
  C   C167      1.0  0.07119  0.93128  0.07815  1.0000
  H   H150      1.0  0.03136  0.86915  0.99932  1.0000
  C   C168      1.0  0.05629  0.72191  0.00992  1.0000
  H   H151      1.0  0.10962  0.67948  0.32224  1.0000
  C   C169      1.0  0.27740  0.66067  0.47524  1.0000
  C   C170      1.0  0.08054  0.83356  0.17201  1.0000
  C   C171      1.0  0.10972  0.83367  0.20334  1.0000
  C   C172      1.0  0.14736  0.84544  0.19273  1.0000
  C   C173      1.0  0.15598  0.85667  0.15066  1.0000
  C   C174      1.0  0.12690  0.85663  0.11926  1.0000
  H   H152      1.0  0.09068  0.70679  0.47625  1.0000
  H   H153      1.0  0.18537  0.86491  0.14221  1.0000
  H   H154      1.0  0.19181  0.66703  0.22103  1.0000
  C   C175      1.0  0.08741  0.53854  0.30409  1.0000
  C   C176      1.0  0.07438  0.96895  0.05518  1.0000
  C   C177      1.0  0.18879  0.61398  0.26417  1.0000
  C   C178      1.0  0.02435  0.78806  0.02776  1.0000
  C   C179      1.0  0.17042  0.59696  0.29985  1.0000
  H   H155      1.0  0.17755  0.56510  0.30978  1.0000
  C   C180      1.0  0.19825  0.54234  0.47002  1.0000
  H   H156      1.0  0.32476  0.57811  0.08562  1.0000
  H   H157      1.0  0.29351  0.67433  0.07567  1.0000
  H   H158      1.0  0.25867  0.52660  0.28093  1.0000
  H   H159      1.0  0.20197  0.59784  0.37765  1.0000
  C   C181      1.0  0.18304  0.84597  0.40813  1.0000
  C   C182      1.0  0.29614  0.73744  0.42467  1.0000
  C   C183      1.0  0.21375  0.56347  0.43495  1.0000
  C   C184      1.0  0.30037  0.79784  0.37707  1.0000
  C   C185      1.0  0.33133  0.59368  0.15268  1.0000
  H   H160      1.0  0.19926  0.78111  0.39490  1.0000
  H   H161      1.0  0.03892  0.63044  0.34841  1.0000
  C   C186      1.0  0.04398  0.89634  0.01530  1.0000
  C   C187      1.0  0.08724  0.73296  0.03676  1.0000
  C   C188      1.0  0.15839  0.87292  0.43106  1.0000
  C   C189      1.0  0.05395  0.54009  0.37201  1.0000
  C   C190      1.0  0.15162  0.78497  0.43879  1.0000
  C   C191      1.0  0.08376  0.55534  0.34586  1.0000
  C   C192      1.0  0.31361  0.64976  0.39207  1.0000
  C   C193      1.0  0.14887  0.57430  0.40566  1.0000
  C   C194      1.0  0.01029  0.92781  0.25011  1.0000
  C   C195      1.0  0.27293  0.80672  0.44774  1.0000
  C   C196      1.0  0.28804  0.62625  0.32295  1.0000
  H   H162      1.0  0.30665  0.70434  0.14795  1.0000
  H   H163      1.0  0.10285  0.55020  0.44551  1.0000
  C   C197      1.0  0.02286  0.97016  0.18752  1.0000
  C   C198      1.0  0.28360  0.82381  0.40840  1.0000
  H   H164      1.0  0.27953  0.85735  0.40253  1.0000
  H   H165      1.0  0.01566  0.74519  0.21268  1.0000
  C   C199      1.0  0.04252  0.69952  0.43260  1.0000
  S   S29       1.0  0.01731  0.60892  0.01653  1.0000
  C   C200      1.0  0.01229  0.93179  0.37839  1.0000
  C   C201      1.0  0.33369  0.96829  0.21991  1.0000
  C   C202      1.0  0.02501  0.74962  0.00503  1.0000
  S   S30       1.0  0.29982  0.99838  0.11564  1.0000
  S   S31       1.0  0.10954  0.51599  0.18028  1.0000
  C   C203      1.0  0.34271  0.53302  0.48250  1.0000
  C   C204      1.0  0.06241  0.97041  0.01235  1.0000
  H   H166      1.0  0.30930  0.81129  0.34687  1.0000
  C   C205      1.0  0.04722  0.93414  0.99243  1.0000
  C   C206      1.0  0.31672  0.59504  0.32054  1.0000
  H   H167      1.0  0.02198  0.52673  0.05851  1.0000
  H   H168      1.0  0.32180  0.73574  0.36151  1.0000
  Fe  Fe17      1.0  0.05308  0.65345  0.63649  1.0000
  S   S32       1.0  0.04483  0.68579  0.57325  1.0000
  C   C207      1.0  0.26476  0.61404  0.53509  1.0000
  Fe  Fe18      1.0  0.11338  0.59073  0.59902  1.0000
  S   S33       1.0  0.10935  0.62054  0.53430  1.0000
  H   H169      1.0  0.20784  0.96030  0.55941  1.0000
  Fe  Fe19      1.0  0.10974  0.68238  0.56995  1.0000
  S   S34       1.0  0.14186  0.73904  0.54458  1.0000
  Fe  Fe20      1.0  0.04529  0.62025  0.54389  1.0000
  H   H170      1.0  0.27516  0.59294  0.55989  1.0000
  S   S35       1.0  0.11852  0.65321  0.63490  1.0000
  S   S36       1.0  0.04862  0.58764  0.60715  1.0000
  H   H171      1.0  0.29008  0.87179  0.74418  1.0000
  S   S37       1.0  0.31659  0.76018  0.60388  1.0000
  C   C208      1.0  0.18974  0.74609  0.56308  1.0000
  C   C209      1.0  0.20974  0.78354  0.55358  1.0000
  C   C210      1.0  0.24835  0.78907  0.56728  1.0000
  C   C211      1.0  0.26736  0.75655  0.58934  1.0000
  C   C212      1.0  0.24737  0.71912  0.59851  1.0000
  C   C213      1.0  0.20848  0.71424  0.58618  1.0000
  H   H172      1.0  0.19535  0.80831  0.53569  1.0000
  H   H173      1.0  0.26368  0.81797  0.56000  1.0000
  H   H174      1.0  0.26196  0.69381  0.61542  1.0000
  H   H175      1.0  0.19329  0.68538  0.59376  1.0000
  C   C214      1.0  0.13124  0.75271  0.92244  1.0000
  C   C215      1.0  0.22088  0.54664  0.62318  1.0000
  H   H176      1.0  0.18137  0.77753  0.77486  1.0000
  S   S38       1.0  0.33566  0.88814  0.58266  1.0000
  C   C216      1.0  0.24937  0.95776  0.66999  1.0000
  C   C217      1.0  0.07398  0.82266  0.59273  1.0000
  H   H177      1.0  0.20944  0.57584  0.63649  1.0000
  C   C218      1.0  0.15748  0.00051  0.55822  1.0000
  H   H178      1.0  0.25590  0.92435  0.67304  1.0000
  H   H179      1.0  0.18750  0.94869  0.67118  1.0000
  H   H180      1.0  0.08927  0.80063  0.61336  1.0000
  H   H181      1.0  0.31051  0.99423  0.58624  1.0000
  H   H182      1.0  0.07056  0.97458  0.51384  1.0000
  C   C219      1.0  0.04138  0.70286  0.90341  1.0000
  H   H183      1.0  0.21700  0.53092  0.49548  1.0000
  C   C220      1.0  0.03476  0.87932  0.53933  1.0000
  C   C221      1.0  0.17831  0.96382  0.54791  1.0000
  H   H184      1.0  0.01641  0.57595  0.70920  1.0000
  C   C222      1.0  0.30325  0.86354  0.85210  1.0000
  H   H185      1.0  0.30129  0.52219  0.53227  1.0000
  C   C223      1.0  0.27947  0.98730  0.66970  1.0000
  H   H186      1.0  0.01946  0.90187  0.51953  1.0000
  C   C224      1.0  0.30146  0.92408  0.78724  1.0000
  C   C225      1.0  0.16055  0.93109  0.52440  1.0000
  C   C226      1.0  0.29077  0.63251  0.50669  1.0000
  H   H187      1.0  0.07079  0.69613  0.91316  1.0000
  C   C227      1.0  0.07264  0.86696  0.52942  1.0000
  C   C228      1.0  0.03605  0.83477  0.60201  1.0000
  C   C229      1.0  0.30904  0.93700  0.82974  1.0000
  C   C230      1.0  0.29551  0.88129  0.77721  1.0000
  C   C231      1.0  0.21180  0.65105  0.50054  1.0000
  C   C232      1.0  0.15819  0.75622  0.95607  1.0000
  C   C233      1.0  0.13543  0.73757  0.75097  1.0000
  H   H188      1.0  0.01583  0.82678  0.70431  1.0000
  C   C234      1.0  0.03900  0.89411  0.81896  1.0000
  C   C235      1.0  0.10278  0.78408  0.91645  1.0000
  C   C236      1.0  0.01662  0.86346  0.57561  1.0000
  H   H189      1.0  0.32127  0.62519  0.50962  1.0000
  C   C237      1.0  0.05595  0.85440  0.82568  1.0000
  C   C238      1.0  0.31047  0.00232  0.89881  1.0000
  H   H190      1.0  0.30370  0.84005  0.87728  1.0000
  C   C239      1.0  0.21061  0.97166  0.66895  1.0000
  H   H191      1.0  0.13295  0.72568  0.90084  1.0000
  H   H192      1.0  0.14596  0.79995  0.83974  1.0000
  H   H193      1.0  0.08154  0.84460  0.94059  1.0000
  H   H194      1.0  0.33261  0.71290  0.52468  1.0000
  C   C240      1.0  0.33935  0.98917  0.92784  1.0000
  H   H195      1.0  0.17997  0.73186  0.96063  1.0000
  H   H196      1.0  0.29982  0.94713  0.76170  1.0000
  H   H197      1.0  0.04922  0.61083  0.77039  1.0000
  C   C241      1.0  0.19629  0.51867  0.60111  1.0000
  C   C242      1.0  0.12188  0.93514  0.51076  1.0000
  C   C243      1.0  0.13244  0.77795  0.81734  1.0000
  C   C244      1.0  0.12939  0.82284  0.97788  1.0000
  H   H198      1.0  0.04858  0.72340  0.79880  1.0000
  H   H199      1.0  0.23396  0.97691  0.82708  1.0000
  H   H200      1.0  0.15091  0.72796  0.72237  1.0000
  H   H201      1.0  0.08485  0.70092  0.73488  1.0000
  S   S39       1.0  0.32830  0.97162  0.67778  1.0000
  C   C245      1.0  0.22530  0.62332  0.53203  1.0000
  H   H202      1.0  0.20515  0.60938  0.55435  1.0000
  C   C246      1.0  0.30986  0.90628  0.86217  1.0000
  C   C247      1.0  0.29638  0.85100  0.80960  1.0000
  C   C248      1.0  0.15256  0.76545  0.78058  1.0000
  H   H203      1.0  0.31509  0.91492  0.89531  1.0000
  C   C249      1.0  0.03178  0.74118  0.88330  1.0000
  S   S40       1.0  0.01554  0.66998  0.69443  1.0000
  H   H204      1.0  0.27868  0.55706  0.64789  1.0000
  H   H205      1.0  0.33661  0.82210  0.96465  1.0000
  H   H206      1.0  0.27232  0.75154  0.48731  1.0000
  C   C250      1.0  0.09814  0.72232  0.75803  1.0000
  C   C251      1.0  0.26004  0.53581  0.62980  1.0000
  C   C252      1.0  0.09253  0.83939  0.55703  1.0000
  C   C253      1.0  0.10227  0.81932  0.94447  1.0000
  P   P8        1.0  0.06891  0.77975  0.87177  1.0000
  C   C254      1.0  0.09496  0.76261  0.82471  1.0000
  C   C255      1.0  0.04661  0.83079  0.86214  1.0000
  S   S41       1.0  0.14595  0.52804  0.59631  1.0000
  C   C256      1.0  0.07777  0.73497  0.79456  1.0000
  H   H207      1.0  0.07580  0.84223  0.80195  1.0000
  H   H208      1.0  0.12245  0.83097  0.55126  1.0000
  C   C257      1.0  0.10097  0.97170  0.52208  1.0000
  H   H209      1.0  0.29167  0.81784  0.80170  1.0000
  H   H210      1.0  0.02712  0.59791  0.84477  1.0000
  H   H211      1.0  0.03693  0.93575  0.95957  1.0000
  C   C258      1.0  0.01951  0.84726  0.89126  1.0000
  H   H212      1.0  0.03842  0.75725  0.67493  1.0000
  H   H213      1.0  0.04561  0.91176  0.79029  1.0000
  P   P9        1.0  0.31634  0.99275  0.84183  1.0000
  H   H214      1.0  0.02037  0.64346  0.92777  1.0000
  H   H215      1.0  0.02164  0.82208  0.62964  1.0000
  C   C259      1.0  0.30988  0.51430  0.49984  1.0000
  H   H216      1.0  0.14624  0.52217  0.50117  1.0000
  C   C260      1.0  0.33428  0.99464  0.97199  1.0000
  C   C261      1.0  0.01590  0.75831  0.69876  1.0000
  C   C262      1.0  0.11881  0.00437  0.54539  1.0000
  C   C263      1.0  0.01265  0.91055  0.84846  1.0000
  H   H217      1.0  0.17661  0.90218  0.51826  1.0000
  H   H218      1.0  0.18135  0.65903  0.49895  1.0000
  C   C264      1.0  0.24156  0.00566  0.81042  1.0000
  C   C265      1.0  0.02480  0.59016  0.77609  1.0000
  C   C266      1.0  0.01283  0.67264  0.91147  1.0000
  P   P10       1.0  0.09720  0.89123  0.48532  1.0000
  C   C267      1.0  0.01222  0.58307  0.81787  1.0000
  H   H219      1.0  0.01129  0.82934  0.91921  1.0000
  C   C268      1.0  0.15730  0.79130  0.98373  1.0000
  Fe  Fe21      1.0  0.61153  0.08803  0.35924  1.0000
  S   S42       1.0  0.61764  0.10580  0.42879  1.0000
  S   S43       1.0  0.64138  0.03109  0.32956  1.0000
  Fe  Fe22      1.0  0.54735  0.15358  0.34299  1.0000
  S   S44       1.0  0.54787  0.17530  0.41169  1.0000
  S   S45       1.0  0.50765  0.17652  0.28903  1.0000
  Fe  Fe23      1.0  0.61263  0.17294  0.40577  1.0000
  S   S46       1.0  0.64489  0.22857  0.43499  1.0000
  Fe  Fe24      1.0  0.55258  0.10615  0.42891  1.0000
  H   H220      1.0  0.37830  0.42964  0.33237  1.0000
  S   S47       1.0  0.61206  0.15531  0.33569  1.0000
  S   S48       1.0  0.54664  0.08417  0.36059  1.0000
  H   H221      1.0  0.42011  0.14572  0.06796  1.0000
  C   C269      1.0  0.45013  0.21121  0.11974  1.0000
  Fe  Fe25      1.0  0.39140  0.37495  0.20240  1.0000
  S   S49       1.0  0.39405  0.34037  0.13984  1.0000
  S   S50       1.0  0.43042  0.35856  0.25933  1.0000
  Fe  Fe26      1.0  0.38864  0.40387  0.10811  1.0000
  S   S51       1.0  0.42382  0.41726  0.04800  1.0000
  C   C270      1.0  0.59953  0.46974  0.08485  1.0000
  S   S52       1.0  0.39080  0.43913  0.17083  1.0000
  H   H222      1.0  0.40806  0.02288  0.37699  1.0000
  H   H223      1.0  0.45395  0.48385  0.10480  1.0000
  H   H224      1.0  0.50688  0.25457  0.34160  1.0000
  P   P11       1.0  0.50375  0.24174  0.00736  1.0000
  C   C271      1.0  0.59325  0.50536  0.05935  1.0000
  H   H225      1.0  0.47561  0.32439  0.32938  1.0000
  H   H226      1.0  0.57600  0.30503  0.37135  1.0000
  H   H227      1.0  0.43165  0.28053  0.20772  1.0000
  H   H228      1.0  0.49156  0.46385  0.40568  1.0000
  H   H229      1.0  0.46339  0.21094  0.21984  1.0000
  H   H230      1.0  0.50935  0.03987  0.03635  1.0000
  C   C272      1.0  0.48750  0.22786  0.28144  1.0000
  C   C273      1.0  0.46621  0.23574  0.24370  1.0000
  C   C274      1.0  0.44828  0.27528  0.23670  1.0000
  C   C275      1.0  0.45188  0.30782  0.26725  1.0000
  C   C276      1.0  0.47313  0.29991  0.30511  1.0000
  C   C277      1.0  0.49089  0.26021  0.31221  1.0000
  C   C278      1.0  0.45560  0.47970  0.45948  1.0000
  H   H231      1.0  0.46975  0.08846  0.27139  1.0000
  C   C279      1.0  0.66109  0.28856  0.32010  1.0000
  C   C280      1.0  0.38310  0.02282  0.22616  1.0000
  C   C281      1.0  0.56645  0.18613  0.99787  1.0000
  C   C282      1.0  0.37457  0.35842  0.39133  1.0000
  H   H232      1.0  0.53839  0.09025  0.25224  1.0000
  C   C283      1.0  0.42016  0.47922  0.32479  1.0000
  C   C284      1.0  0.64700  0.50075  0.44430  1.0000
  H   H233      1.0  0.34564  0.48051  0.38740  1.0000
  C   C285      1.0  0.63757  0.39529  0.18791  1.0000
  C   C286      1.0  0.43184  0.13294  0.42717  1.0000
  H   H234      1.0  0.34354  0.06383  0.29055  1.0000
  C   C287      1.0  0.62365  0.28112  0.33475  1.0000
  C   C288      1.0  0.44331  0.07888  0.37305  1.0000
  H   H235      1.0  0.48090  0.15387  0.99129  1.0000
  H   H236      1.0  0.36893  0.19148  0.03791  1.0000
  H   H237      1.0  0.45620  0.19190  0.14754  1.0000
  C   C289      1.0  0.46287  0.49078  0.07250  1.0000
  C   C290      1.0  0.41487  0.23260  0.11627  1.0000
  H   H238      1.0  0.50493  0.39833  0.02340  1.0000
  H   H239      1.0  0.36690  0.21953  0.46949  1.0000
  C   C291      1.0  0.46961  0.23901  0.05069  1.0000
  H   H240      1.0  0.60752  0.45409  0.33746  1.0000
  C   C292      1.0  0.37520  0.16145  0.02251  1.0000
  C   C293      1.0  0.56899  0.23349  0.05926  1.0000
  C   C294      1.0  0.57373  0.36484  0.44708  1.0000
  H   H241      1.0  0.61171  0.31021  0.45047  1.0000
  P   P12       1.0  0.59847  0.38899  0.40279  1.0000
  C   C295      1.0  0.56510  0.41196  0.36476  1.0000
  C   C296      1.0  0.63091  0.42769  0.42630  1.0000
  C   C297      1.0  0.35937  0.14424  0.18045  1.0000
  C   C298      1.0  0.57802  0.44271  0.33594  1.0000
  H   H242      1.0  0.43860  0.46778  0.35043  1.0000
  C   C299      1.0  0.51520  0.44352  0.30111  1.0000
  H   H243      1.0  0.61146  0.37783  0.19456  1.0000
  H   H244      1.0  0.37890  0.27222  0.07698  1.0000
  C   C300      1.0  0.62366  0.34960  0.37115  1.0000
  C   C301      1.0  0.60493  0.31153  0.36004  1.0000
  H   H245      1.0  0.37149  0.04852  0.43940  1.0000
  C   C302      1.0  0.34654  0.38618  0.40740  1.0000
  H   H246      1.0  0.62006  0.22872  0.09915  1.0000
  H   H247      1.0  0.63977  0.03542  0.03319  1.0000
  C   C303      1.0  0.62102  0.47091  0.42736  1.0000
  H   H248      1.0  0.59942  0.30816  0.14435  1.0000
  C   C304      1.0  0.50240  0.41235  0.32911  1.0000
  C   C305      1.0  0.61283  0.43165  0.06642  1.0000
  H   H249      1.0  0.36334  0.17338  0.37026  1.0000
  C   C306      1.0  0.35954  0.09269  0.29698  1.0000
  C   C307      1.0  0.51709  0.29512  0.99334  1.0000
  H   H250      1.0  0.47312  0.40041  0.32623  1.0000
  C   C308      1.0  0.58707  0.32640  0.46417  1.0000
  C   C309      1.0  0.36161  0.47271  0.28236  1.0000
  C   C310      1.0  0.53811  0.31052  0.15478  1.0000
  C   C311      1.0  0.50393  0.33345  0.14871  1.0000
  C   C312      1.0  0.50457  0.37190  0.12685  1.0000
  C   C313      1.0  0.53949  0.38779  0.11143  1.0000
  C   C314      1.0  0.57413  0.36506  0.11757  1.0000
  C   C315      1.0  0.57307  0.32610  0.13904  1.0000
  P   P13       1.0  0.62013  0.38576  0.10001  1.0000
  C   C316      1.0  0.66074  0.35756  0.35495  1.0000
  H   H251      1.0  0.39385  0.23094  0.14180  1.0000
  H   H252      1.0  0.50384  0.19608  0.08988  1.0000
  H   H253      1.0  0.59370  0.48192  0.41425  1.0000
  C   C317      1.0  0.37165  0.10192  0.17669  1.0000
  H   H254      1.0  0.47338  0.13856  0.37648  1.0000
  H   H255      1.0  0.63169  0.40186  0.00687  1.0000
  H   H256      1.0  0.43027  0.15541  0.25667  1.0000
  H   H257      1.0  0.60937  0.25134  0.32742  1.0000
  C   C318      1.0  0.54927  0.21800  0.02283  1.0000
  C   C319      1.0  0.62080  0.43025  0.02224  1.0000
  H   H258      1.0  0.64983  0.17180  0.05478  1.0000
  H   H259      1.0  0.47695  0.32160  0.16130  1.0000
  H   H260      1.0  0.52771  0.47320  0.18671  1.0000
  C   C320      1.0  0.51548  0.37122  0.00550  1.0000
  C   C321      1.0  0.50379  0.33039  0.01672  1.0000
  C   C322      1.0  0.52724  0.39637  0.36069  1.0000
  C   C323      1.0  0.41456  0.05368  0.39088  1.0000
  C   C324      1.0  0.61480  0.46611  0.99696  1.0000
  C   C325      1.0  0.45179  0.46360  0.03895  1.0000
  C   C326      1.0  0.45173  0.11860  0.39098  1.0000
  H   H261      1.0  0.46155  0.49053  0.21042  1.0000
  C   C327      1.0  0.40420  0.13557  0.03969  1.0000
  H   H262      1.0  0.59196  0.32789  0.03359  1.0000
  C   C328      1.0  0.48011  0.48924  0.42525  1.0000
  H   H263      1.0  0.43847  0.16405  0.44032  1.0000
  H   H264      1.0  0.42679  0.27807  0.01890  1.0000
  H   H265      1.0  0.55842  0.07803  0.17696  1.0000
  C   C329      1.0  0.41216  0.09619  0.02098  1.0000
  C   C330      1.0  0.36885  0.33842  0.35164  1.0000
  C   C331      1.0  0.38579  0.45795  0.31503  1.0000
  H   H266      1.0  0.43972  0.06369  0.13876  1.0000
  C   C332      1.0  0.40654  0.25623  0.07970  1.0000
  C   C333      1.0  0.39426  0.06815  0.42673  1.0000
  C   C334      1.0  0.65958  0.41054  0.22266  1.0000
  C   C335      1.0  0.65678  0.02476  0.00611  1.0000
  C   C336      1.0  0.64395  0.34483  0.06879  1.0000
  C   C337      1.0  0.39911  0.16829  0.31441  1.0000
  H   H267      1.0  0.36630  0.16327  0.20843  1.0000
  H   H268      1.0  0.56303  0.48336  0.28323  1.0000
  C   C338      1.0  0.64902  0.40342  0.14558  1.0000
  H   H269      1.0  0.47790  0.38951  0.12188  1.0000
  H   H270      1.0  0.49288  0.02098  0.42367  1.0000
  H   H271      1.0  0.61534  0.14495  0.98965  1.0000
  H   H272      1.0  0.43445  0.07615  0.03456  1.0000
  H   H273      1.0  0.53279  0.41637  0.45533  1.0000
  C   C339      1.0  0.60082  0.50349  0.01547  1.0000
  H   H274      1.0  0.40103  0.35298  0.40951  1.0000
  C   C340      1.0  0.49464  0.02582  0.00899  1.0000
  H   H275      1.0  0.45904  0.06771  0.34531  1.0000
  C   C341      1.0  0.46476  0.47219  0.99725  1.0000
  C   C342      1.0  0.44914  0.07719  0.20639  1.0000
  C   C343      1.0  0.46076  0.06982  0.16387  1.0000
  C   C344      1.0  0.50002  0.07003  0.15331  1.0000
  C   C345      1.0  0.52801  0.07746  0.18509  1.0000
  C   C346      1.0  0.43372  0.25950  0.04699  1.0000
  C   C347      1.0  0.51677  0.08405  0.22753  1.0000
  P   P14       1.0  0.39830  0.07714  0.21996  1.0000
  C   C348      1.0  0.34860  0.32103  0.99425  1.0000
  C   C349      1.0  0.40336  0.10751  0.44577  1.0000
  C   C350      1.0  0.38867  0.10612  0.26907  1.0000
  C   C351      1.0  0.47730  0.21403  0.08694  1.0000
  H   H276      1.0  0.55650  0.25879  0.07833  1.0000
  C   C352      1.0  0.55297  0.45894  0.30468  1.0000
  H   H277      1.0  0.51686  0.37165  0.38152  1.0000
  H   H278      1.0  0.59340  0.47170  0.11880  1.0000
  C   C353      1.0  0.37015  0.15474  0.34200  1.0000
  H   H279      1.0  0.39097  0.31758  0.33875  1.0000
  C   C354      1.0  0.40826  0.14413  0.27811  1.0000
  C   C355      1.0  0.62269  0.32234  0.03746  1.0000
  H   H280      1.0  0.50874  0.06444  0.12044  1.0000
  C   C356      1.0  0.35381  0.14801  0.98651  1.0000
  H   H281      1.0  0.53744  0.28093  0.17224  1.0000
  H   H282      1.0  0.37113  0.04615  0.13544  1.0000
  C   C357      1.0  0.47758  0.08341  0.23825  1.0000
  H   H283      1.0  0.41473  0.19744  0.32120  1.0000
  H   H284      1.0  0.53890  0.41760  0.09461  1.0000
  C   C358      1.0  0.60496  0.21660  0.07104  1.0000
  H   H285      1.0  0.67350  0.38115  0.44581  1.0000
  H   H286      1.0  0.49584  0.45534  0.27652  1.0000
  C   C359      1.0  0.62177  0.18462  0.04604  1.0000
  C   C360      1.0  0.34523  0.01044  0.21521  1.0000
  H   H287      1.0  0.48452  0.32679  0.04359  1.0000
  C   C361      1.0  0.36214  0.07891  0.13927  1.0000
  C   C362      1.0  0.60249  0.16948  0.00944  1.0000
  C   C363      1.0  0.51995  0.50587  0.19351  1.0000
  S   S53       1.0  0.44144  0.42646  0.46704  1.0000
  C   C364      1.0  0.54295  0.38609  0.46712  1.0000
  H   H288      1.0  0.35643  0.35371  0.00140  1.0000
  H   H289      1.0  0.65042  0.40450  0.25523  1.0000
  C   C365      1.0  0.64122  0.29389  0.00970  1.0000
  H   H290      1.0  0.56499  0.01300  0.27617  1.0000
  H   H291      1.0  0.35189  0.40163  0.43797  1.0000
  C   C366      1.0  0.39105  0.08251  0.98509  1.0000
  C   C367      1.0  0.66599  0.41452  0.44497  1.0000
  C   C368      1.0  0.35043  0.11691  0.33335  1.0000
  C   C369      1.0  0.37235  0.50815  0.25872  1.0000
  H   H292      1.0  0.67538  0.38716  0.36168  1.0000
  C   C370      1.0  0.48424  0.01033  0.45499  1.0000
  H   H293      1.0  0.67605  0.26428  0.30183  1.0000
  C   C371      1.0  0.48805  0.50789  0.98904  1.0000
  H   H294      1.0  0.62493  0.27740  0.98473  1.0000
  Fe  Fe27      1.0  0.61004  0.09312  0.82195  1.0000
  S   S54       1.0  0.62247  0.11372  0.88992  1.0000
  C   C372      1.0  0.36155  0.10800  0.96821  1.0000
  Fe  Fe28      1.0  0.54073  0.15354  0.81206  1.0000
  S   S55       1.0  0.54853  0.17741  0.87944  1.0000
  S   S56       1.0  0.48678  0.17321  0.77390  1.0000
  Fe  Fe29      1.0  0.61204  0.17964  0.86532  1.0000
  S   S57       1.0  0.63976  0.24091  0.88933  1.0000
  Fe  Fe30      1.0  0.55793  0.10962  0.89866  1.0000
  S   S58       1.0  0.52373  0.08013  0.48837  1.0000
  S   S59       1.0  0.60395  0.15962  0.79607  1.0000
  S   S60       1.0  0.54598  0.08508  0.83230  1.0000
  H   H295      1.0  0.35247  0.35156  0.73752  1.0000
  C   C373      1.0  0.38091  0.45234  0.71580  1.0000
  Fe  Fe31      1.0  0.41807  0.35959  0.61271  1.0000
  S   S61       1.0  0.41381  0.33613  0.54476  1.0000
  S   S62       1.0  0.46893  0.33652  0.65419  1.0000
  Fe  Fe32      1.0  0.40785  0.40424  0.52511  1.0000
  S   S63       1.0  0.53533  0.08359  0.96194  1.0000
  H   H296      1.0  0.46705  0.40253  0.73416  1.0000
  S   S64       1.0  0.41671  0.42809  0.59208  1.0000
  C   C374      1.0  0.38463  0.04003  0.84935  1.0000
  C   C375      1.0  0.48940  0.48897  0.75429  1.0000
  H   H297      1.0  0.53992  0.24221  0.75224  1.0000
  H   H298      1.0  0.37239  0.05399  0.87798  1.0000
  S   S65       1.0  0.35373  0.35792  0.62418  1.0000
  H   H299      1.0  0.53181  0.30511  0.70552  1.0000
  C   C376      1.0  0.35395  0.08624  0.52001  1.0000
  H   H300      1.0  0.41511  0.26785  0.67615  1.0000
  H   H301      1.0  0.38455  0.31663  0.93845  1.0000
  H   H302      1.0  0.42331  0.20465  0.72265  1.0000
  Fe  Fe33      1.0  0.34963  0.33807  0.55474  1.0000
  C   C377      1.0  0.48228  0.21885  0.74078  1.0000
  C   C378      1.0  0.44707  0.22658  0.71908  1.0000
  C   C379      1.0  0.44234  0.26237  0.69256  1.0000
  C   C380      1.0  0.47292  0.29086  0.68727  1.0000
  C   C381      1.0  0.50800  0.28326  0.70918  1.0000
  C   C382      1.0  0.51270  0.24755  0.73575  1.0000
  C   C383      1.0  0.51201  0.47267  0.57921  1.0000
  C   C384      1.0  0.44202  0.15038  0.53305  1.0000
  H   H303      1.0  0.36727  0.24245  0.92230  1.0000
  C   C385      1.0  0.36446  0.30008  0.95885  1.0000
  H   H304      1.0  0.39388  0.24156  0.59791  1.0000
  C   C386      1.0  0.38525  0.19185  0.55091  1.0000
  C   C387      1.0  0.40736  0.21607  0.57983  1.0000
  C   C388      1.0  0.44677  0.20750  0.58538  1.0000
  C   C389      1.0  0.34493  0.16319  0.83889  1.0000
  H   H305      1.0  0.40483  0.04630  0.51586  1.0000
  H   H306      1.0  0.46384  0.22629  0.60787  1.0000
  H   H307      1.0  0.52861  0.41112  0.60288  1.0000
  P   P15       1.0  0.37431  0.12848  0.48887  1.0000
  C   C390      1.0  0.37567  0.04942  0.52791  1.0000
  H   H308      1.0  0.49444  0.16724  0.56687  1.0000
  H   H309      1.0  0.49992  0.42219  0.67368  1.0000
  C   C391      1.0  0.54289  0.30129  0.95934  1.0000
  C   C392      1.0  0.46401  0.17443  0.56221  1.0000
  C   C393      1.0  0.48255  0.02307  0.93258  1.0000
  C   C394      1.0  0.35628  0.41793  0.72241  1.0000
  C   C395      1.0  0.50170  0.04158  0.96774  1.0000
  C   C396      1.0  0.47367  0.17200  0.96298  1.0000
  H   H310      1.0  0.65762  0.04628  0.56328  1.0000
  C   C397      1.0  0.45595  0.21726  0.88864  1.0000
  C   C398      1.0  0.45082  0.17337  0.88933  1.0000
  C   C399      1.0  0.45876  0.15089  0.92682  1.0000
  P   P16       1.0  0.45425  0.49146  0.71129  1.0000
  C   C400      1.0  0.48124  0.21567  0.96168  1.0000
  C   C401      1.0  0.47074  0.23850  0.92479  1.0000
  C   C402      1.0  0.47702  0.48052  0.79614  1.0000
  H   H311      1.0  0.61658  0.01657  0.88661  1.0000
  C   C403      1.0  0.34662  0.16753  0.88352  1.0000
  H   H312      1.0  0.49422  0.47177  0.86210  1.0000
  C   C404      1.0  0.51473  0.44115  0.61028  1.0000
  H   H313      1.0  0.46517  0.04825  0.78795  1.0000
  C   C405      1.0  0.42114  0.05352  0.83613  1.0000
  H   H314      1.0  0.61782  0.03259  0.62693  1.0000
  H   H315      1.0  0.52377  0.46722  0.54753  1.0000
  C   C406      1.0  0.43621  0.40754  0.73066  1.0000
  C   C407      1.0  0.41147  0.37329  0.73757  1.0000
  H   H316      1.0  0.52302  0.03286  0.73045  1.0000
  C   C408      1.0  0.43723  0.03707  0.79857  1.0000
  H   H317      1.0  0.45574  0.12451  0.51590  1.0000
  C   C409      1.0  0.42129  0.44741  0.71916  1.0000
  H   H318      1.0  0.37440  0.16688  0.89955  1.0000
  H   H319      1.0  0.45676  0.45106  0.97112  1.0000
  C   C410      1.0  0.35981  0.01622  0.55133  1.0000
  C   C411      1.0  0.54311  0.48441  0.82199  1.0000
  H   H320      1.0  0.45000  0.23452  0.85935  1.0000
  H   H321      1.0  0.44127  0.15689  0.86047  1.0000
  H   H322      1.0  0.45498  0.11681  0.92747  1.0000
  H   H323      1.0  0.53905  0.50314  0.71495  1.0000
  H   H324      1.0  0.47486  0.27242  0.92314  1.0000
  C   C412      1.0  0.49804  0.44743  0.65054  1.0000
  H   H325      1.0  0.39754  0.05196  0.97064  1.0000
  C   C413      1.0  0.37153  0.37838  0.73319  1.0000
  C   C414      1.0  0.50383  0.47822  0.82985  1.0000
  H   H326      1.0  0.50047  0.38418  0.51738  1.0000
  H   H327      1.0  0.42347  0.34249  0.74531  1.0000
  H   H328      1.0  0.48801  0.03455  0.90064  1.0000
  H   H329      1.0  0.36777  0.48228  0.70806  1.0000
  H   H330      1.0  0.52279  0.31508  0.54550  1.0000
  C   C415      1.0  0.40270  0.15961  0.52640  1.0000
  H   H331      1.0  0.43694  0.07707  0.85468  1.0000
  C   C416      1.0  0.55433  0.34221  0.94816  1.0000
  H   H332      1.0  0.57395  0.34663  0.92161  1.0000
  H   H333      1.0  0.55412  0.27441  0.94129  1.0000
  H   H334      1.0  0.62089  0.46504  0.96288  1.0000
  H   H335      1.0  0.44661  0.47573  0.80269  1.0000
  H   H336      1.0  0.49267  0.03695  0.56041  1.0000
  Fe  Fe34      1.0  0.35196  0.42444  0.59736  1.0000
  H   H337      1.0  0.35463  0.19854  0.54762  1.0000
  S   S66       1.0  0.64032  0.03769  0.78892  1.0000
  C   C417      1.0  0.47816  0.48522  0.66007  1.0000
  H   H338      1.0  0.34468  0.09639  0.94116  1.0000
  C   C418      1.0  0.53728  0.32910  0.51835  1.0000
  H   H339      1.0  0.56390  0.48262  0.84812  1.0000
  C   C419      1.0  0.64732  0.02083  0.62571  1.0000
  H   H340      1.0  0.55237  0.17413  0.96932  1.0000
  C   C420      1.0  0.35442  0.25792  0.94976  1.0000
  C   C421      1.0  0.67013  0.02885  0.58985  1.0000
  C   C422      1.0  0.52469  0.36810  0.50247  1.0000
  C   C423      1.0  0.49554  0.03342  0.49148  1.0000
  C   C424      1.0  0.55559  0.49343  0.78056  1.0000
  H   H341      1.0  0.37132  0.15928  0.82064  1.0000
  C   C425      1.0  0.66867  0.05389  0.97548  1.0000
  H   H342      1.0  0.57854  0.27811  0.51152  1.0000
  C   C426      1.0  0.48417  0.01921  0.53201  1.0000
  C   C427      1.0  0.52884  0.49588  0.74674  1.0000
  H   H343      1.0  0.58610  0.49871  0.77485  1.0000
  H   H344      1.0  0.66120  0.08709  0.97889  1.0000
  H   H345      1.0  0.42303  0.50568  0.51197  1.0000
  H   H346      1.0  0.54895  0.40906  0.96232  1.0000
  C   C428      1.0  0.56856  0.30833  0.49926  1.0000
  C   C429      1.0  0.54045  0.37724  0.97112  1.0000
  C   C430      1.0  0.36409  0.00936  0.82535  1.0000
  Fe  Fe35      1.0  0.60674  0.60543  0.34131  1.0000
  S   S67       1.0  0.59395  0.63254  0.40689  1.0000
  S   S68       1.0  0.63623  0.54068  0.33930  1.0000
  Fe  Fe36      1.0  0.55513  0.67188  0.29650  1.0000
  S   S69       1.0  0.53812  0.70176  0.35879  1.0000
  S   S70       1.0  0.53427  0.69600  0.23160  1.0000
  Fe  Fe37      1.0  0.60123  0.69623  0.37603  1.0000
  S   S71       1.0  0.62638  0.75657  0.40500  1.0000
  Fe  Fe38      1.0  0.53240  0.63528  0.38351  1.0000
  S   S72       1.0  0.48200  0.61815  0.42634  1.0000
  S   S73       1.0  0.61901  0.66921  0.31209  1.0000
  S   S74       1.0  0.54425  0.60538  0.31956  1.0000
  H   H347      1.0  0.49615  0.76105  0.43446  1.0000
  H   H348      1.0  0.46413  0.78556  0.05098  1.0000
  Fe  Fe39      1.0  0.38978  0.87100  0.13908  1.0000
  S   S75       1.0  0.39242  0.83788  0.07481  1.0000
  S   S76       1.0  0.42102  0.85338  0.20147  1.0000
  Fe  Fe40      1.0  0.39250  0.90382  0.04635  1.0000
  C   C431      1.0  0.56478  0.94697  0.42145  1.0000
  H   H349      1.0  0.57629  0.53062  0.17823  1.0000
  S   S77       1.0  0.39481  0.93645  0.11056  1.0000
  H   H350      1.0  0.63989  0.53423  0.44308  1.0000
  H   H351      1.0  0.42213  0.86877  0.41415  1.0000
  H   H352      1.0  0.49709  0.75574  0.29086  1.0000
  C   C432      1.0  0.48595  0.52662  0.06428  1.0000
  H   H353      1.0  0.38115  0.53451  0.42857  1.0000
  H   H354      1.0  0.45315  0.81692  0.27800  1.0000
  C   C433      1.0  0.45522  0.81201  0.42551  1.0000
  H   H355      1.0  0.45620  0.79219  0.14264  1.0000
  H   H356      1.0  0.45242  0.95620  0.43074  1.0000
  H   H357      1.0  0.49916  0.72998  0.15579  1.0000
  H   H358      1.0  0.34410  0.67526  0.02033  1.0000
  C   C434      1.0  0.50190  0.73918  0.22415  1.0000
  C   C435      1.0  0.48947  0.74923  0.18244  1.0000
  C   C436      1.0  0.46474  0.78407  0.17495  1.0000
  C   C437      1.0  0.45170  0.80886  0.20927  1.0000
  C   C438      1.0  0.46356  0.79838  0.25113  1.0000
  C   C439      1.0  0.48855  0.76376  0.25854  1.0000
  S   S78       1.0  0.52703  0.58153  0.01403  1.0000
  C   C440      1.0  0.46926  0.99146  0.01508  1.0000
  C   C441      1.0  0.57808  0.96370  0.46056  1.0000
  C   C442      1.0  0.54722  0.53813  0.18854  1.0000
  C   C443      1.0  0.51971  0.76434  0.07334  1.0000
  H   H359      1.0  0.36168  0.61253  0.41638  1.0000
  C   C444      1.0  0.62867  0.85831  0.33300  1.0000
  C   C445      1.0  0.47353  0.56464  0.43970  1.0000
  H   H360      1.0  0.59207  0.75783  0.27237  1.0000
  H   H361      1.0  0.35640  0.98384  0.99424  1.0000
  C   C446      1.0  0.39457  0.72114  0.10286  1.0000
  H   H362      1.0  0.36528  0.56589  0.35251  1.0000
  H   H363      1.0  0.39060  0.68332  0.40615  1.0000
  C   C447      1.0  0.53153  0.68877  0.06892  1.0000
  H   H364      1.0  0.41622  0.92776  0.26309  1.0000
  C   C448      1.0  0.54413  0.72955  0.07993  1.0000
  C   C449      1.0  0.67042  0.87828  0.98982  1.0000
  H   H365      1.0  0.55019  0.66159  0.07415  1.0000
  H   H366      1.0  0.35086  0.90560  0.23963  1.0000
  C   C450      1.0  0.38712  0.70508  0.06149  1.0000
  C   C451      1.0  0.39290  0.57447  0.18559  1.0000
  C   C452      1.0  0.43147  0.51401  0.30042  1.0000
  H   H367      1.0  0.43243  0.79701  0.44352  1.0000
  C   C453      1.0  0.38107  0.56053  0.10977  1.0000
  C   C454      1.0  0.49097  0.79183  0.42046  1.0000
  C   C455      1.0  0.52083  0.81217  0.39885  1.0000
  C   C456      1.0  0.51491  0.85253  0.38131  1.0000
  C   C457      1.0  0.47905  0.87272  0.38677  1.0000
  P   P17       1.0  0.55528  0.88187  0.36083  1.0000
  C   C458      1.0  0.57618  0.90620  0.40814  1.0000
  C   C459      1.0  0.58931  0.84762  0.33404  1.0000
  C   C460      1.0  0.42662  0.70390  0.45837  1.0000
  C   C461      1.0  0.35497  0.52116  0.44159  1.0000
  H   H368      1.0  0.58202  0.53447  0.07334  1.0000
  H   H369      1.0  0.40887  0.62060  0.04070  1.0000
  C   C462      1.0  0.57625  0.81179  0.31126  1.0000
  H   H370      1.0  0.60389  0.80138  0.05234  1.0000
  C   C463      1.0  0.59999  0.88190  0.43519  1.0000
  C   C464      1.0  0.54013  0.91825  0.31969  1.0000
  C   C465      1.0  0.51202  0.90562  0.28941  1.0000
  C   C466      1.0  0.50273  0.93173  0.25481  1.0000
  C   C467      1.0  0.52133  0.97073  0.25029  1.0000
  C   C468      1.0  0.54968  0.98330  0.28004  1.0000
  C   C469      1.0  0.55943  0.95689  0.31427  1.0000
  H   H371      1.0  0.65673  0.95999  0.02566  1.0000
  C   C470      1.0  0.40761  0.52871  0.26697  1.0000
  C   C471      1.0  0.35073  0.68725  0.05221  1.0000
  H   H372      1.0  0.54888  0.79688  0.39694  1.0000
  H   H373      1.0  0.47454  0.90474  0.37554  1.0000
  H   H374      1.0  0.63910  0.88671  0.34907  1.0000
  C   C472      1.0  0.44929  0.85242  0.40864  1.0000
  H   H375      1.0  0.50773  0.53828  0.38857  1.0000
  H   H376      1.0  0.67524  0.83040  0.40359  1.0000
  H   H377      1.0  0.54587  0.80395  0.31040  1.0000
  H   H378      1.0  0.64987  0.84806  0.09199  1.0000
  H   H379      1.0  0.60777  0.84967  0.42635  1.0000
  H   H380      1.0  0.49810  0.87503  0.29180  1.0000
  H   H381      1.0  0.48170  0.92117  0.23097  1.0000
  H   H382      1.0  0.49422  0.54757  0.09047  1.0000
  C   C473      1.0  0.47028  0.71748  0.04362  1.0000
  H   H383      1.0  0.58271  0.96626  0.33578  1.0000
  H   H384      1.0  0.45291  0.70181  0.43988  1.0000
  C   C474      1.0  0.43339  0.62444  0.30451  1.0000
  H   H385      1.0  0.59565  0.53105  0.99571  1.0000
  H   H386      1.0  0.45940  0.52840  0.30685  1.0000
  H   H387      1.0  0.42227  0.73492  0.11091  1.0000
  H   H388      1.0  0.39075  0.54762  0.07937  1.0000
  H   H389      1.0  0.40858  0.65828  0.20435  1.0000
  H   H390      1.0  0.43411  0.54594  0.14202  1.0000
  H   H391      1.0  0.57249  0.73397  0.09432  1.0000
  H   H392      1.0  0.44185  0.59682  0.32247  1.0000
  H   H393      1.0  0.34512  0.60370  0.21923  1.0000
  C   C475      1.0  0.62011  0.82445  0.99040  1.0000
  C   C476      1.0  0.49467  0.68275  0.05116  1.0000
  C   C477      1.0  0.48287  0.75835  0.05536  1.0000
  C   C478      1.0  0.39125  0.69250  0.43958  1.0000
  H   H394      1.0  0.48529  0.65094  0.04339  1.0000
  C   C479      1.0  0.42327  0.62159  0.26083  1.0000
  C   C480      1.0  0.41440  0.65899  0.23852  1.0000
  C   C481      1.0  0.41403  0.69811  0.25995  1.0000
  C   C482      1.0  0.42381  0.70053  0.30345  1.0000
  C   C483      1.0  0.43391  0.66377  0.32553  1.0000
  P   P18       1.0  0.42374  0.57107  0.23274  1.0000
  C   C484      1.0  0.47221  0.55809  0.21604  1.0000
  C   C485      1.0  0.48253  0.51578  0.20720  1.0000
  C   C486      1.0  0.46146  0.97356  0.45910  1.0000
  H   H395      1.0  0.41187  0.55456  0.99783  1.0000
  C   C487      1.0  0.53690  0.58030  0.19673  1.0000
  C   C488      1.0  0.49946  0.59024  0.21013  1.0000
  C   C489      1.0  0.40554  0.55921  0.14565  1.0000
  H   H396      1.0  0.40769  0.72685  0.24239  1.0000
  H   H397      1.0  0.42490  0.73109  0.31960  1.0000
  C   C490      1.0  0.65490  0.83213  0.31130  1.0000
  C   C491      1.0  0.48926  0.53146  0.41548  1.0000
  C   C492      1.0  0.61285  0.89851  0.47452  1.0000
  H   H398      1.0  0.55781  0.60556  0.19276  1.0000
  H   H399      1.0  0.49178  0.62306  0.21572  1.0000
  H   H400      1.0  0.44317  0.66578  0.35873  1.0000
  H   H401      1.0  0.46472  0.97910  0.04689  1.0000
  C   C493      1.0  0.41552  0.62231  0.00691  1.0000
  H   H402      1.0  0.51436  0.99069  0.22322  1.0000
  C   C494      1.0  0.60241  0.78578  0.28944  1.0000
  H   H403      1.0  0.52899  0.79587  0.08284  1.0000
  P   P19       1.0  0.42296  0.70956  0.01981  1.0000
  C   C495      1.0  0.39651  0.95104  0.24980  1.0000
  C   C496      1.0  0.49849  0.53555  0.02250  1.0000
  H   H404      1.0  0.43732  0.00206  0.25444  1.0000
  H   H405      1.0  0.54490  0.96556  0.40228  1.0000
  C   C497      1.0  0.64181  0.79564  0.28989  1.0000
  H   H406      1.0  0.37146  0.73431  0.16544  1.0000
  C   C498      1.0  0.36578  0.72054  0.13407  1.0000
  C   C499      1.0  0.40839  0.99304  0.24450  1.0000
  C   C500      1.0  0.35561  0.59198  0.18876  1.0000
  C   C501      1.0  0.62215  0.82314  0.03508  1.0000
  C   C502      1.0  0.35941  0.93852  0.23690  1.0000
  H   H407      1.0  0.65589  0.98528  0.41809  1.0000
  C   C503      1.0  0.35715  0.69408  0.46363  1.0000
  H   H408      1.0  0.66215  0.77497  0.27370  1.0000
  H   H409      1.0  0.54678  0.58021  0.47459  1.0000
  H   H410      1.0  0.56934  0.99533  0.47054  1.0000
  C   C504      1.0  0.45001  0.55519  0.47488  1.0000
  C   C505      1.0  0.64818  0.84931  0.05732  1.0000
  C   C506      1.0  0.42321  0.66153  0.98774  1.0000
  H   H411      1.0  0.35378  0.51820  0.23285  1.0000
  C   C507      1.0  0.37353  0.77124  0.98556  1.0000
  C   C508      1.0  0.34395  0.57770  0.11328  1.0000
  H   H412      1.0  0.35042  0.75639  0.00289  1.0000
  S   S79       1.0  0.42235  0.92583  0.98512  1.0000
  C   C509      1.0  0.41121  0.75458  0.98651  1.0000
  C   C510      1.0  0.67233  0.87666  0.03481  1.0000
  C   C511      1.0  0.66639  0.98184  0.00158  1.0000
  C   C512      1.0  0.34317  0.59029  0.35429  1.0000
  Fe  Fe41      1.0  0.60405  0.58737  0.87524  1.0000
  S   S80       1.0  0.61620  0.60726  0.94312  1.0000
  C   C513      1.0  0.66878  0.89836  0.83599  1.0000
  Fe  Fe42      1.0  0.53784  0.65149  0.86447  1.0000
  S   S81       1.0  0.54529  0.67513  0.93233  1.0000
  S   S82       1.0  0.48640  0.67441  0.82409  1.0000
  Fe  Fe43      1.0  0.60905  0.67341  0.91810  1.0000
  S   S83       1.0  0.64637  0.72807  0.94188  1.0000
  Fe  Fe44      1.0  0.55156  0.60653  0.95117  1.0000
  C   C514      1.0  0.59493  0.99243  0.89201  1.0000
  S   S84       1.0  0.60140  0.65380  0.84898  1.0000
  S   S85       1.0  0.53955  0.58275  0.88449  1.0000
  H   H413      1.0  0.39479  0.73436  0.55674  1.0000
  H   H414      1.0  0.58946  0.00662  0.95931  1.0000
  Fe  Fe45      1.0  0.42229  0.84852  0.65389  1.0000
  S   S86       1.0  0.40897  0.82239  0.58847  1.0000
  S   S87       1.0  0.47677  0.82263  0.68617  1.0000
  Fe  Fe46      1.0  0.39940  0.88973  0.56789  1.0000
  H   H415      1.0  0.63111  0.87951  0.49522  1.0000
  Fe  Fe47      1.0  0.35413  0.91193  0.64789  1.0000
  S   S88       1.0  0.41751  0.91630  0.63174  1.0000
  H   H416      1.0  0.35942  0.55558  0.50136  1.0000
  C   C515      1.0  0.45106  0.97209  0.97980  1.0000
  H   H417      1.0  0.54438  0.73379  0.79172  1.0000
  C   C516      1.0  0.36546  0.80861  0.96346  1.0000
  H   H418      1.0  0.48797  0.76156  0.60428  1.0000
  H   H419      1.0  0.53990  0.78952  0.73598  1.0000
  H   H420      1.0  0.46339  0.54766  0.63576  1.0000
  H   H421      1.0  0.41805  0.76679  0.72216  1.0000
  H   H422      1.0  0.49140  0.53536  0.56469  1.0000
  H   H423      1.0  0.42293  0.70939  0.77593  1.0000
  C   C517      1.0  0.55269  0.95478  0.93994  1.0000
  C   C518      1.0  0.48422  0.71697  0.78712  1.0000
  C   C519      1.0  0.44859  0.72680  0.76737  1.0000
  C   C520      1.0  0.44568  0.75940  0.73687  1.0000
  C   C521      1.0  0.47861  0.78208  0.72521  1.0000
  C   C522      1.0  0.51426  0.77225  0.74487  1.0000
  C   C523      1.0  0.51693  0.74049  0.77632  1.0000
  C   C524      1.0  0.53895  0.62725  0.57316  1.0000
  S   S89       1.0  0.63419  0.52953  0.84762  1.0000
  C   C525      1.0  0.43401  0.66241  0.94445  1.0000
  H   H424      1.0  0.42513  0.63299  0.77345  1.0000
  H   H425      1.0  0.45951  0.61814  0.55893  1.0000
  H   H426      1.0  0.38882  0.61440  0.56640  1.0000
  H   H427      1.0  0.57168  0.69367  0.52732  1.0000
  H   H428      1.0  0.56599  0.60219  0.63086  1.0000
  C   C526      1.0  0.60191  0.93942  0.48720  1.0000
  H   H429      1.0  0.50184  0.63794  0.68321  1.0000
  H   H430      1.0  0.64453  0.90816  0.81629  1.0000
  C   C527      1.0  0.39484  0.82937  0.94161  1.0000
  C   C528      1.0  0.38819  0.61880  0.71918  1.0000
  H   H431      1.0  0.59499  0.54053  0.59493  1.0000
  H   H432      1.0  0.36549  0.97383  0.91652  1.0000
  H   H433      1.0  0.45537  0.72799  0.51499  1.0000
  C   C529      1.0  0.55055  0.58510  0.50878  1.0000
  C   C530      1.0  0.57800  0.56291  0.57646  1.0000
  H   H434      1.0  0.45495  0.82869  0.92434  1.0000
  C   C531      1.0  0.44031  0.77483  0.96310  1.0000
  H   H435      1.0  0.46952  0.76229  0.96282  1.0000
  C   C532      1.0  0.55455  0.72150  0.53458  1.0000
  H   H436      1.0  0.37218  0.64831  0.72152  1.0000
  C   C533      1.0  0.64413  0.85178  0.96777  1.0000
  S   S90       1.0  0.36089  0.84685  0.67680  1.0000
  Fe  Fe48      1.0  0.34719  0.82334  0.60994  1.0000
  C   C534      1.0  0.41797  0.61022  0.74842  1.0000
  H   H437      1.0  0.44345  0.97374  0.91123  1.0000
  C   C535      1.0  0.51796  0.97549  0.69274  1.0000
  C   C536      1.0  0.43831  0.57195  0.74594  1.0000
  C   C537      1.0  0.39995  0.55140  0.68380  1.0000
  H   H438      1.0  0.62198  0.72307  0.69769  1.0000
  H   H439      1.0  0.49795  0.82481  0.56075  1.0000
  H   H440      1.0  0.44134  0.69190  0.92906  1.0000
  C   C538      1.0  0.42780  0.58597  0.93966  1.0000
  C   C539      1.0  0.53955  0.79496  0.51917  1.0000
  H   H441      1.0  0.64681  0.92821  0.89287  1.0000
  H   H442      1.0  0.63988  0.76290  0.82013  1.0000
  C   C540      1.0  0.42805  0.71855  0.50071  1.0000
  S   S91       1.0  0.42099  0.91323  0.50349  1.0000
  C   C541      1.0  0.43981  0.82985  0.82917  1.0000
  C   C542      1.0  0.41083  0.85962  0.83733  1.0000
  C   C543      1.0  0.42024  0.90246  0.84237  1.0000
  C   C544      1.0  0.45861  0.91568  0.83821  1.0000
  C   C545      1.0  0.48789  0.88593  0.82985  1.0000
  C   C546      1.0  0.47819  0.84291  0.82530  1.0000
  P   P20       1.0  0.53636  0.90411  0.81994  1.0000
  C   C547      1.0  0.53213  0.93260  0.77001  1.0000
  C   C548      1.0  0.55294  0.93681  0.86408  1.0000
  C   C549      1.0  0.53870  0.93041  0.90554  1.0000
  C   C550      1.0  0.58198  0.96710  0.85783  1.0000
  C   C551      1.0  0.53029  0.97715  0.76936  1.0000
  C   C552      1.0  0.52743  0.72154  0.56799  1.0000
  C   C553      1.0  0.57279  0.55651  0.53243  1.0000
  C   C554      1.0  0.51841  0.93120  0.69337  1.0000
  C   C555      1.0  0.52532  0.90994  0.73184  1.0000
  C   C556      1.0  0.56919  0.85930  0.81878  1.0000
  C   C557      1.0  0.57276  0.83379  0.85533  1.0000
  C   C558      1.0  0.59808  0.79918  0.85564  1.0000
  C   C559      1.0  0.62021  0.78975  0.81957  1.0000
  C   C560      1.0  0.61704  0.81501  0.78310  1.0000
  C   C561      1.0  0.59188  0.84990  0.78275  1.0000
  H   H443      1.0  0.43253  0.79660  0.82529  1.0000
  H   H444      1.0  0.38114  0.84933  0.83971  1.0000
  H   H445      1.0  0.39777  0.92547  0.84896  1.0000
  H   H446      1.0  0.46542  0.94914  0.84078  1.0000
  H   H447      1.0  0.49990  0.81937  0.81796  1.0000
  H   H448      1.0  0.51661  0.90689  0.91144  1.0000
  H   H449      1.0  0.59458  0.97136  0.82651  1.0000
  C   C562      1.0  0.43613  0.62474  0.92053  1.0000
  H   H450      1.0  0.64491  0.99214  0.68813  1.0000
  H   H451      1.0  0.43786  0.58073  0.49381  1.0000
  H   H452      1.0  0.63427  0.80768  0.75517  1.0000
  H   H453      1.0  0.52443  0.87569  0.73212  1.0000
  H   H454      1.0  0.55569  0.84039  0.88357  1.0000
  H   H455      1.0  0.60048  0.77945  0.88384  1.0000
  H   H456      1.0  0.36511  0.97059  0.76741  1.0000
  C   C563      1.0  0.53331  0.62004  0.52903  1.0000
  H   H457      1.0  0.44482  0.62559  0.88725  1.0000
  C   C564      1.0  0.38609  0.66447  0.61370  1.0000
  C   C565      1.0  0.44549  0.63914  0.58152  1.0000
  H   H458      1.0  0.64255  0.85106  0.93315  1.0000
  C   C566      1.0  0.45010  0.95932  0.49969  1.0000
  H   H459      1.0  0.54103  0.95033  0.97172  1.0000
  C   C567      1.0  0.40525  0.63691  0.58562  1.0000
  C   C568      1.0  0.45747  0.98843  0.93864  1.0000
  C   C569      1.0  0.51360  0.79584  0.55321  1.0000
  H   H460      1.0  0.58666  0.72173  0.62861  1.0000
  C   C570      1.0  0.59576  0.70457  0.69430  1.0000
  C   C571      1.0  0.46694  0.66864  0.60595  1.0000
  C   C572      1.0  0.44754  0.69487  0.63547  1.0000
  C   C573      1.0  0.40728  0.69317  0.63885  1.0000
  C   C574      1.0  0.52785  0.65695  0.68594  1.0000
  H   H461      1.0  0.35477  0.66399  0.61581  1.0000
  C   C575      1.0  0.58250  0.68086  0.72878  1.0000
  C   C576      1.0  0.37910  0.58927  0.68697  1.0000
  C   C577      1.0  0.66247  0.99773  0.66002  1.0000
  H   H462      1.0  0.59074  0.86955  0.75458  1.0000
  H   H463      1.0  0.46340  0.71719  0.65553  1.0000
  H   H464      1.0  0.39237  0.71467  0.66049  1.0000
  C   C578      1.0  0.54850  0.65719  0.72468  1.0000
  H   H465      1.0  0.53789  0.63944  0.75179  1.0000
  H   H466      1.0  0.39287  0.52913  0.65822  1.0000
  C   C579      1.0  0.35874  0.70935  0.50602  1.0000
  H   H467      1.0  0.38892  0.85927  0.92605  1.0000
  C   C580      1.0  0.50778  0.75950  0.57774  1.0000
  C   C581      1.0  0.54129  0.68029  0.65092  1.0000
  H   H468      1.0  0.51248  0.91313  0.66428  1.0000
  C   C582      1.0  0.39402  0.72182  0.52429  1.0000
  P   P21       1.0  0.51866  0.67401  0.59894  1.0000
  H   H469      1.0  0.54382  0.82312  0.50005  1.0000
  C   C583      1.0  0.57543  0.70405  0.65534  1.0000
  H   H470      1.0  0.51600  0.64173  0.51008  1.0000
  H   H471      1.0  0.59827  0.68125  0.75892  1.0000
  H   H472      1.0  0.43011  0.55678  0.92127  1.0000
  C   C584      1.0  0.47715  0.51755  0.62924  1.0000
  H   H473      1.0  0.46107  0.56626  0.76925  1.0000
  C   C585      1.0  0.42907  0.54185  0.71393  1.0000
  C   C586      1.0  0.56123  0.59807  0.59678  1.0000
  H   H474      1.0  0.45325  0.97183  0.56755  1.0000
  H   H475      1.0  0.61181  0.95238  0.51765  1.0000
  C   C587      1.0  0.46177  0.98225  0.53614  1.0000
  C   C588      1.0  0.43216  0.81226  0.94101  1.0000
  C   C589      1.0  0.58021  0.98632  0.93303  1.0000
  H   H476      1.0  0.58582  0.52933  0.51661  1.0000
  C   C590      1.0  0.67041  0.91044  0.87915  1.0000
  H   H477      1.0  0.49767  0.51421  0.95681  1.0000
  H   H478      1.0  0.35570  0.59542  0.66455  1.0000
  C   C591      1.0  0.56022  0.75790  0.51007  1.0000
  H   H479      1.0  0.53279  0.99567  0.79854  1.0000
  H   H480      1.0  0.42904  0.99456  0.74470  1.0000
  C   C592      1.0  0.38045  0.99325  0.78743  1.0000
  C   C593      1.0  0.52395  0.99847  0.73075  1.0000
  H   H481      1.0  0.51219  0.99194  0.66297  1.0000
  H   H482      1.0  0.60060  0.80331  0.97314  1.0000
  C   C594      1.0  0.44155  0.51278  0.48519  1.0000
  H   H483      1.0  0.58080  0.75739  0.48399  1.0000
  C   C595      1.0  0.41690  0.00694  0.77425  1.0000
  C   C596      1.0  0.49351  0.51097  0.58884  1.0000
  H   H484      1.0  0.37653  0.98762  0.55696  1.0000
  C   C597      1.0  0.41740  0.58477  0.98280  1.0000
  Fe  Fe49      1.0  0.83907  0.42519  0.33268  1.0000
  S   S92       1.0  0.82500  0.39775  0.39710  1.0000
  S   S93       1.0  0.91562  0.42683  0.47369  1.0000
  Fe  Fe50      1.0  0.91135  0.36845  0.32231  1.0000
  S   S94       1.0  0.90266  0.33827  0.38608  1.0000
  S   S95       1.0  0.96378  0.35302  0.28190  1.0000
  Fe  Fe51      1.0  0.84006  0.33494  0.36638  1.0000
  S   S96       1.0  0.81268  0.26993  0.36815  1.0000
  Fe  Fe52      1.0  0.88921  0.40407  0.41029  1.0000
  C   C598      1.0  0.99058  0.03105  0.47654  1.0000
  S   S97       1.0  0.84963  0.36186  0.30081  1.0000
  S   S98       1.0  0.90236  0.43464  0.34767  1.0000
  H   H485      1.0  0.91806  0.49832  0.07021  1.0000
  H   H486      1.0  0.70872  0.33242  0.31892  1.0000
  H   H487      1.0  0.82449  0.17050  0.38418  1.0000
  H   H488      1.0  0.94085  0.28498  0.10087  1.0000
  H   H489      1.0  0.78428  0.47204  0.01736  1.0000
  H   H490      1.0  0.97136  0.26435  0.38346  1.0000
  H   H491      1.0  0.98693  0.37976  0.06132  1.0000
  C   C599      1.0  0.68253  0.42758  0.13881  1.0000
  C   C600      1.0  0.97040  0.30004  0.26391  1.0000
  C   C601      1.0  0.94646  0.26735  0.27797  1.0000
  C   C602      1.0  0.95349  0.22521  0.26485  1.0000
  C   C603      1.0  0.98389  0.21552  0.23680  1.0000
  H   H492      1.0  0.93910  0.16813  0.02728  1.0000
  H   H493      1.0  0.92289  0.27442  0.29952  1.0000
  H   H494      1.0  0.93513  0.20011  0.27637  1.0000
  C   C604      1.0  0.68256  0.48759  0.46125  1.0000
  C   C605      1.0  0.70757  0.28030  0.42448  1.0000
  C   C606      1.0  0.74459  0.29035  0.40926  1.0000
  C   C607      1.0  0.76474  0.26092  0.38415  1.0000
  C   C608      1.0  0.74723  0.22217  0.37311  1.0000
  C   C609      1.0  0.70987  0.21261  0.38734  1.0000
  S   S99       1.0  0.80884  0.48114  0.30080  1.0000
  H   H495      1.0  0.75780  0.32040  0.41751  1.0000
  H   H496      1.0  0.76262  0.19937  0.35350  1.0000
  C   C610      1.0  0.82180  0.49056  0.46455  1.0000
  P   P22       1.0  0.94713  0.26045  0.01119  1.0000
  C   C611      1.0  0.71275  0.05341  0.36247  1.0000
  C   C612      1.0  0.75166  0.04530  0.37285  1.0000
  C   C613      1.0  0.86762  0.27006  0.00127  1.0000
  C   C614      1.0  0.94049  0.40619  0.17108  1.0000
  C   C615      1.0  0.80533  0.50159  0.42514  1.0000
  C   C616      1.0  0.83113  0.15665  0.41511  1.0000
  H   H497      1.0  0.76927  0.07055  0.38600  1.0000
  H   H498      1.0  0.74418  0.43970  0.34284  1.0000
  H   H499      1.0  0.94950  0.49358  0.16805  1.0000
  H   H500      1.0  0.97554  0.35895  0.46565  1.0000
  C   C617      1.0  0.80261  0.35233  0.14998  1.0000
  C   C618      1.0  0.78527  0.36084  0.18947  1.0000
  C   C619      1.0  0.83115  0.37946  0.13449  1.0000
  C   C620      1.0  0.93901  0.40942  0.09354  1.0000
  H   H501      1.0  0.70107  0.35381  0.09681  1.0000
  H   H502      1.0  0.69532  0.26553  0.99132  1.0000
  H   H503      1.0  0.99390  0.05031  0.44829  1.0000
  H   H504      1.0  0.79430  0.32444  0.13159  1.0000
  H   H505      1.0  0.76340  0.33971  0.20176  1.0000
  H   H506      1.0  0.84459  0.37236  0.10400  1.0000
  H   H507      1.0  0.92570  0.41877  0.06362  1.0000
  H   H508      1.0  0.86895  0.39212  0.01772  1.0000
  H   H509      1.0  0.93193  0.24394  0.16714  1.0000
  H   H510      1.0  0.93594  0.11016  0.37600  1.0000
  H   H511      1.0  0.81286  0.46186  0.48045  1.0000
  H   H512      1.0  0.69672  0.18250  0.37897  1.0000
  C   C621      1.0  0.83272  0.18258  0.45168  1.0000
  H   H513      1.0  0.92971  0.35191  0.02036  1.0000
  H   H514      1.0  0.83720  0.09319  0.38982  1.0000
  C   C622      1.0  0.84237  0.41553  0.15826  1.0000
  C   C623      1.0  0.86267  0.47015  0.08493  1.0000
  H   H515      1.0  0.85352  0.06206  0.46000  1.0000
  C   C624      1.0  0.69017  0.24143  0.41350  1.0000
  H   H516      1.0  0.78431  0.40225  0.24491  1.0000
  H   H517      1.0  0.99640  0.45605  0.03831  1.0000
  P   P23       1.0  0.87838  0.45071  0.13662  1.0000
  C   C625      1.0  0.88669  0.49718  0.17000  1.0000
  C   C626      1.0  0.94719  0.10076  0.30870  1.0000
  C   C627      1.0  0.76125  0.49795  0.31307  1.0000
  C   C628      1.0  0.86836  0.35790  0.01403  1.0000
  C   C629      1.0  0.70227  0.30840  0.04534  1.0000
  H   H518      1.0  0.97177  0.39190  0.39460  1.0000
  C   C630      1.0  0.94291  0.47437  0.47635  1.0000
  H   H519      1.0  0.78324  0.48176  0.41047  1.0000
  C   C631      1.0  0.88871  0.49229  0.05920  1.0000
  C   C632      1.0  0.92017  0.03681  0.27633  1.0000
  C   C633      1.0  0.84004  0.49821  0.00316  1.0000
  H   H520      1.0  0.92800  0.41326  0.20213  1.0000
  C   C634      1.0  0.99119  0.48255  0.01734  1.0000
  C   C635      1.0  0.94559  0.50123  0.44110  1.0000
  H   H521      1.0  0.93348  0.12800  0.09365  1.0000
  C   C636      1.0  0.67952  0.32690  0.32992  1.0000
  H   H522      1.0  0.75945  0.06763  0.46299  1.0000
  C   C637      1.0  0.91082  0.05199  0.35211  1.0000
  C   C638      1.0  0.94166  0.07430  0.27290  1.0000
  H   H523      1.0  0.93113  0.49298  0.41142  1.0000
  C   C639      1.0  0.69005  0.02151  0.34379  1.0000
  S   S100      1.0  0.99218  0.16208  0.22180  1.0000
  C   C640      1.0  0.87329  0.07255  0.10910  1.0000
  C   C641      1.0  0.86897  0.09150  0.14949  1.0000
  C   C642      1.0  0.88211  0.07066  0.18627  1.0000
  H   H524      1.0  0.70054  0.08457  0.36812  1.0000
  C   C643      1.0  0.69188  0.44443  0.46200  1.0000
  H   H525      1.0  0.83568  0.44858  0.21912  1.0000
  C   C644      1.0  0.90298  0.29100  0.00802  1.0000
  C   C645      1.0  0.90503  0.02567  0.31630  1.0000
  H   H526      1.0  0.95403  0.08315  0.24246  1.0000
  C   C646      1.0  0.89991  0.03069  0.18285  1.0000
  C   C647      1.0  0.97552  0.38411  0.16931  1.0000
  H   H527      1.0  0.71907  0.19511  0.48178  1.0000
  H   H528      1.0  0.89888  0.04304  0.38275  1.0000
  H   H529      1.0  0.73318  0.30311  0.04804  1.0000
  C   C648      1.0  0.82455  0.46384  0.07003  1.0000
  H   H530      1.0  0.98996  0.37511  0.19871  1.0000
  H   H531      1.0  0.86355  0.08895  0.08057  1.0000
  H   H532      1.0  0.85555  0.12248  0.15230  1.0000
  H   H533      1.0  0.87795  0.08565  0.21726  1.0000
  C   C649      1.0  0.97342  0.04084  0.00761  1.0000
  C   C650      1.0  0.81344  0.47758  0.02916  1.0000
  C   C651      1.0  0.73523  0.47125  0.33363  1.0000
  H   H534      1.0  0.69230  0.30261  0.44472  1.0000
  C   C652      1.0  0.92237  0.41988  0.13320  1.0000
  C   C653      1.0  0.83841  0.11325  0.41827  1.0000
  C   C654      1.0  0.93174  0.08964  0.34830  1.0000
  H   H535      1.0  0.82741  0.21611  0.44765  1.0000
  C   C655      1.0  0.89065  0.03267  0.10545  1.0000
  C   C656      1.0  0.70456  0.44256  0.17364  1.0000
  S   S101      1.0  0.99214  0.09218  0.01900  1.0000
  C   C657      1.0  0.79697  0.39606  0.21376  1.0000
  H   H536      1.0  0.70985  0.44634  0.24253  1.0000
  H   H537      1.0  0.75035  0.14050  0.43613  1.0000
  C   C658      1.0  0.00098  0.29023  0.23606  1.0000
  C   C659      1.0  0.99218  0.37428  0.12983  1.0000
  C   C660      1.0  0.74083  0.13245  0.46805  1.0000
  C   C661      1.0  0.84743  0.09570  0.45805  1.0000
  H   H538      1.0  0.92800  0.16548  0.16377  1.0000
  H   H539      1.0  0.67798  0.03400  0.47521  1.0000
  C   C662      1.0  0.82595  0.42282  0.19868  1.0000
  C   C663      1.0  0.68388  0.33721  0.07293  1.0000
  C   C664      1.0  0.69724  0.48515  0.34161  1.0000
  H   H540      1.0  0.96344  0.12994  0.30557  1.0000
  C   C665      1.0  0.94134  0.22967  0.05912  1.0000
  C   C666      1.0  0.93789  0.18533  0.05738  1.0000
  C   C667      1.0  0.93359  0.16231  0.09508  1.0000
  C   C668      1.0  0.93104  0.18342  0.13454  1.0000
  C   C669      1.0  0.93340  0.22763  0.13643  1.0000
  C   C670      1.0  0.93863  0.25072  0.09888  1.0000
  H   H541      1.0  0.80332  0.44831  0.08966  1.0000
  C   C671      1.0  0.98975  0.29336  0.01445  1.0000
  C   C672      1.0  0.90302  0.33501  0.01489  1.0000
  C   C673      1.0  0.87750  0.50586  0.01842  1.0000
  C   C674      1.0  0.97382  0.38681  0.09199  1.0000
  H   H542      1.0  0.83394  0.01400  0.25303  1.0000
  H   H543      1.0  0.98492  0.18951  0.40285  1.0000
  H   H544      1.0  0.80598  0.27688  0.99317  1.0000
  H   H545      1.0  0.98970  0.01307  0.06793  1.0000
  C   C675      1.0  0.00184  0.36298  0.44765  1.0000
  C   C676      1.0  0.99804  0.24921  0.37351  1.0000
  H   H546      1.0  0.97812  0.01328  0.16877  1.0000
  C   C677      1.0  0.00720  0.24830  0.22184  1.0000
  H   H547      1.0  0.73038  0.46117  0.16829  1.0000
  H   H548      1.0  0.71929  0.43417  0.47547  1.0000
  C   C678      1.0  0.68101  0.28706  0.01349  1.0000
  C   C679      1.0  0.90338  0.01154  0.14219  1.0000
  H   H549      1.0  0.67719  0.46413  0.35698  1.0000
  C   C680      1.0  0.99943  0.38124  0.40700  1.0000
  H   H550      1.0  0.00675  0.49592  0.37772  1.0000
  C   C681      1.0  0.83294  0.29301  0.00043  1.0000
  C   C682      1.0  0.83332  0.33695  0.00657  1.0000
  H   H551      1.0  0.99973  0.19031  0.99162  1.0000
  H   H552      1.0  0.89435  0.01814  0.07407  1.0000
  H   H553      1.0  0.86695  0.23608  0.99589  1.0000
  H   H554      1.0  0.69145  0.43510  0.10653  1.0000
  H   H555      1.0  0.80664  0.35489  0.00425  1.0000
  C   C683      1.0  0.69306  0.43413  0.21554  1.0000
  C   C684      1.0  0.74570  0.09119  0.48326  1.0000
  C   C685      1.0  0.00564  0.20705  0.38419  1.0000
  Fe  Fe53      1.0  0.84535  0.43791  0.85647  1.0000
  S   S102      1.0  0.84779  0.40564  0.92020  1.0000
  H   H556      1.0  0.69601  0.17674  0.55404  1.0000
  Fe  Fe54      1.0  0.90439  0.37565  0.81628  1.0000
  S   S103      1.0  0.91232  0.34208  0.87865  1.0000
  S   S104      1.0  0.93530  0.35569  0.75448  1.0000
  Fe  Fe55      1.0  0.84727  0.34455  0.88196  1.0000
  S   S105      1.0  0.82025  0.27998  0.89431  1.0000
  Fe  Fe56      1.0  0.91216  0.40671  0.91050  1.0000
  H   H557      1.0  0.78729  0.33243  0.48861  1.0000
  S   S106      1.0  0.83924  0.37693  0.81862  1.0000
  S   S107      1.0  0.90991  0.44041  0.84766  1.0000
  C   C686      1.0  0.97960  0.36924  0.55286  1.0000
  C   C687      1.0  0.96913  0.18244  0.88803  1.0000
  H   H558      1.0  0.76130  0.02550  0.71625  1.0000
  H   H559      1.0  0.86494  0.11222  0.94477  1.0000
  C   C688      1.0  0.98120  0.29873  0.71016  1.0000
  H   H560      1.0  0.85745  0.02773  0.63158  1.0000
  H   H561      1.0  0.91171  0.26203  0.92483  1.0000
  H   H562      1.0  0.70466  0.10445  0.58156  1.0000
  C   C689      1.0  0.95680  0.30488  0.74560  1.0000
  C   C690      1.0  0.94899  0.27023  0.77187  1.0000
  C   C691      1.0  0.69007  0.04017  0.94021  1.0000
  H   H563      1.0  0.97518  0.16489  0.85879  1.0000
  S   S108      1.0  0.95115  0.42508  0.96728  1.0000
  H   H564      1.0  0.92984  0.27425  0.79884  1.0000
  H   H565      1.0  0.91098  0.26204  0.52790  1.0000
  C   C692      1.0  0.93787  0.33951  0.60677  1.0000
  C   C693      1.0  0.70300  0.29337  0.89081  1.0000
  C   C694      1.0  0.74283  0.30277  0.89159  1.0000
  C   C695      1.0  0.77000  0.26990  0.89070  1.0000
  C   C696      1.0  0.75703  0.22769  0.88831  1.0000
  C   C697      1.0  0.71723  0.21835  0.88628  1.0000
  H   H566      1.0  0.00449  0.26692  0.57477  1.0000
  H   H567      1.0  0.75245  0.33537  0.89363  1.0000
  H   H568      1.0  0.77783  0.20205  0.88803  1.0000
  H   H569      1.0  0.70759  0.18575  0.88447  1.0000
  C   C698      1.0  0.96538  0.23010  0.76274  1.0000
  H   H570      1.0  0.76995  0.05867  0.85190  1.0000
  H   H571      1.0  0.85473  0.05380  0.89172  1.0000
  C   C699      1.0  0.95370  0.22818  0.96371  1.0000
  C   C700      1.0  0.74053  0.47458  0.84850  1.0000
  C   C701      1.0  0.81404  0.27446  0.50980  1.0000
  C   C702      1.0  0.84886  0.33949  0.49659  1.0000
  C   C703      1.0  0.70027  0.48132  0.84693  1.0000
  H   H572      1.0  0.75216  0.44288  0.84488  1.0000
  C   C704      1.0  0.95517  0.03330  0.96779  1.0000
  C   C705      1.0  0.77172  0.22237  0.63593  1.0000
  C   C706      1.0  0.75916  0.18180  0.64640  1.0000
  C   C707      1.0  0.77295  0.14660  0.62373  1.0000
  C   C708      1.0  0.79840  0.15203  0.58953  1.0000
  C   C709      1.0  0.81057  0.19284  0.57805  1.0000
  C   C710      1.0  0.79763  0.22789  0.60232  1.0000
  P   P24       1.0  0.84820  0.19967  0.53865  1.0000
  H   H573      1.0  0.95878  0.20348  0.78300  1.0000
  C   C711      1.0  0.84878  0.25429  0.52163  1.0000
  H   H574      1.0  0.68212  0.31894  0.89228  1.0000
  C   C712      1.0  0.99578  0.32468  0.98353  1.0000
  H   H575      1.0  0.92096  0.15906  0.51076  1.0000
  C   C713      1.0  0.71469  0.11149  0.54971  1.0000
  C   C714      1.0  0.88368  0.27693  0.51982  1.0000
  H   H576      1.0  0.91475  0.34327  0.62976  1.0000
  H   H577      1.0  0.99784  0.50644  0.62562  1.0000
  C   C715      1.0  0.89298  0.18754  0.56607  1.0000
  C   C716      1.0  0.92317  0.16670  0.54461  1.0000
  C   C717      1.0  0.95658  0.15491  0.56705  1.0000
  C   C718      1.0  0.96043  0.16455  0.61063  1.0000
  C   C719      1.0  0.93154  0.18729  0.63159  1.0000
  C   C720      1.0  0.89782  0.19874  0.60953  1.0000
  H   H578      1.0  0.76170  0.24960  0.65425  1.0000
  H   H579      1.0  0.76359  0.11514  0.63257  1.0000
  H   H580      1.0  0.80861  0.12435  0.57241  1.0000
  H   H581      1.0  0.80806  0.25955  0.59611  1.0000
  C   C721      1.0  0.93335  0.23721  0.92570  1.0000
  C   C722      1.0  0.96143  0.48613  0.51498  1.0000
  H   H582      1.0  0.70174  0.07939  0.83799  1.0000
  C   C723      1.0  0.73226  0.08024  0.52402  1.0000
  C   C724      1.0  0.00899  0.04325  0.51508  1.0000
  C   C725      1.0  0.99041  0.22420  0.72780  1.0000
  C   C726      1.0  0.84920  0.12152  0.49480  1.0000
  C   C727      1.0  0.83060  0.46989  0.74499  1.0000
  H   H583      1.0  0.97944  0.13800  0.55077  1.0000
  H   H584      1.0  0.98571  0.15429  0.62844  1.0000
  H   H585      1.0  0.93534  0.19526  0.66522  1.0000
  H   H586      1.0  0.87560  0.21599  0.62659  1.0000
  C   C728      1.0  0.94121  0.21454  0.88800  1.0000
  C   C729      1.0  0.98180  0.47780  0.68594  1.0000
  C   C730      1.0  0.88361  0.31938  0.50725  1.0000
  H   H587      1.0  0.85753  0.10737  0.52500  1.0000
  H   H588      1.0  0.89947  0.09329  0.63655  1.0000
  H   H589      1.0  0.69546  0.13763  0.74404  1.0000
  H   H590      1.0  0.97446  0.33019  0.95847  1.0000
  C   C731      1.0  0.97016  0.47638  0.97902  1.0000
  C   C732      1.0  0.94887  0.37366  0.58143  1.0000
  C   C733      1.0  0.90291  0.49959  0.71837  1.0000
  C   C734      1.0  0.78951  0.01963  0.55180  1.0000
  H   H591      1.0  0.79197  0.21963  0.80451  1.0000
  C   C735      1.0  0.68779  0.02203  0.80345  1.0000
  H   H592      1.0  0.97603  0.44270  0.74498  1.0000
  H   H593      1.0  0.95917  0.46605  0.54269  1.0000
  H   H594      1.0  0.92573  0.22209  0.85871  1.0000
  C   C736      1.0  0.94224  0.09710  0.73501  1.0000
  H   H595      1.0  0.69840  0.06356  0.71777  1.0000
  C   C737      1.0  0.98968  0.44413  0.71384  1.0000
  C   C738      1.0  0.95755  0.30091  0.60341  1.0000
  H   H596      1.0  0.86225  0.18719  0.92091  1.0000
  H   H597      1.0  0.93392  0.40377  0.58429  1.0000
  H   H598      1.0  0.94986  0.27494  0.62409  1.0000
  C   C739      1.0  0.00460  0.01784  0.55126  1.0000
  H   H599      1.0  0.78821  0.04164  0.61783  1.0000
  C   C740      1.0  0.98838  0.29641  0.57498  1.0000
  H   H600      1.0  0.73881  0.17776  0.67222  1.0000
  C   C741      1.0  0.98261  0.19683  0.96310  1.0000
  H   H601      1.0  0.84562  0.12506  0.67774  1.0000
  H   H602      1.0  0.96990  0.09089  0.75046  1.0000
  H   H603      1.0  0.92346  0.50748  0.61421  1.0000
  C   C742      1.0  0.85737  0.44178  0.72699  1.0000
  C   C743      1.0  0.89331  0.45654  0.71342  1.0000
  H   H604      1.0  0.98855  0.39641  0.53445  1.0000
  C   C744      1.0  0.71218  0.04876  0.82725  1.0000
  C   C745      1.0  0.71006  0.15279  0.53446  1.0000
  C   C746      1.0  0.99912  0.33034  0.54873  1.0000
  H   H605      1.0  0.79100  0.29597  0.79033  1.0000
  H   H606      1.0  0.80315  0.45834  0.75670  1.0000
  H   H607      1.0  0.85067  0.40832  0.72432  1.0000
  H   H608      1.0  0.91343  0.43402  0.69969  1.0000
  C   C747      1.0  0.76033  0.05872  0.72529  1.0000
  C   C748      1.0  0.72491  0.08004  0.72637  1.0000
  C   C749      1.0  0.72326  0.12185  0.74130  1.0000
  C   C750      1.0  0.75716  0.14289  0.75391  1.0000
  C   C751      1.0  0.79318  0.12223  0.75166  1.0000
  C   C752      1.0  0.79420  0.07944  0.73842  1.0000
  P   P25       1.0  0.83755  0.14861  0.76834  1.0000
  C   C753      1.0  0.83597  0.20502  0.75741  1.0000
  C   C754      1.0  0.84521  0.13813  0.82469  1.0000
  C   C755      1.0  0.85167  0.17094  0.85469  1.0000
  C   C756      1.0  0.85800  0.16157  0.89795  1.0000
  C   C757      1.0  0.85926  0.11944  0.91141  1.0000
  C   C758      1.0  0.85359  0.08662  0.88163  1.0000
  C   C759      1.0  0.84657  0.09598  0.83853  1.0000
  C   C760      1.0  0.86154  0.22293  0.72784  1.0000
  C   C761      1.0  0.86109  0.26653  0.72017  1.0000
  C   C762      1.0  0.83527  0.29276  0.74209  1.0000
  C   C763      1.0  0.81005  0.27547  0.77198  1.0000
  C   C764      1.0  0.81050  0.23189  0.77975  1.0000
  C   C765      1.0  0.87672  0.12486  0.73832  1.0000
  C   C766      1.0  0.87226  0.11671  0.69414  1.0000
  C   C767      1.0  0.90252  0.09850  0.67079  1.0000
  C   C768      1.0  0.93751  0.08872  0.69123  1.0000
  H   H609      1.0  0.68104  0.45464  0.84203  1.0000
  C   C769      1.0  0.91213  0.11537  0.75847  1.0000
  H   H610      1.0  0.69934  0.06284  0.91655  1.0000
  H   H611      1.0  0.95285  0.05878  0.94488  1.0000
  H   H612      1.0  0.75468  0.17500  0.76564  1.0000
  H   H613      1.0  0.82100  0.06161  0.73910  1.0000
  H   H614      1.0  0.85221  0.20381  0.84523  1.0000
  H   H615      1.0  0.84897  0.37246  0.48716  1.0000
  H   H616      1.0  0.91694  0.12262  0.79210  1.0000
  C   C770      1.0  0.00128  0.47964  0.64665  1.0000
  H   H617      1.0  0.84275  0.07022  0.81582  1.0000
  H   H618      1.0  0.88284  0.20375  0.71167  1.0000
  H   H619      1.0  0.88187  0.28033  0.69854  1.0000
  H   H620      1.0  0.83576  0.32667  0.73692  1.0000
  H   H621      1.0  0.96149  0.07585  0.67303  1.0000
  P   P26       1.0  0.73809  0.02634  0.54218  1.0000
  C   C771      1.0  0.75090  0.03696  0.83497  1.0000
  C   C772      1.0  0.98971  0.17348  0.92565  1.0000
  H   H622      1.0  0.91050  0.33684  0.50557  1.0000
  C   C773      1.0  0.69003  0.25119  0.88792  1.0000
  C   C774      1.0  0.84528  0.02197  0.59994  1.0000
  C   C775      1.0  0.80589  0.02922  0.59214  1.0000
  H   H623      1.0  0.98715  0.32503  0.68928  1.0000
  C   C776      1.0  0.99819  0.25882  0.70149  1.0000
  C   C777      1.0  0.81412  0.31700  0.49762  1.0000
  H   H624      1.0  0.86436  0.50657  0.51273  1.0000
  S   S109      1.0  0.81630  0.50241  0.85389  1.0000
  C   C778      1.0  0.84187  0.16535  0.49201  1.0000
  H   H625      1.0  0.78692  0.25722  0.50975  1.0000
  H   H626      1.0  0.83168  0.50811  0.97113  1.0000
  S   S110      1.0  0.00946  0.17262  0.71709  1.0000
  C   C779      1.0  0.70878  0.01497  0.58858  1.0000
  C   C780      1.0  0.72312  0.16324  0.49368  1.0000
  H   H627      1.0  0.94819  0.50676  0.92237  1.0000
  H   H628      1.0  0.00002  0.25201  0.48802  1.0000
  Fe  Fe57      1.0  0.84268  0.93097  0.38616  1.0000
  S   S111      1.0  0.83839  0.90069  0.45083  1.0000
  H   H629      1.0  0.74394  0.84235  0.00218  1.0000
  Fe  Fe58      1.0  0.90411  0.86654  0.35514  1.0000
  S   S112      1.0  0.90512  0.83397  0.41875  1.0000
  S   S113      1.0  0.94639  0.84980  0.30166  1.0000
  Fe  Fe59      1.0  0.84018  0.83909  0.41396  1.0000
  S   S114      1.0  0.80778  0.77848  0.42764  1.0000
  Fe  Fe60      1.0  0.90334  0.89923  0.44882  1.0000
  C   C781      1.0  0.85529  0.52176  0.18425  1.0000
  S   S115      1.0  0.83916  0.86929  0.34894  1.0000
  S   S116      1.0  0.90764  0.93153  0.38572  1.0000
  C   C782      1.0  0.80828  0.95221  0.25535  1.0000
  C   C783      1.0  0.87604  0.96477  0.23950  1.0000
  H   H630      1.0  0.99926  0.68519  0.38461  1.0000
  H   H631      1.0  0.99639  0.91256  0.11534  1.0000
  C   C784      1.0  0.89978  0.72263  0.01309  1.0000
  H   H632      1.0  0.91610  0.98037  0.13875  1.0000
  H   H633      1.0  0.96766  0.56031  0.41715  1.0000
  C   C785      1.0  0.84362  0.62113  0.05740  1.0000
  C   C786      1.0  0.95404  0.79787  0.28053  1.0000
  C   C787      1.0  0.92950  0.76406  0.29008  1.0000
  C   C788      1.0  0.93569  0.72375  0.27127  1.0000
  H   H634      1.0  0.79151  0.71357  0.01637  1.0000
  H   H635      1.0  0.90977  0.90772  0.22772  1.0000
  H   H636      1.0  0.90541  0.76909  0.31148  1.0000
  H   H637      1.0  0.92678  0.62101  0.99912  1.0000
  H   H638      1.0  0.88600  0.57118  0.47637  1.0000
  H   H639      1.0  0.82590  0.51275  0.17607  1.0000
  C   C789      1.0  0.73393  0.80818  0.41093  1.0000
  C   C790      1.0  0.75768  0.77298  0.41789  1.0000
  C   C791      1.0  0.74104  0.73248  0.41949  1.0000
  C   C792      1.0  0.70099  0.72699  0.41374  1.0000
  C   C793      1.0  0.91511  0.64850  0.45212  1.0000
  H   H640      1.0  0.74664  0.83934  0.40894  1.0000
  H   H641      1.0  0.94208  0.51493  0.30592  1.0000
  S   S117      1.0  0.81691  0.99668  0.37929  1.0000
  H   H642      1.0  0.96340  0.94178  0.04912  1.0000
  C   C794      1.0  0.71119  0.55299  0.30990  1.0000
  C   C795      1.0  0.74907  0.53882  0.30116  1.0000
  C   C796      1.0  0.69360  0.80294  0.40734  1.0000
  C   C797      1.0  0.74485  0.97266  0.34834  1.0000
  C   C798      1.0  0.73714  0.68563  0.99890  1.0000
  H   H643      1.0  0.83555  0.96303  0.99547  1.0000
  H   H644      1.0  0.76907  0.55973  0.28531  1.0000
  H   H645      1.0  0.75705  0.94145  0.34308  1.0000
  S   S118      1.0  0.97278  0.66529  0.21980  1.0000
  C   C799      1.0  0.98449  0.55143  0.48314  1.0000
  C   C800      1.0  0.94357  0.95955  0.98610  1.0000
  C   C801      1.0  0.86811  0.62799  0.02238  1.0000
  C   C802      1.0  0.97406  0.94722  0.25431  1.0000
  H   H646      1.0  0.90864  0.57864  0.12710  1.0000
  H   H647      1.0  0.89819  0.52186  0.99850  1.0000
  C   C803      1.0  0.98478  0.88202  0.12407  1.0000
  H   H648      1.0  0.95447  0.98472  0.44412  1.0000
  C   C804      1.0  0.96611  0.53962  0.44456  1.0000
  C   C805      1.0  0.93852  0.54690  0.31830  1.0000
  H   H649      1.0  0.72018  0.70957  0.01537  1.0000
  C   C806      1.0  0.80068  0.86512  0.01817  1.0000
  H   H650      1.0  0.68621  0.91444  0.40955  1.0000
  C   C807      1.0  0.90701  0.61526  0.02521  1.0000
  H   H651      1.0  0.82112  0.67936  0.44046  1.0000
  C   C808      1.0  0.68501  0.52606  0.32999  1.0000
  H   H652      1.0  0.95990  0.55783  0.21182  1.0000
  H   H653      1.0  0.88876  0.99669  0.32012  1.0000
  C   C809      1.0  0.96674  0.71655  0.24321  1.0000
  C   C810      1.0  0.96130  0.97699  0.22415  1.0000
  H   H654      1.0  0.85583  0.89565  0.02876  1.0000
  H   H655      1.0  0.70203  0.58437  0.30038  1.0000
  H   H656      1.0  0.80980  0.83537  0.03219  1.0000
  C   C811      1.0  0.99166  0.75020  0.23420  1.0000
  H   H657      1.0  0.99927  0.80851  0.02481  1.0000
  H   H658      1.0  0.95155  0.58878  0.06587  1.0000
  H   H659      1.0  0.94276  0.77363  0.15895  1.0000
  H   H660      1.0  0.93555  0.77143  0.04142  1.0000
  H   H661      1.0  0.97852  0.64497  0.31141  1.0000
  H   H662      1.0  0.91512  0.69795  0.02997  1.0000
  C   C812      1.0  0.72489  0.92268  0.46354  1.0000
  C   C813      1.0  0.95414  0.80387  0.14858  1.0000
  H   H663      1.0  0.73810  0.67795  0.29431  1.0000
  C   C814      1.0  0.96089  0.96732  0.02640  1.0000
  H   H664      1.0  0.92437  0.66233  0.35938  1.0000
  H   H665      1.0  0.81363  0.63095  0.05649  1.0000
  H   H666      1.0  0.77804  0.61569  0.40791  1.0000
  C   C815      1.0  0.97590  0.00770  0.03710  1.0000
  C   C816      1.0  0.89699  0.59144  0.09778  1.0000
  C   C817      1.0  0.76327  0.86928  0.00122  1.0000
  H   H667      1.0  0.93628  0.62632  0.43986  1.0000
  H   H668      1.0  0.90423  0.59911  0.23909  1.0000
  C   C818      1.0  0.92132  0.59732  0.06299  1.0000
  C   C819      1.0  0.96813  0.99380  0.47409  1.0000
  H   H669      1.0  0.90206  0.82989  0.00367  1.0000
  C   C820      1.0  0.98635  0.98898  0.19124  1.0000
  C   C821      1.0  0.85037  0.67785  0.45275  1.0000
  C   C822      1.0  0.85802  0.60262  0.09483  1.0000
  C   C823      1.0  0.89276  0.79750  0.99853  1.0000
  C   C824      1.0  0.96469  0.57857  0.30703  1.0000
  H   H670      1.0  0.90746  0.84011  0.17570  1.0000
  C   C825      1.0  0.88172  0.92082  0.23516  1.0000
  C   C826      1.0  0.83901  0.98023  0.24938  1.0000
  H   H671      1.0  0.70290  0.51088  0.47363  1.0000
  H   H672      1.0  0.98871  0.57130  0.28607  1.0000
  C   C827      1.0  0.99999  0.55749  0.00202  1.0000
  C   C828      1.0  0.70624  0.98120  0.33642  1.0000
  C   C829      1.0  0.81420  0.90854  0.25122  1.0000
  C   C830      1.0  0.85093  0.89286  0.24126  1.0000
  H   H673      1.0  0.79053  0.88681  0.25668  1.0000
  H   H674      1.0  0.85583  0.85893  0.23928  1.0000
  C   C831      1.0  0.81501  0.93720  0.99784  1.0000
  C   C832      1.0  0.82655  0.89905  0.01646  1.0000
  C   C833      1.0  0.69141  0.00303  0.47243  1.0000
  C   C834      1.0  0.91170  0.76454  0.01970  1.0000
  C   C835      1.0  0.90248  0.59800  0.36099  1.0000
  C   C836      1.0  0.90719  0.55666  0.34474  1.0000
  P   P27       1.0  0.86215  0.61106  0.39503  1.0000
  C   C837      1.0  0.84652  0.56386  0.42237  1.0000
  C   C838      1.0  0.87715  0.64907  0.43557  1.0000
  C   C839      1.0  0.86155  0.55786  0.20983  1.0000
  H   H675      1.0  0.93434  0.90936  0.15336  1.0000
  H   H676      1.0  0.68846  0.69563  0.41512  1.0000
  H   H677      1.0  0.95578  0.93866  0.28090  1.0000
  C   C840      1.0  0.86304  0.55251  0.46196  1.0000
  H   H678      1.0  0.00417  0.81663  0.24478  1.0000
  H   H679      1.0  0.91617  0.69804  0.27832  1.0000
  C   C841      1.0  0.92834  0.62983  0.34864  1.0000
  P   P28       1.0  0.91458  0.00213  0.23032  1.0000
  C   C842      1.0  0.00582  0.52276  0.02889  1.0000
  C   C843      1.0  0.82290  0.63249  0.36300  1.0000
  C   C844      1.0  0.83029  0.65205  0.32362  1.0000
  C   C845      1.0  0.79981  0.66841  0.29897  1.0000
  C   C846      1.0  0.76174  0.66521  0.31329  1.0000
  C   C847      1.0  0.75412  0.64582  0.35237  1.0000
  C   C848      1.0  0.78454  0.62991  0.37736  1.0000
  C   C849      1.0  0.77751  0.68811  0.99872  1.0000
  C   C850      1.0  0.94955  0.88036  0.14570  1.0000
  H   H680      1.0  0.68543  0.83980  0.31160  1.0000
  H   H681      1.0  0.88676  0.53191  0.35235  1.0000
  H   H682      1.0  0.77999  0.96444  0.26378  1.0000
  C   C851      1.0  0.98512  0.79069  0.25251  1.0000
  H   H683      1.0  0.83923  0.59796  0.12197  1.0000
  H   H684      1.0  0.98584  0.87078  0.38721  1.0000
  H   H685      1.0  0.80591  0.54490  0.37268  1.0000
  C   C852      1.0  0.95921  0.62009  0.32169  1.0000
  H   H686      1.0  0.83718  0.57592  0.22184  1.0000
  C   C853      1.0  0.93432  0.84135  0.15811  1.0000
  H   H687      1.0  0.72458  0.64338  0.36347  1.0000
  H   H688      1.0  0.85946  0.65501  0.31186  1.0000
  H   H689      1.0  0.80578  0.68381  0.26885  1.0000
  C   C854      1.0  0.93069  0.54714  0.20493  1.0000
  C   C855      1.0  0.89924  0.57067  0.21997  1.0000
  C   C856      1.0  0.76774  0.00489  0.36625  1.0000
  C   C857      1.0  0.81807  0.53766  0.40383  1.0000
  H   H690      1.0  0.68870  0.95640  0.32207  1.0000
  H   H691      1.0  0.69271  0.89635  0.05248  1.0000
  H   H692      1.0  0.99250  0.94081  0.35293  1.0000
  H   H693      1.0  0.75912  0.70522  0.42539  1.0000
  C   C858      1.0  0.69564  0.93541  0.43527  1.0000
  C   C859      1.0  0.98939  0.80537  0.12707  1.0000
  H   H694      1.0  0.73828  0.89188  0.45978  1.0000
  C   C860      1.0  0.00494  0.84449  0.11458  1.0000
  H   H695      1.0  0.00493  0.77603  0.12120  1.0000
  C   C861      1.0  0.67707  0.76226  0.40816  1.0000
  C   C862      1.0  0.92454  0.51055  0.18008  1.0000
  C   C863      1.0  0.85073  0.51593  0.48286  1.0000
  H   H696      1.0  0.00084  0.74070  0.98450  1.0000
  C   C864      1.0  0.67871  0.97543  0.43996  1.0000
  C   C865      1.0  0.86841  0.71338  0.98547  1.0000
  C   C866      1.0  0.00842  0.89235  0.39790  1.0000
  Fe  Fe61      1.0  0.84439  0.92454  0.83913  1.0000
  S   S119      1.0  0.83386  0.89080  0.90093  1.0000
  S   S120      1.0  0.81555  0.98757  0.82432  1.0000
  Fe  Fe62      1.0  0.91163  0.86414  0.81481  1.0000
  S   S121      1.0  0.90617  0.82774  0.87578  1.0000
  S   S122      1.0  0.95766  0.85033  0.76452  1.0000
  Fe  Fe63      1.0  0.84205  0.83072  0.86239  1.0000
  S   S123      1.0  0.80870  0.76877  0.85703  1.0000
  Fe  Fe64      1.0  0.89864  0.89150  0.90850  1.0000
  C   C867      1.0  0.94049  0.99287  0.95698  1.0000
  S   S124      1.0  0.84790  0.86483  0.79971  1.0000
  S   S125      1.0  0.90900  0.92780  0.84840  1.0000
  C   C868      1.0  0.94186  0.80597  0.53962  1.0000
  H   H697      1.0  0.89427  0.54530  0.87888  1.0000
  C   C869      1.0  0.97345  0.54494  0.74802  1.0000
  H   H698      1.0  0.90673  0.72506  0.52900  1.0000
  C   C870      1.0  0.73038  0.86262  0.84361  1.0000
  H   H699      1.0  0.87850  0.66802  0.82254  1.0000
  C   C871      1.0  0.82186  0.74374  0.74007  1.0000
  H   H700      1.0  0.69736  0.86464  0.78483  1.0000
  C   C872      1.0  0.97398  0.79971  0.74655  1.0000
  C   C873      1.0  0.95852  0.76183  0.76188  1.0000
  C   C874      1.0  0.97156  0.72247  0.74557  1.0000
  C   C875      1.0  0.73743  0.95000  0.49629  1.0000
  C   C876      1.0  0.88861  0.60503  0.84646  1.0000
  H   H701      1.0  0.93670  0.76284  0.78643  1.0000
  H   H702      1.0  0.95951  0.69338  0.75780  1.0000
  S   S126      1.0  0.92663  0.90776  0.97324  1.0000
  C   C877      1.0  0.71552  0.76998  0.93624  1.0000
  C   C878      1.0  0.75178  0.77899  0.91834  1.0000
  C   C879      1.0  0.76361  0.75798  0.88104  1.0000
  C   C880      1.0  0.73973  0.72638  0.86304  1.0000
  C   C881      1.0  0.70371  0.71687  0.88131  1.0000
  C   C882      1.0  0.70008  0.98154  0.65790  1.0000
  H   H703      1.0  0.77089  0.80158  0.93376  1.0000
  H   H704      1.0  0.74911  0.70914  0.83483  1.0000
  C   C883      1.0  0.98241  0.98043  0.54869  1.0000
  C   C884      1.0  0.86889  0.00651  0.56714  1.0000
  C   C885      1.0  0.70984  0.55670  0.85747  1.0000
  C   C886      1.0  0.75012  0.55006  0.85824  1.0000
  C   C887      1.0  0.74069  0.97077  0.79689  1.0000
  H   H705      1.0  0.73675  0.89698  0.58703  1.0000
  P   P29       1.0  0.94952  0.51967  0.70288  1.0000
  C   C888      1.0  0.98082  0.55625  0.82493  1.0000
  H   H706      1.0  0.76939  0.57688  0.86191  1.0000
  H   H707      1.0  0.97171  0.54988  0.85738  1.0000
  H   H708      1.0  0.91065  0.55746  0.55518  1.0000
  C   C889      1.0  0.78019  0.62449  0.95455  1.0000
  C   C890      1.0  0.86183  0.78861  0.97080  1.0000
  C   C891      1.0  0.92672  0.54123  0.61993  1.0000
  H   H709      1.0  0.68371  0.96263  0.76910  1.0000
  C   C892      1.0  0.75275  0.84508  0.54555  1.0000
  C   C893      1.0  0.75862  0.87343  0.57968  1.0000
  C   C894      1.0  0.79239  0.87097  0.60466  1.0000
  C   C895      1.0  0.82061  0.84009  0.59557  1.0000
  C   C896      1.0  0.81432  0.81163  0.56130  1.0000
  P   P30       1.0  0.86119  0.83248  0.63174  1.0000
  C   C897      1.0  0.84623  0.79690  0.67370  1.0000
  C   C898      1.0  0.90197  0.80993  0.60341  1.0000
  C   C899      1.0  0.92621  0.77985  0.62313  1.0000
  H   H710      1.0  0.77579  0.79204  0.51018  1.0000
  C   C900      1.0  0.86116  0.70524  0.48621  1.0000
  C   C901      1.0  0.73980  0.62204  0.95506  1.0000
  C   C902      1.0  0.91015  0.82290  0.56148  1.0000
  C   C903      1.0  0.86606  0.79657  0.71316  1.0000
  C   C904      1.0  0.85380  0.77018  0.74618  1.0000
  H   H711      1.0  0.98209  0.89975  0.90706  1.0000
  C   C905      1.0  0.96432  0.51107  0.95193  1.0000
  C   C906      1.0  0.81454  0.76953  0.66749  1.0000
  C   C907      1.0  0.87496  0.88331  0.65473  1.0000
  C   C908      1.0  0.90456  0.90761  0.63655  1.0000
  C   C909      1.0  0.91566  0.94621  0.65543  1.0000
  C   C910      1.0  0.89705  0.96115  0.69222  1.0000
  C   C911      1.0  0.86695  0.93775  0.70988  1.0000
  C   C912      1.0  0.85588  0.89906  0.69119  1.0000
  H   H712      1.0  0.72505  0.59647  0.93827  1.0000
  C   C913      1.0  0.91915  0.56943  0.58651  1.0000
  H   H713      1.0  0.79600  0.89264  0.63144  1.0000
  H   H714      1.0  0.83499  0.78675  0.55429  1.0000
  H   H715      1.0  0.92132  0.76979  0.65572  1.0000
  C   C914      1.0  0.72134  0.99070  0.50045  1.0000
  C   C915      1.0  0.97917  0.55142  0.96339  1.0000
  C   C916      1.0  0.96148  0.53718  0.79017  1.0000
  H   H716      1.0  0.89245  0.84671  0.54583  1.0000
  H   H717      1.0  0.89077  0.81708  0.71860  1.0000
  H   H718      1.0  0.86853  0.77084  0.77699  1.0000
  C   C917      1.0  0.00290  0.88712  0.88456  1.0000
  H   H719      1.0  0.79891  0.76852  0.63732  1.0000
  H   H720      1.0  0.91944  0.89683  0.60809  1.0000
  H   H721      1.0  0.93920  0.96420  0.64193  1.0000
  H   H722      1.0  0.70642  0.78643  0.96498  1.0000
  H   H723      1.0  0.85277  0.94916  0.73871  1.0000
  H   H724      1.0  0.83272  0.88119  0.70556  1.0000
  H   H725      1.0  0.94838  0.81693  0.50763  1.0000
  H   H726      1.0  0.75151  0.97551  0.62057  1.0000
  H   H727      1.0  0.87166  0.98695  0.50093  1.0000
  H   H728      1.0  0.75177  0.94113  0.78427  1.0000
  H   H729      1.0  0.79622  0.60023  0.93744  1.0000
  C   C918      1.0  0.96561  0.77582  0.55933  1.0000
  H   H730      1.0  0.82539  0.74051  0.94313  1.0000
  H   H731      1.0  0.75360  0.84372  0.83009  1.0000
  S   S127      1.0  0.93702  0.92031  0.50840  1.0000
  H   H732      1.0  0.99645  0.53311  0.54814  1.0000
  H   H733      1.0  0.97997  0.96055  0.57659  1.0000
  C   C919      1.0  0.69864  0.87416  0.81824  1.0000
  H   H734      1.0  0.85988  0.69754  0.89246  1.0000
  S   S128      1.0  0.00813  0.60109  0.48651  1.0000
  C   C920      1.0  0.00001  0.72047  0.71359  1.0000
  C   C921      1.0  0.93917  0.55651  0.66019  1.0000
  C   C922      1.0  0.87799  0.59560  0.92242  1.0000
  H   H735      1.0  0.87648  0.57450  0.94942  1.0000
  C   C923      1.0  0.92335  0.61305  0.59321  1.0000
  C   C924      1.0  0.93421  0.62858  0.63363  1.0000
  C   C925      1.0  0.94156  0.60048  0.66717  1.0000
  H   H736      1.0  0.89571  0.59182  0.81535  1.0000
  C   C926      1.0  0.87885  0.64788  0.85052  1.0000
  C   C927      1.0  0.73215  0.87526  0.88666  1.0000
  H   H737      1.0  0.97635  0.73964  0.61653  1.0000
  C   C928      1.0  0.88813  0.57891  0.88237  1.0000
  H   H738      1.0  0.93758  0.51604  0.79639  1.0000
  H   H739      1.0  0.91819  0.63475  0.56709  1.0000
  H   H740      1.0  0.93749  0.66240  0.63907  1.0000
  H   H741      1.0  0.94934  0.61336  0.69832  1.0000
  C   C929      1.0  0.86831  0.63868  0.92690  1.0000
  C   C930      1.0  0.84964  0.74680  0.96440  1.0000
  C   C931      1.0  0.98251  0.52425  0.51823  1.0000
  H   H742      1.0  0.71640  0.98737  0.90789  1.0000
  H   H743      1.0  0.77774  0.72243  0.69588  1.0000
  H   H744      1.0  0.88219  0.56120  0.73907  1.0000
  C   C932      1.0  0.96405  0.96817  0.51014  1.0000
  C   C933      1.0  0.80241  0.74316  0.70062  1.0000
  H   H745      1.0  0.97428  0.57802  0.94240  1.0000
  C   C934      1.0  0.86849  0.66461  0.89049  1.0000
  C   C935      1.0  0.00591  0.57061  0.74135  1.0000
  C   C936      1.0  0.78060  0.81430  0.53637  1.0000
  C   C937      1.0  0.99345  0.74771  0.86936  1.0000
  C   C938      1.0  0.96495  0.71746  0.87749  1.0000
  C   C939      1.0  0.70222  0.98308  0.78822  1.0000
  C   C940      1.0  0.95768  0.76267  0.60101  1.0000
  H   H746      1.0  0.76028  0.93959  0.51767  1.0000
  C   C941      1.0  0.97460  0.68002  0.89875  1.0000
  H   H747      1.0  0.95517  0.67511  0.49823  1.0000
  P   P31       1.0  0.85162  0.65946  0.97769  1.0000
  C   C942      1.0  0.72295  0.98947  0.62202  1.0000
  H   H748      1.0  0.98547  0.77596  0.85181  1.0000
  H   H749      1.0  0.69821  0.58846  0.86043  1.0000
  H   H750      1.0  0.72648  0.84658  0.52636  1.0000
  H   H751      1.0  0.98742  0.87340  0.58310  1.0000
  H   H752      1.0  0.81888  0.53454  0.76329  1.0000
  H   H753      1.0  0.92700  0.98753  0.92598  1.0000
  H   H754      1.0  0.71143  0.96287  0.68420  1.0000
  H   H755      1.0  0.90627  0.99056  0.70739  1.0000
  H   H756      1.0  0.81207  0.72402  0.76615  1.0000
  H   H757      1.0  0.76969  0.97112  0.96594  1.0000
  H   H758      1.0  0.75671  0.86608  0.90582  1.0000
  C   C943      1.0  0.00306  0.79763  0.71540  1.0000
  H   H759      1.0  0.68565  0.69233  0.86730  1.0000
  C   C944      1.0  0.76558  0.50902  0.85385  1.0000
  C   C945      1.0  0.69133  0.73895  0.91778  1.0000
  C   C946      1.0  0.70218  0.89908  0.90477  1.0000
  C   C947      1.0  0.69958  0.99730  0.93543  1.0000
  H   H760      1.0  0.99048  0.76314  0.54257  1.0000
  H   H761      1.0  0.99921  0.94111  0.84287  1.0000
  C   C948      1.0  0.68478  0.52234  0.85155  1.0000
  H   H762      1.0  0.93543  0.72302  0.86696  1.0000
  C   C949      1.0  0.68809  0.96778  0.96630  1.0000
  H   H763      1.0  0.95263  0.65649  0.90509  1.0000
  C   C950      1.0  0.87550  0.52781  0.73546  1.0000
  C   C951      1.0  0.76535  0.99793  0.81990  1.0000
  C   C952      1.0  0.89878  0.70419  0.50275  1.0000
  H   H764      1.0  0.84725  0.81409  0.95413  1.0000
  C   C953      1.0  0.75122  0.90769  0.98286  1.0000
  H   H765      1.0  0.68702  0.65124  0.97679  1.0000
  H   H766      1.0  0.84025  0.72756  0.49891  1.0000
  C   C954      1.0  0.81383  0.00577  0.51855  1.0000
  C   C955      1.0  0.85322  0.99878  0.52642  1.0000
  P   P32       1.0  0.70269  0.91289  0.96107  1.0000
  H   H767      1.0  0.89936  0.00040  0.57309  1.0000
  C   C956      1.0  0.92589  0.67608  0.48547  1.0000
  C   C957      1.0  0.77755  0.94155  0.98099  1.0000
  C   C958      1.0  0.83954  0.51295  0.74879  1.0000
  C   C959      1.0  0.71833  0.65267  0.97705  1.0000
  C   C960      1.0  0.79937  0.65777  0.97614  1.0000
  H   H768      1.0  0.80253  1.00000  0.48646  1.0000
