data_image0
_chemical_formula_structural       FeS2FeS2FeSFeS2FeSFeS2FeSFeS4CHC2SCHCH2C4H2C3HCH2C3HC2HC7H4C5HCHCH2C2HC2H3C2HC2H2CSH3CHCH3C2HC7PC19H15CHCH4C2HSC2H6C3H3C3HC2HC2HC2H2CH4CHCPHCH2CH3CHCHC4HC3HC3H2CH2CSC3H2FeC3SHCSH2CFeS2FeS2FeSFeS3FeS2FeS2FeSFeS5CHC3HC2HC6H4C2H2C6H4C7H4C6H4C8H4C6PC5HC3PC5H8C2H2C3HCHC3PH2C2HC2H2C5H3C2H2CHCH2C3HC4H3C2HCH4C8HCH4C3HCH2CH8CH2C6PC2H2CHFeC8H5CHC4H5C6H3CH3CHCHCPH3C2HFeHCPHC3HC3HCH3CH3FeC2HC2HFeHC6H3CHC6H3C4H3CHC3HSHC4H2S2CH2C3HCH2C2HCH2C2PH3C4HC4H4C2HC2H4CHC2H3C5HCPC3HCHPC2HC2PSC2HCHCH3FeHC2HSH3C2H4CHC3HCHCSC3HC3HCHCHSHCSFeS2FeSFeS3FeSFeS2FeSFeS2C2SPSCSCHC4HCH2CHC2HC5H2C7H4CHC2HCHCHPC5HSCHCHFeHCH4C2H2CH5C4HCH2C3H3CHCH6C2H2CHCSHCHC2H2C3HCHCHC2H2CH2C6H2CH3C6H2C2H6CHFeC2H2PC2HCSFeCSFeS2CFeS3FeS2FeS2CFeS3FeSFeS2FeSFeHS2FeS2HSFeSFeSCSC2HCH2CHC4H4C8H4CH2C3HCHC6HCH2C7H3C6H4C4HCH2PHPCHC5H4CH4CH2C5H3CHCHCHSC5H2C4H2CH3C2PC3HC2H2CHC2H2C3HC2SHC3HC11HC2H4CH2FeH7C2HSHCH6C2HPC2H3C8HCH2C2HCH2C3H2CHC2H2C3HCH2C3HC2HCHC6H2CHPC3HC10PC3SCH5C5H2CH6CH4C2H2C2HCH2CHC3H2C2H4CH5C2FeCHFeS2FeS2FeSFeS3FeCS2C2HCSFeS2FeS2FeSFeS3H2SHSHCSCS2CHC9H3SC7H3C6H4C6H3C7H5SH2C6H4C6H4C6H4C6H4C7H2C2H7CSHSFeCFeHCH2CHPH2SCHC2H2C3H5CH2C2H3CHCHC7PC18H20C3PC18H14C2HC7PC18H20C6PC10FeC7H2CH8CHCH4C4H3C8H2CPHCSHCSHCH3FeC3HCH2CPCHCHCHC2H3C2HCHC3HCHC2H2SHC2HSHCSCH2C5HC3HC3H2C2SCHCH2CH3FeCH3CHC2H2CH2CHCH2CH3CH4PHC2HCHCHC7H7CHC2FeCH2CHFe2H2SCHCHFeCHCPHCHC3HCFeH2C2H3C3HC4H5CHCHC3H2SH4C3H3C5HC2HCHCH2CH2C6FeSHCPSC2SH2CH4FeS2FeS2FeSFeS3FeS2FeS2FeSFeS3CSHSHS2C2HC7H4C6H4C3H2C6H4C6H4C6H5C2H4C3HCH5CH4CH3PC10HFeCHCH9CHC3HPC11HC6H8CHCH4C2PHC14H2CH7CHC3HPHC7HC3H2C2SHC4H6FeH2PC5HC6PC8HC9H5CH6CH5C2H2CHC5H2FeCFeHCHC3HC2HCHCH2C2HC2H3CHC3HCH2C2H3C3H4CHC6H2C3HCH3C3HCH3CH2C7SC2HC2H2CHC2HCHC2H2CHSCH2PHC3HC3HFeHCH3C2SHC2HCH3C2H2C2H3CHPCHCH2C9PC2HCH2C6H3CHSPH3SC2H2C2H2CHC2H5SCH2SHFeS2FeS2FeSFeS3FeS2FeS2FeSFeS7C7H4CHC6H4C6H4C3HCHPC7H4CHC6H5C2HC2H4CH2C2HCHCH3CHC2HC2H2CH2C2HC2H2SHC6HCHCHCSCHC6H2C3H2C5H3CHC10H2C2HCH2SCHCPH5CHC3H4C2HCHCHCH2CHCH2C2HPCHCHCHC2HCHFeH2CHCHC6PC8H2C3HC4H5CH5C3HCH3C2H5CH4PCH2CH2C2HC4HFeC9HC6HC6PC15H9CHC2HCH7C3HCPC2HCHC2H2CH2CHFeCH2CHC8H4CH3CH2CFeC3H2CH2C4H2CH2C3HCHC3HCHC8HCH2PCH2CPHCS2CH2CHCH2CHCHC3HC3H2FeH2SC2H3FeSCH2SFeSH3CSCSFeS2FeS2FeSFeS3HSH2PHFeS2FeS2FeSFeS3CS2HSC6H4C6H4C6HC2HC6H4C6H2CHC6H4C6H4C7H4C7H3C6PC14H2CSCH7CH10FeC3H8C3H2C2H2CHC3HFeHC3H2CHC6PC14H3CH17CH3C5H4FeSHCH3C3H4FeCH6CSHCHCHSCHCPHC7PC18HCH5CH12CHC5H2SH2CH2C5HC2PH2C3H2CHCHPHC2H2CH2CH2CHCHC2HCHCHFeC2SC4H3C3HCFeC3HC2H3C2FeH3CHCH4C2SC2H2CSCHC4H3CHC2H3CPSC2HC2H2C2HC3FeHCH3C2H2CH2CHCH2CH4C5SHCHCHC2HC2HCHC3HC2PHCFeC2HCSCHCHC2HC2HCH2C2HCHCHC2HCH2CHPHC6HCH3CH3CH3FeH2CHC2HCHCHCHFeC7HSHC3SH3CFeHFeSC2SFeSFeSCHFeCSFeS2FeSCS2FeC2FeS2FeHCS2FeSH2SFeSFeSH2C6H4C7H3C2HC2H2CHC7H4SC2HC4H2CSC3HSCHCHC2HSC2HCSHC3HSH4C2H4CHCHC3PC5H2C6H2C3FeCHC2H3C2H6CH3SPHC7PC18H17CH4SCHC2HCHC3HCHCSC4H2CH3C2HC2HC3HC3HC2HC2H3C2HC2H2SH2SC2H5CHC3HC2HCHCFeCH2C3H2C2HC2HC3HC3SCPHSHCHCSH2FeS2FeCFeSHSFeSFeS2FeSFeS3CH3CH3C6H4FeC3HCH2C6H2C2H3C4HCH2C2SC2HCHC2HCH2CSH3C2HCHC4H3SC4H3CFeHCH2CH2CHC2H2C2H2CHC2HC2H3CHCHCH2C4PHC6H2CH2CHPH3C3HCHC3HCHCH2C3HC4SHC3PC5HCHPC2HCH2CH2SHC2SHC3HSHFeS2FeS2FeSFeS3FeS2FeS2FeSFeS3HCS2CHS2H2C3HC6H4C6H4C2H2C6H4C6H4C9H4C7PC3HC14H20C5H7C3HCH2C2H3FeC4HC8HC2H2C2H2CHC4PHCHCHC2PC4HC4H2CHCHC2HCHC2HSH2CHCH3C5H6C6PC3H3C4HC7H6C2PH3CH4CHC3SC2H2C2H2CHCPH3CHCHC2HCHC2HCHCHCH2C2HCHCH4CHC2H4FeCHC2HCHFeCH2CHC2HCHC3HC2H3C2HC3FeH3C2H2C3HC5H3PC2H2CFePHCHCHSHCHCH2CHC2H3CHC3HCSHC2HCHC4HCHC4H3CHCSCHC5HC3H2FePHC3H3CHFeHC2SCHCHFeS2CSFeSFeHSHFeS2HSFeSFeSHSH2CH2C8H3C2H2C4HC3HCH4C2HCHC2SCHC3HC2HCSCH4C3SHC2H3C4H2FeCSHCH3CHCHCHCH3C7HCP2C2HC2H5C4HSHCHFeH4C3HC2HC2PC2HCHSCHCHCHC3HCHCHC2HCH2CH3C4H2C2HCH2CHC3HSCH2CH4CHC2HC2H2C2
_chemical_formula_sum              "Fe160 S320 C2400 H1920 P80"
_cell_length_a       85.2683
_cell_length_b       85.1054
_cell_length_c       37.6614
_cell_angle_alpha    90.9275
_cell_angle_beta     90.9861
_cell_angle_gamma    115.262

_space_group_name_H-M_alt    "P 1"
_space_group_IT_number       1

loop_
  _space_group_symop_operation_xyz
  'x, y, z'

loop_
  _atom_site_type_symbol
  _atom_site_label
  _atom_site_symmetry_multiplicity
  _atom_site_fract_x
  _atom_site_fract_y
  _atom_site_fract_z
  _atom_site_occupancy
  Fe  Fe1       1.0  0.02343  0.43617  0.53851  1.0000
  S   S1        1.0  0.02392  0.44630  0.59425  1.0000
  S   S2        1.0  0.99855  0.42774  0.50198  1.0000
  Fe  Fe2       1.0  0.06436  0.44976  0.54088  1.0000
  S   S3        1.0  0.06690  0.46057  0.59713  1.0000
  S   S4        1.0  0.08631  0.45268  0.50157  1.0000
  Fe  Fe3       1.0  0.04334  0.43600  0.60895  1.0000
  S   S5        1.0  0.03860  0.42158  0.66178  1.0000
  Fe  Fe4       1.0  0.04726  0.47015  0.57947  1.0000
  S   S6        1.0  0.04168  0.42405  0.55353  1.0000
  S   S7        1.0  0.04595  0.46113  0.52297  1.0000
  Fe  Fe5       1.0  0.04868  0.46790  0.93684  1.0000
  S   S8        1.0  0.05135  0.45145  0.98013  1.0000
  Fe  Fe6       1.0  0.05628  0.44711  0.87802  1.0000
  S   S9        1.0  0.05960  0.42894  0.91801  1.0000
  S   S10       1.0  0.06371  0.45329  0.81962  1.0000
  Fe  Fe7       1.0  0.03532  0.42892  0.94334  1.0000
  S   S11       1.0  0.01291  0.40530  0.96791  1.0000
  Fe  Fe8       1.0  0.07532  0.45290  0.95256  1.0000
  S   S12       1.0  0.10141  0.46460  0.98519  1.0000
  S   S13       1.0  0.03142  0.44557  0.90129  1.0000
  S   S14       1.0  0.07312  0.47071  0.91149  1.0000
  S   S15       1.0  0.20490  0.47121  0.42423  1.0000
  C   C1        1.0  0.98607  0.45279  0.85400  1.0000
  H   H1        1.0  0.14777  0.47643  0.54644  1.0000
  C   C2        1.0  0.98754  0.42462  0.76736  1.0000
  C   C3        1.0  0.99537  0.41900  0.22156  1.0000
  S   S16       1.0  0.17604  0.46351  0.01146  1.0000
  C   C4        1.0  0.13527  0.47756  0.01203  1.0000
  H   H2        1.0  0.01954  0.42808  0.82698  1.0000
  C   C5        1.0  0.15569  0.46462  0.00333  1.0000
  H   H3        1.0  0.14007  0.47468  0.12013  1.0000
  H   H4        1.0  0.05750  0.48367  0.84567  1.0000
  C   C6        1.0  0.12233  0.46441  0.99079  1.0000
  C   C7        1.0  0.12633  0.45149  0.97553  1.0000
  C   C8        1.0  0.14278  0.45154  0.98200  1.0000
  C   C9        1.0  0.01951  0.44862  0.79521  1.0000
  H   H5        1.0  0.11664  0.44125  0.95923  1.0000
  H   H6        1.0  0.14550  0.44128  0.97042  1.0000
  C   C10       1.0  0.99055  0.40026  0.97606  1.0000
  C   C11       1.0  0.97839  0.38354  0.76792  1.0000
  C   C12       1.0  0.98793  0.47282  0.39328  1.0000
  H   H7        1.0  0.00621  0.43019  0.23319  1.0000
  C   C13       1.0  0.98241  0.45806  0.05847  1.0000
  H   H8        1.0  0.00159  0.45357  0.65277  1.0000
  H   H9        1.0  0.98737  0.40647  0.27167  1.0000
  C   C14       1.0  0.13922  0.47272  0.52321  1.0000
  C   C15       1.0  0.12108  0.46681  0.52754  1.0000
  C   C16       1.0  0.10962  0.46163  0.49797  1.0000
  H   H10       1.0  0.99889  0.39992  0.73369  1.0000
  C   C17       1.0  0.04538  0.46466  0.43399  1.0000
  C   C18       1.0  0.02187  0.47918  0.44674  1.0000
  H   H11       1.0  0.10824  0.45889  0.44086  1.0000
  C   C19       1.0  0.01590  0.46117  0.44107  1.0000
  C   C20       1.0  0.04558  0.43068  0.70552  1.0000
  C   C21       1.0  0.03951  0.41999  0.73510  1.0000
  C   C22       1.0  0.04479  0.42665  0.77013  1.0000
  C   C23       1.0  0.05628  0.44411  0.77610  1.0000
  C   C24       1.0  0.06243  0.45477  0.74654  1.0000
  C   C25       1.0  0.05711  0.44814  0.71154  1.0000
  H   H12       1.0  0.03083  0.40642  0.73084  1.0000
  H   H13       1.0  0.04023  0.41825  0.79248  1.0000
  H   H14       1.0  0.07147  0.46824  0.75068  1.0000
  H   H15       1.0  0.06210  0.45649  0.68915  1.0000
  C   C26       1.0  0.98089  0.46529  0.99674  1.0000
  C   C27       1.0  0.02625  0.46467  0.68080  1.0000
  C   C28       1.0  0.15181  0.47774  0.01813  1.0000
  C   C29       1.0  0.21337  0.46237  0.52321  1.0000
  C   C30       1.0  0.00993  0.42661  0.04729  1.0000
  H   H16       1.0  0.00529  0.47466  0.96960  1.0000
  C   C31       1.0  0.02234  0.39282  0.87783  1.0000
  H   H17       1.0  0.03479  0.41447  0.10163  1.0000
  C   C32       1.0  0.00439  0.39244  0.82667  1.0000
  H   H18       1.0  0.00778  0.40290  0.13533  1.0000
  H   H19       1.0  0.00026  0.42845  0.16849  1.0000
  C   C33       1.0  0.98220  0.44952  0.91738  1.0000
  C   C34       1.0  0.19241  0.40284  0.82853  1.0000
  H   H20       1.0  0.16081  0.46217  0.37846  1.0000
  C   C35       1.0  0.00488  0.47478  0.52393  1.0000
  C   C36       1.0  0.99456  0.42013  0.06618  1.0000
  H   H21       1.0  0.17401  0.39972  0.86938  1.0000
  H   H22       1.0  0.05012  0.47873  0.71011  1.0000
  H   H23       1.0  0.02193  0.47157  0.02069  1.0000
  C   C37       1.0  0.03813  0.47890  0.70072  1.0000
  C   C38       1.0  0.02760  0.45396  0.43479  1.0000
  H   H24       1.0  0.05449  0.45898  0.43045  1.0000
  C   C39       1.0  0.01336  0.38527  0.80581  1.0000
  C   C40       1.0  0.13497  0.46899  0.45969  1.0000
  H   H25       1.0  0.03212  0.45769  0.80534  1.0000
  H   H26       1.0  0.03609  0.42915  0.04475  1.0000
  C   C41       1.0  0.21256  0.44865  0.50127  1.0000
  S   S17       1.0  0.20340  0.47820  0.31961  1.0000
  H   H27       1.0  0.03383  0.37681  0.80451  1.0000
  H   H28       1.0  0.98730  0.37953  0.01153  1.0000
  H   H29       1.0  0.22444  0.44776  0.49437  1.0000
  C   C42       1.0  0.01228  0.43165  0.80740  1.0000
  H   H30       1.0  0.99216  0.43494  0.88486  1.0000
  C   C43       1.0  0.00829  0.40981  0.11116  1.0000
  H   H31       1.0  0.01032  0.38244  0.77779  1.0000
  H   H32       1.0  0.02578  0.39565  0.90579  1.0000
  H   H33       1.0  0.02289  0.43997  0.43206  1.0000
  C   C44       1.0  0.99363  0.41176  0.09846  1.0000
  C   C45       1.0  0.01062  0.46455  0.66863  1.0000
  H   H34       1.0  0.00223  0.45256  0.44279  1.0000
  C   C46       1.0  0.11501  0.48190  0.88775  1.0000
  C   C47       1.0  0.16270  0.45073  0.38500  1.0000
  C   C48       1.0  0.16849  0.44256  0.35929  1.0000
  C   C49       1.0  0.17171  0.42831  0.36825  1.0000
  C   C50       1.0  0.16902  0.42213  0.40288  1.0000
  C   C51       1.0  0.16278  0.43001  0.42863  1.0000
  C   C52       1.0  0.16001  0.44457  0.41958  1.0000
  P   P1        1.0  0.16094  0.42339  0.47424  1.0000
  C   C53       1.0  0.14214  0.42396  0.49461  1.0000
  C   C54       1.0  0.15762  0.40106  0.47675  1.0000
  C   C55       1.0  0.16646  0.39595  0.50258  1.0000
  C   C56       1.0  0.16346  0.37850  0.50470  1.0000
  C   C57       1.0  0.15145  0.36603  0.48142  1.0000
  C   C58       1.0  0.14235  0.37098  0.45614  1.0000
  C   C59       1.0  0.14533  0.38842  0.45393  1.0000
  C   C60       1.0  0.14106  0.42408  0.53178  1.0000
  C   C61       1.0  0.12650  0.42443  0.54775  1.0000
  C   C62       1.0  0.11275  0.42423  0.52673  1.0000
  C   C63       1.0  0.11344  0.42344  0.48977  1.0000
  C   C64       1.0  0.12800  0.42321  0.47370  1.0000
  C   C65       1.0  0.18121  0.43793  0.49563  1.0000
  C   C66       1.0  0.18215  0.45172  0.51781  1.0000
  C   C67       1.0  0.19817  0.46391  0.53143  1.0000
  C   C68       1.0  0.02677  0.38205  0.82088  1.0000
  C   C69       1.0  0.99629  0.41947  0.79341  1.0000
  C   C70       1.0  0.19657  0.43654  0.48724  1.0000
  C   C71       1.0  0.20321  0.47508  0.24621  1.0000
  H   H35       1.0  0.17093  0.44760  0.33270  1.0000
  H   H36       1.0  0.17664  0.42233  0.34847  1.0000
  H   H37       1.0  0.17213  0.41147  0.40961  1.0000
  H   H38       1.0  0.15614  0.45139  0.43951  1.0000
  H   H39       1.0  0.17552  0.40536  0.52134  1.0000
  H   H40       1.0  0.17035  0.37463  0.52461  1.0000
  H   H41       1.0  0.14908  0.35250  0.48321  1.0000
  H   H42       1.0  0.13287  0.36129  0.43840  1.0000
  H   H43       1.0  0.13801  0.39206  0.43455  1.0000
  H   H44       1.0  0.15155  0.42414  0.54844  1.0000
  H   H45       1.0  0.12593  0.42507  0.57641  1.0000
  H   H46       1.0  0.10164  0.42496  0.53896  1.0000
  H   H47       1.0  0.10280  0.42350  0.47363  1.0000
  H   H48       1.0  0.12818  0.42257  0.44503  1.0000
  H   H49       1.0  0.17066  0.45358  0.52352  1.0000
  C   C72       1.0  0.19962  0.41880  0.88487  1.0000
  H   H50       1.0  0.01044  0.43263  0.02190  1.0000
  C   C73       1.0  0.01082  0.45367  0.76933  1.0000
  H   H51       1.0  0.19624  0.42637  0.46918  1.0000
  H   H52       1.0  0.97745  0.39261  0.52939  1.0000
  H   H53       1.0  0.11418  0.46914  0.89369  1.0000
  H   H54       1.0  0.00261  0.40207  0.87954  1.0000
  C   C74       1.0  0.97821  0.40327  0.16950  1.0000
  C   C75       1.0  0.02361  0.41626  0.09209  1.0000
  H   H55       1.0  0.00749  0.46100  0.07793  1.0000
  S   S18       1.0  0.22133  0.47542  0.06671  1.0000
  C   C76       1.0  0.02440  0.42461  0.06012  1.0000
  C   C77       1.0  0.99205  0.41789  0.18487  1.0000
  H   H56       1.0  0.98305  0.44318  0.94148  1.0000
  H   H57       1.0  0.19878  0.47490  0.54734  1.0000
  H   H58       1.0  0.19231  0.46266  0.24976  1.0000
  H   H59       1.0  0.14007  0.46988  0.43335  1.0000
  H   H60       1.0  0.00256  0.46388  0.57572  1.0000
  H   H61       1.0  0.19538  0.42137  0.91030  1.0000
  C   C78       1.0  0.18058  0.46514  0.11798  1.0000
  C   C79       1.0  0.16509  0.45382  0.10093  1.0000
  C   C80       1.0  0.15059  0.45742  0.10177  1.0000
  H   H62       1.0  0.10281  0.47408  0.83583  1.0000
  H   H63       1.0  0.02923  0.45376  0.67459  1.0000
  H   H64       1.0  0.11595  0.46595  0.55386  1.0000
  C   C81       1.0  0.00006  0.46222  0.05539  1.0000
  C   C82       1.0  0.03124  0.38580  0.85688  1.0000
  C   C83       1.0  0.98096  0.38666  0.99885  1.0000
  H   H65       1.0  0.98905  0.41932  0.94172  1.0000
  C   C84       1.0  0.98201  0.40919  0.95984  1.0000
  C   C85       1.0  0.20909  0.48024  0.21150  1.0000
  H   H66       1.0  0.04169  0.38339  0.86857  1.0000
  C   C86       1.0  0.99481  0.44167  0.75535  1.0000
  C   C87       1.0  0.97616  0.46246  0.91830  1.0000
  H   H67       1.0  0.98437  0.37726  0.08712  1.0000
  C   C88       1.0  0.00909  0.39631  0.86282  1.0000
  C   C89       1.0  0.11682  0.46282  0.46405  1.0000
  H   H68       1.0  0.20278  0.47170  0.18899  1.0000
  H   H69       1.0  0.16116  0.47483  0.20290  1.0000
  C   C90       1.0  0.97673  0.41141  0.49276  1.0000
  H   H70       1.0  0.19178  0.46227  0.11767  1.0000
  H   H71       1.0  0.16437  0.44236  0.08666  1.0000
  H   H72       1.0  0.13860  0.44866  0.08838  1.0000
  H   H73       1.0  0.99003  0.44917  0.82932  1.0000
  C   C91       1.0  0.21700  0.42761  0.87508  1.0000
  H   H74       1.0  0.98746  0.48059  0.60084  1.0000
  C   C92       1.0  0.98475  0.40567  0.24326  1.0000
  P   P2        1.0  0.98741  0.39718  0.80714  1.0000
  H   H75       1.0  0.18292  0.39327  0.81060  1.0000
  C   C93       1.0  0.14640  0.47388  0.48930  1.0000
  H   H76       1.0  0.22180  0.45615  0.34367  1.0000
  H   H77       1.0  0.98710  0.38122  0.68033  1.0000
  C   C94       1.0  0.22191  0.42394  0.84163  1.0000
  H   H78       1.0  0.99459  0.47838  0.66757  1.0000
  H   H79       1.0  0.19852  0.44516  0.00792  1.0000
  H   H80       1.0  0.01117  0.46706  0.51352  1.0000
  C   C95       1.0  0.18740  0.40647  0.86165  1.0000
  H   H81       1.0  0.97850  0.47141  0.83010  1.0000
  C   C96       1.0  0.20836  0.44136  0.99826  1.0000
  H   H82       1.0  0.98344  0.42136  0.05481  1.0000
  C   C97       1.0  0.98697  0.38815  0.73553  1.0000
  C   C98       1.0  0.98728  0.44480  0.88535  1.0000
  C   C99       1.0  0.18177  0.48040  0.13473  1.0000
  C   C100      1.0  0.99137  0.48225  0.57346  1.0000
  H   H83       1.0  0.01657  0.46684  0.76002  1.0000
  C   C101      1.0  0.98689  0.47591  0.42972  1.0000
  C   C102      1.0  0.15164  0.47250  0.11918  1.0000
  C   C103      1.0  0.99990  0.47284  0.55935  1.0000
  H   H84       1.0  0.98820  0.44552  0.73483  1.0000
  C   C104      1.0  0.99868  0.46976  0.99410  1.0000
  C   C105      1.0  0.97959  0.46535  0.85450  1.0000
  C   C106      1.0  0.21358  0.44445  0.96311  1.0000
  H   H85       1.0  0.20766  0.45066  0.94603  1.0000
  H   H86       1.0  0.00043  0.47761  0.38086  1.0000
  C   C107      1.0  0.20966  0.41158  0.81852  1.0000
  H   H87       1.0  0.16648  0.47329  0.26701  1.0000
  H   H88       1.0  0.21189  0.43130  0.04832  1.0000
  C   C108      1.0  0.21587  0.43353  0.02099  1.0000
  S   S19       1.0  0.16958  0.48123  0.48575  1.0000
  C   C109      1.0  0.00675  0.47856  0.67685  1.0000
  C   C110      1.0  0.98035  0.37753  0.70517  1.0000
  C   C111      1.0  0.00819  0.46810  0.02321  1.0000
  H   H89       1.0  0.97618  0.45372  0.08352  1.0000
  H   H90       1.0  0.21354  0.40878  0.79281  1.0000
  Fe  Fe9       1.0  0.20242  0.48302  0.03576  1.0000
  C   C112      1.0  0.05146  0.48259  0.43966  1.0000
  C   C113      1.0  0.98876  0.59142  0.52780  1.0000
  C   C114      1.0  0.98105  0.53577  0.41201  1.0000
  S   S20       1.0  0.19188  0.70662  0.00254  1.0000
  H   H91       1.0  0.08724  0.54918  0.64483  1.0000
  C   C115      1.0  0.22099  0.53776  0.14712  1.0000
  S   S21       1.0  0.19116  0.69092  0.47878  1.0000
  H   H92       1.0  0.09113  0.55733  0.70881  1.0000
  H   H93       1.0  0.16562  0.55411  0.92926  1.0000
  C   C116      1.0  0.22166  0.65253  0.03785  1.0000
  Fe  Fe10      1.0  0.07555  0.61442  0.87282  1.0000
  S   S22       1.0  0.07337  0.62505  0.92749  1.0000
  S   S23       1.0  0.07372  0.62697  0.82052  1.0000
  Fe  Fe11      1.0  0.08166  0.58514  0.90352  1.0000
  S   S24       1.0  0.08016  0.59334  0.95954  1.0000
  S   S25       1.0  0.08810  0.56303  0.88713  1.0000
  Fe  Fe12      1.0  0.05650  0.59684  0.94043  1.0000
  S   S26       1.0  0.03279  0.58475  0.97724  1.0000
  Fe  Fe13      1.0  0.09713  0.62078  0.94288  1.0000
  S   S27       1.0  0.12091  0.63621  0.98079  1.0000
  S   S28       1.0  0.05734  0.58684  0.88488  1.0000
  S   S29       1.0  0.10003  0.61193  0.88767  1.0000
  Fe  Fe14      1.0  0.09107  0.62568  0.54141  1.0000
  S   S30       1.0  0.09800  0.60660  0.57085  1.0000
  S   S31       1.0  0.11086  0.65273  0.52330  1.0000
  Fe  Fe15      1.0  0.05117  0.60161  0.54555  1.0000
  S   S32       1.0  0.05610  0.58163  0.57553  1.0000
  S   S33       1.0  0.02278  0.59717  0.53483  1.0000
  Fe  Fe16      1.0  0.07634  0.60365  0.60777  1.0000
  S   S34       1.0  0.07877  0.59731  0.66597  1.0000
  Fe  Fe17      1.0  0.07713  0.58622  0.53687  1.0000
  S   S35       1.0  0.07996  0.56364  0.51034  1.0000
  S   S36       1.0  0.07030  0.62387  0.58038  1.0000
  S   S37       1.0  0.07132  0.60520  0.50449  1.0000
  S   S38       1.0  0.19861  0.50547  0.40169  1.0000
  S   S39       1.0  0.20621  0.50539  0.07273  1.0000
  C   C117      1.0  0.12034  0.59557  0.67585  1.0000
  H   H94       1.0  0.16678  0.64277  0.65326  1.0000
  C   C118      1.0  0.01182  0.51696  0.41416  1.0000
  C   C119      1.0  0.10591  0.57420  0.62840  1.0000
  C   C120      1.0  0.13277  0.61599  0.76365  1.0000
  H   H95       1.0  0.11167  0.64830  0.76602  1.0000
  C   C121      1.0  0.00054  0.58427  0.52139  1.0000
  C   C122      1.0  0.99427  0.56783  0.50398  1.0000
  H   H96       1.0  0.00315  0.56210  0.49863  1.0000
  C   C123      1.0  0.07518  0.61864  0.77767  1.0000
  C   C124      1.0  0.07339  0.62719  0.74722  1.0000
  C   C125      1.0  0.07476  0.62113  0.71279  1.0000
  C   C126      1.0  0.07790  0.60637  0.70845  1.0000
  C   C127      1.0  0.07998  0.59803  0.73894  1.0000
  C   C128      1.0  0.07851  0.60401  0.77329  1.0000
  H   H97       1.0  0.07094  0.63861  0.75034  1.0000
  H   H98       1.0  0.07339  0.62790  0.68977  1.0000
  H   H99       1.0  0.08245  0.58665  0.73601  1.0000
  H   H100      1.0  0.08009  0.59739  0.79642  1.0000
  C   C129      1.0  0.00951  0.57668  0.97791  1.0000
  C   C130      1.0  0.00059  0.56777  0.00793  1.0000
  H   H101      1.0  0.00794  0.56596  0.02990  1.0000
  H   H102      1.0  0.00618  0.58576  0.92665  1.0000
  C   C131      1.0  0.05430  0.51015  0.93312  1.0000
  C   C132      1.0  0.05119  0.52463  0.94199  1.0000
  C   C133      1.0  0.06146  0.54097  0.92799  1.0000
  C   C134      1.0  0.07476  0.54280  0.90480  1.0000
  C   C135      1.0  0.07765  0.52829  0.89557  1.0000
  C   C136      1.0  0.06759  0.51209  0.90995  1.0000
  H   H103      1.0  0.04092  0.52326  0.95989  1.0000
  H   H104      1.0  0.05911  0.55213  0.93516  1.0000
  H   H105      1.0  0.08769  0.52955  0.87722  1.0000
  H   H106      1.0  0.07008  0.50112  0.90277  1.0000
  C   C137      1.0  0.99473  0.55047  0.68397  1.0000
  C   C138      1.0  0.05824  0.51424  0.57531  1.0000
  C   C139      1.0  0.06192  0.51331  0.53947  1.0000
  C   C140      1.0  0.06887  0.52856  0.51965  1.0000
  C   C141      1.0  0.07204  0.54471  0.53558  1.0000
  C   C142      1.0  0.06858  0.54557  0.57148  1.0000
  C   C143      1.0  0.06176  0.53042  0.59122  1.0000
  H   H107      1.0  0.05923  0.50086  0.52696  1.0000
  H   H108      1.0  0.07163  0.52783  0.49190  1.0000
  H   H109      1.0  0.07122  0.55794  0.58418  1.0000
  H   H110      1.0  0.05889  0.53120  0.61876  1.0000
  C   C144      1.0  0.13317  0.66300  0.51064  1.0000
  C   C145      1.0  0.14047  0.68064  0.50133  1.0000
  C   C146      1.0  0.15804  0.68937  0.49150  1.0000
  C   C147      1.0  0.16873  0.68063  0.49087  1.0000
  C   C148      1.0  0.16142  0.66300  0.50035  1.0000
  C   C149      1.0  0.14380  0.65422  0.50976  1.0000
  H   H111      1.0  0.13248  0.68767  0.50186  1.0000
  H   H112      1.0  0.16334  0.70292  0.48466  1.0000
  H   H113      1.0  0.16947  0.65607  0.50029  1.0000
  H   H114      1.0  0.13838  0.64065  0.51639  1.0000
  C   C150      1.0  0.99967  0.57889  0.94984  1.0000
  C   C151      1.0  0.18948  0.61472  0.70349  1.0000
  C   C152      1.0  0.14090  0.65568  0.98543  1.0000
  C   C153      1.0  0.15142  0.65835  0.01635  1.0000
  C   C154      1.0  0.16707  0.67362  0.02183  1.0000
  C   C155      1.0  0.17255  0.68660  0.99643  1.0000
  C   C156      1.0  0.16216  0.68385  0.96530  1.0000
  C   C157      1.0  0.14653  0.66855  0.95976  1.0000
  H   H115      1.0  0.14728  0.64860  0.03652  1.0000
  H   H116      1.0  0.17469  0.67552  0.04608  1.0000
  H   H117      1.0  0.16610  0.69373  0.94541  1.0000
  H   H118      1.0  0.13869  0.66686  0.93588  1.0000
  C   C158      1.0  0.15352  0.61091  0.96666  1.0000
  C   C159      1.0  0.14662  0.61802  0.94100  1.0000
  C   C160      1.0  0.15751  0.63287  0.92333  1.0000
  C   C161      1.0  0.17535  0.64068  0.93128  1.0000
  C   C162      1.0  0.18241  0.63370  0.95727  1.0000
  C   C163      1.0  0.17132  0.61875  0.97493  1.0000
  P   P3        1.0  0.20511  0.64475  0.97080  1.0000
  C   C164      1.0  0.21706  0.63206  0.96052  1.0000
  C   C165      1.0  0.21492  0.66538  0.94906  1.0000
  C   C166      1.0  0.12286  0.51580  0.12281  1.0000
  C   C167      1.0  0.99344  0.59780  0.43430  1.0000
  C   C168      1.0  0.17969  0.69211  0.35683  1.0000
  H   H119      1.0  0.99926  0.49791  0.93506  1.0000
  C   C169      1.0  0.15477  0.63348  0.28319  1.0000
  C   C170      1.0  0.08375  0.50632  0.99323  1.0000
  C   C171      1.0  0.00337  0.55729  0.74630  1.0000
  P   P4        1.0  0.00652  0.48813  0.45593  1.0000
  C   C172      1.0  0.00054  0.56134  0.32659  1.0000
  C   C173      1.0  0.20848  0.61403  0.95381  1.0000
  C   C174      1.0  0.20637  0.64916  0.01818  1.0000
  C   C175      1.0  0.19220  0.64978  0.03565  1.0000
  C   C176      1.0  0.19317  0.65326  0.07223  1.0000
  H   H120      1.0  0.99271  0.53363  0.31939  1.0000
  H   H121      1.0  0.99034  0.54663  0.42767  1.0000
  H   H122      1.0  0.06530  0.49078  0.44018  1.0000
  H   H123      1.0  0.14492  0.59966  0.98090  1.0000
  H   H124      1.0  0.13271  0.61238  0.93572  1.0000
  H   H125      1.0  0.15197  0.63872  0.90450  1.0000
  H   H126      1.0  0.18337  0.65248  0.91797  1.0000
  H   H127      1.0  0.17633  0.61351  0.99599  1.0000
  C   C177      1.0  0.10892  0.50090  0.84840  1.0000
  C   C178      1.0  0.12340  0.65431  0.41514  1.0000
  H   H128      1.0  0.18212  0.53077  0.21346  1.0000
  H   H129      1.0  0.98893  0.58559  0.61568  1.0000
  C   C179      1.0  0.16444  0.68406  0.37611  1.0000
  C   C180      1.0  0.12240  0.51178  0.90662  1.0000
  C   C181      1.0  0.01609  0.51099  0.44582  1.0000
  H   H130      1.0  0.20044  0.59999  0.50758  1.0000
  C   C182      1.0  0.22333  0.49617  0.20621  1.0000
  H   H131      1.0  0.18044  0.64787  0.02107  1.0000
  C   C183      1.0  0.15272  0.65427  0.32577  1.0000
  C   C184      1.0  0.21211  0.60053  0.52054  1.0000
  C   C185      1.0  0.18212  0.64743  0.43691  1.0000
  P   P5        1.0  0.98429  0.55938  0.35860  1.0000
  H   H132      1.0  0.10012  0.49748  0.96501  1.0000
  H   H133      1.0  0.22153  0.70161  0.24701  1.0000
  C   C186      1.0  0.98298  0.52666  0.95740  1.0000
  C   C187      1.0  0.18954  0.52212  0.14186  1.0000
  H   H134      1.0  0.01156  0.58947  0.32664  1.0000
  C   C188      1.0  0.03603  0.49056  0.84937  1.0000
  C   C189      1.0  0.12857  0.51792  0.15835  1.0000
  H   H135      1.0  0.00725  0.61694  0.61216  1.0000
  H   H136      1.0  0.01967  0.51199  0.61967  1.0000
  C   C190      1.0  0.10623  0.65084  0.42247  1.0000
  C   C191      1.0  0.03979  0.48985  0.44607  1.0000
  C   C192      1.0  0.17833  0.51811  0.22491  1.0000
  C   C193      1.0  0.14271  0.51457  0.16845  1.0000
  C   C194      1.0  0.01952  0.59329  0.43062  1.0000
  H   H137      1.0  0.18517  0.66965  0.40684  1.0000
  H   H138      1.0  0.13234  0.65563  0.43697  1.0000
  H   H139      1.0  0.18721  0.52879  0.27774  1.0000
  C   C195      1.0  0.01149  0.58033  0.40442  1.0000
  C   C196      1.0  0.05419  0.49577  0.79810  1.0000
  H   H140      1.0  0.06575  0.50717  0.67030  1.0000
  H   H141      1.0  0.12884  0.61434  0.82025  1.0000
  C   C197      1.0  0.11774  0.59091  0.63954  1.0000
  H   H142      1.0  0.21668  0.66640  0.54363  1.0000
  C   C198      1.0  0.14602  0.52693  0.96979  1.0000
  H   H143      1.0  0.03191  0.51877  0.49424  1.0000
  H   H144      1.0  0.99327  0.60401  0.54111  1.0000
  C   C199      1.0  0.02628  0.49797  0.83221  1.0000
  C   C200      1.0  0.03448  0.49316  0.70854  1.0000
  C   C201      1.0  0.17080  0.52018  0.97846  1.0000
  H   H145      1.0  0.11555  0.52671  0.86835  1.0000
  C   C202      1.0  0.02774  0.58629  0.64187  1.0000
  C   C203      1.0  0.12004  0.63208  0.79671  1.0000
  C   C204      1.0  0.15689  0.55944  0.91986  1.0000
  C   C205      1.0  0.02485  0.57961  0.29106  1.0000
  H   H146      1.0  0.10346  0.50284  0.82357  1.0000
  H   H147      1.0  0.17798  0.53012  0.09832  1.0000
  H   H148      1.0  0.20564  0.55209  0.07697  1.0000
  C   C206      1.0  0.21129  0.48575  0.27631  1.0000
  C   C207      1.0  0.12901  0.65623  0.37999  1.0000
  H   H149      1.0  0.12194  0.52204  0.17816  1.0000
  C   C208      1.0  0.19217  0.62210  0.55782  1.0000
  H   H150      1.0  0.03555  0.56620  0.25721  1.0000
  H   H151      1.0  0.20431  0.63172  0.62588  1.0000
  H   H152      1.0  0.16293  0.53774  0.05401  1.0000
  H   H153      1.0  0.98618  0.54035  0.95574  1.0000
  C   C209      1.0  0.98791  0.49377  0.55224  1.0000
  C   C210      1.0  0.15311  0.66506  0.29760  1.0000
  C   C211      1.0  0.18400  0.60577  0.57346  1.0000
  C   C212      1.0  0.16603  0.59806  0.57770  1.0000
  C   C213      1.0  0.15611  0.60672  0.56696  1.0000
  C   C214      1.0  0.16417  0.62314  0.55231  1.0000
  C   C215      1.0  0.18210  0.63080  0.54756  1.0000
  C   C216      1.0  0.12169  0.49530  0.91347  1.0000
  H   H154      1.0  0.01557  0.49889  0.84570  1.0000
  C   C217      1.0  0.22541  0.71535  0.25180  1.0000
  H   H155      1.0  0.00552  0.52690  0.65462  1.0000
  H   H156      1.0  0.99028  0.50487  0.50079  1.0000
  H   H157      1.0  0.01145  0.56640  0.76681  1.0000
  H   H158      1.0  0.00656  0.52922  0.93309  1.0000
  C   C218      1.0  0.98070  0.52915  0.72904  1.0000
  C   C219      1.0  0.11578  0.51441  0.87395  1.0000
  C   C220      1.0  0.98534  0.58480  0.40823  1.0000
  H   H159      1.0  0.98136  0.50113  0.56318  1.0000
  C   C221      1.0  0.17698  0.50090  0.27638  1.0000
  H   H160      1.0  0.15667  0.51630  0.92901  1.0000
  H   H161      1.0  0.03379  0.59242  0.28280  1.0000
  C   C222      1.0  0.15357  0.62343  0.43522  1.0000
  H   H162      1.0  0.00245  0.50806  0.39523  1.0000
  H   H163      1.0  0.19148  0.59889  0.58211  1.0000
  H   H164      1.0  0.15974  0.58528  0.58896  1.0000
  H   H165      1.0  0.14215  0.60065  0.56964  1.0000
  H   H166      1.0  0.15648  0.62990  0.54438  1.0000
  H   H167      1.0  0.18788  0.64342  0.53574  1.0000
  H   H168      1.0  0.07395  0.49327  0.99738  1.0000
  H   H169      1.0  0.15492  0.66860  0.24103  1.0000
  C   C223      1.0  0.13133  0.51041  0.09727  1.0000
  H   H170      1.0  0.20924  0.65947  0.11984  1.0000
  H   H171      1.0  0.19536  0.65338  0.44705  1.0000
  C   C224      1.0  0.04745  0.55786  0.75035  1.0000
  C   C225      1.0  0.04564  0.56236  0.71549  1.0000
  C   C226      1.0  0.04477  0.55119  0.68719  1.0000
  C   C227      1.0  0.04523  0.53529  0.69378  1.0000
  C   C228      1.0  0.04676  0.53052  0.72871  1.0000
  C   C229      1.0  0.04837  0.54215  0.75695  1.0000
  P   P6        1.0  0.04946  0.51095  0.73605  1.0000
  C   C230      1.0  0.04467  0.50356  0.78091  1.0000
  C   C231      1.0  0.18947  0.71009  0.35956  1.0000
  H   H172      1.0  0.12580  0.49256  0.93909  1.0000
  H   H173      1.0  0.12109  0.65634  0.32496  1.0000
  C   C232      1.0  0.17083  0.63084  0.44751  1.0000
  H   H174      1.0  0.01496  0.53689  0.27571  1.0000
  Fe  Fe18      1.0  0.21109  0.48934  0.37724  1.0000
  C   C233      1.0  0.22260  0.65604  0.07442  1.0000
  C   C234      1.0  0.03048  0.50433  0.79797  1.0000
  C   C235      1.0  0.07165  0.51640  0.72515  1.0000
  C   C236      1.0  0.08508  0.52513  0.75028  1.0000
  C   C237      1.0  0.10237  0.53000  0.74136  1.0000
  C   C238      1.0  0.10636  0.52644  0.70717  1.0000
  C   C239      1.0  0.09308  0.51815  0.68178  1.0000
  C   C240      1.0  0.07580  0.51328  0.69062  1.0000
  H   H175      1.0  0.04882  0.56689  0.77214  1.0000
  H   H176      1.0  0.04563  0.57485  0.71038  1.0000
  H   H177      1.0  0.04430  0.55513  0.66009  1.0000
  H   H178      1.0  0.04481  0.52684  0.67163  1.0000
  H   H179      1.0  0.05072  0.53936  0.78398  1.0000
  C   C241      1.0  0.01423  0.54833  0.28707  1.0000
  H   H180      1.0  0.20610  0.67907  0.98713  1.0000
  C   C242      1.0  0.99122  0.54079  0.75544  1.0000
  C   C243      1.0  0.99310  0.49595  0.51695  1.0000
  C   C244      1.0  0.98138  0.57243  0.95196  1.0000
  C   C245      1.0  0.22368  0.66687  0.91711  1.0000
  H   H181      1.0  0.02269  0.50988  0.78487  1.0000
  H   H182      1.0  0.08220  0.52829  0.77667  1.0000
  H   H183      1.0  0.11266  0.53661  0.76094  1.0000
  H   H184      1.0  0.11974  0.53018  0.70024  1.0000
  H   H185      1.0  0.03276  0.48559  0.87586  1.0000
  C   C246      1.0  0.02584  0.56484  0.27663  1.0000
  C   C247      1.0  0.17692  0.60317  0.67976  1.0000
  C   C248      1.0  0.16075  0.60358  0.67602  1.0000
  C   C249      1.0  0.11077  0.58324  0.70079  1.0000
  C   C250      1.0  0.09881  0.56661  0.68954  1.0000
  C   C251      1.0  0.09648  0.56206  0.65342  1.0000
  H   H186      1.0  0.17969  0.59384  0.66428  1.0000
  H   H187      1.0  0.01859  0.57352  0.39354  1.0000
  H   H188      1.0  0.15125  0.59461  0.65731  1.0000
  C   C252      1.0  0.97571  0.53815  0.37784  1.0000
  H   H189      1.0  0.11545  0.63511  0.82145  1.0000
  H   H190      1.0  0.11218  0.58642  0.72885  1.0000
  H   H191      1.0  0.12677  0.50854  0.06975  1.0000
  C   C253      1.0  0.11788  0.63953  0.76534  1.0000
  H   H192      1.0  0.16920  0.66376  0.60695  1.0000
  C   C254      1.0  0.03165  0.54657  0.43082  1.0000
  H   H193      1.0  0.17960  0.51511  0.96826  1.0000
  C   C255      1.0  0.12750  0.62033  0.79590  1.0000
  P   P7        1.0  0.13653  0.61685  0.68998  1.0000
  H   H194      1.0  0.98631  0.60423  0.44676  1.0000
  H   H195      1.0  0.01526  0.50340  0.70356  1.0000
  H   H196      1.0  0.05166  0.60937  0.64707  1.0000
  C   C256      1.0  0.00508  0.56217  0.71078  1.0000
  C   C257      1.0  0.13034  0.62316  0.73179  1.0000
  H   H197      1.0  0.13837  0.60671  0.76349  1.0000
  Fe  Fe19      1.0  0.21545  0.71649  0.04202  1.0000
  H   H198      1.0  0.03381  0.57793  0.64935  1.0000
  C   C258      1.0  0.15697  0.61549  0.69628  1.0000
  P   P8        1.0  0.99676  0.55633  0.63770  1.0000
  H   H199      1.0  0.03784  0.56029  0.42509  1.0000
  C   C259      1.0  0.03794  0.60416  0.64050  1.0000
  C   C260      1.0  0.01962  0.53468  0.40670  1.0000
  C   C261      1.0  0.22108  0.54750  0.11757  1.0000
  H   H200      1.0  0.10383  0.57075  0.60030  1.0000
  C   C262      1.0  0.22082  0.66269  0.51912  1.0000
  C   C263      1.0  0.08115  0.52063  0.00516  1.0000
  C   C264      1.0  0.13872  0.63235  0.65586  1.0000
  H   H201      1.0  0.01241  0.56190  0.56833  1.0000
  C   C265      1.0  0.12289  0.63505  0.73299  1.0000
  H   H202      1.0  0.01444  0.57513  0.70476  1.0000
  H   H203      1.0  0.01633  0.53921  0.38221  1.0000
  H   H204      1.0  0.12057  0.64069  0.70917  1.0000
  C   C266      1.0  0.03055  0.61523  0.63005  1.0000
  H   H205      1.0  0.03861  0.62904  0.62818  1.0000
  H   H206      1.0  0.11813  0.55313  0.97683  1.0000
  H   H207      1.0  0.20937  0.57632  0.49609  1.0000
  Fe  Fe20      1.0  0.21435  0.71514  0.45744  1.0000
  C   C267      1.0  0.00987  0.57937  0.63398  1.0000
  C   C268      1.0  0.01286  0.60841  0.62123  1.0000
  H   H208      1.0  0.14474  0.61063  0.44368  1.0000
  C   C269      1.0  0.98240  0.53397  0.69346  1.0000
  C   C270      1.0  0.02325  0.52800  0.57429  1.0000
  H   H209      1.0  0.02604  0.54650  0.53379  1.0000
  Fe  Fe21      1.0  0.19348  0.48842  0.44934  1.0000
  H   H210      1.0  0.12477  0.60020  0.61980  1.0000
  C   C271      1.0  0.01357  0.55079  0.57964  1.0000
  C   C272      1.0  0.02127  0.54207  0.55992  1.0000
  C   C273      1.0  0.17623  0.65667  0.41405  1.0000
  C   C274      1.0  0.13881  0.54987  0.92160  1.0000
  C   C275      1.0  0.00251  0.59055  0.62321  1.0000
  C   C276      1.0  0.00748  0.54530  0.61371  1.0000
  H   H211      1.0  0.10203  0.64943  0.44971  1.0000
  H   H212      1.0  0.19572  0.63585  0.74153  1.0000
  H   H213      1.0  0.97965  0.54099  0.56808  1.0000
  C   C277      1.0  0.00967  0.53121  0.62816  1.0000
  H   H214      1.0  0.17541  0.62382  0.46553  1.0000
  C   C278      1.0  0.02817  0.52306  0.46991  1.0000
  C   C279      1.0  0.01769  0.52271  0.60854  1.0000
  C   C280      1.0  0.09364  0.53745  0.99921  1.0000
  C   C281      1.0  0.18595  0.62683  0.72325  1.0000
  C   C282      1.0  0.16981  0.62732  0.71948  1.0000
  C   C283      1.0  0.15975  0.69418  0.39971  1.0000
  H   H215      1.0  0.06924  0.51865  0.01820  1.0000
  H   H216      1.0  0.19454  0.60725  0.95453  1.0000
  H   H217      1.0  0.11114  0.62496  0.65062  1.0000
  C   C284      1.0  0.12391  0.63341  0.64150  1.0000
  C   C285      1.0  0.18126  0.51706  0.26129  1.0000
  C   C286      1.0  0.03592  0.54074  0.46236  1.0000
  C   C287      1.0  0.22154  0.64657  0.51540  1.0000
  H   H218      1.0  0.16737  0.63697  0.73455  1.0000
  H   H219      1.0  0.09147  0.54854  0.00796  1.0000
  H   H220      1.0  0.98987  0.53714  0.78306  1.0000
  C   C288      1.0  0.15511  0.64332  0.64308  1.0000
  H   H221      1.0  0.18225  0.65395  0.08535  1.0000
  C   C289      1.0  0.21761  0.64126  0.62398  1.0000
  C   C290      1.0  0.12546  0.64550  0.61551  1.0000
  C   C291      1.0  0.16136  0.53276  0.02694  1.0000
  H   H222      1.0  0.09610  0.51550  0.65511  1.0000
  S   S40       1.0  0.04139  0.48977  0.95105  1.0000
  H   H223      1.0  0.15246  0.67733  0.30269  1.0000
  C   C292      1.0  0.13502  0.57393  0.89495  1.0000
  C   C293      1.0  0.09858  0.50879  0.97444  1.0000
  C   C294      1.0  0.01226  0.57789  0.31593  1.0000
  C   C295      1.0  0.15659  0.65529  0.61680  1.0000
  H   H224      1.0  0.20570  0.51737  0.18144  1.0000
  H   H225      1.0  0.01669  0.61197  0.46605  1.0000
  S   S41       1.0  0.22079  0.70004  0.08205  1.0000
  S   S42       1.0  0.04827  0.49557  0.60074  1.0000
  C   C296      1.0  0.14554  0.50719  0.10722  1.0000
  H   H226      1.0  0.09095  0.65030  0.33829  1.0000
  H   H227      1.0  0.04546  0.54993  0.48081  1.0000
  C   C297      1.0  0.10864  0.53997  0.98092  1.0000
  C   C298      1.0  0.99441  0.57617  0.39258  1.0000
  C   C299      1.0  0.01056  0.60216  0.44523  1.0000
  H   H228      1.0  0.06465  0.49418  0.78501  1.0000
  C   C300      1.0  0.15299  0.58344  0.89381  1.0000
  H   H229      1.0  0.02921  0.52122  0.55899  1.0000
  H   H230      1.0  0.17785  0.58346  0.90482  1.0000
  C   C301      1.0  0.20534  0.52511  0.15915  1.0000
  C   C302      1.0  0.14765  0.63259  0.41216  1.0000
  H   H231      1.0  0.12645  0.57953  0.88560  1.0000
  C   C303      1.0  0.20835  0.65634  0.09165  1.0000
  H   H232      1.0  0.20102  0.71630  0.34414  1.0000
  H   H233      1.0  0.13426  0.62661  0.40273  1.0000
  C   C304      1.0  0.16392  0.57615  0.90602  1.0000
  C   C305      1.0  0.18977  0.53218  0.11248  1.0000
  P   P9        1.0  0.12958  0.52859  0.94117  1.0000
  H   H234      1.0  0.18309  0.52600  0.03036  1.0000
  H   H235      1.0  0.13944  0.53820  0.01587  1.0000
  H   H236      1.0  0.14677  0.51614  0.19615  1.0000
  C   C306      1.0  0.15131  0.50915  0.14296  1.0000
  C   C307      1.0  0.15765  0.52068  0.95644  1.0000
  C   C308      1.0  0.15894  0.64931  0.40149  1.0000
  C   C309      1.0  0.14178  0.65646  0.60327  1.0000
  H   H237      1.0  0.97578  0.55421  0.03302  1.0000
  C   C310      1.0  0.17118  0.50296  0.20328  1.0000
  C   C311      1.0  0.17271  0.52626  0.01365  1.0000
  C   C312      1.0  0.20546  0.54478  0.10040  1.0000
  C   C313      1.0  0.12796  0.55720  0.90850  1.0000
  H   H238      1.0  0.11398  0.64634  0.60462  1.0000
  H   H239      1.0  0.15190  0.50295  0.08700  1.0000
  H   H240      1.0  0.03258  0.59633  0.44021  1.0000
  H   H241      1.0  0.15544  0.62126  0.27758  1.0000
  C   C314      1.0  0.00160  0.54655  0.31192  1.0000
  C   C315      1.0  0.11717  0.65477  0.35229  1.0000
  H   H242      1.0  0.20197  0.61430  0.70651  1.0000
  C   C316      1.0  0.14803  0.53302  0.00518  1.0000
  C   C317      1.0  0.11098  0.52564  0.96741  1.0000
  H   H243      1.0  0.11400  0.55011  0.90931  1.0000
  H   H244      1.0  0.97792  0.51758  0.45342  1.0000
  H   H245      1.0  0.15841  0.59647  0.88357  1.0000
  H   H246      1.0  0.14291  0.66587  0.58325  1.0000
  C   C318      1.0  0.22540  0.67422  0.49111  1.0000
  H   H247      1.0  0.22443  0.68646  0.49387  1.0000
  C   C319      1.0  0.01857  0.49278  0.69697  1.0000
  C   C320      1.0  0.22049  0.69579  0.94585  1.0000
  H   H248      1.0  0.15634  0.64058  0.22821  1.0000
  H   H249      1.0  0.19396  0.48915  0.14724  1.0000
  H   H250      1.0  0.11180  0.51824  0.11506  1.0000
  C   C321      1.0  0.16657  0.48673  0.21884  1.0000
  C   C322      1.0  0.98227  0.56105  0.00979  1.0000
  C   C323      1.0  0.10000  0.65133  0.35973  1.0000
  C   C324      1.0  0.21711  0.58712  0.51390  1.0000
  C   C325      1.0  0.15527  0.64435  0.25537  1.0000
  H   H251      1.0  0.08127  0.64678  0.40070  1.0000
  C   C326      1.0  0.99016  0.50257  0.94528  1.0000
  P   P10       1.0  0.16952  0.50457  0.15562  1.0000
  C   C327      1.0  0.99439  0.52031  0.94411  1.0000
  C   C328      1.0  0.09453  0.64935  0.39481  1.0000
  C   C329      1.0  0.22212  0.61451  0.54366  1.0000
  H   H252      1.0  0.18401  0.68457  0.33946  1.0000
  C   C330      1.0  0.21321  0.67994  0.96311  1.0000
  H   H253      1.0  0.17975  0.50010  0.30437  1.0000
  P   P11       1.0  0.21542  0.63173  0.55183  1.0000
  C   C331      1.0  0.10858  0.48468  0.85525  1.0000
  C   C332      1.0  0.15444  0.66013  0.26258  1.0000
  H   H254      1.0  0.04494  0.50369  0.45111  1.0000
  C   C333      1.0  0.00154  0.48640  0.50248  1.0000
  C   C334      1.0  0.16976  0.71215  0.40281  1.0000
  P   P12       1.0  0.15133  0.66091  0.37105  1.0000
  S   S43       1.0  0.21940  0.50553  0.47584  1.0000
  C   C335      1.0  0.21795  0.60448  0.94598  1.0000
  C   C336      1.0  0.15350  0.63840  0.31828  1.0000
  H   H255      1.0  0.21887  0.70688  0.95659  1.0000
  C   C337      1.0  0.05005  0.48959  0.83244  1.0000
  H   H256      1.0  0.21964  0.64867  0.67949  1.0000
  C   C338      1.0  0.18449  0.72013  0.38238  1.0000
  H   H257      1.0  0.14845  0.68829  0.41587  1.0000
  H   H258      1.0  0.15321  0.62981  0.33937  1.0000
  H   H259      1.0  0.21131  0.59056  0.94112  1.0000
  Fe  Fe22      1.0  0.22502  0.52137  0.42693  1.0000
  H   H260      1.0  0.16616  0.71988  0.42121  1.0000
  C   C339      1.0  0.16949  0.48575  0.25524  1.0000
  C   C340      1.0  0.16747  0.48447  0.13465  1.0000
  H   H261      1.0  0.22478  0.65576  0.90510  1.0000
  S   S44       1.0  0.22308  0.49950  0.99865  1.0000
  H   H262      1.0  0.97976  0.57157  0.28734  1.0000
  H   H263      1.0  0.16146  0.48785  0.03471  1.0000
  H   H264      1.0  0.13247  0.48770  0.02389  1.0000
  C   C341      1.0  0.97646  0.55897  0.49285  1.0000
  C   C342      1.0  0.22549  0.50170  0.27103  1.0000
  H   H265      1.0  0.22432  0.71307  0.30906  1.0000
  H   H266      1.0  0.19310  0.74114  0.02195  1.0000
  H   H267      1.0  0.20670  0.74352  0.96375  1.0000
  H   H268      1.0  0.22265  0.77591  0.19772  1.0000
  C   C343      1.0  0.22193  0.78394  0.02795  1.0000
  H   H269      1.0  0.18350  0.83564  0.04116  1.0000
  C   C344      1.0  0.19750  0.80369  0.03791  1.0000
  C   C345      1.0  0.18646  0.81189  0.03384  1.0000
  C   C346      1.0  0.20868  0.76795  0.03750  1.0000
  H   H270      1.0  0.17350  0.80470  0.02250  1.0000
  C   C347      1.0  0.19208  0.82931  0.04437  1.0000
  H   H271      1.0  0.19281  0.79018  0.02962  1.0000
  C   C348      1.0  0.22419  0.78138  0.17147  1.0000
  S   S45       1.0  0.22379  0.73974  0.08051  1.0000
  C   C349      1.0  0.21091  0.75487  0.98138  1.0000
  C   C350      1.0  0.20322  0.75351  0.01429  1.0000
  C   C351      1.0  0.22396  0.77077  0.97145  1.0000
  H   H272      1.0  0.20253  0.76656  0.06293  1.0000
  C   C352      1.0  0.21433  0.81292  0.05250  1.0000
  C   C353      1.0  0.20876  0.83855  0.05910  1.0000
  C   C354      1.0  0.22007  0.80087  0.12999  1.0000
  H   H273      1.0  0.21312  0.85206  0.06733  1.0000
  C   C355      1.0  0.21984  0.83040  0.06323  1.0000
  H   H274      1.0  0.21261  0.79869  0.18479  1.0000
  C   C356      1.0  0.21849  0.79416  0.16411  1.0000
  H   H275      1.0  0.21531  0.81055  0.12482  1.0000
  S   S46       1.0  0.22033  0.74288  0.44224  1.0000
  H   H276      1.0  0.19219  0.73407  0.38446  1.0000
  C   C357      1.0  0.36308  0.99832  0.45849  1.0000
  S   S47       1.0  0.45026  0.06505  0.49138  1.0000
  Fe  Fe23      1.0  0.44555  0.05863  0.38880  1.0000
  S   S48       1.0  0.42393  0.05821  0.42353  1.0000
  S   S49       1.0  0.44800  0.05339  0.32941  1.0000
  Fe  Fe24      1.0  0.44487  0.08198  0.45205  1.0000
  S   S50       1.0  0.44027  0.10558  0.47288  1.0000
  Fe  Fe25      1.0  0.43120  0.04135  0.46075  1.0000
  S   S51       1.0  0.41503  0.01849  0.49693  1.0000
  S   S52       1.0  0.46595  0.08302  0.41545  1.0000
  S   S53       1.0  0.45130  0.04045  0.42429  1.0000
  Fe  Fe26      1.0  0.46385  0.06144  0.08319  1.0000
  S   S54       1.0  0.45392  0.06321  0.02868  1.0000
  Fe  Fe27      1.0  0.43080  0.05768  0.11914  1.0000
  S   S55       1.0  0.41811  0.05898  0.06641  1.0000
  S   S56       1.0  0.41842  0.05668  0.17330  1.0000
  Fe  Fe28      1.0  0.42904  0.04045  0.04515  1.0000
  S   S57       1.0  0.41835  0.01643  0.00574  1.0000
  Fe  Fe29      1.0  0.44381  0.08150  0.05335  1.0000
  S   S58       1.0  0.45185  0.11086  0.04197  1.0000
  S   S59       1.0  0.44004  0.03824  0.09869  1.0000
  C   C358      1.0  0.39288  0.98447  0.02949  1.0000
  C   C359      1.0  0.40776  0.01546  0.37488  1.0000
  S   S60       1.0  0.46011  0.17529  0.94184  1.0000
  P   P13       1.0  0.46972  0.11956  0.22517  1.0000
  S   S61       1.0  0.46273  0.22315  0.91239  1.0000
  C   C360      1.0  0.39120  0.02484  0.33465  1.0000
  S   S62       1.0  0.45986  0.22287  0.55200  1.0000
  C   C361      1.0  0.45426  0.12863  0.01347  1.0000
  H   H277      1.0  0.45872  0.11550  0.37437  1.0000
  C   C362      1.0  0.45147  0.99418  0.96332  1.0000
  C   C363      1.0  0.45840  0.15770  0.97025  1.0000
  C   C364      1.0  0.44913  0.14036  0.95765  1.0000
  C   C365      1.0  0.44716  0.12601  0.97883  1.0000
  H   H278      1.0  0.31553  0.02837  0.42743  1.0000
  C   C366      1.0  0.39699  0.05487  0.50438  1.0000
  H   H279      1.0  0.44388  0.16172  0.52009  1.0000
  H   H280      1.0  0.37440  0.05241  0.41287  1.0000
  C   C367      1.0  0.39822  0.07005  0.48845  1.0000
  H   H281      1.0  0.45973  0.09104  0.27447  1.0000
  C   C368      1.0  0.45294  0.99325  0.13501  1.0000
  C   C369      1.0  0.41782  0.09565  0.19819  1.0000
  H   H282      1.0  0.46388  0.18726  0.69148  1.0000
  C   C370      1.0  0.45109  0.12890  0.47963  1.0000
  C   C371      1.0  0.44274  0.13736  0.49896  1.0000
  C   C372      1.0  0.45064  0.15561  0.50534  1.0000
  C   C373      1.0  0.37885  0.03757  0.45484  1.0000
  C   C374      1.0  0.45118  0.00625  0.93884  1.0000
  H   H283      1.0  0.43986  0.11290  0.96848  1.0000
  H   H284      1.0  0.41894  0.01286  0.38027  1.0000
  C   C375      1.0  0.40439  0.99335  0.00283  1.0000
  C   C376      1.0  0.43969  0.05502  0.28651  1.0000
  C   C377      1.0  0.44783  0.05224  0.25641  1.0000
  C   C378      1.0  0.44162  0.05289  0.22173  1.0000
  C   C379      1.0  0.42710  0.05630  0.21659  1.0000
  C   C380      1.0  0.41896  0.05912  0.24672  1.0000
  C   C381      1.0  0.42528  0.05864  0.28147  1.0000
  H   H285      1.0  0.45900  0.04952  0.26002  1.0000
  H   H286      1.0  0.44788  0.05049  0.19892  1.0000
  H   H287      1.0  0.40763  0.06163  0.24313  1.0000
  H   H288      1.0  0.41887  0.06084  0.30428  1.0000
  C   C382      1.0  0.40644  0.99525  0.50024  1.0000
  H   H289      1.0  0.44698  0.18002  0.58194  1.0000
  C   C383      1.0  0.32213  0.99932  0.37378  1.0000
  C   C384      1.0  0.45341  0.99662  0.50026  1.0000
  H   H290      1.0  0.45273  0.20812  0.72193  1.0000
  C   C385      1.0  0.46501  0.98895  0.49673  1.0000
  H   H291      1.0  0.45947  0.14778  0.21635  1.0000
  C   C386      1.0  0.45881  0.99975  0.99748  1.0000
  H   H292      1.0  0.31575  0.98979  0.35264  1.0000
  P   P14       1.0  0.36782  0.01699  0.43113  1.0000
  C   C387      1.0  0.45565  0.17947  0.60275  1.0000
  C   C388      1.0  0.43340  0.10688  0.14439  1.0000
  C   C389      1.0  0.38184  0.01762  0.39527  1.0000
  C   C390      1.0  0.31389  0.00895  0.38827  1.0000
  C   C391      1.0  0.46442  0.21955  0.72916  1.0000
  H   H293      1.0  0.47274  0.14597  0.28068  1.0000
  S   S63       1.0  0.46668  0.22535  0.65685  1.0000
  C   C392      1.0  0.47362  0.09544  0.96248  1.0000
  H   H294      1.0  0.38955  0.02939  0.30875  1.0000
  C   C393      1.0  0.47248  0.09102  0.19288  1.0000
  H   H295      1.0  0.46099  0.12041  0.15006  1.0000
  Fe  Fe30      1.0  0.46983  0.06465  0.45297  1.0000
  H   H296      1.0  0.35112  0.22563  0.55364  1.0000
  C   C394      1.0  0.46948  0.22328  0.76548  1.0000
  H   H297      1.0  0.35527  0.00914  0.50360  1.0000
  H   H298      1.0  0.44328  0.13799  0.93123  1.0000
  H   H299      1.0  0.40393  0.05564  0.52920  1.0000
  H   H300      1.0  0.40571  0.09210  0.14613  1.0000
  C   C395      1.0  0.45351  0.18341  0.63796  1.0000
  C   C396      1.0  0.43347  0.10229  0.21785  1.0000
  H   H301      1.0  0.40000  0.99581  0.55522  1.0000
  H   H302      1.0  0.45473  0.08923  0.33881  1.0000
  C   C397      1.0  0.37965  0.02346  0.36166  1.0000
  H   H303      1.0  0.44504  0.00187  0.91288  1.0000
  H   H304      1.0  0.45976  0.09092  0.96570  1.0000
  H   H305      1.0  0.46738  0.19246  0.83180  1.0000
  H   H306      1.0  0.47432  0.13305  0.45187  1.0000
  H   H307      1.0  0.43293  0.99909  0.15793  1.0000
  C   C398      1.0  0.46520  0.18347  0.66448  1.0000
  C   C399      1.0  0.44904  0.11367  0.16396  1.0000
  C   C400      1.0  0.46563  0.01750  0.00694  1.0000
  C   C401      1.0  0.47466  0.18934  0.81170  1.0000
  H   H308      1.0  0.43317  0.09997  0.24603  1.0000
  C   C402      1.0  0.39622  0.01404  0.40188  1.0000
  H   H309      1.0  0.34467  0.99412  0.37561  1.0000
  H   H310      1.0  0.41098  0.98977  0.44641  1.0000
  C   C403      1.0  0.46375  0.14596  0.02598  1.0000
  C   C404      1.0  0.46660  0.11863  0.27258  1.0000
  C   C405      1.0  0.34692  0.01425  0.41396  1.0000
  H   H311      1.0  0.45050  0.01999  0.51308  1.0000
  H   H312      1.0  0.47510  0.10957  0.51738  1.0000
  H   H313      1.0  0.43001  0.12971  0.50918  1.0000
  C   C406      1.0  0.46165  0.10271  0.28954  1.0000
  H   H314      1.0  0.45737  0.03318  0.92983  1.0000
  C   C407      1.0  0.38736  0.03870  0.48766  1.0000
  H   H315      1.0  0.39864  0.01043  0.42810  1.0000
  H   H316      1.0  0.34435  0.03281  0.45078  1.0000
  H   H317      1.0  0.40605  0.08262  0.50101  1.0000
  H   H318      1.0  0.38709  0.02722  0.49998  1.0000
  H   H319      1.0  0.36921  0.02719  0.35635  1.0000
  H   H320      1.0  0.46943  0.14830  0.05252  1.0000
  C   C408      1.0  0.33843  0.02363  0.42889  1.0000
  C   C409      1.0  0.44922  0.11132  0.20082  1.0000
  H   H321      1.0  0.44319  0.18712  0.64450  1.0000
  H   H322      1.0  0.43341  0.10830  0.11577  1.0000
  C   C410      1.0  0.40520  0.02076  0.34122  1.0000
  H   H323      1.0  0.45432  0.11456  0.55556  1.0000
  C   C411      1.0  0.41779  0.09783  0.16148  1.0000
  S   S64       1.0  0.45539  0.08065  0.10712  1.0000
  H   H324      1.0  0.39134  0.08093  0.44295  1.0000
  C   C412      1.0  0.46586  0.16033  0.00464  1.0000
  H   H325      1.0  0.41431  0.02213  0.32046  1.0000
  C   C413      1.0  0.45948  0.01405  0.51113  1.0000
  C   C414      1.0  0.46104  0.11642  0.34605  1.0000
  H   H326      1.0  0.30115  0.00693  0.37830  1.0000
  H   H327      1.0  0.47040  0.15760  0.75116  1.0000
  C   C415      1.0  0.38030  0.05291  0.43880  1.0000
  C   C416      1.0  0.47298  0.15260  0.20931  1.0000
  C   C417      1.0  0.46759  0.13918  0.46667  1.0000
  H   H328      1.0  0.39205  0.99160  0.05286  1.0000
  C   C418      1.0  0.40580  0.98425  0.47159  1.0000
  H   H329      1.0  0.47099  0.07552  0.92385  1.0000
  C   C419      1.0  0.38988  0.06908  0.45568  1.0000
  H   H330      1.0  0.40573  0.08818  0.21114  1.0000
  C   C420      1.0  0.45882  0.10162  0.32606  1.0000
  C   C421      1.0  0.47349  0.13859  0.57882  1.0000
  H   H331      1.0  0.47310  0.17345  0.01496  1.0000
  H   H332      1.0  0.41838  0.99830  0.09990  1.0000
  C   C422      1.0  0.46708  0.16592  0.49220  1.0000
  H   H333      1.0  0.46168  0.21476  0.78564  1.0000
  H   H334      1.0  0.47096  0.02207  0.03346  1.0000
  C   C423      1.0  0.45811  0.02390  0.94837  1.0000
  C   C424      1.0  0.46789  0.12374  0.55670  1.0000
  C   C425      1.0  0.46541  0.02952  0.98233  1.0000
  C   C426      1.0  0.46699  0.17367  0.79223  1.0000
  C   C427      1.0  0.42983  0.99578  0.10112  1.0000
  C   C428      1.0  0.32201  0.02106  0.41589  1.0000
  H   H335      1.0  0.45375  0.16461  0.79734  1.0000
  H   H336      1.0  0.43035  0.99284  0.04470  1.0000
  C   C429      1.0  0.46612  0.13237  0.32947  1.0000
  H   H337      1.0  0.46414  0.14044  0.59536  1.0000
  H   H338      1.0  0.34926  0.22338  0.61917  1.0000
  H   H339      1.0  0.45927  0.08688  0.18310  1.0000
  C   C430      1.0  0.43658  0.99255  0.06977  1.0000
  C   C431      1.0  0.46930  0.17527  0.59419  1.0000
  C   C432      1.0  0.43805  0.99624  0.13375  1.0000
  C   C433      1.0  0.46889  0.13350  0.29286  1.0000
  C   C434      1.0  0.35690  0.99806  0.49290  1.0000
  C   C435      1.0  0.33853  0.00186  0.38673  1.0000
  H   H340      1.0  0.47486  0.17794  0.19672  1.0000
  H   H341      1.0  0.47101  0.17253  0.56678  1.0000
  C   C436      1.0  0.39963  0.98755  0.53277  1.0000
  C   C437      1.0  0.47415  0.23057  0.70226  1.0000
  H   H342      1.0  0.45937  0.99376  0.16033  1.0000
  H   H343      1.0  0.45167  0.98836  0.42659  1.0000
  H   H344      1.0  0.43969  0.98920  0.49437  1.0000
  H   H345      1.0  0.46779  0.14382  0.34506  1.0000
  H   H346      1.0  0.41370  0.99012  0.95167  1.0000
  H   H347      1.0  0.47046  0.04315  0.98995  1.0000
  C   C438      1.0  0.45123  0.98907  0.07068  1.0000
  H   H348      1.0  0.46681  0.03414  0.20788  1.0000
  Fe  Fe31      1.0  0.47396  0.20547  0.93673  1.0000
  C   C439      1.0  0.47543  0.15747  0.47280  1.0000
  C   C440      1.0  0.45951  0.98963  0.10365  1.0000
  H   H349      1.0  0.47104  0.98742  0.10545  1.0000
  H   H350      1.0  0.47500  0.06967  0.16621  1.0000
  P   P15       1.0  0.45924  0.98436  0.02949  1.0000
  C   C441      1.0  0.36251  0.23283  0.57037  1.0000
  C   C442      1.0  0.36146  0.23156  0.60728  1.0000
  H   H351      1.0  0.35258  0.38675  0.19022  1.0000
  C   C443      1.0  0.28548  0.44134  0.88913  1.0000
  S   S65       1.0  0.46407  0.26460  0.49451  1.0000
  Fe  Fe32      1.0  0.44802  0.34738  0.02958  1.0000
  C   C444      1.0  0.27782  0.48213  0.99254  1.0000
  S   S66       1.0  0.44853  0.32450  0.99574  1.0000
  Fe  Fe33      1.0  0.42889  0.37208  0.03469  1.0000
  S   S67       1.0  0.45006  0.39141  0.07029  1.0000
  S   S68       1.0  0.40480  0.37520  0.01228  1.0000
  C   C445      1.0  0.41444  0.47860  0.01127  1.0000
  Fe  Fe34      1.0  0.44997  0.36826  0.09913  1.0000
  S   S69       1.0  0.45741  0.37185  0.15868  1.0000
  S   S70       1.0  0.44751  0.36908  0.99656  1.0000
  S   S71       1.0  0.42748  0.34874  0.06585  1.0000
  Fe  Fe35      1.0  0.36599  0.44626  0.93303  1.0000
  S   S72       1.0  0.36161  0.46831  0.95890  1.0000
  S   S73       1.0  0.38377  0.43678  0.96542  1.0000
  Fe  Fe36      1.0  0.34615  0.44811  0.86430  1.0000
  S   S74       1.0  0.34022  0.46964  0.88622  1.0000
  S   S75       1.0  0.33465  0.43705  0.80905  1.0000
  C   C446      1.0  0.41137  0.44587  0.87850  1.0000
  Fe  Fe37      1.0  0.33405  0.45532  0.93727  1.0000
  S   S76       1.0  0.30996  0.45080  0.97018  1.0000
  S   S77       1.0  0.37440  0.46043  0.88118  1.0000
  S   S78       1.0  0.33788  0.43243  0.91435  1.0000
  Fe  Fe38      1.0  0.46343  0.39096  0.39844  1.0000
  S   S79       1.0  0.45597  0.38157  0.45376  1.0000
  Fe  Fe39      1.0  0.43536  0.35876  0.36353  1.0000
  S   S80       1.0  0.42506  0.34699  0.41674  1.0000
  S   S81       1.0  0.42280  0.34705  0.30935  1.0000
  Fe  Fe40      1.0  0.42846  0.37402  0.43437  1.0000
  S   S82       1.0  0.40921  0.37991  0.46897  1.0000
  Fe  Fe41      1.0  0.45326  0.35522  0.43275  1.0000
  H   H352      1.0  0.42249  0.47921  0.62972  1.0000
  S   S83       1.0  0.43619  0.38450  0.38015  1.0000
  S   S84       1.0  0.46322  0.36576  0.37855  1.0000
  Fe  Fe42      1.0  0.35530  0.46150  0.59725  1.0000
  S   S85       1.0  0.33976  0.43801  0.56145  1.0000
  S   S86       1.0  0.36340  0.46677  0.65633  1.0000
  H   H353      1.0  0.23837  0.47651  0.29753  1.0000
  S   S87       1.0  0.35208  0.46414  0.49460  1.0000
  Fe  Fe43      1.0  0.33046  0.45626  0.53353  1.0000
  S   S88       1.0  0.30245  0.44861  0.51268  1.0000
  Fe  Fe44      1.0  0.36276  0.44780  0.52458  1.0000
  S   S89       1.0  0.37866  0.43714  0.48991  1.0000
  C   C447      1.0  0.45745  0.26137  0.62206  1.0000
  S   S90       1.0  0.37853  0.46994  0.56221  1.0000
  C   C448      1.0  0.45623  0.42445  0.94773  1.0000
  C   C449      1.0  0.40937  0.27567  0.03540  1.0000
  H   H354      1.0  0.38824  0.35497  0.41628  1.0000
  C   C450      1.0  0.23384  0.43178  0.97330  1.0000
  H   H355      1.0  0.42795  0.24746  0.98444  1.0000
  H   H356      1.0  0.44639  0.42466  0.36855  1.0000
  C   C451      1.0  0.43731  0.46483  0.91240  1.0000
  H   H357      1.0  0.37818  0.33233  0.03539  1.0000
  C   C452      1.0  0.28925  0.45996  0.50434  1.0000
  C   C453      1.0  0.27362  0.45142  0.48443  1.0000
  C   C454      1.0  0.26276  0.45974  0.47662  1.0000
  C   C455      1.0  0.44562  0.46882  0.46786  1.0000
  H   H358      1.0  0.26889  0.47089  0.89998  1.0000
  H   H359      1.0  0.29786  0.44074  0.88622  1.0000
  H   H360      1.0  0.26993  0.43825  0.47471  1.0000
  H   H361      1.0  0.25094  0.45293  0.46102  1.0000
  C   C456      1.0  0.26898  0.45827  0.89694  1.0000
  C   C457      1.0  0.38071  0.26209  0.10428  1.0000
  C   C458      1.0  0.40135  0.39635  0.47477  1.0000
  C   C459      1.0  0.40685  0.41128  0.45425  1.0000
  C   C460      1.0  0.39997  0.42363  0.45962  1.0000
  C   C461      1.0  0.38747  0.42138  0.48559  1.0000
  C   C462      1.0  0.38216  0.40659  0.50641  1.0000
  C   C463      1.0  0.38899  0.39421  0.50093  1.0000
  H   H362      1.0  0.41645  0.41335  0.43434  1.0000
  H   H363      1.0  0.40438  0.43503  0.44350  1.0000
  H   H364      1.0  0.37261  0.40454  0.52648  1.0000
  H   H365      1.0  0.38459  0.38281  0.51713  1.0000
  C   C464      1.0  0.29787  0.46326  0.97802  1.0000
  H   H366      1.0  0.24395  0.47598  0.94603  1.0000
  H   H367      1.0  0.25073  0.48367  0.13968  1.0000
  C   C465      1.0  0.27029  0.42603  0.89140  1.0000
  C   C466      1.0  0.27261  0.46525  0.00476  1.0000
  C   C467      1.0  0.28256  0.45592  0.99756  1.0000
  H   H368      1.0  0.30715  0.46191  0.43046  1.0000
  C   C468      1.0  0.39678  0.30387  0.03185  1.0000
  H   H369      1.0  0.42741  0.27665  0.07769  1.0000
  C   C469      1.0  0.34302  0.44525  0.76674  1.0000
  C   C470      1.0  0.35939  0.45903  0.76316  1.0000
  C   C471      1.0  0.36534  0.46537  0.72922  1.0000
  C   C472      1.0  0.35517  0.45788  0.69829  1.0000
  C   C473      1.0  0.33886  0.44399  0.70181  1.0000
  C   C474      1.0  0.33283  0.43776  0.73582  1.0000
  H   H370      1.0  0.36747  0.46482  0.78655  1.0000
  C   C475      1.0  0.42552  0.48030  0.60183  1.0000
  H   H371      1.0  0.33090  0.43799  0.67838  1.0000
  H   H372      1.0  0.32019  0.42702  0.73821  1.0000
  C   C476      1.0  0.44733  0.36456  0.20007  1.0000
  C   C477      1.0  0.45750  0.37031  0.23155  1.0000
  C   C478      1.0  0.45022  0.36504  0.26508  1.0000
  C   C479      1.0  0.43260  0.35392  0.26761  1.0000
  C   C480      1.0  0.42240  0.34813  0.23614  1.0000
  C   C481      1.0  0.42969  0.35344  0.20256  1.0000
  C   C482      1.0  0.37038  0.42341  0.39961  1.0000
  H   H373      1.0  0.45825  0.36957  0.28899  1.0000
  H   H374      1.0  0.40876  0.33949  0.23779  1.0000
  H   H375      1.0  0.42169  0.34889  0.17865  1.0000
  C   C483      1.0  0.39967  0.39271  0.99848  1.0000
  C   C484      1.0  0.40928  0.41000  0.01009  1.0000
  C   C485      1.0  0.40426  0.42319  0.99973  1.0000
  C   C486      1.0  0.38952  0.41943  0.97746  1.0000
  C   C487      1.0  0.37991  0.40214  0.96584  1.0000
  C   C488      1.0  0.38487  0.38895  0.97647  1.0000
  H   H376      1.0  0.42037  0.41312  0.02773  1.0000
  H   H377      1.0  0.41182  0.43641  0.00914  1.0000
  H   H378      1.0  0.36854  0.39888  0.94885  1.0000
  H   H379      1.0  0.37715  0.37568  0.96742  1.0000
  C   C489      1.0  0.46469  0.28582  0.48775  1.0000
  C   C490      1.0  0.45480  0.28803  0.45946  1.0000
  C   C491      1.0  0.45462  0.30433  0.45298  1.0000
  C   C492      1.0  0.46448  0.31894  0.47459  1.0000
  H   H380      1.0  0.42273  0.33684  0.56095  1.0000
  C   C493      1.0  0.43985  0.47644  0.98783  1.0000
  H   H381      1.0  0.44721  0.27701  0.44224  1.0000
  H   H382      1.0  0.44689  0.30559  0.43109  1.0000
  P   P16       1.0  0.40038  0.28841  0.05922  1.0000
  H   H383      1.0  0.39941  0.44387  0.21134  1.0000
  P   P17       1.0  0.23293  0.44370  0.90465  1.0000
  C   C494      1.0  0.24463  0.47659  0.32285  1.0000
  H   H384      1.0  0.38354  0.36472  0.28795  1.0000
  C   C495      1.0  0.44727  0.27862  0.58591  1.0000
  C   C496      1.0  0.45941  0.28418  0.96149  1.0000
  C   C497      1.0  0.45399  0.29777  0.96343  1.0000
  C   C498      1.0  0.45645  0.30798  0.99474  1.0000
  C   C499      1.0  0.46472  0.30448  0.02402  1.0000
  H   H385      1.0  0.40022  0.26554  0.42841  1.0000
  H   H386      1.0  0.45716  0.27640  0.93732  1.0000
  H   H387      1.0  0.44767  0.30028  0.94050  1.0000
  H   H388      1.0  0.38208  0.38793  0.19678  1.0000
  C   C500      1.0  0.41962  0.46806  0.54194  1.0000
  H   H389      1.0  0.40442  0.25334  0.95675  1.0000
  H   H390      1.0  0.41263  0.24481  0.41268  1.0000
  H   H391      1.0  0.45728  0.32924  0.10976  1.0000
  H   H392      1.0  0.23567  0.45697  0.40268  1.0000
  C   C501      1.0  0.37464  0.39312  0.28411  1.0000
  H   H393      1.0  0.27839  0.44290  0.00727  1.0000
  H   H394      1.0  0.43522  0.29690  0.51715  1.0000
  C   C502      1.0  0.42827  0.24850  0.59678  1.0000
  C   C503      1.0  0.42954  0.43704  0.29756  1.0000
  C   C504      1.0  0.38445  0.36293  0.31604  1.0000
  C   C505      1.0  0.26722  0.47676  0.48896  1.0000
  C   C506      1.0  0.43096  0.26441  0.58165  1.0000
  H   H395      1.0  0.40255  0.31577  0.60240  1.0000
  H   H396      1.0  0.43908  0.25887  0.04487  1.0000
  H   H397      1.0  0.38139  0.30952  0.07078  1.0000
  C   C507      1.0  0.23464  0.46494  0.89356  1.0000
  H   H398      1.0  0.47304  0.28802  0.60915  1.0000
  C   C508      1.0  0.36527  0.24938  0.11700  1.0000
  H   H399      1.0  0.40787  0.45477  0.82708  1.0000
  C   C509      1.0  0.44838  0.44173  0.47528  1.0000
  H   H400      1.0  0.33739  0.23694  0.11110  1.0000
  S   S91       1.0  0.46505  0.34012  0.46741  1.0000
  C   C510      1.0  0.35879  0.38865  0.21633  1.0000
  C   C511      1.0  0.38550  0.37575  0.34120  1.0000
  C   C512      1.0  0.47446  0.31677  0.50282  1.0000
  C   C513      1.0  0.31627  0.46566  0.63972  1.0000
  C   C514      1.0  0.42227  0.27177  0.05129  1.0000
  H   H401      1.0  0.31858  0.45410  0.63734  1.0000
  H   H402      1.0  0.35328  0.37566  0.36524  1.0000
  C   C515      1.0  0.41633  0.28870  0.55858  1.0000
  C   C516      1.0  0.22859  0.42874  0.00851  1.0000
  C   C517      1.0  0.35813  0.38907  0.37446  1.0000
  C   C518      1.0  0.46171  0.43967  0.12142  1.0000
  H   H403      1.0  0.40053  0.27492  0.49083  1.0000
  H   H404      1.0  0.33793  0.38340  0.41256  1.0000
  C   C519      1.0  0.42879  0.26149  0.03300  1.0000
  H   H405      1.0  0.29678  0.45753  0.59761  1.0000
  H   H406      1.0  0.41289  0.30272  0.98887  1.0000
  H   H407      1.0  0.36565  0.24138  0.13879  1.0000
  C   C520      1.0  0.35553  0.41054  0.41385  1.0000
  C   C521      1.0  0.25439  0.42680  0.89607  1.0000
  P   P18       1.0  0.41354  0.26641  0.55702  1.0000
  C   C522      1.0  0.34888  0.25697  0.07283  1.0000
  C   C523      1.0  0.40261  0.26852  0.00161  1.0000
  C   C524      1.0  0.43682  0.42490  0.34949  1.0000
  H   H408      1.0  0.33714  0.38957  0.24346  1.0000
  C   C525      1.0  0.45633  0.42015  0.98330  1.0000
  C   C526      1.0  0.45259  0.44580  0.00114  1.0000
  H   H409      1.0  0.45451  0.42724  0.03742  1.0000
  H   H410      1.0  0.43533  0.48173  0.83178  1.0000
  C   C527      1.0  0.46137  0.42273  0.23610  1.0000
  H   H411      1.0  0.42281  0.46753  0.41292  1.0000
  C   C528      1.0  0.46453  0.41796  0.26992  1.0000
  C   C529      1.0  0.30402  0.46761  0.61734  1.0000
  H   H412      1.0  0.44994  0.29086  0.57360  1.0000
  H   H413      1.0  0.39928  0.43418  0.87674  1.0000
  C   C530      1.0  0.40477  0.30857  0.99898  1.0000
  C   C531      1.0  0.42525  0.46424  0.20716  1.0000
  C   C532      1.0  0.38681  0.37269  0.37751  1.0000
  H   H414      1.0  0.39695  0.46454  0.37875  1.0000
  C   C533      1.0  0.23527  0.46504  0.34888  1.0000
  C   C534      1.0  0.41618  0.45752  0.85066  1.0000
  S   S92       1.0  0.34481  0.47887  0.57113  1.0000
  H   H415      1.0  0.41184  0.45747  0.52380  1.0000
  C   C535      1.0  0.34935  0.24686  0.10136  1.0000
  C   C536      1.0  0.45843  0.45795  0.42176  1.0000
  C   C537      1.0  0.38707  0.35717  0.38828  1.0000
  H   H416      1.0  0.45408  0.40032  0.31275  1.0000
  C   C538      1.0  0.38333  0.39167  0.25375  1.0000
  C   C539      1.0  0.41967  0.31366  0.15494  1.0000
  C   C540      1.0  0.43732  0.32299  0.14842  1.0000
  C   C541      1.0  0.44369  0.32166  0.11515  1.0000
  C   C542      1.0  0.43246  0.31087  0.08851  1.0000
  C   C543      1.0  0.41480  0.30119  0.09497  1.0000
  C   C544      1.0  0.40838  0.30296  0.12818  1.0000
  C   C545      1.0  0.38714  0.31249  0.04491  1.0000
  C   C546      1.0  0.38530  0.32540  0.02506  1.0000
  C   C547      1.0  0.39327  0.32994  0.99231  1.0000
  C   C548      1.0  0.36431  0.26969  0.06005  1.0000
  H   H417      1.0  0.41475  0.31495  0.18064  1.0000
  C   C549      1.0  0.40594  0.26582  0.48444  1.0000
  C   C550      1.0  0.46983  0.29068  0.02229  1.0000
  H   H418      1.0  0.43749  0.31024  0.06264  1.0000
  H   H419      1.0  0.39468  0.29630  0.13340  1.0000
  H   H420      1.0  0.39226  0.34030  0.97742  1.0000
  H   H421      1.0  0.36370  0.27709  0.03737  1.0000
  C   C551      1.0  0.38855  0.47756  0.41834  1.0000
  H   H422      1.0  0.29670  0.46924  0.89080  1.0000
  H   H423      1.0  0.46760  0.26016  0.63792  1.0000
  Fe  Fe45      1.0  0.46846  0.38705  0.03385  1.0000
  H   H424      1.0  0.26101  0.45946  0.02010  1.0000
  H   H425      1.0  0.46432  0.45928  0.39608  1.0000
  H   H426      1.0  0.44602  0.33152  0.16893  1.0000
  H   H427      1.0  0.37527  0.43654  0.41046  1.0000
  H   H428      1.0  0.22582  0.45831  0.83868  1.0000
  H   H429      1.0  0.45537  0.44605  0.32055  1.0000
  H   H430      1.0  0.35091  0.39353  0.30296  1.0000
  C   C552      1.0  0.40303  0.32156  0.97935  1.0000
  C   C553      1.0  0.41950  0.41282  0.35156  1.0000
  H   H431      1.0  0.39106  0.42925  0.36322  1.0000
  S   S93       1.0  0.47021  0.36555  0.06459  1.0000
  H   H432      1.0  0.45092  0.45368  0.02216  1.0000
  C   C554      1.0  0.37335  0.40187  0.36067  1.0000
  H   H433      1.0  0.33656  0.25483  0.06035  1.0000
  H   H434      1.0  0.38778  0.38232  0.39770  1.0000
  H   H435      1.0  0.31929  0.48156  0.73920  1.0000
  H   H436      1.0  0.27094  0.41359  0.88995  1.0000
  H   H437      1.0  0.25951  0.47264  0.08571  1.0000
  H   H438      1.0  0.23456  0.42284  0.02623  1.0000
  C   C555      1.0  0.37541  0.38937  0.22003  1.0000
  C   C556      1.0  0.44251  0.46824  0.19951  1.0000
  H   H439      1.0  0.40284  0.42532  0.28026  1.0000
  P   P19       1.0  0.38502  0.39587  0.32755  1.0000
  C   C557      1.0  0.42792  0.30081  0.53571  1.0000
  C   C558      1.0  0.37614  0.24085  0.62886  1.0000
  H   H440      1.0  0.40973  0.32549  0.95456  1.0000
  H   H441      1.0  0.41791  0.44031  0.93053  1.0000
  H   H442      1.0  0.39844  0.28534  0.60122  1.0000
  C   C559      1.0  0.42098  0.32345  0.56050  1.0000
  C   C560      1.0  0.42246  0.25498  0.99887  1.0000
  C   C561      1.0  0.46716  0.28031  0.99114  1.0000
  C   C562      1.0  0.41603  0.46657  0.57813  1.0000
  C   C563      1.0  0.39310  0.25267  0.57645  1.0000
  C   C564      1.0  0.41329  0.25957  0.51126  1.0000
  C   C565      1.0  0.41830  0.48131  0.45773  1.0000
  C   C566      1.0  0.24307  0.46549  0.38203  1.0000
  H   H443      1.0  0.38688  0.33279  0.37138  1.0000
  C   C567      1.0  0.41220  0.42492  0.29955  1.0000
  H   H444      1.0  0.40556  0.45489  0.58758  1.0000
  H   H445      1.0  0.40778  0.42038  0.19452  1.0000
  C   C568      1.0  0.45242  0.45018  0.96538  1.0000
  C   C569      1.0  0.22633  0.43962  0.95026  1.0000
  H   H446      1.0  0.37873  0.24413  0.52633  1.0000
  C   C570      1.0  0.44187  0.43693  0.32238  1.0000
  H   H447      1.0  0.42572  0.23377  0.45983  1.0000
  H   H448      1.0  0.43903  0.32732  0.51868  1.0000
  C   C571      1.0  0.30307  0.48017  0.96578  1.0000
  C   C572      1.0  0.35794  0.39243  0.28014  1.0000
  C   C573      1.0  0.47458  0.30042  0.50937  1.0000
  H   H449      1.0  0.45950  0.43355  0.43183  1.0000
  H   H450      1.0  0.40314  0.25858  0.63069  1.0000
  C   C574      1.0  0.40564  0.26045  0.44904  1.0000
  H   H451      1.0  0.26594  0.47802  0.41509  1.0000
  C   C575      1.0  0.43311  0.48309  0.52931  1.0000
  C   C576      1.0  0.34934  0.39339  0.40113  1.0000
  H   H452      1.0  0.24274  0.41480  0.89800  1.0000
  H   H453      1.0  0.47114  0.37885  0.23009  1.0000
  C   C577      1.0  0.45580  0.44347  0.44197  1.0000
  C   C578      1.0  0.44206  0.47652  0.88435  1.0000
  C   C579      1.0  0.43016  0.31807  0.53659  1.0000
  H   H454      1.0  0.47152  0.43363  0.22367  1.0000
  C   C580      1.0  0.37825  0.24335  0.55496  1.0000
  H   H455      1.0  0.46976  0.41049  0.17055  1.0000
  H   H456      1.0  0.45754  0.41606  0.92717  1.0000
  C   C581      1.0  0.38616  0.34460  0.36306  1.0000
  C   C582      1.0  0.25359  0.44293  0.89863  1.0000
  C   C583      1.0  0.30016  0.48081  0.40563  1.0000
  H   H457      1.0  0.45760  0.40843  0.99014  1.0000
  C   C584      1.0  0.45465  0.43087  0.00998  1.0000
  C   C585      1.0  0.47170  0.42059  0.15171  1.0000
  H   H458      1.0  0.43345  0.44640  0.27659  1.0000
  C   C586      1.0  0.28481  0.45743  0.89172  1.0000
  H   H459      1.0  0.46693  0.31220  0.04823  1.0000
  C   C587      1.0  0.42196  0.44942  0.90907  1.0000
  C   C588      1.0  0.40931  0.25841  0.98324  1.0000
  C   C589      1.0  0.45432  0.43942  0.93874  1.0000
  C   C590      1.0  0.42234  0.47329  0.98441  1.0000
  C   C591      1.0  0.45973  0.42780  0.14839  1.0000
  C   C592      1.0  0.40713  0.41239  0.32609  1.0000
  H   H460      1.0  0.41471  0.46699  0.96087  1.0000
  H   H461      1.0  0.44618  0.43038  0.49080  1.0000
  C   C593      1.0  0.45347  0.47063  0.43471  1.0000
  H   H462      1.0  0.43742  0.45243  0.51387  1.0000
  P   P20       1.0  0.45016  0.46957  0.95321  1.0000
  C   C594      1.0  0.41455  0.47290  0.42412  1.0000
  C   C595      1.0  0.37932  0.41915  0.37311  1.0000
  C   C596      1.0  0.38032  0.27254  0.07613  1.0000
  H   H463      1.0  0.46073  0.45824  0.18434  1.0000
  C   C597      1.0  0.40731  0.29426  0.58294  1.0000
  C   C598      1.0  0.29376  0.47702  0.51669  1.0000
  C   C599      1.0  0.35008  0.39022  0.24634  1.0000
  C   C600      1.0  0.45153  0.40413  0.28671  1.0000
  C   C601      1.0  0.40223  0.39493  0.10195  1.0000
  C   C602      1.0  0.40029  0.37781  0.10369  1.0000
  C   C603      1.0  0.41034  0.37358  0.12798  1.0000
  C   C604      1.0  0.42229  0.38644  0.15067  1.0000
  C   C605      1.0  0.42401  0.40356  0.14981  1.0000
  C   C606      1.0  0.41415  0.40781  0.12469  1.0000
  P   P21       1.0  0.44096  0.42047  0.17590  1.0000
  C   C607      1.0  0.44526  0.41342  0.21851  1.0000
  C   C608      1.0  0.44144  0.24705  0.61708  1.0000
  C   C609      1.0  0.38474  0.34744  0.32700  1.0000
  S   S94       1.0  0.47293  0.26227  0.99164  1.0000
  C   C610      1.0  0.44333  0.45434  0.48825  1.0000
  H   H464      1.0  0.39615  0.39209  0.25636  1.0000
  H   H465      1.0  0.34910  0.41385  0.43540  1.0000
  H   H466      1.0  0.39228  0.27089  0.98928  1.0000
  H   H467      1.0  0.23520  0.43068  0.83330  1.0000
  H   H468      1.0  0.41966  0.39236  0.22301  1.0000
  C   C611      1.0  0.43532  0.39510  0.26984  1.0000
  C   C612      1.0  0.43220  0.39967  0.23580  1.0000
  C   C613      1.0  0.43476  0.43768  0.18700  1.0000
  C   C614      1.0  0.41753  0.43372  0.19547  1.0000
  C   C615      1.0  0.41278  0.44698  0.20527  1.0000
  H   H469      1.0  0.24393  0.42823  0.96451  1.0000
  H   H470      1.0  0.37698  0.47602  0.40347  1.0000
  C   C616      1.0  0.44729  0.45499  0.18970  1.0000
  H   H471      1.0  0.39490  0.39825  0.08197  1.0000
  H   H472      1.0  0.39144  0.36797  0.08523  1.0000
  H   H473      1.0  0.40933  0.36045  0.12837  1.0000
  H   H474      1.0  0.43053  0.38315  0.16815  1.0000
  H   H475      1.0  0.41598  0.42112  0.12186  1.0000
  H   H476      1.0  0.38442  0.33780  0.30748  1.0000
  C   C617      1.0  0.40961  0.31156  0.58376  1.0000
  H   H477      1.0  0.41583  0.40369  0.37288  1.0000
  H   H478      1.0  0.45220  0.48161  0.20117  1.0000
  H   H479      1.0  0.45212  0.44467  0.11712  1.0000
  H   H480      1.0  0.39298  0.26372  0.11625  1.0000
  C   C618      1.0  0.42016  0.24776  0.50212  1.0000
  C   C619      1.0  0.24045  0.47832  0.91955  1.0000
  H   H481      1.0  0.42536  0.38425  0.28296  1.0000
  H   H482      1.0  0.37533  0.23988  0.65750  1.0000
  C   C620      1.0  0.39189  0.25139  0.61356  1.0000
  C   C621      1.0  0.39979  0.47112  0.40450  1.0000
  H   H483      1.0  0.32433  0.46635  0.07117  1.0000
  C   C622      1.0  0.46045  0.27707  0.60609  1.0000
  H   H484      1.0  0.42155  0.47453  0.21462  1.0000
  H   H485      1.0  0.32929  0.48338  0.47101  1.0000
  C   C623      1.0  0.43159  0.47275  0.85345  1.0000
  H   H486      1.0  0.45430  0.44255  0.91098  1.0000
  C   C624      1.0  0.41257  0.24875  0.44017  1.0000
  C   C625      1.0  0.23027  0.46834  0.85932  1.0000
  C   C626      1.0  0.41983  0.24243  0.46670  1.0000
  H   H487      1.0  0.33599  0.47737  0.68027  1.0000
  H   H488      1.0  0.29060  0.47122  0.38792  1.0000
  C   C627      1.0  0.26025  0.47741  0.38903  1.0000
  C   C628      1.0  0.32608  0.47887  0.66424  1.0000
  H   H489      1.0  0.22583  0.47207  0.53306  1.0000
  H   H490      1.0  0.34070  0.47460  0.01586  1.0000
  H   H491      1.0  0.37796  0.47612  0.72701  1.0000
  H   H492      1.0  0.32780  0.47072  0.79323  1.0000
  C   C629      1.0  0.33684  0.48270  0.78165  1.0000
  H   H493      1.0  0.40087  0.47599  0.00815  1.0000
  H   H494      1.0  0.45547  0.48173  0.41862  1.0000
  H   H495      1.0  0.42623  0.24298  0.52202  1.0000
  H   H496      1.0  0.41602  0.23718  0.59291  1.0000
  H   H497      1.0  0.43932  0.23479  0.62888  1.0000
  C   C630      1.0  0.30970  0.47551  0.42925  1.0000
  C   C631      1.0  0.32749  0.47903  0.06033  1.0000
  Fe  Fe46      1.0  0.36795  0.48107  0.90598  1.0000
  C   C632      1.0  0.30139  0.48271  0.61987  1.0000
  H   H498      1.0  0.41787  0.49160  0.06217  1.0000
  Fe  Fe47      1.0  0.30084  0.65667  0.91201  1.0000
  S   S95       1.0  0.28836  0.62781  0.90092  1.0000
  S   S96       1.0  0.28562  0.67300  0.91209  1.0000
  Fe  Fe48      1.0  0.33751  0.65881  0.91114  1.0000
  S   S97       1.0  0.32800  0.63018  0.89953  1.0000
  S   S98       1.0  0.36604  0.67750  0.91195  1.0000
  Fe  Fe49      1.0  0.30926  0.63332  0.86075  1.0000
  S   S99       1.0  0.30161  0.61918  0.80715  1.0000
  Fe  Fe50      1.0  0.30801  0.62704  0.94049  1.0000
  S   S100      1.0  0.30407  0.60721  0.98307  1.0000
  S   S101      1.0  0.32029  0.66220  0.86897  1.0000
  S   S102      1.0  0.31898  0.65562  0.95498  1.0000
  Fe  Fe51      1.0  0.44129  0.71455  0.05383  1.0000
  C   C633      1.0  0.37602  0.52821  0.62173  1.0000
  S   S103      1.0  0.41281  0.69572  0.05331  1.0000
  S   S104      1.0  0.45971  0.70670  0.08417  1.0000
  C   C634      1.0  0.34636  0.55971  0.15625  1.0000
  C   C635      1.0  0.36540  0.50660  0.78131  1.0000
  H   H499      1.0  0.39570  0.50567  0.58303  1.0000
  C   C636      1.0  0.23755  0.61516  0.55898  1.0000
  S   S105      1.0  0.44994  0.70490  0.41945  1.0000
  Fe  Fe52      1.0  0.30204  0.62240  0.56007  1.0000
  S   S106      1.0  0.30596  0.64198  0.51776  1.0000
  S   S107      1.0  0.28544  0.59327  0.55916  1.0000
  Fe  Fe53      1.0  0.32748  0.64933  0.61289  1.0000
  S   S108      1.0  0.33391  0.67121  0.57464  1.0000
  S   S109      1.0  0.34105  0.65406  0.66710  1.0000
  Fe  Fe54      1.0  0.30517  0.65946  0.56262  1.0000
  S   S110      1.0  0.29040  0.67613  0.56604  1.0000
  Fe  Fe55      1.0  0.33445  0.65230  0.53284  1.0000
  S   S111      1.0  0.35419  0.65649  0.48976  1.0000
  S   S112      1.0  0.29877  0.63892  0.60388  1.0000
  S   S113      1.0  0.33050  0.63141  0.57212  1.0000
  H   H500      1.0  0.25841  0.70269  0.98363  1.0000
  H   H501      1.0  0.28767  0.52337  0.04875  1.0000
  S   S114      1.0  0.46075  0.54042  0.95627  1.0000
  H   H502      1.0  0.37739  0.56340  0.80863  1.0000
  S   S115      1.0  0.45533  0.54894  0.59866  1.0000
  H   H503      1.0  0.29743  0.50261  0.96370  1.0000
  C   C637      1.0  0.32222  0.48764  0.45221  1.0000
  S   S116      1.0  0.23744  0.55094  0.42755  1.0000
  C   C638      1.0  0.46325  0.54168  0.84009  1.0000
  S   S117      1.0  0.23788  0.50658  0.39913  1.0000
  S   S118      1.0  0.24805  0.51679  0.06905  1.0000
  C   C639      1.0  0.27528  0.50607  0.14651  1.0000
  H   H504      1.0  0.40231  0.66019  0.95324  1.0000
  C   C640      1.0  0.42911  0.52135  0.81678  1.0000
  C   C641      1.0  0.33426  0.54986  0.12983  1.0000
  C   C642      1.0  0.40322  0.52283  0.53877  1.0000
  C   C643      1.0  0.40601  0.51661  0.57124  1.0000
  C   C644      1.0  0.42201  0.52493  0.58938  1.0000
  C   C645      1.0  0.43553  0.53923  0.57474  1.0000
  C   C646      1.0  0.43291  0.54541  0.54202  1.0000
  C   C647      1.0  0.41667  0.53729  0.52419  1.0000
  C   C648      1.0  0.38635  0.54540  0.63240  1.0000
  H   H505      1.0  0.42391  0.52026  0.61491  1.0000
  H   H506      1.0  0.44332  0.55650  0.53070  1.0000
  H   H507      1.0  0.41457  0.54216  0.49907  1.0000
  S   S119      1.0  0.26122  0.69309  0.05690  1.0000
  C   C649      1.0  0.40480  0.51837  0.91298  1.0000
  C   C650      1.0  0.41093  0.50789  0.93132  1.0000
  C   C651      1.0  0.42811  0.51493  0.94457  1.0000
  C   C652      1.0  0.43932  0.53238  0.93923  1.0000
  C   C653      1.0  0.43326  0.54286  0.92061  1.0000
  C   C654      1.0  0.41596  0.53589  0.90778  1.0000
  C   C655      1.0  0.25209  0.66601  0.62078  1.0000
  H   H508      1.0  0.43277  0.50684  0.95897  1.0000
  H   H509      1.0  0.44185  0.55633  0.91638  1.0000
  H   H510      1.0  0.41126  0.54412  0.89395  1.0000
  C   C656      1.0  0.27227  0.58197  0.52206  1.0000
  C   C657      1.0  0.27028  0.59054  0.49213  1.0000
  C   C658      1.0  0.25939  0.58091  0.46345  1.0000
  C   C659      1.0  0.25054  0.56270  0.46443  1.0000
  C   C660      1.0  0.25277  0.55419  0.49417  1.0000
  C   C661      1.0  0.26347  0.56381  0.52289  1.0000
  H   H511      1.0  0.27698  0.60455  0.49122  1.0000
  H   H512      1.0  0.25781  0.58759  0.44043  1.0000
  H   H513      1.0  0.31481  0.48606  0.95085  1.0000
  H   H514      1.0  0.26490  0.55715  0.54594  1.0000
  C   C662      1.0  0.28426  0.68413  0.52799  1.0000
  C   C663      1.0  0.28941  0.68173  0.49406  1.0000
  C   C664      1.0  0.28468  0.68884  0.46452  1.0000
  C   C665      1.0  0.27478  0.69833  0.46876  1.0000
  C   C666      1.0  0.26973  0.70076  0.50275  1.0000
  C   C667      1.0  0.27438  0.69361  0.53220  1.0000
  H   H515      1.0  0.29707  0.67447  0.49060  1.0000
  H   H516      1.0  0.26225  0.70814  0.50642  1.0000
  H   H517      1.0  0.27038  0.69553  0.55837  1.0000
  C   C668      1.0  0.42150  0.50005  0.70128  1.0000
  C   C669      1.0  0.40356  0.70718  0.47818  1.0000
  C   C670      1.0  0.39169  0.70604  0.50459  1.0000
  C   C671      1.0  0.37648  0.69061  0.50851  1.0000
  C   C672      1.0  0.37283  0.67637  0.48539  1.0000
  C   C673      1.0  0.38442  0.67779  0.45823  1.0000
  C   C674      1.0  0.39987  0.69298  0.45501  1.0000
  H   H518      1.0  0.39443  0.71700  0.52251  1.0000
  H   H519      1.0  0.36762  0.68970  0.52942  1.0000
  H   H520      1.0  0.38142  0.66713  0.43946  1.0000
  H   H521      1.0  0.40881  0.69378  0.43434  1.0000
  H   H522      1.0  0.41849  0.66402  0.34601  1.0000
  S   S120      1.0  0.23184  0.50333  0.16306  1.0000
  H   H523      1.0  0.37260  0.71824  0.08643  1.0000
  H   H524      1.0  0.39754  0.71437  0.11206  1.0000
  C   C675      1.0  0.28332  0.59069  0.99178  1.0000
  C   C676      1.0  0.26830  0.58983  0.97453  1.0000
  C   C677      1.0  0.25202  0.57635  0.98204  1.0000
  C   C678      1.0  0.25069  0.56350  0.00632  1.0000
  C   C679      1.0  0.26571  0.56441  0.02358  1.0000
  C   C680      1.0  0.28191  0.57808  0.01664  1.0000
  H   H525      1.0  0.26924  0.59954  0.95552  1.0000
  H   H526      1.0  0.24043  0.57580  0.96881  1.0000
  H   H527      1.0  0.26480  0.55480  0.04285  1.0000
  H   H528      1.0  0.29339  0.57892  0.03076  1.0000
  C   C681      1.0  0.31230  0.62959  0.76851  1.0000
  C   C682      1.0  0.30467  0.62296  0.73494  1.0000
  C   C683      1.0  0.31313  0.63059  0.70365  1.0000
  C   C684      1.0  0.32951  0.64469  0.70571  1.0000
  C   C685      1.0  0.33723  0.65115  0.73929  1.0000
  C   C686      1.0  0.32860  0.64377  0.77058  1.0000
  H   H529      1.0  0.29209  0.61196  0.73313  1.0000
  H   H530      1.0  0.30706  0.62547  0.67798  1.0000
  H   H531      1.0  0.34992  0.66200  0.74111  1.0000
  H   H532      1.0  0.33467  0.64889  0.79627  1.0000
  C   C687      1.0  0.37895  0.68189  0.95125  1.0000
  C   C688      1.0  0.39635  0.69412  0.95064  1.0000
  C   C689      1.0  0.40694  0.69832  0.98161  1.0000
  C   C690      1.0  0.40015  0.69035  0.01352  1.0000
  C   C691      1.0  0.38277  0.67798  0.01406  1.0000
  C   C692      1.0  0.37219  0.67374  0.98304  1.0000
  H   H533      1.0  0.40162  0.70051  0.92616  1.0000
  H   H534      1.0  0.42027  0.70788  0.98086  1.0000
  H   H535      1.0  0.37744  0.67176  0.03863  1.0000
  H   H536      1.0  0.35877  0.66436  0.98382  1.0000
  C   C693      1.0  0.26722  0.68727  0.01600  1.0000
  C   C694      1.0  0.26468  0.69400  0.98393  1.0000
  C   C695      1.0  0.27032  0.68946  0.95212  1.0000
  C   C696      1.0  0.27855  0.67826  0.95229  1.0000
  C   C697      1.0  0.28093  0.67143  0.98432  1.0000
  C   C698      1.0  0.27525  0.67593  0.01602  1.0000
  H   H537      1.0  0.26827  0.69460  0.92730  1.0000
  H   H538      1.0  0.28716  0.66270  0.98469  1.0000
  H   H539      1.0  0.27711  0.67062  0.04068  1.0000
  H   H540      1.0  0.33732  0.52336  0.01800  1.0000
  C   C699      1.0  0.30449  0.51154  0.33477  1.0000
  C   C700      1.0  0.31579  0.53616  0.05229  1.0000
  C   C701      1.0  0.29935  0.53406  0.04021  1.0000
  C   C702      1.0  0.29773  0.54593  0.01698  1.0000
  C   C703      1.0  0.31247  0.55995  0.00540  1.0000
  C   C704      1.0  0.32893  0.56213  0.01714  1.0000
  C   C705      1.0  0.33060  0.55033  0.04065  1.0000
  H   H541      1.0  0.32549  0.55479  0.11861  1.0000
  H   H542      1.0  0.34692  0.57213  0.16508  1.0000
  C   C706      1.0  0.42837  0.51393  0.72591  1.0000
  C   C707      1.0  0.33297  0.71849  0.52516  1.0000
  H   H543      1.0  0.31105  0.56919  0.98766  1.0000
  H   H544      1.0  0.34035  0.57310  0.00833  1.0000
  H   H545      1.0  0.34342  0.55228  0.04989  1.0000
  H   H546      1.0  0.23325  0.55685  0.10741  1.0000
  H   H547      1.0  0.24250  0.51913  0.23283  1.0000
  H   H548      1.0  0.28865  0.68693  0.43830  1.0000
  H   H549      1.0  0.26554  0.67538  0.61950  1.0000
  C   C708      1.0  0.44240  0.49697  0.55325  1.0000
  S   S121      1.0  0.24211  0.72618  0.01791  1.0000
  H   H550      1.0  0.25867  0.63730  0.94930  1.0000
  S   S122      1.0  0.26896  0.70697  0.43114  1.0000
  Fe  Fe56      1.0  0.24751  0.71075  0.06014  1.0000
  C   C709      1.0  0.34413  0.50391  0.73493  1.0000
  Fe  Fe57      1.0  0.22594  0.49887  0.10230  1.0000
  H   H551      1.0  0.23786  0.51077  0.87191  1.0000
  C   C710      1.0  0.25390  0.69561  0.17705  1.0000
  H   H552      1.0  0.44020  0.51614  0.74062  1.0000
  H   H553      1.0  0.24587  0.62596  0.57606  1.0000
  C   C711      1.0  0.29313  0.48951  0.97302  1.0000
  H   H554      1.0  0.24582  0.50484  0.93236  1.0000
  P   P22       1.0  0.29131  0.50541  0.37358  1.0000
  H   H555      1.0  0.38342  0.49087  0.46232  1.0000
  H   H556      1.0  0.31915  0.51328  0.76006  1.0000
  S   S123      1.0  0.45731  0.72238  0.00538  1.0000
  C   C712      1.0  0.45438  0.66794  0.39300  1.0000
  H   H557      1.0  0.23458  0.65901  0.08915  1.0000
  C   C713      1.0  0.32353  0.49409  0.66707  1.0000
  C   C714      1.0  0.24250  0.60172  0.55222  1.0000
  H   H558      1.0  0.28867  0.48867  0.06224  1.0000
  H   H559      1.0  0.23544  0.70970  0.90179  1.0000
  C   C715      1.0  0.38199  0.55253  0.66226  1.0000
  C   C716      1.0  0.45727  0.64413  0.91943  1.0000
  C   C717      1.0  0.28280  0.48529  0.50915  1.0000
  H   H560      1.0  0.42734  0.64360  0.07391  1.0000
  H   H561      1.0  0.25444  0.60226  0.56399  1.0000
  H   H562      1.0  0.22882  0.63043  0.48023  1.0000
  H   H563      1.0  0.23194  0.51008  0.29373  1.0000
  H   H564      1.0  0.45947  0.61335  0.53730  1.0000
  C   C718      1.0  0.43862  0.49553  0.58936  1.0000
  H   H565      1.0  0.34464  0.51536  0.12479  1.0000
  H   H566      1.0  0.33511  0.72710  0.17616  1.0000
  C   C719      1.0  0.28450  0.52390  0.42825  1.0000
  C   C720      1.0  0.23247  0.65424  0.45592  1.0000
  H   H567      1.0  0.33310  0.52467  0.25127  1.0000
  H   H568      1.0  0.43325  0.67330  0.05485  1.0000
  H   H569      1.0  0.42776  0.50532  0.86141  1.0000
  C   C721      1.0  0.39302  0.54999  0.82206  1.0000
  H   H570      1.0  0.45241  0.50906  0.54433  1.0000
  C   C722      1.0  0.41176  0.64937  0.91059  1.0000
  H   H571      1.0  0.23828  0.68396  0.87615  1.0000
  C   C723      1.0  0.34042  0.49977  0.01424  1.0000
  C   C724      1.0  0.27112  0.54097  0.60551  1.0000
  C   C725      1.0  0.26309  0.52699  0.58146  1.0000
  C   C726      1.0  0.27244  0.52459  0.55348  1.0000
  C   C727      1.0  0.28985  0.53607  0.54960  1.0000
  C   C728      1.0  0.29808  0.55014  0.57371  1.0000
  C   C729      1.0  0.28852  0.55257  0.60159  1.0000
  P   P23       1.0  0.32066  0.56480  0.56817  1.0000
  C   C730      1.0  0.32978  0.57823  0.60772  1.0000
  C   C731      1.0  0.33235  0.55180  0.55924  1.0000
  C   C732      1.0  0.34681  0.55790  0.53735  1.0000
  C   C733      1.0  0.35587  0.54778  0.53109  1.0000
  C   C734      1.0  0.35053  0.53154  0.54650  1.0000
  C   C735      1.0  0.33620  0.52540  0.56840  1.0000
  C   C736      1.0  0.32720  0.53552  0.57498  1.0000
  C   C737      1.0  0.32469  0.59147  0.61643  1.0000
  C   C738      1.0  0.33225  0.60262  0.64574  1.0000
  C   C739      1.0  0.34500  0.60072  0.66655  1.0000
  C   C740      1.0  0.35026  0.58767  0.65799  1.0000
  C   C741      1.0  0.34276  0.57650  0.62857  1.0000
  C   C742      1.0  0.32291  0.57963  0.53264  1.0000
  C   C743      1.0  0.30955  0.57609  0.50712  1.0000
  C   C744      1.0  0.31077  0.58852  0.48210  1.0000
  C   C745      1.0  0.32525  0.60457  0.48249  1.0000
  C   C746      1.0  0.33878  0.60802  0.50719  1.0000
  C   C747      1.0  0.33770  0.59560  0.53202  1.0000
  H   H572      1.0  0.26373  0.54311  0.62662  1.0000
  H   H573      1.0  0.24950  0.51824  0.58395  1.0000
  H   H574      1.0  0.26607  0.51394  0.53448  1.0000
  H   H575      1.0  0.29683  0.53404  0.52755  1.0000
  H   H576      1.0  0.29423  0.56348  0.62006  1.0000
  H   H577      1.0  0.35116  0.57045  0.52519  1.0000
  H   H578      1.0  0.36708  0.55248  0.51431  1.0000
  H   H579      1.0  0.35751  0.52368  0.54150  1.0000
  H   H580      1.0  0.33209  0.51274  0.58012  1.0000
  H   H581      1.0  0.31618  0.53058  0.59217  1.0000
  H   H582      1.0  0.31503  0.59335  0.60020  1.0000
  H   H583      1.0  0.32844  0.61301  0.65187  1.0000
  H   H584      1.0  0.35096  0.60961  0.68891  1.0000
  H   H585      1.0  0.36037  0.58641  0.67383  1.0000
  H   H586      1.0  0.34730  0.56675  0.62200  1.0000
  H   H587      1.0  0.29779  0.56419  0.50740  1.0000
  H   H588      1.0  0.30008  0.58602  0.46353  1.0000
  H   H589      1.0  0.32581  0.61454  0.46431  1.0000
  H   H590      1.0  0.34983  0.62065  0.50796  1.0000
  H   H591      1.0  0.34810  0.59881  0.55165  1.0000
  C   C748      1.0  0.41832  0.65382  0.39818  1.0000
  C   C749      1.0  0.42838  0.65208  0.42650  1.0000
  C   C750      1.0  0.44650  0.65947  0.42379  1.0000
  P   P24       1.0  0.41847  0.64239  0.46762  1.0000
  C   C751      1.0  0.41751  0.65935  0.49574  1.0000
  C   C752      1.0  0.39697  0.62529  0.45843  1.0000
  C   C753      1.0  0.38320  0.62956  0.44994  1.0000
  C   C754      1.0  0.36660  0.61657  0.44234  1.0000
  C   C755      1.0  0.36345  0.59909  0.44390  1.0000
  C   C756      1.0  0.37701  0.59464  0.45262  1.0000
  C   C757      1.0  0.39373  0.60766  0.45973  1.0000
  C   C758      1.0  0.40328  0.65603  0.51759  1.0000
  C   C759      1.0  0.40266  0.66935  0.53891  1.0000
  C   C760      1.0  0.41635  0.68597  0.53909  1.0000
  C   C761      1.0  0.43072  0.68925  0.51813  1.0000
  C   C762      1.0  0.43134  0.67599  0.49668  1.0000
  C   C763      1.0  0.43156  0.63329  0.48979  1.0000
  C   C764      1.0  0.43929  0.62445  0.47008  1.0000
  C   C765      1.0  0.44919  0.61718  0.48727  1.0000
  C   C766      1.0  0.45137  0.61858  0.52421  1.0000
  C   C767      1.0  0.44375  0.62737  0.54401  1.0000
  C   C768      1.0  0.43385  0.63469  0.52693  1.0000
  H   H592      1.0  0.40442  0.64892  0.39979  1.0000
  H   H593      1.0  0.45460  0.65913  0.44590  1.0000
  H   H594      1.0  0.38529  0.64300  0.44947  1.0000
  H   H595      1.0  0.35614  0.62015  0.43581  1.0000
  H   H596      1.0  0.35047  0.58904  0.43858  1.0000
  H   H597      1.0  0.37461  0.58109  0.45384  1.0000
  H   H598      1.0  0.40401  0.60388  0.46632  1.0000
  H   H599      1.0  0.39257  0.64327  0.51808  1.0000
  H   H600      1.0  0.39137  0.66689  0.55470  1.0000
  H   H601      1.0  0.41569  0.69639  0.55494  1.0000
  H   H602      1.0  0.44130  0.70216  0.51805  1.0000
  H   H603      1.0  0.44268  0.67883  0.48091  1.0000
  H   H604      1.0  0.43783  0.62331  0.44141  1.0000
  H   H605      1.0  0.45567  0.61088  0.47201  1.0000
  C   C769      1.0  0.35702  0.53758  0.15968  1.0000
  C   C770      1.0  0.46587  0.72362  0.27594  1.0000
  H   H606      1.0  0.42819  0.64158  0.54275  1.0000
  C   C771      1.0  0.45376  0.57782  0.75748  1.0000
  C   C772      1.0  0.28403  0.53370  0.93387  1.0000
  C   C773      1.0  0.27398  0.54306  0.93488  1.0000
  C   C774      1.0  0.28040  0.55973  0.92117  1.0000
  C   C775      1.0  0.29691  0.56713  0.90674  1.0000
  C   C776      1.0  0.30725  0.55793  0.90602  1.0000
  C   C777      1.0  0.30063  0.54111  0.91972  1.0000
  P   P25       1.0  0.32899  0.56803  0.88893  1.0000
  C   C778      1.0  0.32878  0.57915  0.84851  1.0000
  C   C779      1.0  0.34345  0.58407  0.92088  1.0000
  C   C780      1.0  0.36107  0.58738  0.92356  1.0000
  C   C781      1.0  0.37238  0.60027  0.94718  1.0000
  C   C782      1.0  0.36625  0.61005  0.96812  1.0000
  C   C783      1.0  0.34884  0.60705  0.96524  1.0000
  C   C784      1.0  0.33753  0.59420  0.94167  1.0000
  C   C785      1.0  0.34379  0.59353  0.83849  1.0000
  C   C786      1.0  0.34347  0.60276  0.80828  1.0000
  C   C787      1.0  0.32823  0.59759  0.78769  1.0000
  C   C788      1.0  0.31336  0.58307  0.79700  1.0000
  C   C789      1.0  0.31364  0.57374  0.82706  1.0000
  C   C790      1.0  0.33687  0.55173  0.87958  1.0000
  C   C791      1.0  0.33722  0.54595  0.84453  1.0000
  C   C792      1.0  0.34347  0.53344  0.83765  1.0000
  C   C793      1.0  0.34939  0.52662  0.86563  1.0000
  C   C794      1.0  0.34903  0.53224  0.90052  1.0000
  C   C795      1.0  0.34275  0.54470  0.90755  1.0000
  H   H607      1.0  0.27913  0.52085  0.94501  1.0000
  H   H608      1.0  0.26134  0.53757  0.94689  1.0000
  H   H609      1.0  0.27266  0.56704  0.92221  1.0000
  H   H610      1.0  0.30162  0.58014  0.89647  1.0000
  H   H611      1.0  0.30817  0.53364  0.91994  1.0000
  H   H612      1.0  0.36622  0.58026  0.90702  1.0000
  H   H613      1.0  0.38598  0.60288  0.94889  1.0000
  H   H614      1.0  0.37506  0.62022  0.98603  1.0000
  H   H615      1.0  0.34407  0.61484  0.98091  1.0000
  H   H616      1.0  0.32425  0.59251  0.93966  1.0000
  H   H617      1.0  0.35563  0.59784  0.85436  1.0000
  H   H618      1.0  0.35485  0.61425  0.80131  1.0000
  H   H619      1.0  0.32778  0.60515  0.76508  1.0000
  H   H620      1.0  0.30141  0.57955  0.78165  1.0000
  H   H621      1.0  0.30190  0.56265  0.83398  1.0000
  H   H622      1.0  0.33268  0.55104  0.82248  1.0000
  H   H623      1.0  0.34376  0.52898  0.81066  1.0000
  H   H624      1.0  0.35428  0.51695  0.86039  1.0000
  H   H625      1.0  0.35368  0.52688  0.92207  1.0000
  H   H626      1.0  0.34245  0.54881  0.93482  1.0000
  C   C796      1.0  0.35853  0.70694  0.97061  1.0000
  C   C797      1.0  0.34436  0.70526  0.94917  1.0000
  C   C798      1.0  0.32818  0.70072  0.96415  1.0000
  C   C799      1.0  0.32610  0.69747  0.00041  1.0000
  C   C800      1.0  0.34014  0.69847  0.02190  1.0000
  C   C801      1.0  0.35646  0.70342  0.00680  1.0000
  P   P26       1.0  0.33689  0.69398  0.06858  1.0000
  C   C802      1.0  0.33602  0.71231  0.09179  1.0000
  C   C803      1.0  0.31708  0.67430  0.07165  1.0000
  C   C804      1.0  0.30399  0.67317  0.09500  1.0000
  C   C805      1.0  0.28879  0.65774  0.09667  1.0000
  C   C806      1.0  0.28646  0.64345  0.07471  1.0000
  C   C807      1.0  0.29937  0.64453  0.05124  1.0000
  C   C808      1.0  0.31461  0.65987  0.04976  1.0000
  C   C809      1.0  0.33558  0.71260  0.12905  1.0000
  C   C810      1.0  0.33555  0.72701  0.14741  1.0000
  C   C811      1.0  0.26877  0.71226  0.32064  1.0000
  Fe  Fe58      1.0  0.23098  0.72361  0.11921  1.0000
  C   C812      1.0  0.33686  0.72684  0.07325  1.0000
  C   C813      1.0  0.35486  0.69096  0.08835  1.0000
  C   C814      1.0  0.35309  0.67447  0.09845  1.0000
  C   C815      1.0  0.36722  0.67248  0.11355  1.0000
  C   C816      1.0  0.38317  0.68689  0.11867  1.0000
  C   C817      1.0  0.38497  0.70335  0.10909  1.0000
  C   C818      1.0  0.37087  0.70542  0.09421  1.0000
  H   H627      1.0  0.37105  0.71039  0.95886  1.0000
  H   H628      1.0  0.35883  0.72032  0.52101  1.0000
  C   C819      1.0  0.31252  0.50396  0.27758  1.0000
  H   H629      1.0  0.31347  0.69392  0.01163  1.0000
  H   H630      1.0  0.36755  0.70422  0.02238  1.0000
  H   H631      1.0  0.30531  0.68414  0.11164  1.0000
  H   H632      1.0  0.27865  0.65695  0.11447  1.0000
  H   H633      1.0  0.27461  0.63156  0.07566  1.0000
  H   H634      1.0  0.29757  0.63346  0.03410  1.0000
  H   H635      1.0  0.32458  0.66045  0.03169  1.0000
  H   H636      1.0  0.33535  0.70168  0.14385  1.0000
  C   C820      1.0  0.26370  0.49059  0.12971  1.0000
  H   H637      1.0  0.31481  0.48666  0.10124  1.0000
  C   C821      1.0  0.46201  0.57449  0.68708  1.0000
  H   H638      1.0  0.33752  0.72720  0.04460  1.0000
  H   H639      1.0  0.34096  0.66306  0.09459  1.0000
  H   H640      1.0  0.36594  0.65971  0.12059  1.0000
  H   H641      1.0  0.39432  0.68528  0.12906  1.0000
  C   C822      1.0  0.43915  0.53671  0.79908  1.0000
  C   C823      1.0  0.31762  0.54791  0.69614  1.0000
  C   C824      1.0  0.32522  0.52098  0.27465  1.0000
  C   C825      1.0  0.27977  0.54969  0.41969  1.0000
  H   H642      1.0  0.24223  0.65416  0.96424  1.0000
  H   H643      1.0  0.45355  0.71224  0.18829  1.0000
  H   H644      1.0  0.46803  0.53044  0.07473  1.0000
  C   C826      1.0  0.33347  0.53378  0.11806  1.0000
  C   C827      1.0  0.32195  0.49050  0.07697  1.0000
  C   C828      1.0  0.39465  0.56446  0.76658  1.0000
  C   C829      1.0  0.28755  0.52317  0.39186  1.0000
  C   C830      1.0  0.32533  0.50513  0.45142  1.0000
  C   C831      1.0  0.28598  0.53544  0.36934  1.0000
  C   C832      1.0  0.42700  0.63378  0.02062  1.0000
  C   C833      1.0  0.42876  0.63773  0.98459  1.0000
  H   H645      1.0  0.32688  0.70438  0.52541  1.0000
  H   H646      1.0  0.37837  0.51314  0.79286  1.0000
  C   C834      1.0  0.42625  0.66240  0.36748  1.0000
  P   P27       1.0  0.31790  0.52128  0.08365  1.0000
  H   H647      1.0  0.39880  0.53061  0.71343  1.0000
  C   C835      1.0  0.44988  0.56006  0.70415  1.0000
  S   S124      1.0  0.23973  0.72416  0.48861  1.0000
  H   H648      1.0  0.28077  0.55806  0.36594  1.0000
  C   C836      1.0  0.32783  0.53321  0.30203  1.0000
  S   S125      1.0  0.38323  0.50978  0.89647  1.0000
  H   H649      1.0  0.40243  0.49437  0.93546  1.0000
  C   C837      1.0  0.44951  0.52007  0.46900  1.0000
  H   H650      1.0  0.45045  0.67656  0.34153  1.0000
  H   H651      1.0  0.41582  0.51332  0.80821  1.0000
  H   H652      1.0  0.44567  0.50643  0.60751  1.0000
  Fe  Fe59      1.0  0.25111  0.72028  0.43802  1.0000
  C   C838      1.0  0.23710  0.49804  0.87777  1.0000
  C   C839      1.0  0.31760  0.52848  0.33214  1.0000
  C   C840      1.0  0.28065  0.53715  0.44209  1.0000
  H   H653      1.0  0.27654  0.55980  0.43022  1.0000
  C   C841      1.0  0.40647  0.49718  0.68149  1.0000
  H   H654      1.0  0.28453  0.51393  0.44575  1.0000
  H   H655      1.0  0.29788  0.71493  0.04734  1.0000
  C   C842      1.0  0.40596  0.54518  0.81103  1.0000
  P   P28       1.0  0.42970  0.54328  0.76199  1.0000
  C   C843      1.0  0.28228  0.54876  0.38334  1.0000
  H   H656      1.0  0.30335  0.55365  0.73704  1.0000
  C   C844      1.0  0.41322  0.54973  0.77738  1.0000
  H   H657      1.0  0.36592  0.53287  0.17109  1.0000
  C   C845      1.0  0.36078  0.51282  0.75059  1.0000
  H   H658      1.0  0.30342  0.72606  0.98704  1.0000
  C   C846      1.0  0.22693  0.72181  0.28715  1.0000
  C   C847      1.0  0.35776  0.55359  0.17112  1.0000
  H   H659      1.0  0.28718  0.53450  0.34091  1.0000
  H   H660      1.0  0.37030  0.52443  0.73910  1.0000
  H   H661      1.0  0.27768  0.53733  0.46991  1.0000
  C   C848      1.0  0.35689  0.52508  0.67088  1.0000
  C   C849      1.0  0.23602  0.61285  0.94440  1.0000
  H   H662      1.0  0.25736  0.68290  0.13001  1.0000
  C   C850      1.0  0.35344  0.49162  0.79689  1.0000
  H   H663      1.0  0.42780  0.49149  0.69754  1.0000
  C   C851      1.0  0.38174  0.64464  0.91667  1.0000
  C   C852      1.0  0.31582  0.51048  0.42782  1.0000
  C   C853      1.0  0.46861  0.71049  0.92642  1.0000
  H   H664      1.0  0.24620  0.54020  0.49516  1.0000
  C   C854      1.0  0.43233  0.66343  0.03534  1.0000
  H   H665      1.0  0.31853  0.52411  0.42727  1.0000
  C   C855      1.0  0.31110  0.49592  0.64459  1.0000
  C   C856      1.0  0.34492  0.52768  0.13329  1.0000
  H   H666      1.0  0.43328  0.71568  0.89663  1.0000
  H   H667      1.0  0.25043  0.65886  0.56552  1.0000
  S   S126      1.0  0.42261  0.72667  0.47432  1.0000
  H   H668      1.0  0.33781  0.54636  0.29999  1.0000
  C   C857      1.0  0.46104  0.71991  0.21096  1.0000
  C   C858      1.0  0.43589  0.51661  0.84666  1.0000
  H   H669      1.0  0.31059  0.49442  0.25655  1.0000
  S   S127      1.0  0.38282  0.51293  0.51684  1.0000
  H   H670      1.0  0.39007  0.56587  0.67050  1.0000
  C   C859      1.0  0.27940  0.72054  0.19979  1.0000
  S   S128      1.0  0.45918  0.71523  0.31934  1.0000
  C   C860      1.0  0.40757  0.55960  0.75541  1.0000
  H   H671      1.0  0.31681  0.55740  0.67827  1.0000
  H   H672      1.0  0.30874  0.72033  0.52676  1.0000
  C   C861      1.0  0.44427  0.66944  0.36486  1.0000
  C   C862      1.0  0.45297  0.52677  0.85830  1.0000
  C   C863      1.0  0.47038  0.64247  0.86375  1.0000
  C   C864      1.0  0.45647  0.71386  0.24581  1.0000
  C   C865      1.0  0.31903  0.52301  0.74205  1.0000
  H   H673      1.0  0.23312  0.53955  0.16006  1.0000
  C   C866      1.0  0.32613  0.53772  0.68599  1.0000
  C   C867      1.0  0.38732  0.55959  0.79984  1.0000
  C   C868      1.0  0.30287  0.49828  0.40533  1.0000
  H   H674      1.0  0.41318  0.56352  0.72960  1.0000
  C   C869      1.0  0.30997  0.54576  0.72929  1.0000
  C   C870      1.0  0.32751  0.72698  0.88755  1.0000
  C   C871      1.0  0.42879  0.64664  0.04600  1.0000
  H   H675      1.0  0.41013  0.53791  0.82910  1.0000
  H   H676      1.0  0.33192  0.53947  0.66012  1.0000
  C   C872      1.0  0.31065  0.53331  0.75220  1.0000
  C   C873      1.0  0.45420  0.50633  0.47461  1.0000
  S   S129      1.0  0.23006  0.54688  0.01551  1.0000
  C   C874      1.0  0.36150  0.51801  0.64106  1.0000
  H   H677      1.0  0.30449  0.53149  0.77771  1.0000
  C   C875      1.0  0.33465  0.51118  0.03048  1.0000
  H   H678      1.0  0.34737  0.50314  0.98962  1.0000
  H   H679      1.0  0.44547  0.70153  0.24944  1.0000
  C   C876      1.0  0.24351  0.66315  0.65296  1.0000
  H   H680      1.0  0.36404  0.54812  0.70445  1.0000
  H   H681      1.0  0.38750  0.54626  0.84805  1.0000
  H   H682      1.0  0.42928  0.72187  0.32741  1.0000
  Fe  Fe60      1.0  0.24231  0.49388  0.03172  1.0000
  C   C877      1.0  0.32694  0.52520  0.70892  1.0000
  H   H683      1.0  0.31991  0.53804  0.35332  1.0000
  H   H684      1.0  0.36722  0.56130  0.19141  1.0000
  H   H685      1.0  0.24012  0.68735  0.17824  1.0000
  C   C878      1.0  0.46098  0.69248  0.93021  1.0000
  H   H686      1.0  0.38615  0.62362  0.84276  1.0000
  C   C879      1.0  0.29985  0.72815  0.04257  1.0000
  C   C880      1.0  0.43455  0.66755  0.99945  1.0000
  H   H687      1.0  0.39047  0.57216  0.74956  1.0000
  H   H688      1.0  0.46218  0.50707  0.94993  1.0000
  C   C881      1.0  0.33217  0.48879  0.75079  1.0000
  H   H689      1.0  0.28843  0.70281  0.12532  1.0000
  H   H690      1.0  0.37929  0.52269  0.59844  1.0000
  C   C882      1.0  0.42011  0.52492  0.73128  1.0000
  H   H691      1.0  0.28493  0.54421  0.00814  1.0000
  C   C883      1.0  0.40518  0.52213  0.71078  1.0000
  H   H692      1.0  0.25646  0.72423  0.60770  1.0000
  H   H693      1.0  0.31715  0.69929  0.94750  1.0000
  C   C884      1.0  0.23148  0.50679  0.23633  1.0000
  H   H694      1.0  0.30250  0.72702  0.16922  1.0000
  H   H695      1.0  0.35404  0.50460  0.63263  1.0000
  H   H696      1.0  0.25032  0.67040  0.67668  1.0000
  C   C885      1.0  0.23148  0.48485  0.85152  1.0000
  H   H697      1.0  0.45088  0.57928  0.78493  1.0000
  H   H698      1.0  0.39777  0.55312  0.61753  1.0000
  H   H699      1.0  0.23601  0.57721  0.52486  1.0000
  H   H700      1.0  0.30901  0.50757  0.64562  1.0000
  P   P29       1.0  0.33788  0.51201  0.69552  1.0000
  H   H701      1.0  0.45651  0.64195  0.94763  1.0000
  C   C886      1.0  0.45068  0.65618  0.86649  1.0000
  C   C887      1.0  0.22875  0.72641  0.22264  1.0000
  H   H702      1.0  0.22791  0.48737  0.82520  1.0000
  C   C888      1.0  0.26565  0.72434  0.34126  1.0000
  H   H703      1.0  0.26841  0.49809  0.31012  1.0000
  C   C889      1.0  0.28523  0.49346  0.08623  1.0000
  H   H704      1.0  0.23304  0.65285  0.02511  1.0000
  C   C890      1.0  0.39895  0.65206  0.92927  1.0000
  C   C891      1.0  0.36726  0.54245  0.68136  1.0000
  C   C892      1.0  0.43307  0.65477  0.97380  1.0000
  C   C893      1.0  0.40693  0.63871  0.87972  1.0000
  C   C894      1.0  0.30992  0.72096  0.89478  1.0000
  C   C895      1.0  0.45864  0.71886  0.91427  1.0000
  C   C896      1.0  0.46605  0.59216  0.74041  1.0000
  H   H705      1.0  0.26596  0.69958  0.33117  1.0000
  H   H706      1.0  0.34589  0.70712  0.92084  1.0000
  H   H707      1.0  0.30074  0.70832  0.88445  1.0000
  H   H708      1.0  0.46372  0.65417  0.81922  1.0000
  H   H709      1.0  0.28652  0.49846  0.51876  1.0000
  H   H710      1.0  0.37194  0.64695  0.93087  1.0000
  H   H711      1.0  0.46477  0.55830  0.79720  1.0000
  C   C897      1.0  0.23526  0.64029  0.95917  1.0000
  H   H712      1.0  0.43713  0.68064  0.99196  1.0000
  C   C898      1.0  0.33676  0.48369  0.02908  1.0000
  C   C899      1.0  0.44569  0.56161  0.73960  1.0000
  Fe  Fe61      1.0  0.23125  0.48975  0.44752  1.0000
  C   C900      1.0  0.24466  0.63075  0.95088  1.0000
  H   H713      1.0  0.33507  0.51448  0.46926  1.0000
  H   H714      1.0  0.40923  0.49404  0.49749  1.0000
  C   C901      1.0  0.46229  0.53696  0.46468  1.0000
  H   H715      1.0  0.41976  0.68392  0.90239  1.0000
  Fe  Fe62      1.0  0.22801  0.52140  0.03750  1.0000
  Fe  Fe63      1.0  0.44608  0.72663  0.44642  1.0000
  H   H716      1.0  0.36383  0.62925  0.87542  1.0000
  H   H717      1.0  0.45817  0.52331  0.88183  1.0000
  S   S130      1.0  0.25398  0.48802  0.47984  1.0000
  C   C902      1.0  0.45642  0.54666  0.81060  1.0000
  H   H718      1.0  0.25390  0.71116  0.22228  1.0000
  C   C903      1.0  0.38970  0.63145  0.86704  1.0000
  H   H719      1.0  0.27111  0.51112  0.16930  1.0000
  Fe  Fe64      1.0  0.46499  0.72460  0.37834  1.0000
  C   C904      1.0  0.24160  0.49475  0.91176  1.0000
  H   H720      1.0  0.44585  0.62883  0.57255  1.0000
  C   C905      1.0  0.26360  0.69320  0.14977  1.0000
  P   P30       1.0  0.43399  0.65944  0.92707  1.0000
  H   H721      1.0  0.33189  0.71903  0.87141  1.0000
  C   C906      1.0  0.26177  0.70919  0.20201  1.0000
  H   H722      1.0  0.41636  0.63600  0.86523  1.0000
  C   C907      1.0  0.39835  0.50822  0.68618  1.0000
  C   C908      1.0  0.29191  0.51525  0.13326  1.0000
  C   C909      1.0  0.22967  0.69732  0.91477  1.0000
  H   H723      1.0  0.44430  0.66319  0.85336  1.0000
  C   C910      1.0  0.37714  0.63454  0.88539  1.0000
  Fe  Fe65      1.0  0.47519  0.71418  0.45094  1.0000
  H   H724      1.0  0.43607  0.51796  0.46891  1.0000
  H   H725      1.0  0.42687  0.62752  0.96516  1.0000
  C   C911      1.0  0.46819  0.63903  0.89989  1.0000
  C   C912      1.0  0.44803  0.65234  0.90266  1.0000
  H   H726      1.0  0.44396  0.54780  0.68944  1.0000
  H   H727      1.0  0.45375  0.48852  0.88612  1.0000
  H   H728      1.0  0.42423  0.62074  0.02885  1.0000
  C   C913      1.0  0.23122  0.68284  0.90033  1.0000
  C   C914      1.0  0.29710  0.50887  0.10320  1.0000
  C   C915      1.0  0.28116  0.70445  0.14726  1.0000
  H   H729      1.0  0.30047  0.52740  0.14619  1.0000
  C   C916      1.0  0.44332  0.68267  0.92177  1.0000
  C   C917      1.0  0.43339  0.69111  0.90922  1.0000
  C   C918      1.0  0.32535  0.50664  0.06203  1.0000
  C   C919      1.0  0.24346  0.65657  0.59016  1.0000
  H   H730      1.0  0.38666  0.50582  0.67077  1.0000
  H   H731      1.0  0.27785  0.70702  0.27112  1.0000
  H   H732      1.0  0.44896  0.49761  0.06854  1.0000
  H   H733      1.0  0.46928  0.63824  0.02549  1.0000
  H   H734      1.0  0.45864  0.54759  0.46121  1.0000
  C   C920      1.0  0.44104  0.70917  0.90566  1.0000
  H   H735      1.0  0.46543  0.57318  0.65994  1.0000
  C   C921      1.0  0.44152  0.49070  0.04517  1.0000
  H   H736      1.0  0.28326  0.72070  0.62288  1.0000
  C   C922      1.0  0.28906  0.71814  0.17212  1.0000
  C   C923      1.0  0.27546  0.71654  0.28669  1.0000
  C   C924      1.0  0.30230  0.49919  0.30769  1.0000
  H   H737      1.0  0.26034  0.72097  0.36742  1.0000
  H   H738      1.0  0.23741  0.65122  0.43169  1.0000
  S   S131      1.0  0.26617  0.49486  0.00181  1.0000
  H   H739      1.0  0.46885  0.68624  0.94022  1.0000
  H   H740      1.0  0.29051  0.72599  0.92163  1.0000
  H   H741      1.0  0.35722  0.48661  0.82020  1.0000
  H   H742      1.0  0.40098  0.48633  0.66261  1.0000
  C   C925      1.0  0.47186  0.50989  0.47674  1.0000
  C   C926      1.0  0.39213  0.48586  0.45170  1.0000
  C   C927      1.0  0.46172  0.65116  0.84708  1.0000
  H   H743      1.0  0.24335  0.60548  0.93806  1.0000
  H   H744      1.0  0.46947  0.66729  0.03630  1.0000
  H   H745      1.0  0.47317  0.68586  0.16292  1.0000
  C   C928      1.0  0.47334  0.50421  0.94729  1.0000
  C   C929      1.0  0.47009  0.59052  0.70516  1.0000
  C   C930      1.0  0.28305  0.72857  0.60069  1.0000
  C   C931      1.0  0.32270  0.72762  0.52646  1.0000
  C   C932      1.0  0.35094  0.72749  0.52277  1.0000
  H   H746      1.0  0.23494  0.67909  0.43801  1.0000
  C   C933      1.0  0.26172  0.48870  0.33001  1.0000
  C   C934      1.0  0.47139  0.48700  0.94736  1.0000
  H   H747      1.0  0.46995  0.48761  0.58823  1.0000
  C   C935      1.0  0.26978  0.48894  0.36299  1.0000
  H   H748      1.0  0.46838  0.67392  0.39148  1.0000
  C   C936      1.0  0.23124  0.67002  0.45954  1.0000
  H   H749      1.0  0.47523  0.63263  0.91298  1.0000
  H   H750      1.0  0.46310  0.48834  0.02112  1.0000
  C   C937      1.0  0.42401  0.48732  0.04164  1.0000
  H   H751      1.0  0.30939  0.73294  0.46373  1.0000
  H   H752      1.0  0.47280  0.60445  0.75476  1.0000
  C   C938      1.0  0.26796  0.73049  0.59212  1.0000
  C   C939      1.0  0.22758  0.64249  0.48364  1.0000
  C   C940      1.0  0.23220  0.58765  0.52998  1.0000
  C   C941      1.0  0.30418  0.73102  0.91585  1.0000
  C   C942      1.0  0.40682  0.48762  0.47153  1.0000
  C   C943      1.0  0.22626  0.65084  0.65453  1.0000
  Fe  Fe66      1.0  0.36691  0.48548  0.53427  1.0000
  S   S132      1.0  0.25802  0.73317  0.09915  1.0000
  H   H753      1.0  0.30985  0.72758  0.27804  1.0000
  C   C944      1.0  0.26865  0.48433  0.09947  1.0000
  P   P31       1.0  0.43788  0.48463  0.48255  1.0000
  S   S133      1.0  0.22601  0.71718  0.17854  1.0000
  C   C945      1.0  0.44945  0.48537  0.01832  1.0000
  C   C946      1.0  0.27909  0.73301  0.27313  1.0000
  S   S134      1.0  0.22578  0.70990  0.40726  1.0000
  H   H754      1.0  0.46450  0.73289  0.91230  1.0000
  H   H755      1.0  0.29524  0.73315  0.09666  1.0000
  C   C947      1.0  0.22619  0.64405  0.59155  1.0000
  H   H756      1.0  0.40927  0.72593  0.36965  1.0000
  H   H757      1.0  0.29195  0.48420  0.60223  1.0000
  H   H758      1.0  0.29268  0.48588  0.30979  1.0000
  H   H759      1.0  0.30571  0.48384  0.53193  1.0000
  Fe  Fe67      1.0  0.37044  0.91277  0.55067  1.0000
  S   S135      1.0  0.38273  0.91364  0.60460  1.0000
  S   S136      1.0  0.38076  0.93494  0.50983  1.0000
  Fe  Fe68      1.0  0.34629  0.87249  0.55537  1.0000
  S   S137      1.0  0.35757  0.87136  0.60914  1.0000
  S   S138      1.0  0.32812  0.84794  0.52200  1.0000
  Fe  Fe69      1.0  0.35602  0.89642  0.62281  1.0000
  S   S139      1.0  0.34690  0.90136  0.67705  1.0000
  Fe  Fe70      1.0  0.38342  0.88860  0.58766  1.0000
  S   S140      1.0  0.40609  0.88322  0.60466  1.0000
  S   S141      1.0  0.34307  0.89698  0.56970  1.0000
  S   S142      1.0  0.37273  0.88827  0.53286  1.0000
  Fe  Fe71      1.0  0.37614  0.88054  0.96010  1.0000
  S   S143      1.0  0.35633  0.88408  0.99352  1.0000
  S   S144      1.0  0.39711  0.87449  0.98473  1.0000
  Fe  Fe72      1.0  0.36160  0.88745  0.89039  1.0000
  S   S145      1.0  0.34062  0.89171  0.91948  1.0000
  S   S146      1.0  0.36885  0.88612  0.83201  1.0000
  Fe  Fe73      1.0  0.36196  0.90784  0.96018  1.0000
  S   S147      1.0  0.36787  0.93374  0.99161  1.0000
  Fe  Fe74      1.0  0.33694  0.86770  0.95105  1.0000
  S   S148      1.0  0.31031  0.84364  0.95648  1.0000
  S   S149      1.0  0.38272  0.90466  0.92921  1.0000
  S   S150      1.0  0.35683  0.86298  0.91974  1.0000
  C   C948      1.0  0.31046  0.75808  0.47912  1.0000
  S   S151      1.0  0.27268  0.77645  0.05409  1.0000
  H   H760      1.0  0.42483  0.77147  0.64253  1.0000
  S   S152      1.0  0.45874  0.74552  0.40331  1.0000
  H   H761      1.0  0.47076  0.95048  0.53522  1.0000
  S   S153      1.0  0.26046  0.77389  0.51181  1.0000
  S   S154      1.0  0.45774  0.88940  0.87774  1.0000
  C   C949      1.0  0.22748  0.79486  0.10299  1.0000
  C   C950      1.0  0.37079  0.84955  0.74890  1.0000
  H   H762      1.0  0.24278  0.82836  0.00300  1.0000
  C   C951      1.0  0.41449  0.79212  0.57124  1.0000
  C   C952      1.0  0.41414  0.87882  0.95547  1.0000
  C   C953      1.0  0.41177  0.88114  0.91949  1.0000
  C   C954      1.0  0.42519  0.88401  0.89595  1.0000
  C   C955      1.0  0.44115  0.88495  0.90824  1.0000
  C   C956      1.0  0.44357  0.88260  0.94425  1.0000
  C   C957      1.0  0.43005  0.87958  0.96788  1.0000
  H   H763      1.0  0.39953  0.88052  0.90962  1.0000
  H   H764      1.0  0.42326  0.88578  0.86820  1.0000
  H   H765      1.0  0.45579  0.88310  0.95388  1.0000
  H   H766      1.0  0.43191  0.87789  0.99577  1.0000
  C   C958      1.0  0.30083  0.82437  0.98262  1.0000
  C   C959      1.0  0.28438  0.81124  0.97238  1.0000
  C   C960      1.0  0.27588  0.79630  0.99305  1.0000
  C   C961      1.0  0.28348  0.79430  0.02489  1.0000
  C   C962      1.0  0.30008  0.80724  0.03480  1.0000
  C   C963      1.0  0.30875  0.82203  0.01378  1.0000
  H   H767      1.0  0.27802  0.81278  0.94849  1.0000
  H   H768      1.0  0.26324  0.78657  0.98480  1.0000
  H   H769      1.0  0.30623  0.80597  0.05924  1.0000
  H   H770      1.0  0.32135  0.83188  0.02226  1.0000
  C   C964      1.0  0.38253  0.95662  0.99530  1.0000
  C   C965      1.0  0.38203  0.96639  0.02559  1.0000
  C   C966      1.0  0.39437  0.96541  0.96903  1.0000
  H   H771      1.0  0.37300  0.95992  0.04619  1.0000
  H   H772      1.0  0.39501  0.95830  0.94547  1.0000
  C   C967      1.0  0.27963  0.79421  0.51393  1.0000
  C   C968      1.0  0.28546  0.80293  0.54709  1.0000
  C   C969      1.0  0.30020  0.81917  0.55019  1.0000
  C   C970      1.0  0.30947  0.82712  0.52007  1.0000
  C   C971      1.0  0.30378  0.81826  0.48698  1.0000
  C   C972      1.0  0.28898  0.80205  0.48387  1.0000
  H   H773      1.0  0.27836  0.79716  0.57056  1.0000
  H   H774      1.0  0.30425  0.82555  0.57586  1.0000
  H   H775      1.0  0.31068  0.82417  0.46337  1.0000
  H   H776      1.0  0.28459  0.79577  0.45809  1.0000
  C   C973      1.0  0.35333  0.89731  0.72003  1.0000
  C   C974      1.0  0.36660  0.89196  0.72492  1.0000
  C   C975      1.0  0.37146  0.88917  0.75945  1.0000
  C   C976      1.0  0.36290  0.89126  0.78957  1.0000
  C   C977      1.0  0.34968  0.89669  0.78476  1.0000
  C   C978      1.0  0.34497  0.89972  0.75021  1.0000
  H   H777      1.0  0.37318  0.89009  0.70210  1.0000
  H   H778      1.0  0.38194  0.88535  0.76282  1.0000
  H   H779      1.0  0.34299  0.89845  0.80755  1.0000
  H   H780      1.0  0.33474  0.90394  0.74682  1.0000
  C   C979      1.0  0.42280  0.88852  0.57404  1.0000
  C   C980      1.0  0.42030  0.89178  0.53858  1.0000
  C   C981      1.0  0.43359  0.89510  0.51427  1.0000
  C   C982      1.0  0.44945  0.89536  0.52546  1.0000
  C   C983      1.0  0.45210  0.89257  0.56111  1.0000
  C   C984      1.0  0.43877  0.88910  0.58530  1.0000
  H   H781      1.0  0.40811  0.89159  0.52976  1.0000
  H   H782      1.0  0.43155  0.89743  0.48679  1.0000
  H   H783      1.0  0.46442  0.89309  0.57007  1.0000
  H   H784      1.0  0.44086  0.88690  0.61284  1.0000
  H   H785      1.0  0.37719  0.85113  0.77468  1.0000
  C   C985      1.0  0.39113  0.95827  0.50773  1.0000
  C   C986      1.0  0.39222  0.96928  0.53664  1.0000
  H   H786      1.0  0.39724  0.95768  0.45267  1.0000
  H   H787      1.0  0.38697  0.96372  0.56179  1.0000
  H   H788      1.0  0.34795  0.84507  0.65729  1.0000
  H   H789      1.0  0.47421  0.82625  0.83685  1.0000
  C   C987      1.0  0.29366  0.78796  0.21095  1.0000
  C   C988      1.0  0.28230  0.78522  0.18188  1.0000
  C   C989      1.0  0.27247  0.76838  0.16846  1.0000
  H   H790      1.0  0.29576  0.75910  0.88426  1.0000
  C   C990      1.0  0.27386  0.75424  0.18420  1.0000
  H   H791      1.0  0.43151  0.94143  0.76948  1.0000
  H   H792      1.0  0.45687  0.93165  0.58533  1.0000
  H   H793      1.0  0.30116  0.80102  0.22159  1.0000
  H   H794      1.0  0.28106  0.79612  0.16975  1.0000
  H   H795      1.0  0.26381  0.76625  0.14568  1.0000
  C   C991      1.0  0.26469  0.81983  0.07106  1.0000
  H   H796      1.0  0.31366  0.85626  0.59243  1.0000
  H   H797      1.0  0.30454  0.87808  0.61704  1.0000
  H   H798      1.0  0.46291  0.87074  0.44664  1.0000
  H   H799      1.0  0.40260  0.93336  0.00840  1.0000
  C   C992      1.0  0.43240  0.93300  0.57742  1.0000
  H   H800      1.0  0.33760  0.75241  0.07718  1.0000
  H   H801      1.0  0.23966  0.79739  0.98646  1.0000
  H   H802      1.0  0.30193  0.78434  0.42195  1.0000
  P   P32       1.0  0.30827  0.75997  0.95737  1.0000
  C   C993      1.0  0.32345  0.78268  0.96025  1.0000
  C   C994      1.0  0.30523  0.75162  0.00177  1.0000
  C   C995      1.0  0.34421  0.84179  0.71358  1.0000
  C   C996      1.0  0.43290  0.76814  0.34782  1.0000
  C   C997      1.0  0.33871  0.78792  0.98128  1.0000
  C   C998      1.0  0.35018  0.80553  0.98497  1.0000
  C   C999      1.0  0.34646  0.81805  0.96791  1.0000
  C   C1000     1.0  0.33138  0.81294  0.94681  1.0000
  C   C1001     1.0  0.31984  0.79537  0.94313  1.0000
  C   C1002     1.0  0.23384  0.74416  0.22951  1.0000
  H   H803      1.0  0.45002  0.86088  0.82293  1.0000
  Fe  Fe75      1.0  0.47186  0.73452  0.10454  1.0000
  C   C1003     1.0  0.29542  0.77388  0.22615  1.0000
  H   H804      1.0  0.23656  0.75290  0.20766  1.0000
  C   C1004     1.0  0.23138  0.73945  0.29396  1.0000
  H   H805      1.0  0.28170  0.75563  0.51979  1.0000
  H   H806      1.0  0.30565  0.77510  0.02578  1.0000
  H   H807      1.0  0.43958  0.82205  0.48442  1.0000
  H   H808      1.0  0.34159  0.77840  0.99524  1.0000
  H   H809      1.0  0.36185  0.80957  0.00144  1.0000
  H   H810      1.0  0.35518  0.83174  0.97127  1.0000
  H   H811      1.0  0.32838  0.82272  0.93408  1.0000
  H   H812      1.0  0.30798  0.79190  0.92765  1.0000
  H   H813      1.0  0.34312  0.76561  0.93318  1.0000
  C   C1005     1.0  0.44531  0.96237  0.01402  1.0000
  H   H814      1.0  0.39362  0.84427  0.59770  1.0000
  C   C1006     1.0  0.41095  0.91978  0.85594  1.0000
  C   C1007     1.0  0.41573  0.91521  0.82348  1.0000
  C   C1008     1.0  0.43258  0.91651  0.81917  1.0000
  H   H815      1.0  0.43871  0.80781  0.99006  1.0000
  P   P33       1.0  0.43873  0.91097  0.77666  1.0000
  C   C1009     1.0  0.46200  0.92232  0.77235  1.0000
  C   C1010     1.0  0.43250  0.88787  0.77295  1.0000
  C   C1011     1.0  0.44141  0.88146  0.75011  1.0000
  C   C1012     1.0  0.43684  0.86362  0.74744  1.0000
  C   C1013     1.0  0.42338  0.85206  0.76763  1.0000
  C   C1014     1.0  0.41432  0.85832  0.79011  1.0000
  C   C1015     1.0  0.41869  0.87614  0.79238  1.0000
  C   C1016     1.0  0.45733  0.94735  0.54058  1.0000
  C   C1017     1.0  0.26919  0.74070  0.32798  1.0000
  C   C1018     1.0  0.44459  0.76308  0.65663  1.0000
  C   C1019     1.0  0.25824  0.75459  0.94605  1.0000
  H   H816      1.0  0.43974  0.96734  0.89227  1.0000
  C   C1020     1.0  0.42760  0.91733  0.74246  1.0000
  C   C1021     1.0  0.42576  0.93289  0.74663  1.0000
  C   C1022     1.0  0.41594  0.93726  0.72192  1.0000
  C   C1023     1.0  0.40805  0.92623  0.69269  1.0000
  C   C1024     1.0  0.41016  0.91095  0.68786  1.0000
  C   C1025     1.0  0.41991  0.90648  0.71257  1.0000
  H   H817      1.0  0.39793  0.91880  0.85883  1.0000
  H   H818      1.0  0.40616  0.91059  0.80188  1.0000
  H   H819      1.0  0.45196  0.89026  0.73443  1.0000
  H   H820      1.0  0.44396  0.85886  0.73006  1.0000
  H   H821      1.0  0.42016  0.83830  0.76628  1.0000
  H   H822      1.0  0.40404  0.84944  0.80619  1.0000
  H   H823      1.0  0.41135  0.88070  0.80953  1.0000
  H   H824      1.0  0.46129  0.94156  0.73607  1.0000
  C   C1026     1.0  0.41655  0.93859  0.00535  1.0000
  H   H825      1.0  0.39466  0.86104  0.72047  1.0000
  C   C1027     1.0  0.28532  0.75772  0.90176  1.0000
  H   H826      1.0  0.40011  0.92943  0.67401  1.0000
  H   H827      1.0  0.40394  0.90240  0.66522  1.0000
  H   H828      1.0  0.42115  0.89446  0.70838  1.0000
  H   H829      1.0  0.26302  0.81123  0.09291  1.0000
  C   C1028     1.0  0.43504  0.82128  0.64007  1.0000
  C   C1029     1.0  0.42678  0.82874  0.61789  1.0000
  P   P34       1.0  0.40447  0.81604  0.60338  1.0000
  H   H830      1.0  0.42724  0.93472  0.45747  1.0000
  C   C1030     1.0  0.39010  0.81514  0.63881  1.0000
  C   C1031     1.0  0.37235  0.80982  0.63125  1.0000
  C   C1032     1.0  0.36101  0.80849  0.65862  1.0000
  C   C1033     1.0  0.36731  0.81246  0.69367  1.0000
  C   C1034     1.0  0.38497  0.81798  0.70136  1.0000
  C   C1035     1.0  0.39636  0.81938  0.67408  1.0000
  C   C1036     1.0  0.31256  0.85737  0.62093  1.0000
  C   C1037     1.0  0.39933  0.82603  0.56559  1.0000
  C   C1038     1.0  0.39432  0.83960  0.57110  1.0000
  C   C1039     1.0  0.39055  0.84762  0.54220  1.0000
  C   C1040     1.0  0.39198  0.84239  0.50758  1.0000
  C   C1041     1.0  0.39690  0.82888  0.50178  1.0000
  C   C1042     1.0  0.40055  0.82069  0.53063  1.0000
  C   C1043     1.0  0.35416  0.84654  0.68301  1.0000
  H   H831      1.0  0.42826  0.80789  0.64785  1.0000
  H   H832      1.0  0.36726  0.80661  0.60419  1.0000
  C   C1044     1.0  0.41293  0.77546  0.56252  1.0000
  H   H833      1.0  0.38985  0.82138  0.72849  1.0000
  H   H834      1.0  0.40999  0.82384  0.68076  1.0000
  H   H835      1.0  0.42564  0.80332  0.56249  1.0000
  H   H836      1.0  0.38680  0.85816  0.54670  1.0000
  H   H837      1.0  0.38930  0.84889  0.48533  1.0000
  H   H838      1.0  0.39798  0.82485  0.47486  1.0000
  H   H839      1.0  0.40439  0.81035  0.52537  1.0000
  C   C1045     1.0  0.38614  0.76288  0.59434  1.0000
  H   H840      1.0  0.27864  0.78607  0.63511  1.0000
  C   C1046     1.0  0.46079  0.84858  0.64410  1.0000
  C   C1047     1.0  0.31097  0.78401  0.68631  1.0000
  C   C1048     1.0  0.33633  0.74224  0.26448  1.0000
  H   H841      1.0  0.46753  0.76579  0.24314  1.0000
  P   P35       1.0  0.31665  0.75736  0.52508  1.0000
  H   H842      1.0  0.30969  0.86286  0.72258  1.0000
  C   C1049     1.0  0.32757  0.77953  0.54246  1.0000
  C   C1050     1.0  0.32198  0.78464  0.57372  1.0000
  C   C1051     1.0  0.32862  0.80222  0.58405  1.0000
  C   C1052     1.0  0.34094  0.81483  0.56345  1.0000
  C   C1053     1.0  0.34681  0.80987  0.53277  1.0000
  C   C1054     1.0  0.34022  0.79233  0.52233  1.0000
  C   C1055     1.0  0.34841  0.75484  0.52408  1.0000
  H   H843      1.0  0.43328  0.78081  0.35309  1.0000
  C   C1056     1.0  0.31106  0.81256  0.69223  1.0000
  C   C1057     1.0  0.42902  0.97162  0.39612  1.0000
  C   C1058     1.0  0.46656  0.97157  0.89511  1.0000
  H   H844      1.0  0.22988  0.77187  0.94585  1.0000
  H   H845      1.0  0.42308  0.95501  0.51232  1.0000
  C   C1059     1.0  0.44942  0.78782  0.62012  1.0000
  C   C1060     1.0  0.47295  0.91638  0.79030  1.0000
  S   S155      1.0  0.46575  0.89879  0.49462  1.0000
  H   H846      1.0  0.23583  0.76535  0.15037  1.0000
  C   C1061     1.0  0.30436  0.76206  0.03022  1.0000
  C   C1062     1.0  0.38062  0.85522  0.71848  1.0000
  C   C1063     1.0  0.31565  0.84845  0.68085  1.0000
  C   C1064     1.0  0.40502  0.98356  0.97266  1.0000
  H   H847      1.0  0.32247  0.86216  0.82760  1.0000
  H   H848      1.0  0.31192  0.77526  0.58935  1.0000
  H   H849      1.0  0.32361  0.80614  0.60711  1.0000
  H   H850      1.0  0.34546  0.82853  0.57044  1.0000
  H   H851      1.0  0.35582  0.81975  0.51614  1.0000
  H   H852      1.0  0.34424  0.78886  0.49742  1.0000
  Fe  Fe76      1.0  0.46984  0.74950  0.03036  1.0000
  H   H853      1.0  0.29149  0.76575  0.65029  1.0000
  H   H854      1.0  0.47166  0.91507  0.93370  1.0000
  P   P36       1.0  0.32086  0.83457  0.71031  1.0000
  C   C1065     1.0  0.28965  0.79019  0.65361  1.0000
  C   C1066     1.0  0.44959  0.80414  0.50277  1.0000
  C   C1067     1.0  0.42723  0.95550  0.01762  1.0000
  C   C1068     1.0  0.46582  0.85628  0.99463  1.0000
  C   C1069     1.0  0.45088  0.96831  0.87740  1.0000
  H   H855      1.0  0.30860  0.78262  0.48515  1.0000
  C   C1070     1.0  0.37758  0.80249  0.90175  1.0000
  C   C1071     1.0  0.37459  0.81739  0.90403  1.0000
  C   C1072     1.0  0.38825  0.83343  0.91298  1.0000
  C   C1073     1.0  0.40494  0.83462  0.91921  1.0000
  C   C1074     1.0  0.40812  0.81974  0.91705  1.0000
  C   C1075     1.0  0.39426  0.80362  0.90825  1.0000
  P   P37       1.0  0.42995  0.82169  0.92468  1.0000
  C   C1076     1.0  0.44254  0.83011  0.88546  1.0000
  C   C1077     1.0  0.43994  0.83655  0.96180  1.0000
  C   C1078     1.0  0.45807  0.84567  0.96470  1.0000
  C   C1079     1.0  0.46791  0.81305  0.55646  1.0000
  C   C1080     1.0  0.45562  0.85801  0.02164  1.0000
  C   C1081     1.0  0.43758  0.84887  0.01909  1.0000
  C   C1082     1.0  0.42976  0.83806  0.98945  1.0000
  C   C1083     1.0  0.45470  0.82402  0.87456  1.0000
  H   H856      1.0  0.45210  0.74718  0.29976  1.0000
  C   C1084     1.0  0.33941  0.74308  0.90153  1.0000
  C   C1085     1.0  0.45083  0.85009  0.83645  1.0000
  C   C1086     1.0  0.44084  0.84335  0.86631  1.0000
  C   C1087     1.0  0.42988  0.80093  0.93505  1.0000
  C   C1088     1.0  0.42578  0.78793  0.90838  1.0000
  C   C1089     1.0  0.42676  0.77229  0.91562  1.0000
  C   C1090     1.0  0.43194  0.76953  0.94946  1.0000
  C   C1091     1.0  0.43596  0.78233  0.97615  1.0000
  C   C1092     1.0  0.43496  0.79796  0.96908  1.0000
  H   H857      1.0  0.36694  0.79005  0.89496  1.0000
  H   H858      1.0  0.36169  0.81654  0.89907  1.0000
  H   H859      1.0  0.38593  0.84499  0.91529  1.0000
  H   H860      1.0  0.41535  0.84719  0.92607  1.0000
  H   H861      1.0  0.39617  0.79189  0.90657  1.0000
  C   C1093     1.0  0.31850  0.73735  0.26078  1.0000
  H   H862      1.0  0.46869  0.82373  0.40673  1.0000
  H   H863      1.0  0.46173  0.86637  0.04458  1.0000
  H   H864      1.0  0.42964  0.85023  0.03997  1.0000
  H   H865      1.0  0.41579  0.83087  0.98832  1.0000
  H   H866      1.0  0.45693  0.81441  0.88962  1.0000
  H   H867      1.0  0.24783  0.75353  0.96336  1.0000
  C   C1094     1.0  0.25344  0.82941  0.02045  1.0000
  H   H868      1.0  0.25610  0.74224  0.55680  1.0000
  H   H869      1.0  0.43231  0.84901  0.87491  1.0000
  H   H870      1.0  0.42226  0.79008  0.88174  1.0000
  H   H871      1.0  0.42393  0.76243  0.89484  1.0000
  H   H872      1.0  0.35061  0.77251  0.20044  1.0000
  C   C1095     1.0  0.37228  0.85348  0.68545  1.0000
  C   C1096     1.0  0.23368  0.78243  0.11093  1.0000
  H   H873      1.0  0.41413  0.94902  0.72572  1.0000
  H   H874      1.0  0.43598  0.75222  0.67188  1.0000
  C   C1097     1.0  0.45978  0.80092  0.52863  1.0000
  H   H875      1.0  0.24362  0.75309  0.89793  1.0000
  C   C1098     1.0  0.42270  0.92513  0.88477  1.0000
  C   C1099     1.0  0.40185  0.79433  0.59140  1.0000
  C   C1100     1.0  0.30731  0.86962  0.63472  1.0000
  C   C1101     1.0  0.44165  0.93531  0.98437  1.0000
  C   C1102     1.0  0.44427  0.92172  0.84843  1.0000
  H   H876      1.0  0.27554  0.75656  0.98943  1.0000
  H   H877      1.0  0.37988  0.85782  0.66175  1.0000
  Fe  Fe77      1.0  0.25081  0.74836  0.05839  1.0000
  C   C1103     1.0  0.27406  0.75628  0.96082  1.0000
  Fe  Fe78      1.0  0.24673  0.75147  0.47010  1.0000
  H   H878      1.0  0.32069  0.83741  0.63242  1.0000
  C   C1104     1.0  0.39881  0.76084  0.57425  1.0000
  H   H879      1.0  0.35466  0.76884  0.52315  1.0000
  C   C1105     1.0  0.35465  0.96896  0.50047  1.0000
  C   C1106     1.0  0.44763  0.95337  0.51873  1.0000
  C   C1107     1.0  0.43928  0.92593  0.88110  1.0000
  H   H880      1.0  0.45709  0.92224  0.84651  1.0000
  C   C1108     1.0  0.29691  0.77875  0.66217  1.0000
  C   C1109     1.0  0.30088  0.75546  0.06436  1.0000
  H   H881      1.0  0.45832  0.82537  0.67011  1.0000
  C   C1110     1.0  0.45199  0.83115  0.65298  1.0000
  H   H882      1.0  0.29935  0.76336  0.08572  1.0000
  C   C1111     1.0  0.38760  0.77953  0.60283  1.0000
  H   H883      1.0  0.45299  0.84317  0.53459  1.0000
  H   H884      1.0  0.42273  0.77382  0.54692  1.0000
  C   C1112     1.0  0.33032  0.74589  0.52655  1.0000
  C   C1113     1.0  0.31796  0.80083  0.70143  1.0000
  H   H885      1.0  0.34551  0.83867  0.77061  1.0000
  C   C1114     1.0  0.39807  0.96597  0.47529  1.0000
  C   C1115     1.0  0.31672  0.84684  0.64382  1.0000
  H   H886      1.0  0.37762  0.78069  0.61849  1.0000
  H   H887      1.0  0.31639  0.77502  0.69340  1.0000
  H   H888      1.0  0.47394  0.85631  0.65410  1.0000
  C   C1116     1.0  0.45483  0.83132  0.53285  1.0000
  H   H889      1.0  0.29053  0.81549  0.66220  1.0000
  C   C1117     1.0  0.23175  0.77551  0.14486  1.0000
  C   C1118     1.0  0.43026  0.73480  0.33306  1.0000
  C   C1119     1.0  0.29849  0.73846  0.07048  1.0000
  H   H890      1.0  0.33232  0.86124  0.76681  1.0000
  C   C1120     1.0  0.35269  0.84274  0.74649  1.0000
  H   H891      1.0  0.26771  0.75600  0.85852  1.0000
  H   H892      1.0  0.42963  0.85257  0.59272  1.0000
  C   C1121     1.0  0.47309  0.78013  0.63351  1.0000
  C   C1122     1.0  0.44155  0.97526  0.42331  1.0000
  H   H893      1.0  0.29894  0.76056  0.37953  1.0000
  H   H894      1.0  0.30262  0.88122  0.68209  1.0000
  H   H895      1.0  0.47037  0.83740  0.58051  1.0000
  C   C1123     1.0  0.43569  0.84632  0.60923  1.0000
  C   C1124     1.0  0.27016  0.84194  0.01379  1.0000
  C   C1125     1.0  0.44727  0.81943  0.50467  1.0000
  H   H896      1.0  0.44373  0.79483  0.48102  1.0000
  H   H897      1.0  0.46611  0.95747  0.99159  1.0000
  H   H898      1.0  0.44815  0.92954  0.90376  1.0000
  H   H899      1.0  0.34118  0.73625  0.28443  1.0000
  C   C1126     1.0  0.30404  0.77336  0.43105  1.0000
  H   H900      1.0  0.27799  0.75764  0.28431  1.0000
  C   C1127     1.0  0.45266  0.85614  0.62223  1.0000
  C   C1128     1.0  0.31036  0.86087  0.69439  1.0000
  C   C1129     1.0  0.30612  0.87129  0.67139  1.0000
  C   C1130     1.0  0.29655  0.80695  0.66887  1.0000
  C   C1131     1.0  0.31270  0.83533  0.75408  1.0000
  C   C1132     1.0  0.44960  0.93690  0.56941  1.0000
  H   H901      1.0  0.29227  0.83353  0.08110  1.0000
  H   H902      1.0  0.32868  0.80468  0.72043  1.0000
  C   C1133     1.0  0.28563  0.75690  0.21266  1.0000
  C   C1134     1.0  0.43832  0.77393  0.64008  1.0000
  C   C1135     1.0  0.28226  0.74809  0.54226  1.0000
  H   H903      1.0  0.34735  0.80449  0.65260  1.0000
  C   C1136     1.0  0.42302  0.93971  0.55683  1.0000
  H   H904      1.0  0.35862  0.81161  0.71490  1.0000
  H   H905      1.0  0.33619  0.75251  0.14269  1.0000
  H   H906      1.0  0.27246  0.85026  0.99113  1.0000
  C   C1137     1.0  0.31559  0.85072  0.81061  1.0000
  C   C1138     1.0  0.30122  0.83659  0.82314  1.0000
  C   C1139     1.0  0.32120  0.85015  0.77618  1.0000
  H   H907      1.0  0.26644  0.74995  0.34371  1.0000
  C   C1140     1.0  0.31206  0.74510  0.23521  1.0000
  H   H908      1.0  0.44552  0.98053  0.95584  1.0000
  H   H909      1.0  0.46687  0.75783  0.66630  1.0000
  H   H910      1.0  0.31914  0.76359  0.19275  1.0000
  C   C1141     1.0  0.45307  0.76869  0.19885  1.0000
  H   H911      1.0  0.29112  0.80979  0.75001  1.0000
  H   H912      1.0  0.30443  0.77623  0.24840  1.0000
  C   C1142     1.0  0.44088  0.96210  0.44613  1.0000
  C   C1143     1.0  0.29813  0.82125  0.76665  1.0000
  C   C1144     1.0  0.30437  0.74551  0.41920  1.0000
  C   C1145     1.0  0.28766  0.75763  0.93877  1.0000
  C   C1146     1.0  0.46764  0.82234  0.37799  1.0000
  C   C1147     1.0  0.23494  0.75056  0.26483  1.0000
  C   C1148     1.0  0.46198  0.76623  0.65346  1.0000
  S   S156      1.0  0.47044  0.73524  0.48008  1.0000
  C   C1149     1.0  0.33701  0.74128  0.09170  1.0000
  C   C1150     1.0  0.32377  0.75762  0.21309  1.0000
  H   H913      1.0  0.41886  0.92837  0.91009  1.0000
  C   C1151     1.0  0.26947  0.75601  0.88708  1.0000
  C   C1152     1.0  0.30306  0.73460  0.00826  1.0000
  H   H914      1.0  0.35192  0.95780  0.51694  1.0000
  H   H915      1.0  0.35307  0.74762  0.89620  1.0000
  C   C1153     1.0  0.45397  0.78135  0.25768  1.0000
  H   H916      1.0  0.36841  0.98297  0.41795  1.0000
  C   C1154     1.0  0.47352  0.94545  0.46281  1.0000
  C   C1155     1.0  0.33370  0.75323  0.92258  1.0000
  H   H917      1.0  0.46760  0.90506  0.80679  1.0000
  C   C1156     1.0  0.34162  0.76262  0.21715  1.0000
  H   H918      1.0  0.44448  0.79615  0.60754  1.0000
  C   C1157     1.0  0.28408  0.84358  0.03598  1.0000
  C   C1158     1.0  0.25056  0.81827  0.04920  1.0000
  H   H919      1.0  0.45726  0.76119  0.18088  1.0000
  H   H920      1.0  0.29692  0.83708  0.84992  1.0000
  C   C1159     1.0  0.29242  0.82191  0.80109  1.0000
  H   H921      1.0  0.41547  0.91519  0.98032  1.0000
  S   S157      1.0  0.45211  0.74176  0.07730  1.0000
  C   C1160     1.0  0.25591  0.75439  0.90923  1.0000
  H   H922      1.0  0.44057  0.78037  0.00200  1.0000
  H   H923      1.0  0.30946  0.73519  0.58781  1.0000
  P   P38       1.0  0.22878  0.80254  0.05817  1.0000
  H   H924      1.0  0.36144  0.95751  0.45549  1.0000
  C   C1161     1.0  0.44185  0.78736  0.24579  1.0000
  C   C1162     1.0  0.26767  0.74045  0.56323  1.0000
  C   C1163     1.0  0.41536  0.94155  0.41333  1.0000
  H   H925      1.0  0.23844  0.76423  0.26965  1.0000
  C   C1164     1.0  0.29782  0.73659  0.58034  1.0000
  C   C1165     1.0  0.46349  0.96634  0.82141  1.0000
  C   C1166     1.0  0.46679  0.79089  0.61631  1.0000
  H   H926      1.0  0.47072  0.79294  0.93414  1.0000
  Fe  Fe79      1.0  0.23315  0.73773  0.39361  1.0000
  H   H927      1.0  0.45959  0.86972  0.61561  1.0000
  C   C1167     1.0  0.44486  0.76602  0.32522  1.0000
  H   H928      1.0  0.43333  0.75770  0.95492  1.0000
  H   H929      1.0  0.28116  0.81105  0.81074  1.0000
  H   H930      1.0  0.41130  0.75541  0.38220  1.0000
  C   C1168     1.0  0.43585  0.78454  0.21035  1.0000
  C   C1169     1.0  0.36426  0.98342  0.44476  1.0000
  S   S158      1.0  0.25946  0.74779  0.42107  1.0000
  H   H931      1.0  0.40977  0.93698  0.56295  1.0000
  C   C1170     1.0  0.30786  0.77233  0.46695  1.0000
  C   C1171     1.0  0.29742  0.74616  0.55052  1.0000
  H   H932      1.0  0.42116  0.96305  0.02966  1.0000
  C   C1172     1.0  0.34790  0.75491  0.24279  1.0000
  H   H933      1.0  0.37512  0.75149  0.60321  1.0000
  H   H934      1.0  0.37252  0.75255  0.51909  1.0000
  H   H935      1.0  0.40605  0.95203  0.37044  1.0000
  C   C1173     1.0  0.46937  0.93688  0.75080  1.0000
  C   C1174     1.0  0.42377  0.92841  0.98921  1.0000
  H   H936      1.0  0.47319  0.96285  0.06596  1.0000
  H   H937      1.0  0.23269  0.83773  0.07491  1.0000
  C   C1175     1.0  0.42017  0.75373  0.36392  1.0000
  C   C1176     1.0  0.27580  0.74502  0.29404  1.0000
  H   H938      1.0  0.36173  0.75877  0.24594  1.0000
  H   H939      1.0  0.40507  0.92855  0.40986  1.0000
  H   H940      1.0  0.29709  0.85308  0.03031  1.0000
  C   C1177     1.0  0.44325  0.74920  0.31755  1.0000
  H   H941      1.0  0.26571  0.74129  0.17398  1.0000
  P   P39       1.0  0.28901  0.73891  0.23040  1.0000
  C   C1178     1.0  0.30238  0.75999  0.40714  1.0000
  H   H942      1.0  0.42665  0.78935  0.20114  1.0000
  C   C1179     1.0  0.42787  0.94515  0.44055  1.0000
  H   H943      1.0  0.42632  0.92471  0.59946  1.0000
  H   H944      1.0  0.44713  0.92738  0.97156  1.0000
  C   C1180     1.0  0.28135  0.83253  0.06456  1.0000
  C   C1181     1.0  0.41590  0.95479  0.39119  1.0000
  C   C1182     1.0  0.43061  0.94993  0.52781  1.0000
  C   C1183     1.0  0.46800  0.83463  0.32033  1.0000
  C   C1184     1.0  0.41891  0.73707  0.35669  1.0000
  C   C1185     1.0  0.30835  0.74451  0.45503  1.0000
  C   C1186     1.0  0.31601  0.74728  0.92985  1.0000
  C   C1187     1.0  0.46490  0.82805  0.55885  1.0000
  C   C1188     1.0  0.45236  0.95230  0.99621  1.0000
  P   P40       1.0  0.45711  0.96666  0.48107  1.0000
  C   C1189     1.0  0.35864  0.74564  0.52194  1.0000
  C   C1190     1.0  0.22946  0.78527  0.99462  1.0000
  H   H945      1.0  0.46630  0.84442  0.94428  1.0000
  C   C1191     1.0  0.33621  0.74133  0.12869  1.0000
  H   H946      1.0  0.39765  0.74791  0.56759  1.0000
  H   H947      1.0  0.46526  0.79619  0.37789  1.0000
  C   C1192     1.0  0.36010  0.96884  0.46577  1.0000
  C   C1193     1.0  0.44157  0.77532  0.18682  1.0000
  C   C1194     1.0  0.47376  0.96202  0.46073  1.0000
  C   C1195     1.0  0.46857  0.83621  0.35738  1.0000
  C   C1196     1.0  0.46456  0.83070  0.84451  1.0000
  C   C1197     1.0  0.46257  0.84368  0.82534  1.0000
  H   H948      1.0  0.46151  0.78909  0.52635  1.0000
  H   H949      1.0  0.46741  0.97302  0.92380  1.0000
  H   H950      1.0  0.46346  0.93512  0.47685  1.0000
  C   C1198     1.0  0.45908  0.77152  0.23418  1.0000
  H   H951      1.0  0.23975  0.77790  0.09064  1.0000
  S   S159      1.0  0.23199  0.74818  0.33789  1.0000
  P   P41       1.0  0.46130  0.78433  0.30369  1.0000
  H   H952      1.0  0.42941  0.98191  0.37907  1.0000
  H   H953      1.0  0.43688  0.79403  0.26393  1.0000
  H   H954      1.0  0.43694  0.77307  0.15938  1.0000
  S   S160      1.0  0.47243  0.77181  0.99222  1.0000
  C   C1199     1.0  0.35294  0.98353  0.51397  1.0000
  C   C1200     1.0  0.46568  0.80674  0.36155  1.0000
  H   H955      1.0  0.46221  0.96402  0.79292  1.0000
  H   H956      1.0  0.47073  0.84936  0.80294  1.0000
  C   C1201     1.0  0.44935  0.96573  0.84055  1.0000
  C   C1202     1.0  0.46418  0.80473  0.32434  1.0000
  H   H957      1.0  0.43709  0.96290  0.82697  1.0000
  H   H958      1.0  0.47006  0.84830  0.37011  1.0000
  C   C1203     1.0  0.46601  0.81901  0.30381  1.0000
  H   H959      1.0  0.46604  0.81819  0.27511  1.0000
  C   C1204     1.0  0.47476  0.87170  0.43472  1.0000
  C   C1205     1.0  0.47524  0.73583  0.20556  1.0000
  H   H960      1.0  0.46913  0.84553  0.30437  1.0000
  H   H961      1.0  0.34866  0.98357  0.54086  1.0000
  H   H962      1.0  0.30225  0.73473  0.40106  1.0000
  H   H963      1.0  0.51284  0.10877  0.31626  1.0000
  H   H964      1.0  0.52090  0.07089  0.53294  1.0000
  S   S161      1.0  0.49672  0.21520  0.90015  1.0000
  C   C1206     1.0  0.47963  0.12092  0.53509  1.0000
  H   H965      1.0  0.50328  0.12077  0.24808  1.0000
  H   H966      1.0  0.65775  0.07917  0.11619  1.0000
  S   S162      1.0  0.49644  0.22274  0.57941  1.0000
  H   H967      1.0  0.62889  0.10856  0.09244  1.0000
  Fe  Fe80      1.0  0.58703  0.04824  0.00704  1.0000
  S   S163      1.0  0.56604  0.04941  0.04026  1.0000
  S   S164      1.0  0.58321  0.02327  0.97525  1.0000
  Fe  Fe81      1.0  0.61091  0.08829  0.02053  1.0000
  S   S165      1.0  0.59085  0.09119  0.05484  1.0000
  S   S166      1.0  0.63758  0.11208  0.01387  1.0000
  Fe  Fe82      1.0  0.58719  0.06594  0.07971  1.0000
  S   S167      1.0  0.57906  0.06035  0.13784  1.0000
  Fe  Fe83      1.0  0.57162  0.07440  0.01330  1.0000
  S   S168      1.0  0.54982  0.07987  0.99115  1.0000
  S   S169      1.0  0.60828  0.06357  0.04774  1.0000
  S   S170      1.0  0.59155  0.07270  0.97726  1.0000
  Fe  Fe84      1.0  0.57684  0.07565  0.38204  1.0000
  S   S171      1.0  0.58306  0.06856  0.43554  1.0000
  S   S172      1.0  0.55771  0.08692  0.37154  1.0000
  Fe  Fe85      1.0  0.60423  0.06806  0.34531  1.0000
  S   S173      1.0  0.61303  0.06061  0.39722  1.0000
  S   S174      1.0  0.61623  0.06855  0.29090  1.0000
  Fe  Fe86      1.0  0.58428  0.04528  0.40794  1.0000
  S   S175      1.0  0.56684  0.01637  0.42192  1.0000
  Fe  Fe87      1.0  0.61120  0.08454  0.42163  1.0000
  S   S176      1.0  0.62620  0.10598  0.46464  1.0000
  S   S177      1.0  0.57610  0.05180  0.35463  1.0000
  S   S178      1.0  0.60440  0.09256  0.36909  1.0000
  S   S179      1.0  0.69879  0.22348  0.89783  1.0000
  S   S180      1.0  0.69503  0.18861  0.97240  1.0000
  S   S181      1.0  0.68937  0.20981  0.56488  1.0000
  S   S182      1.0  0.69721  0.17432  0.50267  1.0000
  C   C1207     1.0  0.53172  0.22798  0.80773  1.0000
  C   C1208     1.0  0.64580  0.12556  0.47299  1.0000
  C   C1209     1.0  0.66055  0.13029  0.45228  1.0000
  C   C1210     1.0  0.67597  0.14528  0.46152  1.0000
  C   C1211     1.0  0.67684  0.15621  0.49085  1.0000
  C   C1212     1.0  0.66189  0.15178  0.51083  1.0000
  C   C1213     1.0  0.64668  0.13646  0.50236  1.0000
  H   H968      1.0  0.66029  0.12211  0.42980  1.0000
  H   H969      1.0  0.68739  0.14838  0.44589  1.0000
  H   H970      1.0  0.66227  0.15984  0.53363  1.0000
  H   H971      1.0  0.63554  0.13290  0.51898  1.0000
  C   C1214     1.0  0.67665  0.17253  0.13919  1.0000
  H   H972      1.0  0.53436  0.03177  0.38005  1.0000
  C   C1215     1.0  0.65260  0.13359  0.00098  1.0000
  C   C1216     1.0  0.64777  0.14503  0.98184  1.0000
  C   C1217     1.0  0.66040  0.16189  0.97288  1.0000
  C   C1218     1.0  0.67805  0.16763  0.98304  1.0000
  C   C1219     1.0  0.68264  0.15614  0.00224  1.0000
  C   C1220     1.0  0.67017  0.13944  0.01096  1.0000
  H   H973      1.0  0.63432  0.14089  0.97391  1.0000
  H   H974      1.0  0.65641  0.17048  0.95841  1.0000
  H   H975      1.0  0.69605  0.16016  0.01039  1.0000
  H   H976      1.0  0.67424  0.13098  0.02578  1.0000
  C   C1221     1.0  0.58993  0.06287  0.17987  1.0000
  C   C1222     1.0  0.58025  0.06044  0.21086  1.0000
  C   C1223     1.0  0.58813  0.06215  0.24484  1.0000
  C   C1224     1.0  0.60579  0.06624  0.24840  1.0000
  C   C1225     1.0  0.61547  0.06853  0.21739  1.0000
  C   C1226     1.0  0.60764  0.06701  0.18332  1.0000
  H   H977      1.0  0.56655  0.05721  0.20862  1.0000
  H   H978      1.0  0.58048  0.06003  0.26836  1.0000
  H   H979      1.0  0.62915  0.07163  0.21976  1.0000
  H   H980      1.0  0.61527  0.06891  0.15979  1.0000
  C   C1227     1.0  0.59526  0.12604  0.43891  1.0000
  C   C1228     1.0  0.50780  0.16404  0.64707  1.0000
  C   C1229     1.0  0.47892  0.17935  0.65588  1.0000
  H   H981      1.0  0.53983  0.09804  0.50376  1.0000
  C   C1230     1.0  0.52909  0.04328  0.33348  1.0000
  H   H982      1.0  0.69475  0.23325  0.72408  1.0000
  P   P42       1.0  0.56654  0.05002  0.54658  1.0000
  C   C1231     1.0  0.56282  0.99784  0.44932  1.0000
  C   C1232     1.0  0.50625  0.06751  0.06971  1.0000
  C   C1233     1.0  0.50357  0.07041  0.03414  1.0000
  C   C1234     1.0  0.51705  0.07432  0.01007  1.0000
  C   C1235     1.0  0.53314  0.07518  0.02147  1.0000
  C   C1236     1.0  0.53583  0.07236  0.05705  1.0000
  C   C1237     1.0  0.52244  0.06865  0.08114  1.0000
  H   H983      1.0  0.49120  0.06978  0.02525  1.0000
  H   H984      1.0  0.51499  0.07654  0.98257  1.0000
  H   H985      1.0  0.54828  0.07319  0.06607  1.0000
  H   H986      1.0  0.52470  0.06674  0.10871  1.0000
  C   C1238     1.0  0.66787  0.17730  0.85061  1.0000
  H   H987      1.0  0.66551  0.15685  0.18419  1.0000
  C   C1239     1.0  0.51153  0.07013  0.44461  1.0000
  C   C1240     1.0  0.51466  0.08343  0.42065  1.0000
  C   C1241     1.0  0.52899  0.08858  0.39854  1.0000
  C   C1242     1.0  0.54014  0.08039  0.40014  1.0000
  C   C1243     1.0  0.53697  0.06699  0.42394  1.0000
  C   C1244     1.0  0.52266  0.06187  0.44616  1.0000
  H   H988      1.0  0.50622  0.08995  0.41965  1.0000
  H   H989      1.0  0.53149  0.09899  0.38025  1.0000
  H   H990      1.0  0.54547  0.06055  0.42518  1.0000
  H   H991      1.0  0.52026  0.05156  0.46468  1.0000
  H   H992      1.0  0.57685  0.99547  0.92409  1.0000
  C   C1245     1.0  0.56753  0.00091  0.97351  1.0000
  C   C1246     1.0  0.50607  0.10008  0.21953  1.0000
  H   H993      1.0  0.52266  0.20635  0.50501  1.0000
  C   C1247     1.0  0.49352  0.18145  0.76000  1.0000
  C   C1248     1.0  0.53653  0.19585  0.10268  1.0000
  H   H994      1.0  0.50555  0.01658  0.11352  1.0000
  H   H995      1.0  0.58679  0.09374  0.28832  1.0000
  H   H996      1.0  0.48875  0.09083  0.35451  1.0000
  H   H997      1.0  0.67656  0.13834  0.71870  1.0000
  C   C1249     1.0  0.50979  0.21757  0.70661  1.0000
  H   H998      1.0  0.65941  0.16446  0.05511  1.0000
  H   H999      1.0  0.52578  0.18319  0.09836  1.0000
  C   C1250     1.0  0.52830  0.00382  0.93377  1.0000
  C   C1251     1.0  0.59274  0.01250  0.23473  1.0000
  H   H1000     1.0  0.49355  0.14285  0.96145  1.0000
  C   C1252     1.0  0.63992  0.19608  0.52308  1.0000
  H   H1001     1.0  0.48008  0.11632  0.00074  1.0000
  C   C1253     1.0  0.64739  0.14933  0.10060  1.0000
  H   H1002     1.0  0.68894  0.13559  0.84188  1.0000
  H   H1003     1.0  0.50071  0.17827  0.73990  1.0000
  H   H1004     1.0  0.52115  0.17048  0.18279  1.0000
  C   C1254     1.0  0.50770  0.16549  0.19030  1.0000
  H   H1005     1.0  0.60515  0.01284  0.24277  1.0000
  C   C1255     1.0  0.47640  0.16974  0.76630  1.0000
  C   C1256     1.0  0.49706  0.13287  0.53581  1.0000
  H   H1006     1.0  0.52723  0.15041  0.72875  1.0000
  C   C1257     1.0  0.51329  0.99879  0.14059  1.0000
  C   C1258     1.0  0.53571  0.98566  0.82049  1.0000
  H   H1007     1.0  0.65653  0.15974  0.36554  1.0000
  H   H1008     1.0  0.53453  0.17826  0.63194  1.0000
  C   C1259     1.0  0.47997  0.08681  0.93899  1.0000
  H   H1009     1.0  0.52030  0.20817  0.11903  1.0000
  H   H1010     1.0  0.52427  0.00960  0.45880  1.0000
  C   C1260     1.0  0.49907  0.13941  0.10374  1.0000
  C   C1261     1.0  0.53247  0.01644  0.33269  1.0000
  H   H1011     1.0  0.55368  0.21578  0.72899  1.0000
  C   C1262     1.0  0.56197  0.09838  0.22127  1.0000
  C   C1263     1.0  0.56879  0.01972  0.24663  1.0000
  H   H1012     1.0  0.55587  0.18731  0.08695  1.0000
  H   H1013     1.0  0.49724  0.21331  0.82022  1.0000
  S   S183      1.0  0.48812  0.22513  0.98035  1.0000
  H   H1014     1.0  0.70369  0.23358  0.78755  1.0000
  C   C1264     1.0  0.54828  0.01379  0.54936  1.0000
  C   C1265     1.0  0.62023  0.06355  0.49951  1.0000
  C   C1266     1.0  0.56132  0.01283  0.21325  1.0000
  C   C1267     1.0  0.56070  0.19575  0.74604  1.0000
  C   C1268     1.0  0.71857  0.17574  0.91377  1.0000
  C   C1269     1.0  0.52183  0.15422  0.70602  1.0000
  H   H1015     1.0  0.59024  0.16922  0.44165  1.0000
  C   C1270     1.0  0.66846  0.18318  0.88579  1.0000
  H   H1016     1.0  0.51630  0.15682  0.55838  1.0000
  C   C1271     1.0  0.52692  0.99425  0.14815  1.0000
  H   H1017     1.0  0.50573  0.18945  0.18015  1.0000
  C   C1272     1.0  0.65708  0.18027  0.82553  1.0000
  S   S184      1.0  0.70879  0.22879  0.65747  1.0000
  C   C1273     1.0  0.62697  0.16476  0.52744  1.0000
  H   H1018     1.0  0.50227  0.02378  0.52338  1.0000
  C   C1274     1.0  0.57539  0.09145  0.27199  1.0000
  C   C1275     1.0  0.66882  0.11557  0.87025  1.0000
  C   C1276     1.0  0.65317  0.11072  0.88776  1.0000
  C   C1277     1.0  0.53064  0.01079  0.48448  1.0000
  C   C1278     1.0  0.54727  0.22634  0.11946  1.0000
  C   C1279     1.0  0.48864  0.01615  0.51697  1.0000
  H   H1019     1.0  0.67522  0.10697  0.86991  1.0000
  H   H1020     1.0  0.64746  0.09840  0.90107  1.0000
  C   C1280     1.0  0.49533  0.12338  0.11896  1.0000
  C   C1281     1.0  0.55036  0.20484  0.74616  1.0000
  C   C1282     1.0  0.48514  0.10986  0.98239  1.0000
  H   H1021     1.0  0.48970  0.12054  0.14487  1.0000
  H   H1022     1.0  0.56803  0.11399  0.42483  1.0000
  C   C1283     1.0  0.49685  0.15251  0.67171  1.0000
  C   C1284     1.0  0.48166  0.16971  0.19815  1.0000
  C   C1285     1.0  0.51097  0.99745  0.92156  1.0000
  C   C1286     1.0  0.53574  0.21872  0.59086  1.0000
  C   C1287     1.0  0.65817  0.16762  0.38939  1.0000
  H   H1023     1.0  0.59317  0.00256  0.03471  1.0000
  H   H1024     1.0  0.48812  0.16514  0.46246  1.0000
  H   H1025     1.0  0.68958  0.19387  0.44788  1.0000
  C   C1288     1.0  0.57748  0.14168  0.43266  1.0000
  H   H1026     1.0  0.49632  0.04567  0.32634  1.0000
  C   C1289     1.0  0.64035  0.18304  0.57950  1.0000
  C   C1290     1.0  0.50943  0.10723  0.95510  1.0000
  C   C1291     1.0  0.51038  0.02449  0.94194  1.0000
  C   C1292     1.0  0.54277  0.17663  0.79058  1.0000
  C   C1293     1.0  0.51637  0.04827  0.20169  1.0000
  C   C1294     1.0  0.50202  0.00791  0.92596  1.0000
  C   C1295     1.0  0.53517  0.21967  0.55387  1.0000
  C   C1296     1.0  0.50940  0.04973  0.23446  1.0000
  C   C1297     1.0  0.60637  0.03251  0.10269  1.0000
  C   C1298     1.0  0.51504  0.99008  0.04956  1.0000
  H   H1027     1.0  0.55862  0.07087  0.30426  1.0000
  H   H1028     1.0  0.50045  0.99099  0.15024  1.0000
  C   C1299     1.0  0.55692  0.18166  0.76825  1.0000
  C   C1300     1.0  0.47710  0.02385  0.51918  1.0000
  H   H1029     1.0  0.57549  0.04939  0.69685  1.0000
  C   C1301     1.0  0.49139  0.04428  0.23655  1.0000
  H   H1030     1.0  0.53521  0.00683  0.34675  1.0000
  H   H1031     1.0  0.56284  0.02583  0.26378  1.0000
  S   S185      1.0  0.49460  0.06456  0.47465  1.0000
  C   C1302     1.0  0.52780  0.99594  0.50366  1.0000
  H   H1032     1.0  0.52322  0.11139  0.95216  1.0000
  C   C1303     1.0  0.63152  0.20508  0.41460  1.0000
  P   P43       1.0  0.52341  0.21229  0.77127  1.0000
  H   H1033     1.0  0.57071  0.10466  0.49366  1.0000
  H   H1034     1.0  0.71526  0.18929  0.81728  1.0000
  H   H1035     1.0  0.59065  0.02568  0.28255  1.0000
  H   H1036     1.0  0.54086  0.99497  0.79962  1.0000
  H   H1037     1.0  0.50350  0.03257  0.94519  1.0000
  C   C1304     1.0  0.50127  0.19727  0.77941  1.0000
  H   H1038     1.0  0.50282  0.08593  0.91731  1.0000
  C   C1305     1.0  0.61837  0.07414  0.52627  1.0000
  C   C1306     1.0  0.53281  0.02357  0.10824  1.0000
  C   C1307     1.0  0.52770  0.03079  0.95349  1.0000
  H   H1039     1.0  0.60722  0.04045  0.46655  1.0000
  H   H1040     1.0  0.64619  0.14655  0.87436  1.0000
  H   H1041     1.0  0.63968  0.19218  0.81569  1.0000
  H   H1042     1.0  0.63655  0.14008  0.08477  1.0000
  C   C1308     1.0  0.51834  0.08734  0.29940  1.0000
  C   C1309     1.0  0.61083  0.21646  0.45465  1.0000
  H   H1043     1.0  0.48554  0.04502  0.26137  1.0000
  C   C1310     1.0  0.54105  0.06211  0.53946  1.0000
  H   H1044     1.0  0.49763  0.20700  0.71313  1.0000
  C   C1311     1.0  0.52420  0.22335  0.73017  1.0000
  H   H1045     1.0  0.59207  0.00044  0.18390  1.0000
  C   C1312     1.0  0.52346  0.98676  0.84346  1.0000
  H   H1046     1.0  0.48629  0.98723  0.43680  1.0000
  H   H1047     1.0  0.66444  0.19487  0.47649  1.0000
  C   C1313     1.0  0.50385  0.14778  0.70128  1.0000
  H   H1048     1.0  0.53425  0.04371  0.96554  1.0000
  C   C1314     1.0  0.70078  0.17398  0.86125  1.0000
  H   H1049     1.0  0.55524  0.00165  0.02234  1.0000
  H   H1050     1.0  0.59660  0.11391  0.43794  1.0000
  C   C1315     1.0  0.51367  0.06945  0.30164  1.0000
  C   C1316     1.0  0.49903  0.17617  0.18872  1.0000
  H   H1051     1.0  0.64152  0.20313  0.87789  1.0000
  P   P44       1.0  0.52347  0.05902  0.27311  1.0000
  C   C1317     1.0  0.67648  0.13172  0.85418  1.0000
  H   H1052     1.0  0.69103  0.16102  0.91074  1.0000
  C   C1318     1.0  0.55108  0.02881  0.53044  1.0000
  H   H1053     1.0  0.65248  0.11260  0.19664  1.0000
  C   C1319     1.0  0.57915  0.00062  0.08281  1.0000
  H   H1054     1.0  0.56506  0.17475  0.76839  1.0000
  C   C1320     1.0  0.54515  0.08924  0.51280  1.0000
  C   C1321     1.0  0.56732  0.21465  0.10089  1.0000
  H   H1055     1.0  0.56496  0.14162  0.42683  1.0000
  C   C1322     1.0  0.67682  0.18693  0.43562  1.0000
  H   H1056     1.0  0.58926  0.11127  0.23480  1.0000
  Fe  Fe88      1.0  0.70920  0.21592  0.94699  1.0000
  H   H1057     1.0  0.66308  0.09113  0.17807  1.0000
  H   H1058     1.0  0.60087  0.07839  0.56125  1.0000
  C   C1323     1.0  0.54354  0.00418  0.13524  1.0000
  H   H1059     1.0  0.62864  0.15505  0.57918  1.0000
  C   C1324     1.0  0.50929  0.09500  0.31820  1.0000
  H   H1060     1.0  0.62203  0.14128  0.45319  1.0000
  C   C1325     1.0  0.55988  0.12341  0.02186  1.0000
  C   C1326     1.0  0.57156  0.13399  0.99736  1.0000
  C   C1327     1.0  0.56712  0.14497  0.97646  1.0000
  C   C1328     1.0  0.55095  0.14530  0.97990  1.0000
  C   C1329     1.0  0.53921  0.13497  0.00502  1.0000
  C   C1330     1.0  0.54378  0.12385  0.02568  1.0000
  P   P45       1.0  0.51759  0.13407  0.00635  1.0000
  C   C1331     1.0  0.50925  0.13020  0.05083  1.0000
  C   C1332     1.0  0.51792  0.15442  0.99179  1.0000
  C   C1333     1.0  0.50438  0.15472  0.97037  1.0000
  C   C1334     1.0  0.50449  0.17058  0.96070  1.0000
  C   C1335     1.0  0.51796  0.18624  0.97250  1.0000
  C   C1336     1.0  0.53142  0.18610  0.99397  1.0000
  C   C1337     1.0  0.53140  0.17027  0.00366  1.0000
  C   C1338     1.0  0.50608  0.14287  0.06989  1.0000
  H   H1061     1.0  0.48812  0.18002  0.67654  1.0000
  H   H1062     1.0  0.48124  0.05955  0.36098  1.0000
  C   C1339     1.0  0.49822  0.11067  0.10007  1.0000
  C   C1340     1.0  0.50471  0.11389  0.06586  1.0000
  C   C1341     1.0  0.62356  0.19607  0.44504  1.0000
  H   H1063     1.0  0.51119  0.04240  0.14576  1.0000
  C   C1342     1.0  0.49150  0.06727  0.34346  1.0000
  C   C1343     1.0  0.49717  0.10992  0.22943  1.0000
  C   C1344     1.0  0.51293  0.19006  0.55009  1.0000
  C   C1345     1.0  0.64371  0.16806  0.40553  1.0000
  H   H1064     1.0  0.56304  0.11434  0.03691  1.0000
  H   H1065     1.0  0.58387  0.13330  0.99398  1.0000
  H   H1066     1.0  0.57607  0.15291  0.95695  1.0000
  H   H1067     1.0  0.54750  0.15335  0.96237  1.0000
  H   H1068     1.0  0.53488  0.11505  0.04398  1.0000
  C   C1346     1.0  0.63154  0.16652  0.56365  1.0000
  H   H1069     1.0  0.54318  0.23169  0.54105  1.0000
  H   H1070     1.0  0.51787  0.19851  0.96523  1.0000
  H   H1071     1.0  0.54177  0.19832  0.00319  1.0000
  H   H1072     1.0  0.54180  0.17038  0.02074  1.0000
  H   H1073     1.0  0.50839  0.15519  0.05837  1.0000
  C   C1347     1.0  0.52371  0.20538  0.53354  1.0000
  C   C1348     1.0  0.59229  0.02480  0.12489  1.0000
  C   C1349     1.0  0.51357  0.18889  0.58719  1.0000
  H   H1074     1.0  0.50580  0.10346  0.05090  1.0000
  C   C1350     1.0  0.60967  0.14161  0.44748  1.0000
  H   H1075     1.0  0.63275  0.06707  0.48772  1.0000
  H   H1076     1.0  0.64138  0.08869  0.07330  1.0000
  H   H1077     1.0  0.48874  0.00356  0.91673  1.0000
  C   C1351     1.0  0.50563  0.04245  0.17129  1.0000
  C   C1352     1.0  0.51231  0.00260  0.03031  1.0000
  H   H1078     1.0  0.64369  0.20768  0.50766  1.0000
  H   H1079     1.0  0.49487  0.09806  0.11146  1.0000
  H   H1080     1.0  0.57177  0.19976  0.72895  1.0000
  H   H1081     1.0  0.49390  0.17075  0.94451  1.0000
  H   H1082     1.0  0.69556  0.19390  0.72337  1.0000
  C   C1353     1.0  0.58752  0.05527  0.52803  1.0000
  H   H1083     1.0  0.53450  0.08370  0.21458  1.0000
  H   H1084     1.0  0.59110  0.03782  0.65679  1.0000
  H   H1085     1.0  0.63975  0.20105  0.39895  1.0000
  H   H1086     1.0  0.53245  0.05007  0.55136  1.0000
  P   P46       1.0  0.49852  0.16971  0.60874  1.0000
  C   C1354     1.0  0.58257  0.04308  0.64575  1.0000
  H   H1087     1.0  0.62948  0.08591  0.53495  1.0000
  H   H1088     1.0  0.60296  0.22100  0.47031  1.0000
  C   C1355     1.0  0.53243  0.18571  0.79081  1.0000
  H   H1089     1.0  0.51924  0.99699  0.84020  1.0000
  H   H1090     1.0  0.50363  0.17943  0.53386  1.0000
  C   C1356     1.0  0.54584  0.08551  0.23050  1.0000
  C   C1357     1.0  0.57869  0.00860  0.11552  1.0000
  H   H1091     1.0  0.62706  0.13478  0.30810  1.0000
  C   C1358     1.0  0.53280  0.16527  0.68103  1.0000
  C   C1359     1.0  0.66042  0.16307  0.08353  1.0000
  C   C1360     1.0  0.52584  0.17008  0.65150  1.0000
  C   C1361     1.0  0.48061  0.10595  0.21479  1.0000
  H   H1092     1.0  0.68830  0.22479  0.40681  1.0000
  Fe  Fe89      1.0  0.47945  0.21406  0.52970  1.0000
  C   C1362     1.0  0.49787  0.09271  0.93527  1.0000
  C   C1363     1.0  0.53670  0.99742  0.53592  1.0000
  C   C1364     1.0  0.49817  0.08572  0.19635  1.0000
  C   C1365     1.0  0.61881  0.22536  0.42436  1.0000
  C   C1366     1.0  0.53447  0.07390  0.52927  1.0000
  C   C1367     1.0  0.49169  0.20115  0.80518  1.0000
  C   C1368     1.0  0.56949  0.00560  0.19037  1.0000
  C   C1369     1.0  0.69051  0.18155  0.73663  1.0000
  C   C1370     1.0  0.56275  0.05631  0.65400  1.0000
  H   H1093     1.0  0.53548  0.99601  0.93081  1.0000
  C   C1371     1.0  0.49577  0.08493  0.33996  1.0000
  C   C1372     1.0  0.56759  0.99005  0.94486  1.0000
  C   C1373     1.0  0.52984  0.01507  0.29580  1.0000
  C   C1374     1.0  0.51620  0.01334  0.12030  1.0000
  C   C1375     1.0  0.66844  0.14310  0.85517  1.0000
  C   C1376     1.0  0.64506  0.12191  0.88880  1.0000
  H   H1094     1.0  0.54478  0.03847  0.48185  1.0000
  C   C1377     1.0  0.58995  0.13261  0.11550  1.0000
  C   C1378     1.0  0.57689  0.11579  0.11873  1.0000
  C   C1379     1.0  0.58080  0.10297  0.13386  1.0000
  C   C1380     1.0  0.59782  0.10683  0.14496  1.0000
  C   C1381     1.0  0.61108  0.12353  0.14104  1.0000
  C   C1382     1.0  0.60694  0.13657  0.12715  1.0000
  P   P47       1.0  0.63259  0.12854  0.15836  1.0000
  C   C1383     1.0  0.64870  0.14730  0.13737  1.0000
  C   C1384     1.0  0.63126  0.13077  0.20589  1.0000
  C   C1385     1.0  0.63473  0.14697  0.22192  1.0000
  C   C1386     1.0  0.63328  0.14842  0.25869  1.0000
  C   C1387     1.0  0.62811  0.13369  0.27959  1.0000
  C   C1388     1.0  0.62411  0.11745  0.26365  1.0000
  C   C1389     1.0  0.62534  0.11595  0.22691  1.0000
  C   C1390     1.0  0.48778  0.03728  0.17351  1.0000
  C   C1391     1.0  0.66364  0.15877  0.15638  1.0000
  C   C1392     1.0  0.63905  0.11156  0.14651  1.0000
  C   C1393     1.0  0.63603  0.10464  0.11167  1.0000
  C   C1394     1.0  0.64297  0.09320  0.10076  1.0000
  C   C1395     1.0  0.65245  0.08808  0.12478  1.0000
  C   C1396     1.0  0.65548  0.09485  0.15955  1.0000
  C   C1397     1.0  0.64915  0.10684  0.17019  1.0000
  H   H1095     1.0  0.58692  0.14259  0.10395  1.0000
  H   H1096     1.0  0.56375  0.11262  0.10943  1.0000
  H   H1097     1.0  0.57071  0.08990  0.13640  1.0000
  H   H1098     1.0  0.60068  0.09676  0.15652  1.0000
  H   H1099     1.0  0.61678  0.14976  0.12522  1.0000
  H   H1100     1.0  0.68819  0.18131  0.15387  1.0000
  H   H1101     1.0  0.54954  0.01378  0.20509  1.0000
  H   H1102     1.0  0.62001  0.10595  0.27972  1.0000
  H   H1103     1.0  0.62164  0.10318  0.21497  1.0000
  C   C1398     1.0  0.53664  0.02044  0.94945  1.0000
  H   H1104     1.0  0.63845  0.15844  0.20603  1.0000
  C   C1399     1.0  0.55850  0.06573  0.53388  1.0000
  C   C1400     1.0  0.53198  0.03049  0.35152  1.0000
  H   H1105     1.0  0.57852  0.03324  0.49115  1.0000
  C   C1401     1.0  0.64568  0.17757  0.43749  1.0000
  H   H1106     1.0  0.63314  0.11828  0.90313  1.0000
  H   H1107     1.0  0.56886  0.98835  0.07417  1.0000
  H   H1108     1.0  0.50497  0.07806  0.18836  1.0000
  H   H1109     1.0  0.51909  0.10361  0.22976  1.0000
  H   H1110     1.0  0.67267  0.13725  0.78341  1.0000
  H   H1111     1.0  0.68520  0.18516  0.08924  1.0000
  H   H1112     1.0  0.54419  0.23008  0.60651  1.0000
  C   C1402     1.0  0.67501  0.17470  0.10280  1.0000
  C   C1403     1.0  0.58454  0.01967  0.25725  1.0000
  C   C1404     1.0  0.65258  0.13800  0.87244  1.0000
  H   H1113     1.0  0.54673  0.16994  0.68426  1.0000
  C   C1405     1.0  0.64765  0.18959  0.83532  1.0000
  P   P48       1.0  0.67974  0.16484  0.83862  1.0000
  C   C1406     1.0  0.68216  0.16516  0.79091  1.0000
  C   C1407     1.0  0.48064  0.03802  0.20621  1.0000
  H   H1114     1.0  0.52485  0.20322  0.63627  1.0000
  C   C1408     1.0  0.52483  0.20347  0.60754  1.0000
  H   H1115     1.0  0.65591  0.17542  0.79842  1.0000
  C   C1409     1.0  0.48159  0.14175  0.21115  1.0000
  C   C1410     1.0  0.57432  0.99789  0.47645  1.0000
  H   H1116     1.0  0.59205  0.03158  0.14930  1.0000
  H   H1117     1.0  0.63613  0.16097  0.27103  1.0000
  C   C1411     1.0  0.57377  0.04958  0.66830  1.0000
  H   H1118     1.0  0.53993  0.16583  0.80813  1.0000
  H   H1119     1.0  0.63100  0.16073  0.39333  1.0000
  C   C1412     1.0  0.67774  0.14972  0.77087  1.0000
  H   H1120     1.0  0.64434  0.18444  0.60730  1.0000
  Fe  Fe90      1.0  0.71367  0.22651  0.59730  1.0000
  C   C1413     1.0  0.48258  0.99868  0.50625  1.0000
  H   H1121     1.0  0.55592  0.06135  0.67150  1.0000
  H   H1122     1.0  0.55011  0.02536  0.95831  1.0000
  C   C1414     1.0  0.66241  0.18726  0.45209  1.0000
  H   H1123     1.0  0.55197  0.06189  0.60683  1.0000
  C   C1415     1.0  0.64859  0.19568  0.87034  1.0000
  C   C1416     1.0  0.67985  0.15026  0.73405  1.0000
  C   C1417     1.0  0.68840  0.18107  0.77338  1.0000
  C   C1418     1.0  0.71463  0.22754  0.40761  1.0000
  C   C1419     1.0  0.49546  0.00092  0.02390  1.0000
  C   C1420     1.0  0.55933  0.07837  0.28093  1.0000
  C   C1421     1.0  0.56248  0.09290  0.50689  1.0000
  C   C1422     1.0  0.54230  0.02717  0.49768  1.0000
  H   H1124     1.0  0.58642  0.00923  0.48103  1.0000
  H   H1125     1.0  0.49938  0.22144  0.65684  1.0000
  H   H1126     1.0  0.61678  0.04499  0.11020  1.0000
  H   H1127     1.0  0.55521  0.01456  0.57409  1.0000
  C   C1423     1.0  0.65883  0.19229  0.89563  1.0000
  H   H1128     1.0  0.67650  0.18092  0.90566  1.0000
  H   H1129     1.0  0.65977  0.19714  0.92276  1.0000
  H   H1130     1.0  0.69182  0.19319  0.78819  1.0000
  C   C1424     1.0  0.68629  0.16617  0.71697  1.0000
  H   H1131     1.0  0.53033  0.00423  0.28124  1.0000
  H   H1132     1.0  0.52175  0.18186  0.80890  1.0000
  C   C1425     1.0  0.57676  0.10132  0.24196  1.0000
  Fe  Fe91      1.0  0.70598  0.20119  0.53165  1.0000
  C   C1426     1.0  0.56939  0.05013  0.59428  1.0000
  C   C1427     1.0  0.54442  0.07522  0.26020  1.0000
  C   C1428     1.0  0.52697  0.02790  0.27766  1.0000
  H   H1133     1.0  0.52532  0.02682  0.24904  1.0000
  H   H1134     1.0  0.52895  0.09545  0.28326  1.0000
  C   C1429     1.0  0.56052  0.05657  0.61715  1.0000
  H   H1135     1.0  0.71093  0.21370  0.40535  1.0000
  H   H1136     1.0  0.68806  0.16664  0.68849  1.0000
  C   C1430     1.0  0.58039  0.04333  0.60892  1.0000
  C   C1431     1.0  0.55347  0.19819  0.09613  1.0000
  C   C1432     1.0  0.58954  0.04458  0.50149  1.0000
  C   C1433     1.0  0.63126  0.17955  0.50678  1.0000
  H   H1137     1.0  0.58726  0.03814  0.59182  1.0000
  H   H1138     1.0  0.53015  0.05205  0.19934  1.0000
  C   C1434     1.0  0.56916  0.08121  0.51732  1.0000
  H   H1139     1.0  0.61740  0.03061  0.05257  1.0000
  H   H1140     1.0  0.53518  0.03503  0.09296  1.0000
  C   C1435     1.0  0.54643  0.01896  0.11553  1.0000
  C   C1436     1.0  0.50024  0.05949  0.32409  1.0000
  C   C1437     1.0  0.50274  0.14773  0.55796  1.0000
  H   H1141     1.0  0.52917  0.05425  0.34845  1.0000
  C   C1438     1.0  0.60584  0.04867  0.48742  1.0000
  H   H1142     1.0  0.58252  0.08426  0.51159  1.0000
  C   C1439     1.0  0.60674  0.02441  0.07034  1.0000
  C   C1440     1.0  0.59189  0.15732  0.44110  1.0000
  C   C1441     1.0  0.56430  0.22889  0.11228  1.0000
  H   H1143     1.0  0.55918  0.02696  0.10577  1.0000
  C   C1442     1.0  0.60212  0.06995  0.54076  1.0000
  H   H1144     1.0  0.56302  0.10614  0.19817  1.0000
  C   C1443     1.0  0.60816  0.15744  0.44834  1.0000
  C   C1444     1.0  0.49091  0.15090  0.57905  1.0000
  C   C1445     1.0  0.52652  0.04209  0.29644  1.0000
  C   C1446     1.0  0.71145  0.23189  0.76672  1.0000
  C   C1447     1.0  0.53612  0.19988  0.76853  1.0000
  C   C1448     1.0  0.58526  0.00547  0.20146  1.0000
  C   C1449     1.0  0.50309  0.11592  0.97884  1.0000
  C   C1450     1.0  0.55544  0.99355  0.00012  1.0000
  H   H1145     1.0  0.49607  0.14895  0.11773  1.0000
  C   C1451     1.0  0.62915  0.21968  0.40437  1.0000
  H   H1146     1.0  0.68590  0.17624  0.39283  1.0000
  H   H1147     1.0  0.58032  0.21624  0.09526  1.0000
  P   P49       1.0  0.56107  0.99831  0.14564  1.0000
  C   C1452     1.0  0.53907  0.22428  0.83835  1.0000
  H   H1148     1.0  0.60708  0.19523  0.48875  1.0000
  H   H1149     1.0  0.62050  0.15186  0.51564  1.0000
  C   C1453     1.0  0.67472  0.17697  0.40458  1.0000
  P   P50       1.0  0.62696  0.17753  0.45935  1.0000
  H   H1150     1.0  0.52333  0.01375  0.02072  1.0000
  C   C1454     1.0  0.57918  0.12608  0.43148  1.0000
  S   S186      1.0  0.48976  0.06244  0.10069  1.0000
  S   S187      1.0  0.71280  0.22342  0.49470  1.0000
  C   C1455     1.0  0.61319  0.20188  0.46499  1.0000
  H   H1151     1.0  0.50611  0.13064  0.51894  1.0000
  H   H1152     1.0  0.49379  0.01089  0.00911  1.0000
  C   C1456     1.0  0.53345  0.20991  0.11443  1.0000
  H   H1153     1.0  0.50601  0.14035  0.20152  1.0000
  C   C1457     1.0  0.59308  0.00857  0.06030  1.0000
  H   H1154     1.0  0.47952  0.03307  0.14974  1.0000
  H   H1155     1.0  0.71951  0.17249  0.94120  1.0000
  C   C1458     1.0  0.64443  0.19781  0.55924  1.0000
  H   H1156     1.0  0.54038  0.21225  0.84036  1.0000
  C   C1459     1.0  0.49904  0.14833  0.20134  1.0000
  H   H1157     1.0  0.65165  0.21066  0.57117  1.0000
  C   C1460     1.0  0.51067  0.22589  0.67454  1.0000
  C   C1461     1.0  0.48129  0.08104  0.18357  1.0000
  C   C1462     1.0  0.70235  0.16936  0.89637  1.0000
  H   H1158     1.0  0.49532  0.13893  0.72026  1.0000
  C   C1463     1.0  0.48082  0.17484  0.62073  1.0000
  C   C1464     1.0  0.71580  0.18518  0.84403  1.0000
  C   C1465     1.0  0.71615  0.22932  0.70274  1.0000
  H   H1159     1.0  0.49162  0.99284  0.50533  1.0000
  H   H1160     1.0  0.54968  0.23296  0.89134  1.0000
  Fe  Fe92      1.0  0.47785  0.23278  0.60077  1.0000
  H   H1161     1.0  0.53497  0.98580  0.55004  1.0000
  H   H1162     1.0  0.63553  0.22675  0.38120  1.0000
  S   S188      1.0  0.47779  0.18925  0.49907  1.0000
  C   C1466     1.0  0.70639  0.23166  0.73057  1.0000
  C   C1467     1.0  0.48116  0.98660  0.03671  1.0000
  H   H1163     1.0  0.48177  0.03743  0.52712  1.0000
  H   H1164     1.0  0.48288  0.14712  0.66792  1.0000
  H   H1165     1.0  0.52814  0.99162  0.05477  1.0000
  Fe  Fe93      1.0  0.69712  0.23255  0.52895  1.0000
  S   S189      1.0  0.50227  0.25488  0.91945  1.0000
  C   C1468     1.0  0.50476  0.27853  0.43704  1.0000
  H   H1166     1.0  0.49613  0.29764  0.95122  1.0000
  H   H1167     1.0  0.54717  0.32942  0.91310  1.0000
  S   S190      1.0  0.49226  0.25965  0.57909  1.0000
  Fe  Fe94      1.0  0.50960  0.24883  0.55435  1.0000
  S   S191      1.0  0.53882  0.26495  0.55872  1.0000
  H   H1168     1.0  0.49087  0.41105  0.21716  1.0000
  H   H1169     1.0  0.49326  0.38910  0.17628  1.0000
  H   H1170     1.0  0.48347  0.47140  0.55647  1.0000
  C   C1469     1.0  0.51577  0.28081  0.03171  1.0000
  S   S192      1.0  0.70470  0.41735  0.91700  1.0000
  C   C1470     1.0  0.58422  0.25150  0.22549  1.0000
  S   S193      1.0  0.70847  0.46340  0.89198  1.0000
  Fe  Fe95      1.0  0.63081  0.32096  0.11018  1.0000
  S   S194      1.0  0.65904  0.33010  0.09971  1.0000
  S   S195      1.0  0.61822  0.31947  0.16369  1.0000
  Fe  Fe96      1.0  0.62111  0.31683  0.03043  1.0000
  S   S196      1.0  0.64885  0.32579  0.01366  1.0000
  S   S197      1.0  0.59872  0.31330  0.99266  1.0000
  Fe  Fe97      1.0  0.65054  0.30880  0.05747  1.0000
  S   S198      1.0  0.66515  0.29182  0.05791  1.0000
  Fe  Fe98      1.0  0.65523  0.34632  0.05679  1.0000
  S   S199      1.0  0.67343  0.37508  0.05639  1.0000
  S   S200      1.0  0.62227  0.29832  0.07120  1.0000
  S   S201      1.0  0.62749  0.33870  0.07035  1.0000
  H   H1171     1.0  0.49928  0.46363  0.17092  1.0000
  S   S202      1.0  0.70739  0.45559  0.55254  1.0000
  H   H1172     1.0  0.55034  0.24313  0.73997  1.0000
  H   H1173     1.0  0.59998  0.41747  0.35041  1.0000
  P   P51       1.0  0.51427  0.48274  0.51039  1.0000
  H   H1174     1.0  0.63798  0.25430  0.03094  1.0000
  Fe  Fe99      1.0  0.61390  0.29996  0.42074  1.0000
  S   S203      1.0  0.63062  0.31685  0.46568  1.0000
  S   S204      1.0  0.58559  0.28044  0.42213  1.0000
  Fe  Fe100     1.0  0.64227  0.31490  0.36612  1.0000
  S   S205      1.0  0.66123  0.33289  0.40681  1.0000
  S   S206      1.0  0.65338  0.31505  0.31152  1.0000
  Fe  Fe101     1.0  0.65152  0.31036  0.44326  1.0000
  S   S207      1.0  0.67241  0.30859  0.47866  1.0000
  Fe  Fe102     1.0  0.63943  0.33834  0.42637  1.0000
  S   S208      1.0  0.64265  0.36555  0.44211  1.0000
  S   S209      1.0  0.63423  0.29170  0.40119  1.0000
  S   S210      1.0  0.62089  0.32199  0.38279  1.0000
  C   C1471     1.0  0.51660  0.36626  0.01316  1.0000
  S   S211      1.0  0.49088  0.40880  0.00864  1.0000
  S   S212      1.0  0.55762  0.45433  0.10264  1.0000
  H   H1175     1.0  0.57205  0.24942  0.98558  1.0000
  S   S213      1.0  0.55555  0.45365  0.45621  1.0000
  C   C1472     1.0  0.50192  0.42786  0.40184  1.0000
  C   C1473     1.0  0.51317  0.44502  0.39387  1.0000
  C   C1474     1.0  0.52972  0.45312  0.41031  1.0000
  C   C1475     1.0  0.53500  0.44410  0.43492  1.0000
  C   C1476     1.0  0.52373  0.42697  0.44289  1.0000
  C   C1477     1.0  0.50727  0.41882  0.42624  1.0000
  H   H1176     1.0  0.50907  0.45208  0.37507  1.0000
  H   H1177     1.0  0.53835  0.46633  0.40407  1.0000
  H   H1178     1.0  0.52775  0.41997  0.46199  1.0000
  H   H1179     1.0  0.49865  0.40561  0.43258  1.0000
  C   C1478     1.0  0.50972  0.42071  0.03456  1.0000
  C   C1479     1.0  0.52293  0.43540  0.02026  1.0000
  C   C1480     1.0  0.53769  0.44585  0.04095  1.0000
  C   C1481     1.0  0.53942  0.44142  0.07587  1.0000
  C   C1482     1.0  0.52642  0.42644  0.08991  1.0000
  C   C1483     1.0  0.51157  0.41607  0.06928  1.0000
  H   H1180     1.0  0.52169  0.43869  0.99308  1.0000
  H   H1181     1.0  0.54775  0.45727  0.02983  1.0000
  H   H1182     1.0  0.52781  0.42293  0.11685  1.0000
  H   H1183     1.0  0.52481  0.29052  0.98035  1.0000
  C   C1484     1.0  0.67291  0.28836  0.48506  1.0000
  C   C1485     1.0  0.68631  0.28761  0.50608  1.0000
  C   C1486     1.0  0.68746  0.27175  0.51062  1.0000
  C   C1487     1.0  0.67500  0.25653  0.49447  1.0000
  C   C1488     1.0  0.66142  0.25725  0.47400  1.0000
  C   C1489     1.0  0.66035  0.27310  0.46927  1.0000
  H   H1184     1.0  0.49668  0.25419  0.69229  1.0000
  C   C1490     1.0  0.70283  0.39601  0.29417  1.0000
  C   C1491     1.0  0.51701  0.34027  0.98588  1.0000
  H   H1185     1.0  0.64987  0.27352  0.45336  1.0000
  C   C1492     1.0  0.69639  0.40466  0.48458  1.0000
  C   C1493     1.0  0.69410  0.38875  0.46900  1.0000
  C   C1494     1.0  0.67770  0.37673  0.45632  1.0000
  C   C1495     1.0  0.66336  0.38053  0.45864  1.0000
  C   C1496     1.0  0.66559  0.39655  0.47409  1.0000
  C   C1497     1.0  0.68206  0.40854  0.48730  1.0000
  H   H1186     1.0  0.70509  0.38559  0.46712  1.0000
  H   H1187     1.0  0.67622  0.36449  0.44482  1.0000
  H   H1188     1.0  0.65458  0.39964  0.47600  1.0000
  H   H1189     1.0  0.68373  0.42076  0.49939  1.0000
  C   C1498     1.0  0.67192  0.28441  0.01955  1.0000
  C   C1499     1.0  0.66685  0.28680  0.98532  1.0000
  C   C1500     1.0  0.67230  0.28038  0.95556  1.0000
  C   C1501     1.0  0.68289  0.27158  0.95974  1.0000
  C   C1502     1.0  0.68802  0.26929  0.99398  1.0000
  C   C1503     1.0  0.68251  0.27562  0.02371  1.0000
  H   H1190     1.0  0.65862  0.29346  0.98185  1.0000
  H   H1191     1.0  0.66827  0.28220  0.92917  1.0000
  C   C1504     1.0  0.71001  0.41677  0.24668  1.0000
  H   H1192     1.0  0.68649  0.27372  0.05010  1.0000
  C   C1505     1.0  0.62845  0.31897  0.20471  1.0000
  C   C1506     1.0  0.64539  0.32038  0.20656  1.0000
  C   C1507     1.0  0.65289  0.31932  0.23954  1.0000
  C   C1508     1.0  0.64357  0.31693  0.27098  1.0000
  C   C1509     1.0  0.62667  0.31566  0.26920  1.0000
  C   C1510     1.0  0.61917  0.31671  0.23619  1.0000
  H   H1193     1.0  0.65265  0.32206  0.18253  1.0000
  H   H1194     1.0  0.66593  0.32024  0.24065  1.0000
  H   H1195     1.0  0.61934  0.31371  0.29318  1.0000
  H   H1196     1.0  0.60602  0.31551  0.23495  1.0000
  C   C1511     1.0  0.69631  0.40561  0.95596  1.0000
  C   C1512     1.0  0.68605  0.38757  0.95334  1.0000
  C   C1513     1.0  0.67890  0.37797  0.98382  1.0000
  C   C1514     1.0  0.68208  0.38637  0.01719  1.0000
  C   C1515     1.0  0.69257  0.40432  0.01983  1.0000
  C   C1516     1.0  0.69962  0.41392  0.98938  1.0000
  H   H1197     1.0  0.68343  0.38105  0.92756  1.0000
  H   H1198     1.0  0.67092  0.36412  0.98152  1.0000
  H   H1199     1.0  0.69520  0.41088  0.04558  1.0000
  H   H1200     1.0  0.48220  0.32785  0.51981  1.0000
  C   C1517     1.0  0.69921  0.28875  0.41004  1.0000
  C   C1518     1.0  0.55154  0.26938  0.52029  1.0000
  C   C1519     1.0  0.56908  0.28132  0.52279  1.0000
  C   C1520     1.0  0.57962  0.28501  0.49282  1.0000
  C   C1521     1.0  0.57279  0.27644  0.46033  1.0000
  C   C1522     1.0  0.55525  0.26451  0.45783  1.0000
  C   C1523     1.0  0.54462  0.26108  0.48759  1.0000
  H   H1201     1.0  0.57451  0.28770  0.54803  1.0000
  H   H1202     1.0  0.59300  0.29446  0.49468  1.0000
  H   H1203     1.0  0.66055  0.28377  0.55914  1.0000
  H   H1204     1.0  0.70870  0.44372  0.72117  1.0000
  C   C1524     1.0  0.55409  0.25968  0.96889  1.0000
  C   C1525     1.0  0.57023  0.26109  0.98148  1.0000
  C   C1526     1.0  0.58396  0.27748  0.98908  1.0000
  C   C1527     1.0  0.58171  0.29257  0.98355  1.0000
  C   C1528     1.0  0.56572  0.29120  0.96983  1.0000
  C   C1529     1.0  0.55190  0.27480  0.96277  1.0000
  C   C1530     1.0  0.52751  0.30080  0.50999  1.0000
  H   H1205     1.0  0.59638  0.27853  0.99883  1.0000
  H   H1206     1.0  0.56400  0.30285  0.96487  1.0000
  H   H1207     1.0  0.53957  0.27384  0.95264  1.0000
  C   C1531     1.0  0.50354  0.41195  0.21066  1.0000
  C   C1532     1.0  0.50485  0.39951  0.18777  1.0000
  C   C1533     1.0  0.52114  0.40051  0.17947  1.0000
  C   C1534     1.0  0.53617  0.41384  0.19434  1.0000
  C   C1535     1.0  0.53497  0.42634  0.21763  1.0000
  C   C1536     1.0  0.51854  0.42546  0.22517  1.0000
  P   P52       1.0  0.55425  0.44392  0.23643  1.0000
  C   C1537     1.0  0.55623  0.44243  0.28411  1.0000
  C   C1538     1.0  0.57331  0.44338  0.21714  1.0000
  C   C1539     1.0  0.57981  0.43191  0.23031  1.0000
  C   C1540     1.0  0.59456  0.43134  0.21580  1.0000
  C   C1541     1.0  0.60286  0.44214  0.18788  1.0000
  C   C1542     1.0  0.59638  0.45346  0.17444  1.0000
  C   C1543     1.0  0.58167  0.45410  0.18891  1.0000
  C   C1544     1.0  0.57254  0.45131  0.30110  1.0000
  C   C1545     1.0  0.57449  0.45042  0.33778  1.0000
  C   C1546     1.0  0.56012  0.44088  0.35809  1.0000
  C   C1547     1.0  0.54381  0.43196  0.34153  1.0000
  C   C1548     1.0  0.54185  0.43262  0.30465  1.0000
  C   C1549     1.0  0.55315  0.46397  0.22517  1.0000
  C   C1550     1.0  0.54688  0.46562  0.19135  1.0000
  H   H1208     1.0  0.58741  0.33803  0.02051  1.0000
  H   H1209     1.0  0.48416  0.25268  0.43449  1.0000
  C   C1551     1.0  0.70051  0.43063  0.41335  1.0000
  S   S214      1.0  0.53698  0.23880  0.96197  1.0000
  C   C1552     1.0  0.52967  0.31009  0.87655  1.0000
  H   H1210     1.0  0.47705  0.42489  0.28332  1.0000
  H   H1211     1.0  0.52211  0.39100  0.16124  1.0000
  H   H1212     1.0  0.54862  0.41445  0.18705  1.0000
  H   H1213     1.0  0.51736  0.43519  0.24240  1.0000
  H   H1214     1.0  0.57344  0.42338  0.25179  1.0000
  H   H1215     1.0  0.59952  0.42249  0.22608  1.0000
  H   H1216     1.0  0.61426  0.44171  0.17649  1.0000
  C   C1553     1.0  0.71018  0.36743  0.04445  1.0000
  H   H1217     1.0  0.57694  0.46296  0.17776  1.0000
  H   H1218     1.0  0.58381  0.45923  0.28616  1.0000
  H   H1219     1.0  0.58714  0.45755  0.35043  1.0000
  H   H1220     1.0  0.56159  0.44062  0.38670  1.0000
  H   H1221     1.0  0.53263  0.42471  0.35744  1.0000
  H   H1222     1.0  0.52911  0.42553  0.29266  1.0000
  H   H1223     1.0  0.54248  0.45488  0.17217  1.0000
  H   H1224     1.0  0.52349  0.24637  0.78419  1.0000
  H   H1225     1.0  0.55648  0.24859  0.06048  1.0000
  H   H1226     1.0  0.54592  0.26015  0.88926  1.0000
  Fe  Fe103     1.0  0.48667  0.23388  0.87861  1.0000
  C   C1554     1.0  0.72163  0.31117  0.95565  1.0000
  C   C1555     1.0  0.68890  0.29715  0.35660  1.0000
  C   C1556     1.0  0.68636  0.29165  0.39158  1.0000
  H   H1227     1.0  0.48504  0.47057  0.94347  1.0000
  H   H1228     1.0  0.67874  0.29911  0.34225  1.0000
  H   H1229     1.0  0.67435  0.28954  0.40437  1.0000
  H   H1230     1.0  0.72096  0.37462  0.99336  1.0000
  H   H1231     1.0  0.69816  0.35673  0.09358  1.0000
  H   H1232     1.0  0.60509  0.26837  0.26074  1.0000
  H   H1233     1.0  0.69794  0.27129  0.52652  1.0000
  H   H1234     1.0  0.54296  0.48273  0.15459  1.0000
  C   C1557     1.0  0.52099  0.30979  0.01293  1.0000
  C   C1558     1.0  0.51073  0.28429  0.06489  1.0000
  C   C1559     1.0  0.62934  0.45317  0.36953  1.0000
  H   H1235     1.0  0.69681  0.28403  0.43682  1.0000
  H   H1236     1.0  0.50655  0.45950  0.57005  1.0000
  C   C1560     1.0  0.70671  0.25165  0.41214  1.0000
  C   C1561     1.0  0.48811  0.43800  0.10339  1.0000
  H   H1237     1.0  0.67331  0.42438  0.40843  1.0000
  H   H1238     1.0  0.49463  0.32539  0.95150  1.0000
  C   C1562     1.0  0.54711  0.48145  0.18128  1.0000
  H   H1239     1.0  0.47934  0.42279  0.46262  1.0000
  C   C1563     1.0  0.70211  0.35396  0.06791  1.0000
  C   C1564     1.0  0.50110  0.33678  0.96852  1.0000
  C   C1565     1.0  0.70650  0.35809  0.39765  1.0000
  H   H1240     1.0  0.60381  0.36884  0.34397  1.0000
  Fe  Fe104     1.0  0.72258  0.48046  0.52446  1.0000
  H   H1241     1.0  0.48806  0.48229  0.46049  1.0000
  C   C1566     1.0  0.56415  0.29084  0.07280  1.0000
  C   C1567     1.0  0.57688  0.29563  0.09980  1.0000
  C   C1568     1.0  0.70017  0.40903  0.27618  1.0000
  H   H1242     1.0  0.56036  0.30042  0.06176  1.0000
  H   H1243     1.0  0.58305  0.30895  0.10987  1.0000
  C   C1569     1.0  0.49442  0.44889  0.48301  1.0000
  H   H1244     1.0  0.62942  0.32898  0.72836  1.0000
  C   C1570     1.0  0.66316  0.42017  0.92162  1.0000
  C   C1571     1.0  0.65797  0.40236  0.91613  1.0000
  C   C1572     1.0  0.64730  0.39059  0.94048  1.0000
  C   C1573     1.0  0.64193  0.39663  0.97054  1.0000
  C   C1574     1.0  0.64724  0.41455  0.97643  1.0000
  C   C1575     1.0  0.65775  0.42626  0.95153  1.0000
  P   P53       1.0  0.64159  0.42274  0.01644  1.0000
  C   C1576     1.0  0.62479  0.42994  0.00777  1.0000
  C   C1577     1.0  0.63429  0.40557  0.04833  1.0000
  C   C1578     1.0  0.61646  0.39526  0.05237  1.0000
  C   C1579     1.0  0.61081  0.38126  0.07534  1.0000
  C   C1580     1.0  0.62289  0.37732  0.09413  1.0000
  C   C1581     1.0  0.64062  0.38731  0.08979  1.0000
  C   C1582     1.0  0.64633  0.40134  0.06693  1.0000
  C   C1583     1.0  0.62014  0.43212  0.97286  1.0000
  C   C1584     1.0  0.60768  0.43846  0.96667  1.0000
  C   C1585     1.0  0.59979  0.44266  0.99520  1.0000
  C   C1586     1.0  0.60413  0.44027  0.02997  1.0000
  C   C1587     1.0  0.61651  0.43386  0.03627  1.0000
  C   C1588     1.0  0.66121  0.44069  0.03319  1.0000
  C   C1589     1.0  0.67727  0.43996  0.02971  1.0000
  H   H1245     1.0  0.63849  0.24867  0.09505  1.0000
  H   H1246     1.0  0.54465  0.23716  0.12829  1.0000
  H   H1247     1.0  0.61716  0.23680  0.41664  1.0000
  C   C1590     1.0  0.66087  0.45587  0.04764  1.0000
  H   H1248     1.0  0.67190  0.42929  0.90330  1.0000
  H   H1249     1.0  0.66277  0.39777  0.89364  1.0000
  H   H1250     1.0  0.64370  0.37682  0.93671  1.0000
  H   H1251     1.0  0.63413  0.38728  0.98953  1.0000
  H   H1252     1.0  0.66223  0.44014  0.95582  1.0000
  H   H1253     1.0  0.60688  0.39774  0.03727  1.0000
  H   H1254     1.0  0.59707  0.37326  0.07811  1.0000
  H   H1255     1.0  0.61857  0.36629  0.11146  1.0000
  H   H1256     1.0  0.65000  0.38386  0.10335  1.0000
  H   H1257     1.0  0.66012  0.40845  0.06315  1.0000
  H   H1258     1.0  0.62634  0.42933  0.95038  1.0000
  H   H1259     1.0  0.60448  0.44059  0.93976  1.0000
  H   H1260     1.0  0.59057  0.44813  0.99047  1.0000
  H   H1261     1.0  0.59821  0.44386  0.05203  1.0000
  H   H1262     1.0  0.61999  0.43241  0.06342  1.0000
  H   H1263     1.0  0.67794  0.42858  0.01799  1.0000
  H   H1264     1.0  0.65009  0.47814  0.53029  1.0000
  C   C1591     1.0  0.67631  0.47000  0.05830  1.0000
  H   H1265     1.0  0.48235  0.29913  0.53115  1.0000
  H   H1266     1.0  0.64891  0.45726  0.04966  1.0000
  H   H1267     1.0  0.70454  0.38225  0.40112  1.0000
  C   C1592     1.0  0.65963  0.43194  0.58227  1.0000
  C   C1593     1.0  0.65035  0.44165  0.57430  1.0000
  C   C1594     1.0  0.65392  0.45713  0.59326  1.0000
  C   C1595     1.0  0.66666  0.46291  0.62060  1.0000
  C   C1596     1.0  0.67615  0.45328  0.62789  1.0000
  H   H1268     1.0  0.71823  0.38126  0.29627  1.0000
  H   H1269     1.0  0.49512  0.42020  0.13232  1.0000
  H   H1270     1.0  0.63000  0.43706  0.32484  1.0000
  H   H1271     1.0  0.60078  0.48301  0.25042  1.0000
  Fe  Fe105     1.0  0.47890  0.24367  0.95392  1.0000
  S   S215      1.0  0.71567  0.24154  0.97628  1.0000
  H   H1272     1.0  0.63060  0.45795  0.27957  1.0000
  C   C1597     1.0  0.60068  0.26476  0.23336  1.0000
  H   H1273     1.0  0.50537  0.26105  0.75607  1.0000
  H   H1274     1.0  0.70757  0.42774  0.99179  1.0000
  H   H1275     1.0  0.72557  0.28777  0.95636  1.0000
  C   C1598     1.0  0.65320  0.47910  0.97789  1.0000
  C   C1599     1.0  0.52577  0.24034  0.66599  1.0000
  C   C1600     1.0  0.71880  0.45667  0.72627  1.0000
  H   H1276     1.0  0.49193  0.47890  0.22009  1.0000
  H   H1277     1.0  0.64059  0.30907  0.70155  1.0000
  H   H1278     1.0  0.57587  0.24475  0.24691  1.0000
  H   H1279     1.0  0.47729  0.45371  0.07804  1.0000
  Fe  Fe106     1.0  0.70666  0.24939  0.92609  1.0000
  C   C1601     1.0  0.50387  0.32146  0.42371  1.0000
  H   H1280     1.0  0.48321  0.32881  0.41075  1.0000
  H   H1281     1.0  0.64058  0.43736  0.55308  1.0000
  H   H1282     1.0  0.64690  0.46471  0.58638  1.0000
  H   H1283     1.0  0.68657  0.45786  0.64766  1.0000
  H   H1284     1.0  0.66772  0.46050  0.70173  1.0000
  H   H1285     1.0  0.47570  0.28784  0.04549  1.0000
  C   C1602     1.0  0.58245  0.32278  0.43937  1.0000
  S   S216      1.0  0.67572  0.23631  0.49907  1.0000
  H   H1286     1.0  0.71717  0.29597  0.88382  1.0000
  C   C1603     1.0  0.53926  0.23808  0.72168  1.0000
  H   H1287     1.0  0.51915  0.46516  0.98676  1.0000
  C   C1604     1.0  0.59920  0.25377  0.05287  1.0000
  H   H1288     1.0  0.70941  0.32290  0.88826  1.0000
  S   S217      1.0  0.72016  0.25007  0.56273  1.0000
  C   C1605     1.0  0.70454  0.30023  0.34035  1.0000
  H   H1289     1.0  0.61414  0.27672  0.14964  1.0000
  C   C1606     1.0  0.51306  0.29671  0.87079  1.0000
  P   P54       1.0  0.71622  0.34146  0.95666  1.0000
  H   H1290     1.0  0.70503  0.45367  0.03623  1.0000
  C   C1607     1.0  0.49707  0.26109  0.42583  1.0000
  C   C1608     1.0  0.62638  0.33932  0.67817  1.0000
  C   C1609     1.0  0.63079  0.32856  0.69984  1.0000
  C   C1610     1.0  0.63708  0.31734  0.68473  1.0000
  C   C1611     1.0  0.63890  0.31680  0.64794  1.0000
  C   C1612     1.0  0.63431  0.32742  0.62591  1.0000
  C   C1613     1.0  0.62820  0.33882  0.64138  1.0000
  P   P55       1.0  0.63709  0.32725  0.57844  1.0000
  C   C1614     1.0  0.65802  0.34412  0.56761  1.0000
  C   C1615     1.0  0.63567  0.30624  0.56414  1.0000
  C   C1616     1.0  0.65018  0.30255  0.56795  1.0000
  C   C1617     1.0  0.64924  0.28643  0.55665  1.0000
  C   C1618     1.0  0.63395  0.27397  0.54091  1.0000
  C   C1619     1.0  0.61942  0.27746  0.53722  1.0000
  C   C1620     1.0  0.62021  0.29344  0.54915  1.0000
  C   C1621     1.0  0.66648  0.34227  0.53725  1.0000
  C   C1622     1.0  0.68248  0.35540  0.52828  1.0000
  C   C1623     1.0  0.68999  0.37069  0.54905  1.0000
  C   C1624     1.0  0.68155  0.37277  0.57899  1.0000
  C   C1625     1.0  0.66563  0.35953  0.58834  1.0000
  C   C1626     1.0  0.62015  0.33144  0.55702  1.0000
  C   C1627     1.0  0.60295  0.32291  0.56820  1.0000
  C   C1628     1.0  0.58980  0.32618  0.55195  1.0000
  C   C1629     1.0  0.59375  0.33816  0.52481  1.0000
  C   C1630     1.0  0.61084  0.34685  0.51385  1.0000
  C   C1631     1.0  0.62399  0.34348  0.52972  1.0000
  H   H1291     1.0  0.62161  0.34810  0.68992  1.0000
  C   C1632     1.0  0.62188  0.38806  0.38042  1.0000
  H   H1292     1.0  0.49815  0.31576  0.44849  1.0000
  H   H1293     1.0  0.64389  0.30808  0.63693  1.0000
  H   H1294     1.0  0.62490  0.34739  0.62504  1.0000
  H   H1295     1.0  0.66231  0.31219  0.57922  1.0000
  H   H1296     1.0  0.63074  0.47327  0.40731  1.0000
  C   C1633     1.0  0.63118  0.48147  0.35370  1.0000
  H   H1297     1.0  0.60757  0.26787  0.52472  1.0000
  H   H1298     1.0  0.60880  0.29575  0.54614  1.0000
  H   H1299     1.0  0.66070  0.33074  0.52023  1.0000
  H   H1300     1.0  0.68886  0.35380  0.50477  1.0000
  H   H1301     1.0  0.70223  0.38105  0.54160  1.0000
  H   H1302     1.0  0.68731  0.38475  0.59472  1.0000
  H   H1303     1.0  0.65927  0.36148  0.61145  1.0000
  H   H1304     1.0  0.59967  0.31356  0.58918  1.0000
  H   H1305     1.0  0.57649  0.31928  0.56014  1.0000
  H   H1306     1.0  0.58353  0.34059  0.51206  1.0000
  H   H1307     1.0  0.61396  0.35613  0.49276  1.0000
  H   H1308     1.0  0.63708  0.35023  0.52027  1.0000
  C   C1634     1.0  0.71049  0.41327  0.37676  1.0000
  H   H1309     1.0  0.53271  0.26672  0.83560  1.0000
  C   C1635     1.0  0.68193  0.31252  0.87794  1.0000
  C   C1636     1.0  0.66600  0.31107  0.89020  1.0000
  C   C1637     1.0  0.66528  0.31890  0.92266  1.0000
  C   C1638     1.0  0.68044  0.32797  0.94313  1.0000
  C   C1639     1.0  0.63051  0.46960  0.37954  1.0000
  H   H1310     1.0  0.70619  0.36800  0.93098  1.0000
  H   H1311     1.0  0.49505  0.34092  0.35279  1.0000
  S   S218      1.0  0.49100  0.24428  0.82127  1.0000
  H   H1312     1.0  0.50958  0.28937  0.84578  1.0000
  H   H1313     1.0  0.69183  0.45747  0.47792  1.0000
  C   C1640     1.0  0.62261  0.47347  0.67053  1.0000
  H   H1314     1.0  0.65419  0.30384  0.87466  1.0000
  H   H1315     1.0  0.65294  0.31782  0.93218  1.0000
  C   C1641     1.0  0.54227  0.25136  0.86629  1.0000
  C   C1642     1.0  0.51716  0.33493  0.35791  1.0000
  C   C1643     1.0  0.67906  0.47252  0.70766  1.0000
  C   C1644     1.0  0.55659  0.27375  0.05944  1.0000
  C   C1645     1.0  0.61358  0.24869  0.10440  1.0000
  H   H1316     1.0  0.49090  0.46257  0.00809  1.0000
  C   C1646     1.0  0.52101  0.29353  0.00592  1.0000
  C   C1647     1.0  0.55875  0.35515  0.96747  1.0000
  P   P56       1.0  0.53083  0.31215  0.44046  1.0000
  H   H1317     1.0  0.71243  0.38058  0.05200  1.0000
  H   H1318     1.0  0.59034  0.31582  0.44415  1.0000
  C   C1648     1.0  0.56213  0.34081  0.42790  1.0000
  C   C1649     1.0  0.50093  0.29253  0.89761  1.0000
  C   C1650     1.0  0.51872  0.47434  0.00654  1.0000
  H   H1319     1.0  0.50633  0.27427  0.08455  1.0000
  H   H1320     1.0  0.70317  0.44072  0.43354  1.0000
  C   C1651     1.0  0.69222  0.46923  0.05415  1.0000
  H   H1321     1.0  0.51950  0.33926  0.54835  1.0000
  C   C1652     1.0  0.69269  0.45417  0.04005  1.0000
  H   H1322     1.0  0.69659  0.25609  0.41325  1.0000
  P   P57       1.0  0.68955  0.38594  0.33149  1.0000
  H   H1323     1.0  0.58265  0.37756  0.95783  1.0000
  C   C1653     1.0  0.55921  0.47826  0.24910  1.0000
  C   C1654     1.0  0.58203  0.28334  0.11349  1.0000
  H   H1324     1.0  0.53116  0.25183  0.48526  1.0000
  H   H1325     1.0  0.52540  0.29210  0.56375  1.0000
  C   C1655     1.0  0.62735  0.24981  0.08328  1.0000
  H   H1326     1.0  0.48991  0.42772  0.57503  1.0000
  H   H1327     1.0  0.69232  0.32642  0.07597  1.0000
  C   C1656     1.0  0.53023  0.28303  0.40335  1.0000
  H   H1328     1.0  0.53912  0.31321  0.85585  1.0000
  H   H1329     1.0  0.55164  0.25789  0.68325  1.0000
  C   C1657     1.0  0.48505  0.43092  0.48608  1.0000
  H   H1330     1.0  0.55869  0.30102  0.45164  1.0000
  C   C1658     1.0  0.61143  0.27357  0.20586  1.0000
  H   H1331     1.0  0.50150  0.40460  0.08026  1.0000
  C   C1659     1.0  0.66976  0.48045  0.96850  1.0000
  C   C1660     1.0  0.50548  0.30150  0.93032  1.0000
  H   H1332     1.0  0.53752  0.32721  0.36988  1.0000
  C   C1661     1.0  0.60040  0.39253  0.34461  1.0000
  H   H1333     1.0  0.55451  0.34813  0.42430  1.0000
  C   C1662     1.0  0.66327  0.45597  0.41225  1.0000
  H   H1334     1.0  0.51517  0.26807  0.02552  1.0000
  Fe  Fe107     1.0  0.71877  0.48119  0.94040  1.0000
  C   C1663     1.0  0.72370  0.46269  0.76178  1.0000
  C   C1664     1.0  0.51099  0.30055  0.07235  1.0000
  S   S219      1.0  0.71745  0.41909  0.50011  1.0000
  C   C1665     1.0  0.51604  0.31326  0.04644  1.0000
  C   C1666     1.0  0.50094  0.36281  0.99527  1.0000
  C   C1667     1.0  0.52150  0.28958  0.42632  1.0000
  C   C1668     1.0  0.69611  0.34146  0.34267  1.0000
  H   H1335     1.0  0.68013  0.43060  0.61469  1.0000
  H   H1336     1.0  0.61405  0.24615  0.13235  1.0000
  H   H1337     1.0  0.58885  0.41977  0.40621  1.0000
  C   C1669     1.0  0.66251  0.37130  0.28080  1.0000
  C   C1670     1.0  0.52592  0.32788  0.37950  1.0000
  C   C1671     1.0  0.48427  0.23829  0.77566  1.0000
  H   H1338     1.0  0.53554  0.46341  0.51205  1.0000
  C   C1672     1.0  0.66432  0.44138  0.47780  1.0000
  Fe  Fe108     1.0  0.71967  0.44682  0.91916  1.0000
  C   C1673     1.0  0.63726  0.47143  0.65965  1.0000
  C   C1674     1.0  0.62706  0.25296  0.04704  1.0000
  C   C1675     1.0  0.48907  0.24547  0.71239  1.0000
  H   H1339     1.0  0.56439  0.47752  0.27515  1.0000
  C   C1676     1.0  0.49399  0.24932  0.74874  1.0000
  C   C1677     1.0  0.52501  0.30195  0.54634  1.0000
  H   H1340     1.0  0.56815  0.42288  0.44720  1.0000
  H   H1341     1.0  0.48086  0.34522  0.95977  1.0000
  H   H1342     1.0  0.51979  0.31642  0.58826  1.0000
  C   C1678     1.0  0.68819  0.47442  0.73986  1.0000
  C   C1679     1.0  0.52205  0.31509  0.93629  1.0000
  Fe  Fe109     1.0  0.47572  0.24954  0.52917  1.0000
  H   H1343     1.0  0.69588  0.29934  0.51877  1.0000
  H   H1344     1.0  0.63672  0.42726  0.47113  1.0000
  H   H1345     1.0  0.69315  0.32980  0.32674  1.0000
  C   C1680     1.0  0.61987  0.41572  0.38455  1.0000
  H   H1346     1.0  0.58842  0.25533  0.04077  1.0000
  C   C1681     1.0  0.51961  0.32155  0.41305  1.0000
  H   H1347     1.0  0.64174  0.35876  0.24202  1.0000
  H   H1348     1.0  0.65174  0.24547  0.46166  1.0000
  H   H1349     1.0  0.48812  0.28197  0.89343  1.0000
  H   H1350     1.0  0.71165  0.35927  0.42456  1.0000
  C   C1682     1.0  0.50189  0.45946  0.51336  1.0000
  C   C1683     1.0  0.52688  0.31339  0.48708  1.0000
  S   S220      1.0  0.68988  0.26417  0.92158  1.0000
  C   C1684     1.0  0.57469  0.26617  0.09991  1.0000
  C   C1685     1.0  0.71488  0.29157  0.39387  1.0000
  H   H1351     1.0  0.67958  0.33403  0.96805  1.0000
  H   H1352     1.0  0.58627  0.36285  0.41773  1.0000
  C   C1686     1.0  0.62770  0.40487  0.39498  1.0000
  S   S221      1.0  0.48110  0.41816  0.38170  1.0000
  C   C1687     1.0  0.55095  0.33898  0.98383  1.0000
  H   H1353     1.0  0.54690  0.27009  0.03812  1.0000
  C   C1688     1.0  0.56200  0.26153  0.07247  1.0000
  C   C1689     1.0  0.49105  0.43366  0.54940  1.0000
  C   C1690     1.0  0.64785  0.44378  0.42651  1.0000
  C   C1691     1.0  0.69352  0.40345  0.36340  1.0000
  H   H1354     1.0  0.62416  0.28390  0.21198  1.0000
  H   H1355     1.0  0.53664  0.35786  0.02297  1.0000
  H   H1356     1.0  0.70651  0.30462  0.31325  1.0000
  C   C1692     1.0  0.60572  0.26934  0.17050  1.0000
  H   H1357     1.0  0.50943  0.47808  0.11449  1.0000
  C   C1693     1.0  0.71477  0.36389  0.01082  1.0000
  C   C1694     1.0  0.52180  0.32856  0.53766  1.0000
  H   H1358     1.0  0.63348  0.26171  0.53117  1.0000
  H   H1359     1.0  0.54984  0.25786  0.43276  1.0000
  H   H1360     1.0  0.61018  0.46113  0.50903  1.0000
  C   C1695     1.0  0.57936  0.34289  0.00601  1.0000
  P   P58       1.0  0.58194  0.25041  0.11637  1.0000
  S   S222      1.0  0.59908  0.48070  0.41112  1.0000
  C   C1696     1.0  0.65409  0.36802  0.34232  1.0000
  C   C1697     1.0  0.53498  0.25513  0.83599  1.0000
  H   H1361     1.0  0.67083  0.47129  0.94962  1.0000
  C   C1698     1.0  0.64515  0.36186  0.26998  1.0000
  C   C1699     1.0  0.49995  0.47651  0.16713  1.0000
  H   H1362     1.0  0.52211  0.33989  0.33214  1.0000
  H   H1363     1.0  0.70003  0.31991  0.01661  1.0000
  C   C1700     1.0  0.52197  0.31571  0.56014  1.0000
  C   C1701     1.0  0.67959  0.45344  0.46338  1.0000
  H   H1364     1.0  0.52960  0.26038  0.37578  1.0000
  C   C1702     1.0  0.48330  0.42331  0.51921  1.0000
  C   C1703     1.0  0.61291  0.25477  0.03176  1.0000
  C   C1704     1.0  0.63671  0.35902  0.33135  1.0000
  Fe  Fe110     1.0  0.57718  0.47951  0.08073  1.0000
  H   H1365     1.0  0.65743  0.36964  0.37047  1.0000
  C   C1705     1.0  0.62996  0.44924  0.33331  1.0000
  H   H1366     1.0  0.61884  0.34828  0.28678  1.0000
  H   H1367     1.0  0.56573  0.23678  0.18468  1.0000
  H   H1368     1.0  0.62676  0.35410  0.35095  1.0000
  C   C1706     1.0  0.63051  0.46112  0.30752  1.0000
  C   C1707     1.0  0.59026  0.34015  0.42955  1.0000
  H   H1369     1.0  0.69625  0.26265  0.99760  1.0000
  H   H1370     1.0  0.57867  0.44328  0.49883  1.0000
  C   C1708     1.0  0.50188  0.33545  0.36939  1.0000
  H   H1371     1.0  0.63832  0.40920  0.41426  1.0000
  H   H1372     1.0  0.68249  0.30642  0.85282  1.0000
  C   C1709     1.0  0.49318  0.34804  0.97314  1.0000
  H   H1373     1.0  0.65706  0.42005  0.56735  1.0000
  C   C1710     1.0  0.56448  0.31437  0.44328  1.0000
  H   H1374     1.0  0.50688  0.30317  0.09795  1.0000
  H   H1375     1.0  0.69035  0.41306  0.28479  1.0000
  C   C1711     1.0  0.69643  0.32914  0.93137  1.0000
  H   H1376     1.0  0.59200  0.28749  0.13414  1.0000
  H   H1377     1.0  0.60272  0.46175  0.15262  1.0000
  H   H1378     1.0  0.52988  0.29002  0.49989  1.0000
  H   H1379     1.0  0.52250  0.37768  0.03048  1.0000
  C   C1712     1.0  0.70311  0.33328  0.02418  1.0000
  C   C1713     1.0  0.69713  0.32171  0.89822  1.0000
  C   C1714     1.0  0.57670  0.36512  0.97058  1.0000
  C   C1715     1.0  0.56144  0.33284  0.00284  1.0000
  C   C1716     1.0  0.55410  0.32312  0.43621  1.0000
  S   S223      1.0  0.49398  0.23998  0.50359  1.0000
  H   H1380     1.0  0.70614  0.33295  0.38768  1.0000
  C   C1717     1.0  0.64848  0.43656  0.45951  1.0000
  H   H1381     1.0  0.66710  0.40104  0.36378  1.0000
  C   C1718     1.0  0.69871  0.33692  0.05789  1.0000
  H   H1382     1.0  0.64171  0.46885  0.96598  1.0000
  C   C1719     1.0  0.58701  0.35897  0.98981  1.0000
  C   C1720     1.0  0.71571  0.39108  0.28268  1.0000
  H   H1383     1.0  0.72169  0.39502  0.89862  1.0000
  C   C1721     1.0  0.72264  0.41163  0.23507  1.0000
  C   C1722     1.0  0.52452  0.32756  0.50133  1.0000
  H   H1384     1.0  0.55593  0.32027  0.01499  1.0000
  C   C1723     1.0  0.61177  0.43835  0.43480  1.0000
  H   H1385     1.0  0.68570  0.35247  0.30313  1.0000
  C   C1724     1.0  0.58014  0.34925  0.42435  1.0000
  C   C1725     1.0  0.54273  0.47584  0.52565  1.0000
  C   C1726     1.0  0.67253  0.43778  0.60905  1.0000
  H   H1386     1.0  0.51586  0.32565  0.05253  1.0000
  C   C1727     1.0  0.71109  0.34672  0.00028  1.0000
  C   C1728     1.0  0.68370  0.42135  0.39932  1.0000
  P   P59       1.0  0.52776  0.32613  0.97932  1.0000
  H   H1387     1.0  0.66479  0.43598  0.50339  1.0000
  C   C1729     1.0  0.50041  0.45164  0.54648  1.0000
  Fe  Fe111     1.0  0.72476  0.44577  0.52528  1.0000
  C   C1730     1.0  0.70339  0.34325  0.37688  1.0000
  C   C1731     1.0  0.71753  0.29755  0.35893  1.0000
  H   H1388     1.0  0.60094  0.36651  0.99185  1.0000
  C   C1732     1.0  0.60826  0.38188  0.35524  1.0000
  S   S224      1.0  0.71977  0.45881  0.65314  1.0000
  C   C1733     1.0  0.63224  0.35587  0.29523  1.0000
  H   H1389     1.0  0.62800  0.37983  0.38878  1.0000
  C   C1734     1.0  0.58924  0.25592  0.16226  1.0000
  H   H1390     1.0  0.49475  0.37153  0.99866  1.0000
  C   C1735     1.0  0.58199  0.43013  0.45222  1.0000
  C   C1736     1.0  0.58789  0.44166  0.48140  1.0000
  H   H1391     1.0  0.70177  0.27545  0.83444  1.0000
  C   C1737     1.0  0.66708  0.37473  0.31711  1.0000
  C   C1738     1.0  0.67908  0.46078  0.43073  1.0000
  H   H1392     1.0  0.52459  0.33776  0.48441  1.0000
  C   C1739     1.0  0.53418  0.31929  0.90914  1.0000
  H   H1393     1.0  0.68411  0.46387  0.75836  1.0000
  H   H1394     1.0  0.69093  0.47059  0.42032  1.0000
  C   C1740     1.0  0.52458  0.35502  0.00865  1.0000
  C   C1741     1.0  0.70241  0.37115  0.38418  1.0000
  H   H1395     1.0  0.63115  0.45859  0.46821  1.0000
  C   C1742     1.0  0.60563  0.45166  0.48722  1.0000
  H   H1396     1.0  0.70884  0.30449  0.94354  1.0000
  C   C1743     1.0  0.52262  0.26548  0.39272  1.0000
  H   H1397     1.0  0.60421  0.34659  0.42661  1.0000
  C   C1744     1.0  0.69187  0.35440  0.32928  1.0000
  C   C1745     1.0  0.61752  0.45012  0.46394  1.0000
  H   H1398     1.0  0.54288  0.29135  0.39361  1.0000
  C   C1746     1.0  0.50608  0.25449  0.40410  1.0000
  H   H1399     1.0  0.49599  0.45431  0.45684  1.0000
  H   H1400     1.0  0.55092  0.36000  0.95223  1.0000
  C   C1747     1.0  0.69517  0.36946  0.34975  1.0000
  H   H1401     1.0  0.72103  0.41032  0.36829  1.0000
  P   P60       1.0  0.62725  0.43756  0.40328  1.0000
  H   H1402     1.0  0.49758  0.28335  0.45415  1.0000
  C   C1748     1.0  0.71390  0.42663  0.40199  1.0000
  C   C1749     1.0  0.59965  0.25126  0.08950  1.0000
  C   C1750     1.0  0.48598  0.42590  0.12968  1.0000
  C   C1751     1.0  0.49520  0.32862  0.40215  1.0000
  C   C1752     1.0  0.68019  0.40787  0.37429  1.0000
  C   C1753     1.0  0.50279  0.47296  0.01848  1.0000
  H   H1403     1.0  0.66316  0.46199  0.38721  1.0000
  C   C1754     1.0  0.59385  0.42849  0.42894  1.0000
  H   H1404     1.0  0.61277  0.25735  0.00371  1.0000
  H   H1405     1.0  0.67229  0.37539  0.26073  1.0000
  H   H1406     1.0  0.49899  0.44177  0.08574  1.0000
  C   C1755     1.0  0.60616  0.40936  0.35915  1.0000
  H   H1407     1.0  0.58984  0.38775  0.32503  1.0000
  H   H1408     1.0  0.67905  0.47759  0.53365  1.0000
  H   H1409     1.0  0.61036  0.46217  0.67310  1.0000
  C   C1756     1.0  0.54005  0.24648  0.68964  1.0000
  H   H1410     1.0  0.56475  0.47035  0.53598  1.0000
  H   H1411     1.0  0.70777  0.42668  0.23265  1.0000
  H   H1412     1.0  0.63616  0.45846  0.65445  1.0000
  Fe  Fe112     1.0  0.57572  0.47958  0.43867  1.0000
  H   H1413     1.0  0.70420  0.48049  0.06090  1.0000
  H   H1414     1.0  0.52626  0.24694  0.64130  1.0000
  C   C1757     1.0  0.71582  0.28119  0.83621  1.0000
  H   H1415     1.0  0.71735  0.45442  0.78356  1.0000
  C   C1758     1.0  0.55935  0.47972  0.53927  1.0000
  C   C1759     1.0  0.72456  0.29283  0.86412  1.0000
  H   H1416     1.0  0.50022  0.24086  0.39612  1.0000
  C   C1760     1.0  0.71937  0.37141  0.92294  1.0000
  H   H1417     1.0  0.71840  0.26742  0.78981  1.0000
  C   C1761     1.0  0.57852  0.24704  0.19010  1.0000
  H   H1418     1.0  0.47614  0.40935  0.52133  1.0000
  C   C1762     1.0  0.54437  0.23598  0.86741  1.0000
  H   H1419     1.0  0.67598  0.48184  0.06840  1.0000
  Fe  Fe113     1.0  0.51027  0.23536  0.94298  1.0000
  C   C1763     1.0  0.52976  0.24352  0.80680  1.0000
  C   C1764     1.0  0.63089  0.47714  0.31772  1.0000
  C   C1765     1.0  0.72431  0.26340  0.41519  1.0000
  C   C1766     1.0  0.72517  0.27657  0.81130  1.0000
  C   C1767     1.0  0.47591  0.44479  0.09914  1.0000
  C   C1768     1.0  0.70191  0.23380  0.40828  1.0000
  C   C1769     1.0  0.72552  0.39884  0.25314  1.0000
  H   H1420     1.0  0.72559  0.31497  0.45321  1.0000
  S   S225      1.0  0.48548  0.59955  0.59499  1.0000
  H   H1421     1.0  0.53646  0.66370  0.55069  1.0000
  C   C1770     1.0  0.48949  0.68036  0.99915  1.0000
  C   C1771     1.0  0.67856  0.61725  0.95209  1.0000
  C   C1772     1.0  0.60602  0.52999  0.23844  1.0000
  S   S226      1.0  0.71053  0.49543  0.49187  1.0000
  H   H1422     1.0  0.69457  0.51605  0.01914  1.0000
  H   H1423     1.0  0.71961  0.51537  0.73078  1.0000
  H   H1424     1.0  0.48183  0.51972  0.58391  1.0000
  C   C1773     1.0  0.48876  0.52242  0.08173  1.0000
  Fe  Fe114     1.0  0.48118  0.56665  0.94080  1.0000
  H   H1425     1.0  0.48131  0.68300  0.10086  1.0000
  Fe  Fe115     1.0  0.61277  0.49794  0.04642  1.0000
  S   S227      1.0  0.61332  0.52443  0.05838  1.0000
  C   C1774     1.0  0.55696  0.71441  0.03909  1.0000
  C   C1775     1.0  0.67616  0.48474  0.51306  1.0000
  S   S228      1.0  0.57499  0.50416  0.09428  1.0000
  Fe  Fe116     1.0  0.58510  0.51322  0.04011  1.0000
  S   S229      1.0  0.57181  0.52469  0.00047  1.0000
  Fe  Fe117     1.0  0.60281  0.51387  0.11246  1.0000
  S   S230      1.0  0.60869  0.52928  0.16532  1.0000
  C   C1776     1.0  0.66872  0.62048  0.97808  1.0000
  H   H1426     1.0  0.58185  0.58701  0.46530  1.0000
  Fe  Fe118     1.0  0.49746  0.60662  0.94983  1.0000
  C   C1777     1.0  0.62706  0.57240  0.03640  1.0000
  S   S231      1.0  0.48837  0.62554  0.97930  1.0000
  Fe  Fe119     1.0  0.52054  0.58587  0.95309  1.0000
  S   S232      1.0  0.50381  0.56642  0.91192  1.0000
  S   S233      1.0  0.54179  0.58235  0.98701  1.0000
  Fe  Fe120     1.0  0.50325  0.58889  0.88160  1.0000
  S   S234      1.0  0.50111  0.58327  0.82110  1.0000
  C   C1778     1.0  0.50495  0.70653  0.10421  1.0000
  S   S235      1.0  0.52178  0.60903  0.92136  1.0000
  S   S236      1.0  0.49773  0.58501  0.98370  1.0000
  Fe  Fe121     1.0  0.59750  0.50238  0.37958  1.0000
  C   C1779     1.0  0.48122  0.49451  0.57236  1.0000
  C   C1780     1.0  0.55935  0.49407  0.23900  1.0000
  Fe  Fe122     1.0  0.58986  0.51899  0.44680  1.0000
  S   S237      1.0  0.62994  0.48832  0.01332  1.0000
  S   S238      1.0  0.58380  0.53866  0.48081  1.0000
  Fe  Fe123     1.0  0.61542  0.50097  0.45142  1.0000
  H   H1427     1.0  0.70987  0.49130  0.77311  1.0000
  C   C1781     1.0  0.61100  0.57832  0.97008  1.0000
  S   S239      1.0  0.61506  0.52317  0.41935  1.0000
  S   S240      1.0  0.57259  0.49960  0.40506  1.0000
  Fe  Fe124     1.0  0.49701  0.60685  0.54080  1.0000
  S   S241      1.0  0.52304  0.60820  0.55830  1.0000
  H   H1428     1.0  0.50834  0.54982  0.99872  1.0000
  H   H1429     1.0  0.57064  0.52118  0.56884  1.0000
  S   S242      1.0  0.50314  0.57127  0.59772  1.0000
  Fe  Fe125     1.0  0.51085  0.59940  0.61188  1.0000
  S   S243      1.0  0.52305  0.61306  0.66506  1.0000
  Fe  Fe126     1.0  0.51312  0.57968  0.54297  1.0000
  S   S244      1.0  0.52457  0.56573  0.50486  1.0000
  H   H1430     1.0  0.65113  0.55620  0.99647  1.0000
  H   H1431     1.0  0.60440  0.53107  0.29582  1.0000
  C   C1782     1.0  0.56617  0.54453  0.48799  1.0000
  C   C1783     1.0  0.55380  0.54281  0.46144  1.0000
  C   C1784     1.0  0.54107  0.54907  0.46738  1.0000
  C   C1785     1.0  0.54036  0.55708  0.50002  1.0000
  C   C1786     1.0  0.55241  0.55833  0.52696  1.0000
  C   C1787     1.0  0.56530  0.55231  0.52081  1.0000
  H   H1432     1.0  0.55448  0.53731  0.43579  1.0000
  H   H1433     1.0  0.53193  0.54801  0.44618  1.0000
  H   H1434     1.0  0.55214  0.56434  0.55225  1.0000
  H   H1435     1.0  0.57484  0.55393  0.54154  1.0000
  C   C1788     1.0  0.50769  0.59198  0.77815  1.0000
  C   C1789     1.0  0.50151  0.58079  0.74804  1.0000
  C   C1790     1.0  0.50614  0.58698  0.71340  1.0000
  C   C1791     1.0  0.51697  0.60452  0.70829  1.0000
  C   C1792     1.0  0.52332  0.61569  0.73839  1.0000
  C   C1793     1.0  0.51868  0.60950  0.77308  1.0000
  C   C1794     1.0  0.70825  0.50345  0.72427  1.0000
  H   H1436     1.0  0.50119  0.57818  0.69064  1.0000
  H   H1437     1.0  0.53178  0.62926  0.73486  1.0000
  H   H1438     1.0  0.52359  0.61828  0.79585  1.0000
  C   C1795     1.0  0.60574  0.51990  0.20819  1.0000
  C   C1796     1.0  0.60362  0.50284  0.21289  1.0000
  H   H1439     1.0  0.49236  0.71093  0.20115  1.0000
  C   C1797     1.0  0.60226  0.50614  0.27762  1.0000
  C   C1798     1.0  0.60416  0.52314  0.27291  1.0000
  H   H1440     1.0  0.60348  0.49493  0.19002  1.0000
  H   H1441     1.0  0.65488  0.58598  0.04566  1.0000
  C   C1799     1.0  0.70145  0.50222  0.60324  1.0000
  H   H1442     1.0  0.67294  0.63345  0.98955  1.0000
  C   C1800     1.0  0.50030  0.48803  0.44729  1.0000
  C   C1801     1.0  0.56258  0.54012  0.99845  1.0000
  C   C1802     1.0  0.56373  0.55146  0.02680  1.0000
  C   C1803     1.0  0.55705  0.56402  0.02301  1.0000
  C   C1804     1.0  0.54867  0.56522  0.99121  1.0000
  C   C1805     1.0  0.54714  0.55360  0.96319  1.0000
  C   C1806     1.0  0.55412  0.54127  0.96673  1.0000
  H   H1443     1.0  0.57006  0.55079  0.05145  1.0000
  H   H1444     1.0  0.55854  0.57303  0.04476  1.0000
  H   H1445     1.0  0.54116  0.55457  0.93827  1.0000
  H   H1446     1.0  0.55318  0.53270  0.94446  1.0000
  S   S245      1.0  0.49500  0.62666  0.50119  1.0000
  C   C1807     1.0  0.48911  0.66863  0.46133  1.0000
  C   C1808     1.0  0.48559  0.67668  0.49096  1.0000
  H   H1447     1.0  0.56025  0.72164  0.09439  1.0000
  C   C1809     1.0  0.66831  0.50351  0.46037  1.0000
  C   C1810     1.0  0.68487  0.50344  0.46268  1.0000
  C   C1811     1.0  0.56264  0.50833  0.55776  1.0000
  C   C1812     1.0  0.51674  0.50139  0.39563  1.0000
  H   H1448     1.0  0.66551  0.51092  0.44019  1.0000
  H   H1449     1.0  0.69463  0.51079  0.44398  1.0000
  C   C1813     1.0  0.65430  0.50262  0.66473  1.0000
  S   S246      1.0  0.48759  0.57866  0.52252  1.0000
  C   C1814     1.0  0.48786  0.51256  0.56992  1.0000
  C   C1815     1.0  0.49729  0.50194  0.19018  1.0000
  C   C1816     1.0  0.64161  0.57728  0.09435  1.0000
  H   H1450     1.0  0.50477  0.52355  0.15530  1.0000
  S   S247      1.0  0.59989  0.49659  0.32028  1.0000
  C   C1817     1.0  0.60859  0.52265  0.95102  1.0000
  H   H1451     1.0  0.59640  0.51301  0.93992  1.0000
  C   C1818     1.0  0.50995  0.51230  0.53067  1.0000
  H   H1452     1.0  0.70344  0.51243  0.67426  1.0000
  C   C1819     1.0  0.49173  0.64621  0.49862  1.0000
  C   C1820     1.0  0.48973  0.69387  0.11779  1.0000
  H   H1453     1.0  0.66544  0.51347  0.03587  1.0000
  S   S248      1.0  0.48122  0.69559  0.48781  1.0000
  C   C1821     1.0  0.63754  0.53029  0.97473  1.0000
  C   C1822     1.0  0.68901  0.49422  0.48921  1.0000
  H   H1454     1.0  0.62516  0.56578  0.13853  1.0000
  C   C1823     1.0  0.68488  0.49374  0.98330  1.0000
  S   S249      1.0  0.59182  0.49847  0.48105  1.0000
  H   H1455     1.0  0.47582  0.49980  0.48334  1.0000
  C   C1824     1.0  0.63937  0.54709  0.98294  1.0000
  C   C1825     1.0  0.58555  0.58727  0.94047  1.0000
  C   C1826     1.0  0.70275  0.48988  0.74818  1.0000
  H   H1456     1.0  0.53605  0.65265  0.61147  1.0000
  S   S250      1.0  0.47924  0.58764  0.90848  1.0000
  H   H1457     1.0  0.48216  0.71799  0.93397  1.0000
  H   H1458     1.0  0.50932  0.68895  0.95986  1.0000
  H   H1459     1.0  0.59943  0.55645  0.03632  1.0000
  H   H1460     1.0  0.56469  0.50522  0.25716  1.0000
  C   C1827     1.0  0.48926  0.64691  0.98651  1.0000
  C   C1828     1.0  0.48518  0.69545  0.15268  1.0000
  H   H1461     1.0  0.68050  0.59811  0.91651  1.0000
  H   H1462     1.0  0.50906  0.65996  0.94892  1.0000
  H   H1463     1.0  0.66312  0.50558  0.59383  1.0000
  H   H1464     1.0  0.54129  0.51435  0.54652  1.0000
  C   C1829     1.0  0.54590  0.50440  0.54466  1.0000
  H   H1465     1.0  0.48299  0.51476  0.10456  1.0000
  C   C1830     1.0  0.59048  0.59104  0.97626  1.0000
  H   H1466     1.0  0.65342  0.58244  0.11058  1.0000
  C   C1831     1.0  0.68305  0.50566  0.00750  1.0000
  C   C1832     1.0  0.70303  0.52280  0.55817  1.0000
  C   C1833     1.0  0.48546  0.66945  0.52451  1.0000
  P   P61       1.0  0.51663  0.51331  0.09055  1.0000
  C   C1834     1.0  0.53767  0.52917  0.10640  1.0000
  C   C1835     1.0  0.51774  0.49831  0.05741  1.0000
  C   C1836     1.0  0.53367  0.49965  0.04516  1.0000
  C   C1837     1.0  0.69915  0.50162  0.69204  1.0000
  C   C1838     1.0  0.48856  0.65444  0.52838  1.0000
  H   H1467     1.0  0.48066  0.54794  0.02208  1.0000
  H   H1468     1.0  0.49453  0.64744  0.44184  1.0000
  C   C1839     1.0  0.54214  0.54708  0.10531  1.0000
  C   C1840     1.0  0.55791  0.55911  0.12038  1.0000
  C   C1841     1.0  0.56923  0.55339  0.13699  1.0000
  C   C1842     1.0  0.56481  0.53561  0.13854  1.0000
  C   C1843     1.0  0.54904  0.52356  0.12354  1.0000
  C   C1844     1.0  0.50464  0.52372  0.06898  1.0000
  H   H1469     1.0  0.64779  0.52648  0.98173  1.0000
  H   H1470     1.0  0.63159  0.49397  0.36154  1.0000
  C   C1845     1.0  0.56642  0.73336  0.18997  1.0000
  C   C1846     1.0  0.50281  0.54205  0.02176  1.0000
  C   C1847     1.0  0.51137  0.53324  0.03835  1.0000
  Fe  Fe127     1.0  0.47840  0.57182  0.57802  1.0000
  C   C1848     1.0  0.50290  0.51020  0.15793  1.0000
  H   H1471     1.0  0.61270  0.56928  0.91685  1.0000
  C   C1849     1.0  0.67297  0.60057  0.93694  1.0000
  C   C1850     1.0  0.49600  0.70957  0.17423  1.0000
  H   H1472     1.0  0.54577  0.51003  0.05458  1.0000
  H   H1473     1.0  0.55407  0.50812  0.19702  1.0000
  H   H1474     1.0  0.51697  0.52525  0.93808  1.0000
  C   C1851     1.0  0.60645  0.57518  0.93378  1.0000
  C   C1852     1.0  0.50430  0.51459  0.94067  1.0000
  H   H1475     1.0  0.53355  0.55191  0.09300  1.0000
  H   H1476     1.0  0.56136  0.57291  0.11903  1.0000
  H   H1477     1.0  0.58147  0.56270  0.14858  1.0000
  H   H1478     1.0  0.57369  0.53121  0.15128  1.0000
  H   H1479     1.0  0.54568  0.50982  0.12532  1.0000
  H   H1480     1.0  0.71000  0.53127  0.53705  1.0000
  C   C1853     1.0  0.49201  0.65352  0.46513  1.0000
  H   H1481     1.0  0.52342  0.53411  0.02761  1.0000
  H   H1482     1.0  0.58410  0.59704  0.99268  1.0000
  H   H1483     1.0  0.60776  0.54324  0.23523  1.0000
  S   S251      1.0  0.70631  0.49619  0.97277  1.0000
  P   P62       1.0  0.62782  0.57305  0.98860  1.0000
  H   H1484     1.0  0.69044  0.62771  0.94347  1.0000
  C   C1854     1.0  0.48723  0.54103  0.03500  1.0000
  C   C1855     1.0  0.59431  0.60119  0.51348  1.0000
  C   C1856     1.0  0.58120  0.59514  0.48718  1.0000
  C   C1857     1.0  0.56689  0.59898  0.48987  1.0000
  C   C1858     1.0  0.56556  0.60868  0.51901  1.0000
  C   C1859     1.0  0.57882  0.61510  0.54531  1.0000
  C   C1860     1.0  0.59315  0.61112  0.54245  1.0000
  P   P63       1.0  0.57641  0.62640  0.58456  1.0000
  C   C1861     1.0  0.56489  0.61055  0.61734  1.0000
  C   C1862     1.0  0.59764  0.64087  0.60222  1.0000
  C   C1863     1.0  0.60680  0.63454  0.62481  1.0000
  C   C1864     1.0  0.62324  0.64569  0.63850  1.0000
  C   C1865     1.0  0.63069  0.66321  0.62964  1.0000
  C   C1866     1.0  0.62172  0.66958  0.60700  1.0000
  C   C1867     1.0  0.60526  0.65846  0.59326  1.0000
  C   C1868     1.0  0.55371  0.59342  0.60685  1.0000
  C   C1869     1.0  0.54478  0.58122  0.63226  1.0000
  C   C1870     1.0  0.54662  0.58611  0.66823  1.0000
  C   C1871     1.0  0.55762  0.60315  0.67889  1.0000
  C   C1872     1.0  0.56674  0.61533  0.65360  1.0000
  C   C1873     1.0  0.56460  0.63918  0.57437  1.0000
  C   C1874     1.0  0.56533  0.64611  0.54048  1.0000
  C   C1875     1.0  0.55527  0.65499  0.53207  1.0000
  C   C1876     1.0  0.54467  0.65732  0.55757  1.0000
  C   C1877     1.0  0.54443  0.65109  0.59175  1.0000
  C   C1878     1.0  0.55442  0.64217  0.60022  1.0000
  H   H1485     1.0  0.60519  0.59782  0.51172  1.0000
  H   H1486     1.0  0.48985  0.48404  0.05213  1.0000
  H   H1487     1.0  0.67969  0.52615  0.54855  1.0000
  H   H1488     1.0  0.55394  0.61073  0.52128  1.0000
  H   H1489     1.0  0.60330  0.61535  0.56276  1.0000
  H   H1490     1.0  0.60125  0.62097  0.63177  1.0000
  H   H1491     1.0  0.63020  0.64073  0.65600  1.0000
  H   H1492     1.0  0.64343  0.67185  0.64030  1.0000
  H   H1493     1.0  0.62749  0.68317  0.60010  1.0000
  H   H1494     1.0  0.59856  0.66367  0.57573  1.0000
  H   H1495     1.0  0.55156  0.58949  0.57909  1.0000
  H   H1496     1.0  0.53604  0.56808  0.62394  1.0000
  H   H1497     1.0  0.53914  0.57686  0.68778  1.0000
  H   H1498     1.0  0.55850  0.60708  0.70665  1.0000
  H   H1499     1.0  0.57479  0.62860  0.66229  1.0000
  H   H1500     1.0  0.57336  0.64436  0.52029  1.0000
  H   H1501     1.0  0.55535  0.65976  0.50554  1.0000
  C   C1879     1.0  0.56931  0.49596  0.55536  1.0000
  H   H1502     1.0  0.55360  0.63711  0.62661  1.0000
  H   H1503     1.0  0.60671  0.58967  0.01889  1.0000
  H   H1504     1.0  0.47649  0.54961  0.84915  1.0000
  H   H1505     1.0  0.65333  0.57434  0.93536  1.0000
  S   S252      1.0  0.49061  0.70181  0.00620  1.0000
  C   C1880     1.0  0.64235  0.57936  0.05753  1.0000
  H   H1506     1.0  0.66656  0.51400  0.66312  1.0000
  C   C1881     1.0  0.61117  0.56285  0.05246  1.0000
  C   C1882     1.0  0.65336  0.60700  0.98915  1.0000
  H   H1507     1.0  0.50795  0.70498  0.07698  1.0000
  C   C1883     1.0  0.68595  0.51993  0.56472  1.0000
  H   H1508     1.0  0.50720  0.53541  0.54680  1.0000
  C   C1884     1.0  0.47809  0.64930  0.01112  1.0000
  C   C1885     1.0  0.51134  0.72215  0.16087  1.0000
  C   C1886     1.0  0.50376  0.49422  0.53389  1.0000
  H   H1509     1.0  0.62059  0.50494  0.95335  1.0000
  C   C1887     1.0  0.53413  0.48764  0.01988  1.0000
  H   H1510     1.0  0.48284  0.67548  0.54777  1.0000
  C   C1888     1.0  0.65569  0.49459  0.48507  1.0000
  S   S253      1.0  0.58507  0.48732  0.02493  1.0000
  C   C1889     1.0  0.53187  0.50268  0.41296  1.0000
  C   C1890     1.0  0.60212  0.49611  0.24734  1.0000
  C   C1891     1.0  0.53130  0.49674  0.44756  1.0000
  C   C1892     1.0  0.65761  0.58707  0.94793  1.0000
  H   H1511     1.0  0.49299  0.56723  0.75150  1.0000
  H   H1512     1.0  0.49824  0.52952  0.47348  1.0000
  C   C1893     1.0  0.50056  0.67795  0.97440  1.0000
  H   H1513     1.0  0.55642  0.59379  0.47011  1.0000
  H   H1514     1.0  0.54414  0.50865  0.39979  1.0000
  H   H1515     1.0  0.56624  0.70882  0.04011  1.0000
  C   C1894     1.0  0.48970  0.51793  0.94379  1.0000
  C   C1895     1.0  0.50045  0.66144  0.96808  1.0000
  H   H1516     1.0  0.54327  0.49817  0.46068  1.0000
  C   C1896     1.0  0.62588  0.55187  0.97472  1.0000
  C   C1897     1.0  0.66649  0.50423  0.01709  1.0000
  H   H1517     1.0  0.48976  0.55340  0.46293  1.0000
  C   C1898     1.0  0.51589  0.72085  0.12561  1.0000
  C   C1899     1.0  0.50219  0.52143  0.54905  1.0000
  C   C1900     1.0  0.47981  0.54027  0.46578  1.0000
  H   H1518     1.0  0.52077  0.51940  0.51386  1.0000
  C   C1901     1.0  0.50677  0.50154  0.12976  1.0000
  C   C1902     1.0  0.48459  0.52674  0.47172  1.0000
  C   C1903     1.0  0.61048  0.56072  0.08921  1.0000
  H   H1519     1.0  0.57533  0.59027  0.92946  1.0000
  C   C1904     1.0  0.68442  0.49957  0.61055  1.0000
  C   C1905     1.0  0.60316  0.58662  0.99108  1.0000
  H   H1520     1.0  0.59829  0.55274  0.10120  1.0000
  C   C1906     1.0  0.61042  0.53947  0.95897  1.0000
  C   C1907     1.0  0.62568  0.56795  0.11017  1.0000
  H   H1521     1.0  0.51390  0.49498  0.93838  1.0000
  H   H1522     1.0  0.64574  0.60970  0.00904  1.0000
  H   H1523     1.0  0.58976  0.57654  0.89139  1.0000
  C   C1908     1.0  0.64786  0.59015  0.97457  1.0000
  C   C1909     1.0  0.59360  0.57943  0.91917  1.0000
  H   H1524     1.0  0.47989  0.60153  0.69213  1.0000
  C   C1910     1.0  0.62215  0.51809  0.95877  1.0000
  C   C1911     1.0  0.67660  0.50824  0.59057  1.0000
  H   H1525     1.0  0.59947  0.54244  0.95401  1.0000
  H   H1526     1.0  0.49459  0.50883  0.21195  1.0000
  S   S254      1.0  0.60448  0.48857  0.10185  1.0000
  H   H1527     1.0  0.48828  0.64913  0.55437  1.0000
  H   H1528     1.0  0.64057  0.51745  0.68190  1.0000
  S   S255      1.0  0.63513  0.49557  0.48635  1.0000
  C   C1912     1.0  0.50252  0.49750  0.94071  1.0000
  C   C1913     1.0  0.65972  0.48509  0.51114  1.0000
  H   H1529     1.0  0.54316  0.71621  0.16160  1.0000
  H   H1530     1.0  0.70742  0.49499  0.61705  1.0000
  H   H1531     1.0  0.47904  0.63865  0.84891  1.0000
  H   H1532     1.0  0.49102  0.53117  0.94370  1.0000
  H   H1533     1.0  0.51736  0.50622  0.36902  1.0000
  C   C1914     1.0  0.65136  0.49089  0.00240  1.0000
  H   H1534     1.0  0.48963  0.67406  0.43542  1.0000
  C   C1915     1.0  0.71075  0.51392  0.57735  1.0000
  C   C1916     1.0  0.55317  0.72941  0.16422  1.0000
  C   C1917     1.0  0.55351  0.72171  0.06986  1.0000
  H   H1535     1.0  0.55057  0.70798  0.98347  1.0000
  C   C1918     1.0  0.54819  0.71397  0.00713  1.0000
  C   C1919     1.0  0.55341  0.49570  0.20506  1.0000
  H   H1536     1.0  0.56649  0.72330  0.20716  1.0000
  C   C1920     1.0  0.54124  0.72866  0.06879  1.0000
  H   H1537     1.0  0.72372  0.51564  0.57107  1.0000
  C   C1921     1.0  0.47814  0.66581  0.01731  1.0000
  Fe  Fe128     1.0  0.47646  0.71579  0.03631  1.0000
  C   C1922     1.0  0.63963  0.50461  0.67556  1.0000
  H   H1538     1.0  0.58244  0.49919  0.56472  1.0000
  H   H1539     1.0  0.52889  0.72025  0.98136  1.0000
  C   C1923     1.0  0.48907  0.48535  0.55438  1.0000
  C   C1924     1.0  0.48016  0.53116  0.06481  1.0000
  C   C1925     1.0  0.53605  0.72094  0.00586  1.0000
  H   H1540     1.0  0.51950  0.73302  0.17802  1.0000
  H   H1541     1.0  0.52261  0.73297  0.03523  1.0000
  C   C1926     1.0  0.53255  0.72821  0.03652  1.0000
  C   C1927     1.0  0.51545  0.48939  0.46495  1.0000
  H   H1542     1.0  0.54649  0.48875  0.01042  1.0000
  C   C1928     1.0  0.50094  0.49405  0.41279  1.0000
  C   C1929     1.0  0.53574  0.48804  0.52868  1.0000
  H   H1543     1.0  0.48924  0.49318  0.39950  1.0000
  C   C1930     1.0  0.49585  0.48512  0.19480  1.0000
  C   C1931     1.0  0.50554  0.48472  0.13486  1.0000
  C   C1932     1.0  0.50228  0.48505  0.04351  1.0000
  H   H1544     1.0  0.61241  0.49161  0.68667  1.0000
  C   C1933     1.0  0.62377  0.49005  0.67829  1.0000
  C   C1934     1.0  0.68462  0.48601  0.68326  1.0000
  C   C1935     1.0  0.65313  0.48605  0.65593  1.0000
  S   S256      1.0  0.49052  0.73306  0.40878  1.0000
  C   C1936     1.0  0.48610  0.48370  0.94376  1.0000
  P   P64       1.0  0.67223  0.48368  0.64251  1.0000
  H   H1545     1.0  0.63097  0.48628  0.29786  1.0000
  S   S257      1.0  0.48153  0.74440  0.16219  1.0000
  H   H1546     1.0  0.50895  0.95194  0.41419  1.0000
  C   C1937     1.0  0.51746  0.82735  0.37697  1.0000
  H   H1547     1.0  0.47983  0.86309  0.99700  1.0000
  C   C1938     1.0  0.55076  0.90430  0.30262  1.0000
  S   S258      1.0  0.50299  0.78208  0.44335  1.0000
  H   H1548     1.0  0.48759  0.74719  0.29320  1.0000
  H   H1549     1.0  0.53830  0.97411  0.09116  1.0000
  Fe  Fe129     1.0  0.51714  0.89741  0.86195  1.0000
  S   S259      1.0  0.53122  0.89975  0.91511  1.0000
  S   S260      1.0  0.52984  0.90131  0.80754  1.0000
  Fe  Fe130     1.0  0.50670  0.87672  0.93177  1.0000
  C   C1939     1.0  0.48334  0.88484  0.41082  1.0000
  Fe  Fe131     1.0  0.51892  0.91740  0.93270  1.0000
  S   S261      1.0  0.52974  0.94192  0.97027  1.0000
  H   H1550     1.0  0.51887  0.95322  0.89708  1.0000
  S   S262      1.0  0.50643  0.91619  0.87894  1.0000
  Fe  Fe132     1.0  0.48986  0.89952  0.52133  1.0000
  S   S263      1.0  0.51290  0.90225  0.48951  1.0000
  Fe  Fe133     1.0  0.50701  0.89911  0.59287  1.0000
  S   S264      1.0  0.53165  0.90222  0.56596  1.0000
  S   S265      1.0  0.49696  0.89349  0.64987  1.0000
  Fe  Fe134     1.0  0.52828  0.92248  0.53144  1.0000
  S   S266      1.0  0.55057  0.94960  0.52041  1.0000
  Fe  Fe135     1.0  0.51414  0.88179  0.52574  1.0000
  S   S267      1.0  0.51964  0.85849  0.50769  1.0000
  S   S268      1.0  0.50486  0.92053  0.56142  1.0000
  S   S269      1.0  0.48994  0.87785  0.55420  1.0000
  C   C1940     1.0  0.55476  0.96792  0.49247  1.0000
  H   H1551     1.0  0.52683  0.79818  0.07659  1.0000
  H   H1552     1.0  0.50310  0.96625  0.07785  1.0000
  H   H1553     1.0  0.50882  0.97520  0.97655  1.0000
  C   C1941     1.0  0.54334  0.96774  0.46506  1.0000
  H   H1554     1.0  0.47672  0.77573  0.55552  1.0000
  H   H1555     1.0  0.49587  0.75778  0.23202  1.0000
  H   H1556     1.0  0.53142  0.95618  0.46042  1.0000
  C   C1942     1.0  0.52036  0.89933  0.76403  1.0000
  C   C1943     1.0  0.53129  0.90469  0.73469  1.0000
  C   C1944     1.0  0.52444  0.90325  0.69970  1.0000
  C   C1945     1.0  0.50649  0.89628  0.69349  1.0000
  C   C1946     1.0  0.49553  0.89090  0.72282  1.0000
  C   C1947     1.0  0.50239  0.89240  0.75782  1.0000
  H   H1557     1.0  0.54519  0.91001  0.73907  1.0000
  H   H1558     1.0  0.53306  0.90742  0.67756  1.0000
  H   H1559     1.0  0.50597  0.89738  0.37956  1.0000
  H   H1560     1.0  0.58966  0.77630  0.17398  1.0000
  Fe  Fe136     1.0  0.48337  0.75322  0.43572  1.0000
  C   C1948     1.0  0.54404  0.97559  0.99852  1.0000
  C   C1949     1.0  0.54416  0.96471  0.96991  1.0000
  C   C1950     1.0  0.55594  0.97218  0.94288  1.0000
  H   H1561     1.0  0.47919  0.79813  0.46523  1.0000
  C   C1951     1.0  0.48101  0.97273  0.87600  1.0000
  H   H1562     1.0  0.53514  0.97000  0.01972  1.0000
  H   H1563     1.0  0.55644  0.96409  0.92087  1.0000
  C   C1952     1.0  0.51348  0.83689  0.48972  1.0000
  C   C1953     1.0  0.52679  0.83219  0.48070  1.0000
  C   C1954     1.0  0.52312  0.81556  0.46645  1.0000
  C   C1955     1.0  0.50601  0.80295  0.46117  1.0000
  C   C1956     1.0  0.49246  0.80758  0.46960  1.0000
  C   C1957     1.0  0.49621  0.82455  0.48354  1.0000
  H   H1564     1.0  0.54016  0.84149  0.48480  1.0000
  H   H1565     1.0  0.53373  0.81234  0.46002  1.0000
  C   C1958     1.0  0.54127  0.93910  0.12681  1.0000
  C   C1959     1.0  0.53115  0.88682  0.34736  1.0000
  H   H1566     1.0  0.55033  0.76364  0.05394  1.0000
  H   H1567     1.0  0.55833  0.93772  0.44514  1.0000
  H   H1568     1.0  0.51880  0.82648  0.57674  1.0000
  C   C1960     1.0  0.48011  0.73954  0.27053  1.0000
  C   C1961     1.0  0.54785  0.89835  0.33737  1.0000
  C   C1962     1.0  0.53635  0.94887  0.10345  1.0000
  C   C1963     1.0  0.48596  0.82001  0.94910  1.0000
  H   H1569     1.0  0.56640  0.76950  0.12847  1.0000
  C   C1964     1.0  0.52537  0.80757  0.55148  1.0000
  H   H1570     1.0  0.49932  0.92023  0.80075  1.0000
  H   H1571     1.0  0.53937  0.90316  0.25058  1.0000
  C   C1965     1.0  0.51377  0.81323  0.56674  1.0000
  C   C1966     1.0  0.49274  0.82753  0.61850  1.0000
  S   S270      1.0  0.49396  0.87335  0.87738  1.0000
  C   C1967     1.0  0.56621  0.75931  0.14553  1.0000
  C   C1968     1.0  0.51079  0.85858  0.62584  1.0000
  H   H1572     1.0  0.49528  0.80215  0.03757  1.0000
  C   C1969     1.0  0.49607  0.80190  0.56846  1.0000
  H   H1573     1.0  0.49721  0.76634  0.52726  1.0000
  C   C1970     1.0  0.53707  0.89860  0.27754  1.0000
  C   C1971     1.0  0.50184  0.77933  0.53887  1.0000
  H   H1574     1.0  0.50331  0.84285  0.37273  1.0000
  C   C1972     1.0  0.56196  0.91865  0.47667  1.0000
  H   H1575     1.0  0.54065  0.91648  0.39847  1.0000
  H   H1576     1.0  0.51753  0.86839  0.67968  1.0000
  C   C1973     1.0  0.49907  0.95471  0.42689  1.0000
  S   S271      1.0  0.50646  0.85509  0.96938  1.0000
  H   H1577     1.0  0.56037  0.84269  0.39889  1.0000
  H   H1578     1.0  0.55867  0.90266  0.35633  1.0000
  H   H1579     1.0  0.50620  0.77313  0.36848  1.0000
  C   C1974     1.0  0.51523  0.78455  0.31783  1.0000
  C   C1975     1.0  0.54792  0.84281  0.39314  1.0000
  H   H1580     1.0  0.52827  0.78646  0.52452  1.0000
  C   C1976     1.0  0.50198  0.84393  0.60380  1.0000
  H   H1581     1.0  0.52069  0.79631  0.26659  1.0000
  C   C1977     1.0  0.51752  0.88088  0.32189  1.0000
  C   C1978     1.0  0.50172  0.84075  0.67758  1.0000
  C   C1979     1.0  0.49981  0.82511  0.00712  1.0000
  C   C1980     1.0  0.54827  0.88899  0.45366  1.0000
  H   H1582     1.0  0.51656  0.75467  0.14287  1.0000
  H   H1583     1.0  0.56922  0.92798  0.49759  1.0000
  H   H1584     1.0  0.50239  0.84541  0.57524  1.0000
  S   S272      1.0  0.49522  0.89460  0.95232  1.0000
  C   C1981     1.0  0.55582  0.92414  0.44695  1.0000
  C   C1982     1.0  0.51066  0.85700  0.66268  1.0000
  C   C1983     1.0  0.52895  0.78687  0.08324  1.0000
  C   C1984     1.0  0.49479  0.79105  0.28256  1.0000
  H   H1585     1.0  0.55754  0.87037  0.40175  1.0000
  H   H1586     1.0  0.53471  0.81506  0.38365  1.0000
  H   H1587     1.0  0.56241  0.89674  0.50368  1.0000
  C   C1985     1.0  0.49283  0.82605  0.65564  1.0000
  Fe  Fe137     1.0  0.48405  0.89236  0.89717  1.0000
  H   H1588     1.0  0.58979  0.75330  0.21352  1.0000
  C   C1986     1.0  0.51575  0.84296  0.37891  1.0000
  H   H1589     1.0  0.48582  0.82810  0.48968  1.0000
  H   H1590     1.0  0.53992  0.95108  0.85592  1.0000
  C   C1987     1.0  0.53352  0.82725  0.38429  1.0000
  H   H1591     1.0  0.50068  0.95070  0.01740  1.0000
  H   H1592     1.0  0.56368  0.91326  0.29511  1.0000
  C   C1988     1.0  0.49816  0.93943  0.76565  1.0000
  H   H1593     1.0  0.48611  0.81361  0.66789  1.0000
  C   C1989     1.0  0.54585  0.91206  0.42058  1.0000
  C   C1990     1.0  0.48419  0.94190  0.91962  1.0000
  H   H1594     1.0  0.54495  0.87539  0.45752  1.0000
  H   H1595     1.0  0.50321  0.85354  0.43896  1.0000
  C   C1991     1.0  0.52311  0.76212  0.12037  1.0000
  C   C1992     1.0  0.50023  0.96225  0.96711  1.0000
  H   H1596     1.0  0.54595  0.78968  0.03981  1.0000
  H   H1597     1.0  0.47577  0.85070  0.46440  1.0000
  C   C1993     1.0  0.49023  0.78486  0.55441  1.0000
  H   H1598     1.0  0.49301  0.95641  0.73038  1.0000
  C   C1994     1.0  0.54739  0.98249  0.44365  1.0000
  C   C1995     1.0  0.49661  0.83187  0.97519  1.0000
  H   H1599     1.0  0.51916  0.98319  0.49302  1.0000
  C   C1996     1.0  0.50301  0.77805  0.34433  1.0000
  C   C1997     1.0  0.54148  0.97268  0.82470  1.0000
  H   H1600     1.0  0.50631  0.81525  0.37035  1.0000
  H   H1601     1.0  0.52786  0.78451  0.32128  1.0000
  H   H1602     1.0  0.49378  0.88814  0.77998  1.0000
  C   C1998     1.0  0.52996  0.85855  0.38910  1.0000
  H   H1603     1.0  0.56584  0.97099  0.18609  1.0000
  C   C1999     1.0  0.52047  0.88685  0.28714  1.0000
  H   H1604     1.0  0.51772  0.87123  0.61442  1.0000
  C   C2000     1.0  0.47877  0.80185  0.95480  1.0000
  H   H1605     1.0  0.51211  0.94581  0.76273  1.0000
  H   H1606     1.0  0.51237  0.78059  0.12849  1.0000
  C   C2001     1.0  0.51940  0.79067  0.53742  1.0000
  C   C2002     1.0  0.54214  0.89439  0.42358  1.0000
  C   C2003     1.0  0.49901  0.97102  0.42356  1.0000
  C   C2004     1.0  0.53322  0.75671  0.09876  1.0000
  P   P65       1.0  0.52752  0.87863  0.39172  1.0000
  H   H1607     1.0  0.52850  0.94269  0.07984  1.0000
  C   C2005     1.0  0.50613  0.87499  0.40580  1.0000
  C   C2006     1.0  0.55816  0.90109  0.48004  1.0000
  C   C2007     1.0  0.54621  0.85844  0.39518  1.0000
  C   C2008     1.0  0.53964  0.78201  0.06242  1.0000
  C   C2009     1.0  0.49907  0.88661  0.39664  1.0000
  C   C2010     1.0  0.52083  0.77701  0.11243  1.0000
  H   H1608     1.0  0.48656  0.78241  0.63142  1.0000
  H   H1609     1.0  0.50181  0.83961  0.70620  1.0000
  C   C2011     1.0  0.57954  0.75026  0.19354  1.0000
  H   H1610     1.0  0.50467  0.87156  0.32882  1.0000
  H   H1611     1.0  0.53893  0.81648  0.54963  1.0000
  C   C2012     1.0  0.49754  0.86202  0.43019  1.0000
  H   H1612     1.0  0.48975  0.96954  0.82365  1.0000
  P   P66       1.0  0.50086  0.97619  0.89994  1.0000
  H   H1613     1.0  0.49197  0.79646  0.25879  1.0000
  H   H1614     1.0  0.55568  0.93958  0.17466  1.0000
  H   H1615     1.0  0.47812  0.89410  0.40461  1.0000
  C   C2013     1.0  0.53520  0.96095  0.85216  1.0000
  C   C2014     1.0  0.51672  0.97469  0.87050  1.0000
  C   C2015     1.0  0.52302  0.96206  0.87524  1.0000
  H   H1616     1.0  0.48026  0.93901  0.89188  1.0000
  C   C2016     1.0  0.48492  0.93150  0.97868  1.0000
  H   H1617     1.0  0.48357  0.82485  0.92425  1.0000
  C   C2017     1.0  0.51116  0.79116  0.28705  1.0000
  C   C2018     1.0  0.54194  0.76711  0.07034  1.0000
  C   C2019     1.0  0.57946  0.76321  0.17129  1.0000
  H   H1618     1.0  0.50805  0.83402  0.02756  1.0000
  C   C2020     1.0  0.48218  0.78384  0.30844  1.0000
  H   H1619     1.0  0.48163  0.88550  0.71842  1.0000
  C   C2021     1.0  0.55285  0.97500  0.13946  1.0000
  H   H1620     1.0  0.52453  0.98298  0.16401  1.0000
  H   H1621     1.0  0.53844  0.98209  0.42264  1.0000
  C   C2022     1.0  0.55178  0.94715  0.15670  1.0000
  C   C2023     1.0  0.48481  0.74549  0.23566  1.0000
  C   C2024     1.0  0.48634  0.97463  0.44018  1.0000
  H   H1622     1.0  0.50992  0.88229  0.26756  1.0000
  C   C2025     1.0  0.48199  0.79508  0.98672  1.0000
  C   C2026     1.0  0.55292  0.74239  0.14197  1.0000
  C   C2027     1.0  0.50093  0.97587  0.06265  1.0000
  C   C2028     1.0  0.54196  0.96669  0.10991  1.0000
  S   S273      1.0  0.49029  0.74349  0.05831  1.0000
  H   H1623     1.0  0.53711  0.92532  0.12146  1.0000
  C   C2029     1.0  0.49094  0.92497  0.78708  1.0000
  C   C2030     1.0  0.48404  0.97401  0.05590  1.0000
  C   C2031     1.0  0.49543  0.94846  0.99056  1.0000
  P   P67       1.0  0.48098  0.80862  0.58990  1.0000
  C   C2032     1.0  0.49257  0.80695  0.01290  1.0000
  C   C2033     1.0  0.48662  0.77787  0.33980  1.0000
  C   C2034     1.0  0.55757  0.96504  0.16304  1.0000
  C   C2035     1.0  0.49457  0.95901  0.93144  1.0000
  C   C2036     1.0  0.48739  0.94538  0.74751  1.0000
  H   H1624     1.0  0.48171  0.92077  0.99655  1.0000
  C   C2037     1.0  0.48192  0.86035  0.44458  1.0000
  H   H1625     1.0  0.48628  0.92924  0.44902  1.0000
  P   P68       1.0  0.53585  0.73720  0.10867  1.0000
  C   C2038     1.0  0.48632  0.94193  0.44646  1.0000
  C   C2039     1.0  0.47923  0.96969  0.83902  1.0000
  H   H1626     1.0  0.55103  0.97184  0.80707  1.0000
  C   C2040     1.0  0.47931  0.92825  0.94321  1.0000
  H   H1627     1.0  0.47751  0.77321  0.36093  1.0000
  H   H1628     1.0  0.50881  0.98088  0.40811  1.0000
  C   C2041     1.0  0.57031  0.98313  0.49771  1.0000
  H   H1629     1.0  0.57940  0.98350  0.51847  1.0000
  H   H1630     1.0  0.86389  0.22802  0.46570  1.0000
  S   S274      1.0  0.73035  0.21653  0.56580  1.0000
  H   H1631     1.0  0.74592  0.19198  0.91009  1.0000
  C   C2042     1.0  0.73341  0.18675  0.89632  1.0000
  C   C2043     1.0  0.73200  0.19153  0.86153  1.0000
  S   S275      1.0  0.73661  0.22597  0.92587  1.0000
  H   H1632     1.0  0.74341  0.20050  0.84823  1.0000
  C   C2044     1.0  0.72646  0.22984  0.77579  1.0000
  C   C2045     1.0  0.73110  0.22717  0.71188  1.0000
  C   C2046     1.0  0.73617  0.22742  0.74801  1.0000
  H   H1633     1.0  0.73876  0.22526  0.69109  1.0000
  S   S276      1.0  0.73368  0.22999  0.82098  1.0000
  H   H1634     1.0  0.74776  0.22574  0.75445  1.0000
  Fe  Fe138     1.0  0.86998  0.37596  0.40094  1.0000
  S   S277      1.0  0.87286  0.36748  0.45578  1.0000
  S   S278      1.0  0.86399  0.39855  0.38778  1.0000
  Fe  Fe139     1.0  0.87295  0.34561  0.36435  1.0000
  S   S279      1.0  0.87630  0.33473  0.41716  1.0000
  S   S280      1.0  0.86795  0.33165  0.30979  1.0000
  Fe  Fe140     1.0  0.85409  0.34039  0.43646  1.0000
  S   S281      1.0  0.83057  0.32479  0.47216  1.0000
  Fe  Fe141     1.0  0.89483  0.36266  0.43276  1.0000
  S   S282      1.0  0.92050  0.36928  0.46528  1.0000
  S   S283      1.0  0.85001  0.34968  0.38316  1.0000
  S   S284      1.0  0.89270  0.37274  0.37851  1.0000
  Fe  Fe142     1.0  0.89190  0.35746  0.10284  1.0000
  S   S285      1.0  0.89606  0.34352  0.05444  1.0000
  S   S286      1.0  0.90260  0.35944  0.16017  1.0000
  Fe  Fe143     1.0  0.87828  0.37823  0.05629  1.0000
  S   S287      1.0  0.88135  0.36585  0.00551  1.0000
  S   S288      1.0  0.86695  0.39787  0.05870  1.0000
  Fe  Fe144     1.0  0.86939  0.34072  0.03513  1.0000
  S   S289      1.0  0.84848  0.31518  0.00916  1.0000
  Fe  Fe145     1.0  0.90766  0.36980  0.02830  1.0000
  S   S290      1.0  0.93196  0.38548  0.99468  1.0000
  S   S291      1.0  0.86504  0.35321  0.08490  1.0000
  S   S292      1.0  0.90471  0.38353  0.07749  1.0000
  H   H1635     1.0  0.75469  0.46191  0.67180  1.0000
  C   C2047     1.0  0.78154  0.28387  0.08805  1.0000
  S   S293      1.0  0.76519  0.27410  0.98379  1.0000
  S   S294      1.0  0.74470  0.45427  0.56988  1.0000
  C   C2048     1.0  0.74469  0.36542  0.92037  1.0000
  H   H1636     1.0  0.89459  0.26263  0.55013  1.0000
  S   S295      1.0  0.91946  0.47550  0.03061  1.0000
  S   S296      1.0  0.91270  0.47064  0.46239  1.0000
  H   H1637     1.0  0.74191  0.23416  0.41366  1.0000
  H   H1638     1.0  0.87241  0.44930  0.14284  1.0000
  C   C2049     1.0  0.84152  0.31144  0.11467  1.0000
  C   C2050     1.0  0.86387  0.45241  0.12582  1.0000
  C   C2051     1.0  0.78366  0.30660  0.14428  1.0000
  H   H1639     1.0  0.86140  0.46234  0.26515  1.0000
  C   C2052     1.0  0.88134  0.41926  0.04872  1.0000
  C   C2053     1.0  0.87515  0.43202  0.04552  1.0000
  C   C2054     1.0  0.88665  0.44939  0.03964  1.0000
  C   C2055     1.0  0.90437  0.45395  0.03659  1.0000
  C   C2056     1.0  0.91047  0.44112  0.03900  1.0000
  C   C2057     1.0  0.89900  0.42380  0.04489  1.0000
  H   H1640     1.0  0.86142  0.42842  0.04714  1.0000
  H   H1641     1.0  0.88179  0.45919  0.03730  1.0000
  H   H1642     1.0  0.92412  0.44460  0.03583  1.0000
  H   H1643     1.0  0.90379  0.41397  0.04631  1.0000
  C   C2058     1.0  0.82525  0.30422  0.00223  1.0000
  C   C2059     1.0  0.81380  0.31046  0.01631  1.0000
  C   C2060     1.0  0.79561  0.30113  0.01026  1.0000
  C   C2061     1.0  0.78844  0.28546  0.98987  1.0000
  C   C2062     1.0  0.79989  0.27921  0.97598  1.0000
  C   C2063     1.0  0.81805  0.28848  0.98213  1.0000
  H   H1644     1.0  0.81893  0.32241  0.03204  1.0000
  H   H1645     1.0  0.78701  0.30607  0.02172  1.0000
  H   H1646     1.0  0.79471  0.26707  0.96090  1.0000
  H   H1647     1.0  0.82663  0.28333  0.97133  1.0000
  C   C2064     1.0  0.96321  0.38211  0.00529  1.0000
  C   C2065     1.0  0.95463  0.39100  0.98882  1.0000
  H   H1648     1.0  0.95604  0.37149  0.02240  1.0000
  H   H1649     1.0  0.81398  0.41249  0.39890  1.0000
  C   C2066     1.0  0.81042  0.30571  0.47734  1.0000
  C   C2067     1.0  0.80199  0.30309  0.51012  1.0000
  C   C2068     1.0  0.78639  0.28811  0.51599  1.0000
  C   C2069     1.0  0.77893  0.27526  0.48920  1.0000
  C   C2070     1.0  0.78716  0.27806  0.45616  1.0000
  C   C2071     1.0  0.80264  0.29313  0.45017  1.0000
  H   H1650     1.0  0.80770  0.31265  0.53143  1.0000
  H   H1651     1.0  0.78039  0.28629  0.54160  1.0000
  H   H1652     1.0  0.78163  0.26834  0.43509  1.0000
  H   H1653     1.0  0.80856  0.29491  0.42453  1.0000
  C   C2072     1.0  0.87738  0.34022  0.26841  1.0000
  C   C2073     1.0  0.89249  0.35570  0.26626  1.0000
  C   C2074     1.0  0.89997  0.36144  0.23296  1.0000
  C   C2075     1.0  0.89217  0.35213  0.20129  1.0000
  C   C2076     1.0  0.87706  0.33672  0.20349  1.0000
  C   C2077     1.0  0.86976  0.33078  0.23680  1.0000
  H   H1654     1.0  0.89872  0.36295  0.29033  1.0000
  H   H1655     1.0  0.91199  0.37306  0.23181  1.0000
  H   H1656     1.0  0.87125  0.32919  0.17949  1.0000
  H   H1657     1.0  0.85826  0.31865  0.23814  1.0000
  C   C2078     1.0  0.94205  0.38600  0.47528  1.0000
  C   C2079     1.0  0.79712  0.29240  0.10755  1.0000
  C   C2080     1.0  0.82169  0.47341  0.71135  1.0000
  C   C2081     1.0  0.87757  0.41829  0.40922  1.0000
  C   C2082     1.0  0.89216  0.42001  0.42941  1.0000
  C   C2083     1.0  0.90287  0.43611  0.44585  1.0000
  C   C2084     1.0  0.89903  0.45048  0.44206  1.0000
  C   C2085     1.0  0.88419  0.44851  0.42255  1.0000
  C   C2086     1.0  0.87357  0.43252  0.40600  1.0000
  H   H1658     1.0  0.89519  0.40898  0.43240  1.0000
  H   H1659     1.0  0.91409  0.43737  0.46164  1.0000
  H   H1660     1.0  0.88059  0.45912  0.42093  1.0000
  H   H1661     1.0  0.86208  0.43111  0.39109  1.0000
  C   C2087     1.0  0.86109  0.31381  0.51269  1.0000
  C   C2088     1.0  0.90118  0.40335  0.16808  1.0000
  C   C2089     1.0  0.89860  0.41502  0.14583  1.0000
  C   C2090     1.0  0.89483  0.42816  0.16033  1.0000
  C   C2091     1.0  0.89356  0.42964  0.19717  1.0000
  C   C2092     1.0  0.89644  0.41808  0.21984  1.0000
  C   C2093     1.0  0.89983  0.40468  0.20482  1.0000
  P   P69       1.0  0.89281  0.41818  0.26702  1.0000
  C   C2094     1.0  0.90975  0.41666  0.29426  1.0000
  C   C2095     1.0  0.89174  0.43782  0.28291  1.0000
  C   C2096     1.0  0.90406  0.45410  0.27229  1.0000
  H   H1662     1.0  0.79299  0.24571  0.47666  1.0000
  C   C2097     1.0  0.88527  0.25966  0.52824  1.0000
  C   C2098     1.0  0.87995  0.45243  0.32313  1.0000
  C   C2099     1.0  0.87984  0.43709  0.30893  1.0000
  C   C2100     1.0  0.90775  0.41523  0.33119  1.0000
  C   C2101     1.0  0.92063  0.41405  0.35296  1.0000
  C   C2102     1.0  0.93560  0.41426  0.33808  1.0000
  C   C2103     1.0  0.93787  0.41601  0.30143  1.0000
  C   C2104     1.0  0.92507  0.41737  0.27957  1.0000
  C   C2105     1.0  0.87241  0.39959  0.27274  1.0000
  C   C2106     1.0  0.85708  0.39966  0.25867  1.0000
  C   C2107     1.0  0.84127  0.38497  0.26113  1.0000
  C   C2108     1.0  0.84070  0.37011  0.27747  1.0000
  C   C2109     1.0  0.85594  0.36990  0.29111  1.0000
  C   C2110     1.0  0.87176  0.38453  0.28866  1.0000
  H   H1663     1.0  0.90381  0.39297  0.15672  1.0000
  H   H1664     1.0  0.89914  0.41362  0.11727  1.0000
  H   H1665     1.0  0.89256  0.43694  0.14270  1.0000
  H   H1666     1.0  0.88992  0.43948  0.20758  1.0000
  H   H1667     1.0  0.90105  0.39499  0.22146  1.0000
  H   H1668     1.0  0.91392  0.45495  0.25371  1.0000
  H   H1669     1.0  0.79645  0.25038  0.88983  1.0000
  H   H1670     1.0  0.73531  0.39487  0.24410  1.0000
  H   H1671     1.0  0.87109  0.45187  0.34381  1.0000
  H   H1672     1.0  0.87090  0.42475  0.31928  1.0000
  H   H1673     1.0  0.89611  0.41480  0.34321  1.0000
  H   H1674     1.0  0.91883  0.41268  0.38139  1.0000
  H   H1675     1.0  0.94539  0.41299  0.35505  1.0000
  H   H1676     1.0  0.81610  0.28155  0.90070  1.0000
  H   H1677     1.0  0.92722  0.41893  0.25140  1.0000
  H   H1678     1.0  0.85740  0.41102  0.24559  1.0000
  H   H1679     1.0  0.82948  0.38507  0.25028  1.0000
  H   H1680     1.0  0.82848  0.35874  0.27955  1.0000
  H   H1681     1.0  0.85557  0.35838  0.30361  1.0000
  H   H1682     1.0  0.88338  0.38388  0.29900  1.0000
  C   C2111     1.0  0.85024  0.43883  0.10769  1.0000
  C   C2112     1.0  0.83884  0.44236  0.08576  1.0000
  C   C2113     1.0  0.84078  0.45942  0.08281  1.0000
  C   C2114     1.0  0.72854  0.32898  0.96460  1.0000
  C   C2115     1.0  0.74465  0.33679  0.98281  1.0000
  H   H1683     1.0  0.95279  0.40286  0.06003  1.0000
  H   H1684     1.0  0.84876  0.42559  0.10997  1.0000
  H   H1685     1.0  0.82853  0.43190  0.07097  1.0000
  H   H1686     1.0  0.74650  0.41227  0.62739  1.0000
  H   H1687     1.0  0.74493  0.28541  0.54491  1.0000
  H   H1688     1.0  0.75053  0.26553  0.42030  1.0000
  H   H1689     1.0  0.81486  0.26820  0.57873  1.0000
  C   C2116     1.0  0.94387  0.34450  0.08870  1.0000
  C   C2117     1.0  0.73762  0.28527  0.48992  1.0000
  C   C2118     1.0  0.78193  0.28602  0.86121  1.0000
  H   H1690     1.0  0.95024  0.43211  0.98076  1.0000
  C   C2119     1.0  0.77216  0.42780  0.64940  1.0000
  H   H1691     1.0  0.72685  0.43367  0.41344  1.0000
  H   H1692     1.0  0.80313  0.32686  0.71227  1.0000
  C   C2120     1.0  0.73211  0.23907  0.41203  1.0000
  C   C2121     1.0  0.80424  0.25362  0.49320  1.0000
  H   H1693     1.0  0.79928  0.31650  0.36382  1.0000
  H   H1694     1.0  0.95931  0.45690  0.03237  1.0000
  H   H1695     1.0  0.96496  0.41488  0.82304  1.0000
  Fe  Fe146     1.0  0.73586  0.23961  0.53003  1.0000
  C   C2122     1.0  0.79801  0.32246  0.73824  1.0000
  C   C2123     1.0  0.75337  0.38073  0.90175  1.0000
  C   C2124     1.0  0.74513  0.39143  0.89408  1.0000
  C   C2125     1.0  0.96325  0.36797  0.76956  1.0000
  H   H1696     1.0  0.76758  0.24198  0.86056  1.0000
  C   C2126     1.0  0.96194  0.37987  0.10778  1.0000
  C   C2127     1.0  0.94610  0.45370  0.96010  1.0000
  C   C2128     1.0  0.89195  0.46854  0.31175  1.0000
  C   C2129     1.0  0.91604  0.44714  0.94530  1.0000
  C   C2130     1.0  0.91090  0.43011  0.95645  1.0000
  C   C2131     1.0  0.92331  0.42476  0.96900  1.0000
  C   C2132     1.0  0.93006  0.47296  0.16078  1.0000
  C   C2133     1.0  0.74323  0.28332  0.81467  1.0000
  H   H1697     1.0  0.85119  0.24843  0.45104  1.0000
  C   C2134     1.0  0.81652  0.26637  0.55076  1.0000
  C   C2135     1.0  0.76984  0.46422  0.75623  1.0000
  H   H1698     1.0  0.94146  0.47046  0.16301  1.0000
  H   H1699     1.0  0.77488  0.29468  0.32733  1.0000
  C   C2136     1.0  0.79009  0.32951  0.94299  1.0000
  C   C2137     1.0  0.78386  0.32014  0.88100  1.0000
  H   H1700     1.0  0.96922  0.47060  0.47358  1.0000
  H   H1701     1.0  0.80555  0.30281  0.80998  1.0000
  C   C2138     1.0  0.73203  0.31440  0.50829  1.0000
  H   H1702     1.0  0.79382  0.32559  0.42327  1.0000
  C   C2139     1.0  0.79924  0.30885  0.79360  1.0000
  C   C2140     1.0  0.97284  0.46350  0.37269  1.0000
  C   C2141     1.0  0.96160  0.35324  0.08250  1.0000
  C   C2142     1.0  0.77245  0.29893  0.35306  1.0000
  P   P70       1.0  0.79080  0.47632  0.69714  1.0000
  H   H1703     1.0  0.89727  0.42114  0.95603  1.0000
  C   C2143     1.0  0.90400  0.46940  0.28635  1.0000
  H   H1704     1.0  0.73542  0.43409  0.64255  1.0000
  C   C2144     1.0  0.94717  0.43269  0.13276  1.0000
  H   H1705     1.0  0.87540  0.46322  0.20815  1.0000
  C   C2145     1.0  0.96014  0.41359  0.11345  1.0000
  C   C2146     1.0  0.76815  0.29815  0.12447  1.0000
  P   P71       1.0  0.73082  0.28661  0.41767  1.0000
  C   C2147     1.0  0.87570  0.45158  0.51474  1.0000
  C   C2148     1.0  0.79850  0.29057  0.25353  1.0000
  C   C2149     1.0  0.86639  0.46975  0.12209  1.0000
  C   C2150     1.0  0.80215  0.25609  0.52925  1.0000
  H   H1706     1.0  0.93487  0.41844  0.04734  1.0000
  C   C2151     1.0  0.82204  0.31818  0.27051  1.0000
  C   C2152     1.0  0.86798  0.24017  0.48067  1.0000
  C   C2153     1.0  0.83418  0.30757  0.14832  1.0000
  C   C2154     1.0  0.86630  0.28547  0.37484  1.0000
  H   H1707     1.0  0.96394  0.42597  0.16574  1.0000
  H   H1708     1.0  0.75519  0.28040  0.08054  1.0000
  C   C2155     1.0  0.85423  0.47297  0.10145  1.0000
  H   H1709     1.0  0.88575  0.44715  0.51909  1.0000
  C   C2156     1.0  0.75403  0.32713  0.99046  1.0000
  H   H1710     1.0  0.74985  0.35031  0.99145  1.0000
  C   C2157     1.0  0.83298  0.27433  0.53613  1.0000
  C   C2158     1.0  0.95663  0.35738  0.73907  1.0000
  H   H1711     1.0  0.83744  0.31862  0.09604  1.0000
  C   C2159     1.0  0.80099  0.29491  0.21773  1.0000
  H   H1712     1.0  0.83399  0.29450  0.19753  1.0000
  C   C2160     1.0  0.97447  0.47005  0.88650  1.0000
  C   C2161     1.0  0.79741  0.34687  0.93302  1.0000
  H   H1713     1.0  0.75442  0.30197  0.98659  1.0000
  S   S297      1.0  0.72861  0.46379  0.96851  1.0000
  H   H1714     1.0  0.77715  0.47215  0.84526  1.0000
  H   H1715     1.0  0.76642  0.33319  0.00457  1.0000
  C   C2162     1.0  0.90695  0.47439  0.12471  1.0000
  H   H1716     1.0  0.75189  0.40341  0.88010  1.0000
  C   C2163     1.0  0.87088  0.47303  0.21427  1.0000
  H   H1717     1.0  0.81809  0.42000  0.33579  1.0000
  H   H1718     1.0  0.75923  0.45696  0.73781  1.0000
  H   H1719     1.0  0.76653  0.38435  0.89340  1.0000
  C   C2164     1.0  0.77692  0.45599  0.67488  1.0000
  C   C2165     1.0  0.85398  0.30578  0.10447  1.0000
  C   C2166     1.0  0.85922  0.29621  0.12771  1.0000
  C   C2167     1.0  0.85187  0.29214  0.16113  1.0000
  C   C2168     1.0  0.83935  0.29773  0.17142  1.0000
  H   H1720     1.0  0.78430  0.31538  0.16599  1.0000
  H   H1721     1.0  0.85956  0.30880  0.07840  1.0000
  H   H1722     1.0  0.86898  0.29196  0.11976  1.0000
  H   H1723     1.0  0.85601  0.28479  0.17921  1.0000
  H   H1724     1.0  0.79306  0.28546  0.19766  1.0000
  H   H1725     1.0  0.76436  0.31354  0.44632  1.0000
  C   C2169     1.0  0.82881  0.38550  0.45713  1.0000
  C   C2170     1.0  0.81665  0.37568  0.48171  1.0000
  C   C2171     1.0  0.80754  0.38317  0.50088  1.0000
  C   C2172     1.0  0.81066  0.40051  0.49560  1.0000
  C   C2173     1.0  0.82282  0.41044  0.47078  1.0000
  C   C2174     1.0  0.83189  0.40277  0.45170  1.0000
  P   P72       1.0  0.82778  0.43315  0.46506  1.0000
  C   C2175     1.0  0.81024  0.43783  0.48086  1.0000
  C   C2176     1.0  0.84749  0.44667  0.48964  1.0000
  C   C2177     1.0  0.85053  0.46363  0.50051  1.0000
  H   H1726     1.0  0.75837  0.26429  0.84234  1.0000
  H   H1727     1.0  0.74523  0.28182  0.35060  1.0000
  H   H1728     1.0  0.96237  0.38098  0.24512  1.0000
  C   C2178     1.0  0.86023  0.44074  0.49688  1.0000
  C   C2179     1.0  0.80941  0.44152  0.51713  1.0000
  C   C2180     1.0  0.79631  0.44588  0.52924  1.0000
  C   C2181     1.0  0.82063  0.26171  0.47839  1.0000
  H   H1729     1.0  0.87518  0.28344  0.35713  1.0000
  C   C2182     1.0  0.79749  0.43816  0.45712  1.0000
  C   C2183     1.0  0.83080  0.43846  0.41861  1.0000
  C   C2184     1.0  0.84121  0.45556  0.40870  1.0000
  C   C2185     1.0  0.84322  0.45982  0.37286  1.0000
  C   C2186     1.0  0.83493  0.44702  0.34655  1.0000
  C   C2187     1.0  0.82452  0.42996  0.35613  1.0000
  C   C2188     1.0  0.82232  0.42571  0.39201  1.0000
  H   H1730     1.0  0.83606  0.37981  0.44248  1.0000
  H   H1731     1.0  0.81442  0.36232  0.48605  1.0000
  H   H1732     1.0  0.79818  0.37556  0.52008  1.0000
  H   H1733     1.0  0.80362  0.40609  0.51101  1.0000
  H   H1734     1.0  0.84153  0.41018  0.43287  1.0000
  H   H1735     1.0  0.84115  0.46872  0.49436  1.0000
  C   C2189     1.0  0.85504  0.29217  0.36169  1.0000
  C   C2190     1.0  0.73658  0.47948  0.76898  1.0000
  P   P73       1.0  0.97356  0.40234  0.12224  1.0000
  H   H1736     1.0  0.85861  0.42798  0.48802  1.0000
  H   H1737     1.0  0.81904  0.44129  0.53598  1.0000
  H   H1738     1.0  0.79597  0.44920  0.55703  1.0000
  C   C2191     1.0  0.93903  0.43074  0.09944  1.0000
  H   H1739     1.0  0.92606  0.46654  0.10467  1.0000
  H   H1740     1.0  0.79776  0.43536  0.42908  1.0000
  H   H1741     1.0  0.84776  0.46572  0.42852  1.0000
  H   H1742     1.0  0.90639  0.45137  0.93611  1.0000
  C   C2192     1.0  0.72952  0.30820  0.47304  1.0000
  H   H1743     1.0  0.83657  0.45031  0.31878  1.0000
  C   C2193     1.0  0.77101  0.26836  0.85491  1.0000
  C   C2194     1.0  0.84403  0.29544  0.38468  1.0000
  C   C2195     1.0  0.79834  0.30392  0.13579  1.0000
  S   S298      1.0  0.76008  0.25513  0.49585  1.0000
  C   C2196     1.0  0.81400  0.31102  0.20795  1.0000
  C   C2197     1.0  0.79250  0.26031  0.88157  1.0000
  H   H1744     1.0  0.80671  0.33724  0.11708  1.0000
  H   H1745     1.0  0.77721  0.33030  0.73255  1.0000
  C   C2198     1.0  0.95160  0.41143  0.08032  1.0000
  C   C2199     1.0  0.73216  0.29348  0.46367  1.0000
  H   H1746     1.0  0.83190  0.46220  0.06584  1.0000
  H   H1747     1.0  0.83582  0.30130  0.37476  1.0000
  C   C2200     1.0  0.86088  0.25178  0.47232  1.0000
  H   H1748     1.0  0.95789  0.41147  0.95266  1.0000
  C   C2201     1.0  0.80910  0.30215  0.27989  1.0000
  P   P74       1.0  0.81839  0.31538  0.16126  1.0000
  H   H1749     1.0  0.80755  0.29859  0.30755  1.0000
  H   H1750     1.0  0.91085  0.33530  0.50014  1.0000
  H   H1751     1.0  0.83477  0.33503  0.22863  1.0000
  C   C2202     1.0  0.82769  0.33842  0.15218  1.0000
  H   H1752     1.0  0.80295  0.35715  0.95311  1.0000
  C   C2203     1.0  0.82442  0.32268  0.23479  1.0000
  H   H1753     1.0  0.85524  0.29535  0.33388  1.0000
  C   C2204     1.0  0.84319  0.37394  0.13617  1.0000
  C   C2205     1.0  0.85187  0.36712  0.15843  1.0000
  H   H1754     1.0  0.73937  0.31087  0.56159  1.0000
  C   C2206     1.0  0.75563  0.29180  0.36617  1.0000
  H   H1755     1.0  0.93702  0.37766  0.12543  1.0000
  C   C2207     1.0  0.79829  0.29067  0.87769  1.0000
  C   C2208     1.0  0.80594  0.31474  0.76023  1.0000
  H   H1756     1.0  0.83062  0.32696  0.29089  1.0000
  C   C2209     1.0  0.75210  0.29465  0.84326  1.0000
  H   H1757     1.0  0.80805  0.28990  0.10016  1.0000
  C   C2210     1.0  0.81911  0.34539  0.12957  1.0000
  H   H1758     1.0  0.96833  0.34640  0.07003  1.0000
  C   C2211     1.0  0.95779  0.42426  0.13973  1.0000
  H   H1759     1.0  0.89088  0.47693  0.53815  1.0000
  H   H1760     1.0  0.78071  0.27513  0.06603  1.0000
  C   C2212     1.0  0.94931  0.40147  0.86631  1.0000
  C   C2213     1.0  0.93517  0.35337  0.10442  1.0000
  H   H1761     1.0  0.81493  0.46500  0.73272  1.0000
  C   C2214     1.0  0.97071  0.39128  0.22831  1.0000
  H   H1762     1.0  0.85125  0.47311  0.36571  1.0000
  C   C2215     1.0  0.97055  0.46898  0.44543  1.0000
  H   H1763     1.0  0.78994  0.32633  0.97073  1.0000
  H   H1764     1.0  0.95080  0.36686  0.90744  1.0000
  H   H1765     1.0  0.85166  0.34427  0.18138  1.0000
  H   H1766     1.0  0.84403  0.28206  0.55324  1.0000
  C   C2216     1.0  0.82687  0.36307  0.12162  1.0000
  H   H1767     1.0  0.80701  0.30418  0.88296  1.0000
  C   C2217     1.0  0.78309  0.44350  0.66656  1.0000
  C   C2218     1.0  0.78378  0.44631  0.50540  1.0000
  H   H1768     1.0  0.94294  0.45451  0.43707  1.0000
  H   H1769     1.0  0.93550  0.38582  0.90995  1.0000
  H   H1770     1.0  0.74001  0.27408  0.48334  1.0000
  H   H1771     1.0  0.93077  0.43723  0.09421  1.0000
  Fe  Fe147     1.0  0.75413  0.47766  0.94087  1.0000
  C   C2219     1.0  0.84429  0.34942  0.16583  1.0000
  H   H1772     1.0  0.83631  0.29534  0.43868  1.0000
  C   C2220     1.0  0.73745  0.30612  0.53427  1.0000
  C   C2221     1.0  0.74041  0.29168  0.52499  1.0000
  H   H1773     1.0  0.82046  0.36828  0.10333  1.0000
  C   C2222     1.0  0.77624  0.25558  0.86520  1.0000
  H   H1774     1.0  0.84714  0.30839  0.51475  1.0000
  Fe  Fe148     1.0  0.72847  0.46607  0.59566  1.0000
  C   C2223     1.0  0.96427  0.40462  0.96615  1.0000
  H   H1775     1.0  0.84941  0.38749  0.12909  1.0000
  H   H1776     1.0  0.76533  0.32009  0.79143  1.0000
  C   C2224     1.0  0.95663  0.45703  0.38841  1.0000
  H   H1777     1.0  0.77749  0.30277  0.92548  1.0000
  C   C2225     1.0  0.85528  0.28496  0.43411  1.0000
  C   C2226     1.0  0.74874  0.43667  0.64922  1.0000
  H   H1778     1.0  0.89361  0.30464  0.48133  1.0000
  C   C2227     1.0  0.84426  0.29198  0.42080  1.0000
  H   H1779     1.0  0.79629  0.44581  0.67313  1.0000
  C   C2228     1.0  0.86279  0.47239  0.24655  1.0000
  C   C2229     1.0  0.94904  0.40207  0.45851  1.0000
  C   C2230     1.0  0.90096  0.48022  0.15430  1.0000
  H   H1780     1.0  0.77379  0.44995  0.51476  1.0000
  C   C2231     1.0  0.95378  0.37714  0.88848  1.0000
  C   C2232     1.0  0.88719  0.31175  0.49390  1.0000
  H   H1781     1.0  0.77461  0.44281  0.45103  1.0000
  H   H1782     1.0  0.95653  0.36397  0.79424  1.0000
  H   H1783     1.0  0.86481  0.37536  0.16870  1.0000
  C   C2233     1.0  0.89700  0.32911  0.50441  1.0000
  C   C2234     1.0  0.78315  0.31618  0.91719  1.0000
  H   H1784     1.0  0.89216  0.48040  0.32323  1.0000
  C   C2235     1.0  0.75234  0.29710  0.39965  1.0000
  C   C2236     1.0  0.86917  0.30389  0.49846  1.0000
  C   C2237     1.0  0.78431  0.44236  0.46942  1.0000
  Fe  Fe149     1.0  0.74229  0.25223  0.95170  1.0000
  H   H1785     1.0  0.89646  0.35250  0.52569  1.0000
  H   H1786     1.0  0.94749  0.37057  0.51422  1.0000
  H   H1787     1.0  0.73016  0.41754  0.21202  1.0000
  C   C2238     1.0  0.88887  0.33886  0.51881  1.0000
  C   C2239     1.0  0.78450  0.31063  0.80521  1.0000
  H   H1788     1.0  0.87582  0.27743  0.42088  1.0000
  H   H1789     1.0  0.75125  0.35725  0.92557  1.0000
  C   C2240     1.0  0.86653  0.28197  0.41099  1.0000
  C   C2241     1.0  0.86618  0.26757  0.49148  1.0000
  C   C2242     1.0  0.76625  0.30951  0.41998  1.0000
  H   H1790     1.0  0.75021  0.27931  0.79544  1.0000
  C   C2243     1.0  0.78307  0.31645  0.40697  1.0000
  C   C2244     1.0  0.96199  0.40427  0.84096  1.0000
  C   C2245     1.0  0.94406  0.37104  0.11339  1.0000
  C   C2246     1.0  0.87092  0.33122  0.52285  1.0000
  C   C2247     1.0  0.83506  0.27247  0.49962  1.0000
  H   H1791     1.0  0.86449  0.33894  0.53269  1.0000
  H   H1792     1.0  0.75360  0.45541  0.80171  1.0000
  H   H1793     1.0  0.88194  0.28306  0.53606  1.0000
  P   P75       1.0  0.85644  0.28211  0.48128  1.0000
  C   C2248     1.0  0.95258  0.38287  0.50096  1.0000
  C   C2249     1.0  0.87817  0.27130  0.51996  1.0000
  H   H1794     1.0  0.94127  0.40485  0.43881  1.0000
  H   H1795     1.0  0.88568  0.23511  0.51505  1.0000
  C   C2250     1.0  0.74726  0.30953  0.98047  1.0000
  Fe  Fe150     1.0  0.73516  0.47709  0.86916  1.0000
  P   P76       1.0  0.77542  0.30276  0.84790  1.0000
  H   H1796     1.0  0.92150  0.34654  0.10993  1.0000
  C   C2251     1.0  0.92138  0.47069  0.12797  1.0000
  H   H1797     1.0  0.94491  0.34540  0.74041  1.0000
  C   C2252     1.0  0.96619  0.41458  0.46709  1.0000
  H   H1798     1.0  0.77700  0.41826  0.64285  1.0000
  S   S299      1.0  0.74569  0.45931  0.89322  1.0000
  H   H1799     1.0  0.78861  0.27801  0.26075  1.0000
  C   C2253     1.0  0.79098  0.33762  0.87116  1.0000
  H   H1800     1.0  0.74903  0.30818  0.89012  1.0000
  C   C2254     1.0  0.86597  0.47439  0.51847  1.0000
  H   H1801     1.0  0.72965  0.32555  0.51546  1.0000
  H   H1802     1.0  0.91929  0.41154  0.97770  1.0000
  C   C2255     1.0  0.93360  0.45881  0.94646  1.0000
  H   H1803     1.0  0.93684  0.33086  0.08131  1.0000
  C   C2256     1.0  0.78341  0.32440  0.74968  1.0000
  C   C2257     1.0  0.87861  0.46841  0.52541  1.0000
  H   H1804     1.0  0.81721  0.31316  0.75130  1.0000
  H   H1805     1.0  0.79153  0.34103  0.84353  1.0000
  H   H1806     1.0  0.82193  0.25959  0.45042  1.0000
  C   C2258     1.0  0.74265  0.29961  0.86767  1.0000
  H   H1807     1.0  0.94278  0.40993  0.86792  1.0000
  C   C2259     1.0  0.80356  0.27786  0.88762  1.0000
  C   C2260     1.0  0.83893  0.47662  0.70534  1.0000
  C   C2261     1.0  0.78617  0.31121  0.37352  1.0000
  H   H1808     1.0  0.94490  0.44992  0.37254  1.0000
  C   C2262     1.0  0.81323  0.48088  0.68974  1.0000
  S   S300      1.0  0.73902  0.46994  0.49437  1.0000
  H   H1809     1.0  0.78932  0.25014  0.54033  1.0000
  C   C2263     1.0  0.76656  0.46328  0.79258  1.0000
  C   C2264     1.0  0.95551  0.45963  0.42480  1.0000
  H   H1810     1.0  0.97295  0.37138  0.86247  1.0000
  C   C2265     1.0  0.77669  0.31854  0.78304  1.0000
  H   H1811     1.0  0.94514  0.44064  0.15325  1.0000
  C   C2266     1.0  0.88022  0.24414  0.50852  1.0000
  C   C2267     1.0  0.76712  0.28685  0.09626  1.0000
  C   C2268     1.0  0.79776  0.35092  0.89714  1.0000
  C   C2269     1.0  0.94516  0.38787  0.88995  1.0000
  H   H1812     1.0  0.94949  0.41617  0.28995  1.0000
  C   C2270     1.0  0.73694  0.25690  0.41594  1.0000
  H   H1813     1.0  0.97371  0.46123  0.34457  1.0000
  C   C2271     1.0  0.94083  0.43650  0.97094  1.0000
  C   C2272     1.0  0.97065  0.37083  0.09221  1.0000
  C   C2273     1.0  0.75969  0.45246  0.66587  1.0000
  C   C2274     1.0  0.94135  0.42021  0.07313  1.0000
  H   H1814     1.0  0.96005  0.35394  0.68330  1.0000
  H   H1815     1.0  0.80351  0.36439  0.88945  1.0000
  H   H1816     1.0  0.75692  0.30042  0.13080  1.0000
  C   C2275     1.0  0.75499  0.42439  0.64075  1.0000
  H   H1817     1.0  0.90075  0.47319  0.09883  1.0000
  C   C2276     1.0  0.97072  0.39352  0.83926  1.0000
  S   S301      1.0  0.73313  0.26099  0.90265  1.0000
  C   C2277     1.0  0.96738  0.39010  0.19163  1.0000
  H   H1818     1.0  0.97133  0.42685  0.45375  1.0000
  C   C2278     1.0  0.77979  0.47289  0.81714  1.0000
  C   C2279     1.0  0.73104  0.30155  0.96326  1.0000
  C   C2280     1.0  0.96515  0.36216  0.70690  1.0000
  C   C2281     1.0  0.72674  0.46723  0.69738  1.0000
  C   C2282     1.0  0.78649  0.47475  0.74417  1.0000
  H   H1819     1.0  0.93730  0.47175  0.93668  1.0000
  C   C2283     1.0  0.97286  0.45972  0.02933  1.0000
  C   C2284     1.0  0.72773  0.36086  0.93181  1.0000
  C   C2285     1.0  0.96967  0.39541  0.50971  1.0000
  H   H1820     1.0  0.96924  0.47964  0.88648  1.0000
  H   H1821     1.0  0.84541  0.47090  0.72226  1.0000
  Fe  Fe151     1.0  0.75807  0.47924  0.54078  1.0000
  P   P77       1.0  0.96895  0.46808  0.95928  1.0000
  H   H1822     1.0  0.95633  0.37888  0.18087  1.0000
  C   C2286     1.0  0.96642  0.37986  0.86314  1.0000
  C   C2287     1.0  0.72810  0.38671  0.90450  1.0000
  C   C2288     1.0  0.90994  0.48275  0.18708  1.0000
  H   H1823     1.0  0.91356  0.48200  0.27842  1.0000
  H   H1824     1.0  0.93148  0.48145  0.21543  1.0000
  H   H1825     1.0  0.72946  0.30001  0.34575  1.0000
  C   C2289     1.0  0.92438  0.47905  0.19030  1.0000
  H   H1826     1.0  0.97523  0.41539  0.75594  1.0000
  Fe  Fe152     1.0  0.72596  0.23448  0.87778  1.0000
  H   H1827     1.0  0.79034  0.48352  0.46605  1.0000
  C   C2290     1.0  0.78011  0.52095  0.65170  1.0000
  C   C2291     1.0  0.94225  0.54320  0.58986  1.0000
  S   S302      1.0  0.88674  0.49725  0.05512  1.0000
  C   C2292     1.0  0.77087  0.52976  0.97578  1.0000
  H   H1828     1.0  0.92463  0.55489  0.35052  1.0000
  C   C2293     1.0  0.93684  0.55891  0.33719  1.0000
  H   H1829     1.0  0.84237  0.50552  0.34649  1.0000
  Fe  Fe153     1.0  0.90441  0.52319  0.08594  1.0000
  S   S303      1.0  0.90320  0.53819  0.03423  1.0000
  S   S304      1.0  0.90056  0.53506  0.17389  1.0000
  C   C2294     1.0  0.90237  0.56031  0.49663  1.0000
  S   S305      1.0  0.90902  0.51041  0.98260  1.0000
  Fe  Fe154     1.0  0.92636  0.53493  0.01285  1.0000
  S   S306      1.0  0.94919  0.55542  0.98255  1.0000
  Fe  Fe155     1.0  0.88599  0.51249  0.00757  1.0000
  H   H1830     1.0  0.97201  0.58156  0.40074  1.0000
  S   S307      1.0  0.92874  0.52117  0.06130  1.0000
  H   H1831     1.0  0.82103  0.53843  0.39602  1.0000
  Fe  Fe156     1.0  0.90965  0.51585  0.38212  1.0000
  S   S308      1.0  0.90261  0.53426  0.41490  1.0000
  S   S309      1.0  0.91949  0.51505  0.32639  1.0000
  H   H1832     1.0  0.76707  0.53433  0.95190  1.0000
  S   S310      1.0  0.90060  0.51016  0.48408  1.0000
  Fe  Fe157     1.0  0.88218  0.51019  0.44018  1.0000
  S   S311      1.0  0.85240  0.50140  0.44227  1.0000
  Fe  Fe158     1.0  0.92150  0.53275  0.45673  1.0000
  S   S312      1.0  0.94221  0.55670  0.48641  1.0000
  H   H1833     1.0  0.85374  0.53225  0.92819  1.0000
  S   S313      1.0  0.92930  0.51587  0.42267  1.0000
  H   H1834     1.0  0.77651  0.50023  0.86332  1.0000
  H   H1835     1.0  0.95604  0.49239  0.41921  1.0000
  C   C2295     1.0  0.86428  0.60773  0.43604  1.0000
  H   H1836     1.0  0.95908  0.52058  0.98435  1.0000
  H   H1837     1.0  0.86370  0.52190  0.30122  1.0000
  C   C2296     1.0  0.77990  0.51683  0.03664  1.0000
  C   C2297     1.0  0.96767  0.51544  0.97325  1.0000
  C   C2298     1.0  0.91420  0.52107  0.28466  1.0000
  C   C2299     1.0  0.90130  0.52693  0.28034  1.0000
  C   C2300     1.0  0.89747  0.53135  0.24634  1.0000
  C   C2301     1.0  0.90633  0.52972  0.21627  1.0000
  C   C2302     1.0  0.91959  0.52433  0.22103  1.0000
  C   C2303     1.0  0.92341  0.51995  0.25493  1.0000
  H   H1838     1.0  0.89442  0.52812  0.30324  1.0000
  H   H1839     1.0  0.88746  0.53587  0.24317  1.0000
  H   H1840     1.0  0.92724  0.52386  0.19895  1.0000
  C   C2304     1.0  0.80566  0.49300  0.51423  1.0000
  C   C2305     1.0  0.93836  0.56493  0.30255  1.0000
  H   H1841     1.0  0.97171  0.54639  0.47957  1.0000
  H   H1842     1.0  0.89277  0.58276  0.43267  1.0000
  C   C2306     1.0  0.86217  0.52860  0.32468  1.0000
  C   C2307     1.0  0.78299  0.52044  0.68821  1.0000
  C   C2308     1.0  0.78608  0.50685  0.70215  1.0000
  C   C2309     1.0  0.85250  0.58165  0.38289  1.0000
  H   H1843     1.0  0.92736  0.56565  0.28907  1.0000
  C   C2310     1.0  0.96349  0.49768  0.97489  1.0000
  C   C2311     1.0  0.83849  0.49978  0.97381  1.0000
  C   C2312     1.0  0.83468  0.49795  0.47111  1.0000
  H   H1844     1.0  0.86831  0.48755  0.52610  1.0000
  C   C2313     1.0  0.95077  0.55725  0.35404  1.0000
  H   H1845     1.0  0.79070  0.52136  0.48933  1.0000
  H   H1846     1.0  0.82481  0.50318  0.55681  1.0000
  H   H1847     1.0  0.84621  0.50247  0.63378  1.0000
  H   H1848     1.0  0.88463  0.53554  0.51610  1.0000
  C   C2314     1.0  0.83025  0.49997  0.00558  1.0000
  C   C2315     1.0  0.97060  0.54341  0.58446  1.0000
  H   H1849     1.0  0.93372  0.51584  0.25818  1.0000
  C   C2316     1.0  0.85795  0.54705  0.97702  1.0000
  H   H1850     1.0  0.80611  0.49589  0.03024  1.0000
  C   C2317     1.0  0.85787  0.57825  0.41619  1.0000
  C   C2318     1.0  0.82269  0.49967  0.52883  1.0000
  S   S314      1.0  0.88824  0.49226  0.40381  1.0000
  C   C2319     1.0  0.85007  0.51940  0.34994  1.0000
  H   H1851     1.0  0.84997  0.50723  0.51942  1.0000
  C   C2320     1.0  0.84856  0.53885  0.94610  1.0000
  C   C2321     1.0  0.79762  0.55010  0.88110  1.0000
  C   C2322     1.0  0.83705  0.50203  0.50760  1.0000
  H   H1852     1.0  0.78401  0.56461  0.98288  1.0000
  C   C2323     1.0  0.85809  0.49744  0.23042  1.0000
  C   C2324     1.0  0.96484  0.56648  0.49914  1.0000
  H   H1853     1.0  0.77759  0.51989  0.81495  1.0000
  C   C2325     1.0  0.94672  0.55019  0.62438  1.0000
  S   S315      1.0  0.78821  0.49133  0.54237  1.0000
  C   C2326     1.0  0.82219  0.49132  0.66160  1.0000
  H   H1854     1.0  0.84922  0.60068  0.35028  1.0000
  H   H1855     1.0  0.95876  0.52536  0.33251  1.0000
  H   H1856     1.0  0.96654  0.55954  0.66553  1.0000
  H   H1857     1.0  0.87911  0.56868  0.36476  1.0000
  C   C2327     1.0  0.97525  0.55051  0.61909  1.0000
  C   C2328     1.0  0.82042  0.53786  0.42468  1.0000
  C   C2329     1.0  0.88627  0.54603  0.49846  1.0000
  S   S316      1.0  0.74275  0.49179  0.56920  1.0000
  H   H1858     1.0  0.92152  0.51244  0.14202  1.0000
  C   C2330     1.0  0.86348  0.59130  0.44293  1.0000
  C   C2331     1.0  0.83224  0.53847  0.93906  1.0000
  H   H1859     1.0  0.92969  0.54072  0.57812  1.0000
  H   H1860     1.0  0.85985  0.62387  0.39730  1.0000
  H   H1861     1.0  0.81598  0.49701  0.64406  1.0000
  C   C2332     1.0  0.82659  0.60029  0.94773  1.0000
  C   C2333     1.0  0.85927  0.61114  0.40258  1.0000
  C   C2334     1.0  0.90464  0.57350  0.47285  1.0000
  C   C2335     1.0  0.96344  0.52376  0.35855  1.0000
  H   H1862     1.0  0.79263  0.52286  0.42376  1.0000
  H   H1863     1.0  0.95178  0.48926  0.98804  1.0000
  Fe  Fe159     1.0  0.90741  0.49344  0.44625  1.0000
  C   C2336     1.0  0.87072  0.55499  0.36058  1.0000
  S   S317      1.0  0.86145  0.50594  0.97165  1.0000
  H   H1864     1.0  0.75243  0.50410  0.04563  1.0000
  C   C2337     1.0  0.89069  0.57259  0.45140  1.0000
  H   H1865     1.0  0.86870  0.61779  0.45673  1.0000
  H   H1866     1.0  0.85313  0.50694  0.23646  1.0000
  H   H1867     1.0  0.97408  0.57443  0.93015  1.0000
  C   C2338     1.0  0.79284  0.52738  0.01405  1.0000
  H   H1868     1.0  0.83846  0.61033  0.93797  1.0000
  C   C2339     1.0  0.83562  0.54553  0.44598  1.0000
  H   H1869     1.0  0.77772  0.53146  0.64086  1.0000
  C   C2340     1.0  0.81764  0.49110  0.45659  1.0000
  H   H1870     1.0  0.91732  0.58427  0.47075  1.0000
  C   C2341     1.0  0.87256  0.54637  0.33007  1.0000
  H   H1871     1.0  0.80610  0.52968  0.01996  1.0000
  H   H1872     1.0  0.86012  0.53374  0.47805  1.0000
  H   H1873     1.0  0.87032  0.54674  0.98282  1.0000
  C   C2342     1.0  0.89383  0.50856  0.12992  1.0000
  C   C2343     1.0  0.91349  0.51854  0.13276  1.0000
  C   C2344     1.0  0.92234  0.53766  0.12370  1.0000
  C   C2345     1.0  0.91167  0.54681  0.11081  1.0000
  C   C2346     1.0  0.89211  0.53695  0.10731  1.0000
  C   C2347     1.0  0.88328  0.51801  0.11667  1.0000
  C   C2348     1.0  0.80837  0.56974  0.95768  1.0000
  H   H1874     1.0  0.78929  0.59529  0.98755  1.0000
  C   C2349     1.0  0.97413  0.51926  0.42668  1.0000
  P   P78       1.0  0.80477  0.54726  0.95312  1.0000
  P   P79       1.0  0.88350  0.48676  0.14838  1.0000
  C   C2350     1.0  0.78332  0.52529  0.84082  1.0000
  C   C2351     1.0  0.87432  0.55851  0.45389  1.0000
  H   H1875     1.0  0.81713  0.53605  0.52724  1.0000
  C   C2352     1.0  0.85121  0.55528  0.00063  1.0000
  C   C2353     1.0  0.80314  0.52846  0.47720  1.0000
  H   H1876     1.0  0.91320  0.56100  0.51310  1.0000
  H   H1877     1.0  0.93626  0.54480  0.12708  1.0000
  H   H1878     1.0  0.91794  0.56051  0.10510  1.0000
  H   H1879     1.0  0.88442  0.54371  0.09951  1.0000
  H   H1880     1.0  0.86935  0.51199  0.11674  1.0000
  C   C2354     1.0  0.76249  0.51273  0.02878  1.0000
  C   C2355     1.0  0.97123  0.58266  0.51697  1.0000
  C   C2356     1.0  0.78843  0.53401  0.98348  1.0000
  C   C2357     1.0  0.82367  0.58284  0.94490  1.0000
  H   H1881     1.0  0.84558  0.55203  0.50025  1.0000
  S   S318      1.0  0.74490  0.49626  0.91582  1.0000
  H   H1882     1.0  0.86719  0.50809  0.17979  1.0000
  C   C2358     1.0  0.83504  0.55522  0.99337  1.0000
  H   H1883     1.0  0.75447  0.50304  0.74525  1.0000
  Fe  Fe160     1.0  0.91062  0.49698  0.03207  1.0000
  H   H1884     1.0  0.85852  0.56161  0.02462  1.0000
  H   H1885     1.0  0.78273  0.53052  0.70579  1.0000
  H   H1886     1.0  0.77833  0.50836  0.60075  1.0000
  H   H1887     1.0  0.86714  0.58876  0.46916  1.0000
  C   C2359     1.0  0.85332  0.59809  0.37607  1.0000
  C   C2360     1.0  0.80428  0.52918  0.44026  1.0000
  C   C2361     1.0  0.85825  0.54591  0.38563  1.0000
  H   H1888     1.0  0.84754  0.57159  0.36226  1.0000
  C   C2362     1.0  0.79595  0.57435  0.97292  1.0000
  C   C2363     1.0  0.74459  0.49001  0.74008  1.0000
  H   H1889     1.0  0.83901  0.52052  0.39996  1.0000
  C   C2364     1.0  0.96797  0.56809  0.30182  1.0000
  C   C2365     1.0  0.79891  0.59182  0.97566  1.0000
  P   P80       1.0  0.85638  0.55697  0.42556  1.0000
  C   C2366     1.0  0.80326  0.48859  0.47790  1.0000
  C   C2367     1.0  0.81809  0.53672  0.49860  1.0000
  H   H1890     1.0  0.83001  0.56172  0.01182  1.0000
  C   C2368     1.0  0.78030  0.50786  0.62912  1.0000
  H   H1891     1.0  0.80313  0.56401  0.88560  1.0000
  S   S319      1.0  0.74277  0.48824  0.81321  1.0000
  C   C2369     1.0  0.97438  0.49103  0.95957  1.0000
  H   H1892     1.0  0.79111  0.55186  0.82615  1.0000
  C   C2370     1.0  0.87236  0.54506  0.47694  1.0000
  H   H1893     1.0  0.94916  0.55205  0.38052  1.0000
  C   C2371     1.0  0.81422  0.60478  0.96312  1.0000
  H   H1894     1.0  0.88221  0.55341  0.31080  1.0000
  C   C2372     1.0  0.79693  0.53894  0.90872  1.0000
  C   C2373     1.0  0.82534  0.54665  0.96270  1.0000
  C   C2374     1.0  0.75798  0.51924  0.99845  1.0000
  H   H1895     1.0  0.81650  0.61831  0.96533  1.0000
  C   C2375     1.0  0.78956  0.52093  0.90187  1.0000
  H   H1896     1.0  0.78825  0.50673  0.73051  1.0000
  C   C2376     1.0  0.78276  0.51417  0.86808  1.0000
  H   H1897     1.0  0.82510  0.53165  0.91534  1.0000
  C   C2377     1.0  0.79083  0.54326  0.84726  1.0000
  C   C2378     1.0  0.83424  0.54548  0.48311  1.0000
  H   H1898     1.0  0.95493  0.57385  0.25777  1.0000
  C   C2379     1.0  0.84814  0.52800  0.38031  1.0000
  H   H1899     1.0  0.83335  0.57957  0.93272  1.0000
  H   H1900     1.0  0.78877  0.51210  0.92286  1.0000
  C   C2380     1.0  0.81224  0.49566  0.00547  1.0000
  H   H1901     1.0  0.78332  0.51122  0.05941  1.0000
  H   H1902     1.0  0.83446  0.49502  0.91725  1.0000
  H   H1903     1.0  0.74599  0.49224  0.68277  1.0000
  C   C2381     1.0  0.96652  0.56196  0.33662  1.0000
  C   C2382     1.0  0.96314  0.55381  0.63899  1.0000
  C   C2383     1.0  0.96198  0.50501  0.40725  1.0000
  C   C2384     1.0  0.78604  0.49350  0.67964  1.0000
  H   H1904     1.0  0.96254  0.58863  0.52233  1.0000
  H   H1905     1.0  0.95070  0.53452  0.54309  1.0000
  C   C2385     1.0  0.95413  0.53970  0.57006  1.0000
  C   C2386     1.0  0.86624  0.49815  0.19817  1.0000
  H   H1906     1.0  0.83778  0.50359  0.03021  1.0000
  C   C2387     1.0  0.82832  0.49518  0.94205  1.0000
  H   H1907     1.0  0.74442  0.51573  0.99195  1.0000
  H   H1908     1.0  0.94677  0.49633  0.35860  1.0000
  C   C2388     1.0  0.80208  0.49107  0.97371  1.0000
  H   H1909     1.0  0.93755  0.55305  0.63963  1.0000
  C   C2389     1.0  0.95672  0.50724  0.37310  1.0000
  C   C2390     1.0  0.95390  0.56948  0.28487  1.0000
  C   C2391     1.0  0.97245  0.56333  0.98177  1.0000
  H   H1910     1.0  0.81236  0.49351  0.76043  1.0000
  S   S320      1.0  0.77931  0.48578  0.97556  1.0000
  C   C2392     1.0  0.78310  0.49410  0.64298  1.0000
  H   H1911     1.0  0.80641  0.49141  0.82453  1.0000
  H   H1912     1.0  0.81552  0.48780  0.42853  1.0000
  C   C2393     1.0  0.81032  0.49089  0.94193  1.0000
  H   H1913     1.0  0.80283  0.48741  0.91726  1.0000
  H   H1914     1.0  0.90620  0.48818  0.20982  1.0000
  H   H1915     1.0  0.97114  0.51643  0.73623  1.0000
  H   H1916     1.0  0.97412  0.52484  0.67328  1.0000
  C   C2394     1.0  0.87320  0.48629  0.19024  1.0000
  H   H1917     1.0  0.85508  0.48584  0.09889  1.0000
  C   C2395     1.0  0.83940  0.49443  0.65557  1.0000
  C   C2396     1.0  0.85655  0.48471  0.25481  1.0000
  H   H1918     1.0  0.85045  0.48434  0.27995  1.0000
  C   C2397     1.0  0.79961  0.48476  0.76905  1.0000
  C   C2398     1.0  0.84779  0.48714  0.67749  1.0000
  H   H1919     1.0  0.86113  0.48959  0.67281  1.0000
  H   H1920     1.0  0.78316  0.48407  0.62492  1.0000
  C   C2399     1.0  0.73978  0.48393  0.70457  1.0000
  C   C2400     1.0  0.79628  0.48372  0.80539  1.0000
