data_image0
_chemical_formula_structural       FeSFeS2Fe2S3CHSC3HCHC2HCHCSCHCH2SCHFeS2CSFeSFeS2C6H5CHCFeHFeCH2CHCHC2HC2HC6H4C6H5CHC2HC4HSHCH2C3H2C2H2C2PHC2SCHC3H2C4H5CPC3HC2HC2HCHC7HC3PHC3H2CH3CHC2H8CHC2HC3SC2H2C2H2C2H2C2HC4PC2H2C2HCPC2H2C2HCH3C3HFeHPH2C2H3CH3CH3C2HCH2C2SHFeS2FeS2FeSFeS3HC6HCHC3SCFeS2FeS2FeSFeS3C6H3CH3C4H4CSC3HCHCH4CH3C7H4C6HCH2C5H3CHC7H2CHCHCH3C2H2CHFeC2H4C2H2FeCH2SCH4CFeCHCH2C2HSC5HCHC3H2C2H3C2SC7HC4H4CHCH5C6PC18H19CPH3PFeHCHC2HPCHCH2CH2C4HC2HC2HCH4C4HCH2CHCHCHCHC3H2C7PCHCHCPCHC9H6CH2C2H6C9SCHC2H4PH2CH2CHSCHC3H4CHC2H3C2HC2PCHC3HC2H2CSCHSC2H2C2SHC2HC2H3C5SC2H2CH2C7H2CHC2H3CH3C3HC3HCH2CHC2HC5SHC4PHCHCHC5H2CSCH2FeH2CH2C2H2C2H2C2HCH4C3HCHC2H3C4HFeS2FeSFeSFeS3H2C3FeHFeS2FeSFeS3H2SC3H2CFeS2FeS2FeHFeCS2CS2CSHCS2H2FeSH2S2FeSCHSHCHCH4C2H2CH2C5HC3HCH2C5H3CHC4H3C3S2C11H5C3H5C6H4SH2SFeC6H4C2H5FeC7H5CHC3H2C4HCH3SC2HC7HFeHC3HC4HC3HCH9CH2CFeCH4C3HCH3C2HPCH2C3HC2H2CHC3HC2HC4H4C2PH3CHSHC2S3C4HC2H2SH3CHCHC2HC5H3C2SHC2H3C4SC2HCH2C5H2C2H2CPC2H3CPC2HC4HCH2CHFe2CHC5SC2H2C2H2CHC2FeH2C2HCHC2H3C2HCHFeHC2H2SCH2CHC2HPFeC3HCHC3SC2H2C2FeHCHFeSCHCHCFeCHCH2C2HCPCHCHFeSH2C3HC4FeHC2H2FeC2HC2PCHFeSHC3HC2H3S2CSHC2HSC2SHCHC2H2CSC4H5C2H3CH2CPCH4SCHC10HC3SCH4CH2CPCHC2H3C3HC2H2C3HFeH2C3H4CHCH4CH3CHCSH3CH2C5H3CH2SHPH4CHCHCH2C2HC2HC4HC2HC3PHCHCHCH2C2H2CHC2SHCH2C2H2CH5CHC2HCHC2HCSHCHC2H2C4HC6H7CHCH2CPCH2CHCHSHCSCSHFeSH2C2FeS2C5H3CPH2CSCHC3H5C2H2CHCHCHCHCHSFeHC2HCSCHC2HCHSCHC4H2C3PC3H2CSH4C2H2FeCHCHCHFeCH2CHCH2CHCHSC2FeC6HCH3C2SH2CH2C2HCFeHCHFeS2FeS2FeSFeS3FeHSFeCSFeS2FeS2FeSFeS3HPSCHSH2SCFeS2FeSFeS2C2S2FeSH2C2S3CFeSFeS2FeHFeSC7H2CHC2H2C4HCH3PC6H4C6H2CHC2H2C2H2CHC3H3C8H4C4HCH2CH3C3HC5H2C7H4C6H4C11PC18H20C6H6C6PC18H22CHC6H3C9H2C5HC5HCHC3HSH7C2SCSCH2CH3CH2C4H2C4FeHCHC4H2CSCH2C3H3C2PH4C3H2CHC4HC2SH2CHC2HC5PHCHC2HC3H2C2HC3HCH2C2PCHC2H3C2HCHCH2CHC4HCH2CH4CHC2H2CSCHCH2C2HC3HPHC4HC2HPFeSCHSHCPCHSC4HC2HCHC2HC3H2CFeH5PCHCH4C3SCHCSHC3HC2HCH3CHSC2HC3HCHC7H5CH2C4FeCHPHC3H3SHC5HCHCSC3HCH2CH3SC3HCH2CHC2HC3H2C3SH3C2HCH3C2H3CHC2HCHCHC4PH2C3HCHCHC3SC2HCH2CHCH3C3H2FeH2C3HPHCH5CH2C5HCSPC4FeC2H5C2HC3HCHCH2C2HC2FeC2HCHC2HC2HCHSH2C4HSHC3FeC3HC9H4C3H4CHCHC2HC3HCHCH2CSC2H3C8HCHC2H2CH2CH3C2H3CSHCPC2HCH3CHCH2C2HCH2CH2C2HSH2Fe2CSC2HCHC2FeHCH2CH3C3HCPC4FeCH3CH2CH2C7H2SFeCH2CHCHC5HC2H2PHSHCHCFeHSC2H2C2FeS2FeS2FeSFeS2FeS2FeSFeSFeS3H2CH2CFeSH3C3FeS2FeSHSCFeS2FeSCFeSFeS4HCHC2FePHC6H5C4H3C8H4C6H2CPC2HC5H4C6H5C7H2CH2CH2CH2CHC6H4C2HC2H4CH2SC7PC15HC2H2CH5CH7CH4C3H4CH3C5HCHC4SH2C2HC2PCHCH3C13PC6H2C4H8C5H4C7HCHCHCHC5H6C3HC3PC12HPH3PCH4CH3C3HC3H2C3H3CHCS2H3CHSH2CH3CH4CH4C2SHCH3CHC5H2C6HFeH2CH2CHCHCH2CHCHCH3C2H2CH2C2H3CSCH3SC3H4C2HC4H5C10H3SCFePC2HCH3CH4CH2CHCHC2H2CPH2C12PCH2CHC3H5CHC3HC4HCHCH5C2H3C7H2C9H3CH7CHCHC2H2CHC2HC4HC3HC2HC8H3CH3SC2HC2H2CHPC2HC2HCFeS2FeS2FeSFeS3FeS2FeSCFeSFeS3FeSFeHFeS2FeSCFeS2FeSFeHS2FeSFeSFeSFeS2FeS2FeSFeS3FeS2CHSHC6H4C6H4C6H4CSCHC2H2C7HC9H4C6H4C6H4C6H5C2SC6H7C6PC17H17CHC6PC3HC14H2C2H3CH12C6PC16H19C2HC5H4C2H2C6PC7HCHC3PH16CH6C7PC10H3C2H4CHC4H3CHFeHCHCS2C3H2CPCHC8HCHC3HCHC3HCHC3H3CH2C5HCHCH5CHCH2CH3CFeC5PH4C3H3CPHCSHCH2CHC2HCHCPHC2H2CHC4H2C2H2C2HCH2C3HC2SHC2H3CH4C2H2CHC5H3C3HCHCHC3HC2HC2HSC2HC3HC4HC3H2C2HCH9CHC5H3CHC2HC3H2SH5C2PH3C3H2C2HCH2CHC2H2C2HCSC2HC3H3CSH3CH2C2HCH6CHCH4C2HFeHC3HCSC3SC3SHCSC2HC3HCHCHCHCFeCH2CH2CHCHC2HC3SHSHC3HFeS2FeS2FeSFeS3CFeS2FeSCFeSFeS3CFeS2FeS2FeHFeS3FeS2FeS2FeSFeS3CHSHFeSCHFeS2CSHFeSH2CHCHCHC7H4CH3C2H2C6H5C2HSC2HCH2C3HC6H4C7H3C6H4C6H4C6H5C2HCHCH2CH3CSCHC3H2CH2CH2C3H2C3H3C9H5CH2C2H2CH4SCH5C6PC14HC3H17CH2C6PC12H8CH3C6PC4HC14H7CH6PH2CH2C3HC2H5CHC2SHCPHC2SC2H2C2HC2HC3HCSH2CHCHCH2C2HC3HCHC3HSC2H7C2H2C2H2PH2C3HC8HCH4CHC4H3CH4CHS2HC2HFeCHCHC3H2CHC3FeCHC2HCPC2HC4HPHCHCHCHCHC3HC2HC3HPCH3C2H2CH2FeC2H4C4H2CHSHC2HCHC6HC5HCH4C2H7CHCHCSPC4H2C7H2C2H3CHC2H2C2H2CHC6FeSCHC3HCSC2HC5H2CSC3SCH6C2HCHCHPC2HC2HFeCH3C2H2C2H3C4H2CHC2H2CH2CHC2PC2HC5HSHCHC2PH2C4HC5HCHC4H4C4FeCHPC3H5CHCH2CHC4HC2H2C4H2SHC2FeS2FeS2FeSFeS3C2HCSHC2SCHFeC2SC2H2CSCFeS2FeS2FeSFeS3CHCPSHCH2C7H4C3HC2HC2HC7H4C2PC3HCH2C2HC6H4C6H4C6H5C5H2C4HCHCHCHC5SC4FeCH3CH5CHCH3CH2C2HCHC3HC2HC2H3C2HC2H2CH2C2H3C5H2C3SCHC2HC3HCHCH3C2H2C3H3CH3CPH2C3HCH3CHPC2HC2H2C2H2C4H2CFeH3C3HC3H4C2H3C4SCSC2HC2H2C2H2CHC4H2CH10C2H5CPC2HC2HCH4CHC5HC2H2CHC4H2C4H2CHC2H2CHC3H4C2H2FeH2CH4CFeH3CHCH2CHS2H2CSHPH2CHFeS2FeS2FeSFeS3CHCFeHFeS2FeS2FeSFeS3HC2HC3H2C8HCHC5H2C2H2C8H4C6HCH2C2HC7H4C2H2C3SCHCH2PCHC2H2C3H2CSH3PC2H2C2HC2H2CHFeCHC2HFeH2C3HCSC4HCSC2PC7HCHCPC2H2C2H2SH8C6H3C3H3CH3FeC2HCHCSC2H2CHCHC3SCH3C2H2C3H2CHCHC2HCH3CH2C2H2CH2CHPSC2FeHC2HC3H2C4H4CSH2C5HCH2CHSCHC2HCSH3C2HCHC3HCHC4H2CHCHC2HC2H2CHCHCHCHCHC2PHC3H2C2HSC3H2C2H4FeCH4C2PHC2HSH6CH4CHC2H4C2FeSCFeS2FeSFeS3HFeS2FeSHFeSFeS3CHFeCSHSC5SH2C2H3CH4CHC4H2C2HC8H4CH2C3SHCHCHCH2CHC6H4C6H4C2H2C5H2CH2CH2C4HCH2CHCPH2C4HCHPCH4C2HC2H2CH3C2HCHPC5HC2HC4H2C6HC2H4C5HCH2CH2C2PHCH2C3H2CHC3H2C2HCHC3HC3H7CHCHC7PC3HCFeC3HCHCHCSC2HCH2CH2C2HC2H2C2HCH2CHCHC4HCPCH3C2H4CHCHCHC2HFeSHFeS2FeCFeS3FeS2FeSCFeHFeS3CFeS2FeSHFeSFeS3FeS2FeSHFeSFeS3HFeS2FeS2FeSFeCS2FeHFeS2FeSFeS3C6H4CHCH2C3HC2H4C6H2PH3CHC7H4C6H4CH4C2H2C2HSH2C6H4C2H2C2S2C6H4C6H7CHSCHC6PC18H24CPH4SCH3C2H2C3PCHCH3C12HCH2C2HCH8CHC7HCHC2PC4HC3HCFeC2H2SHC2H2CH2C2HC2FeCHCHC2HSPCHC2HC7HC3SHCHCHCH2C4FeH3C2H2CHC6PC16H12CH4C2HC2HC2PC8HCHC2H8CSC12HC2PCHCHC2H2C2HC2H2CHC2H2C3H4CHSH5SC2H2C4H3CH2CSH2CHC2H2CH3CPC3H3SHFeCH2SH2C6HC2HCH5PC2H4CHC3H2CHC2H4C2H2C3HC4HCHCHCHCH2CHCH2C3HC3HC2H2C3H2CHC5H4CHC3H2C2HC3H2CHC3H3PCH3CH4C7H2C4H3FeC4HSHC6HC3H2PSC3H3CHC2FeC3HCH2CHC2H2C8HCHCH4C3H2CSCHCSH4CH3C3HC3HCH2C6HCH3CPHC4HC3HCHC14HCH2CH2CH2CH2C2H3PH4CH2C2H2CHCH2C6H3C2H2C3H2CH2CH3CFeS2FeS2FeSFeS3FeS2FeS2FeSFeS3C5HFeS2FeS2FeSFeS3HC2H4CFeS2FeS2FeSFeS3C6H2CH2C2H2C2HC3H2CHC6H6C2HCHCHC6H4C6H4C6H4CHC4H4C6H4CHSC2HC2H3CH2C2HCH2C3HCFeH2CPC2H5CH2CHC2HCHC3H3SC3HC2HCH4C6PC18H20C6PC16H18CHCFeSH2C2HCHC3H4CHC8PC8H2C10H9C2H7C6PC18H16S2CHC2HCH4CHCH2C2HCH5CPSH2CSH4CH2C2H2C6HC4H4C2H2C2H2CHC4HSC2HC4HCFeC3PHC5H2C2FeHCHCH2CHC2HC4H4CHC3H2FeCHSHCSPC3HCH2CSH4CHCHSHCFeCH2CH2C3HC2H2C5HC5HCH2SC2HCHC2HCHCHCHC2HC4HCHCHC2H2C4HC3HCFeHC2HC6H2C2H3CH2CHC2H4C2HPC3H2C2H3C3H3C4SC2H2C2H2CHSHCHCPC6HCH2CSCH7CHFe2HCSHSC2HSC4HCH2CH2CFeHC2HC2
_chemical_formula_sum              "Fe256 S512 C3840 H3072 P128"
_cell_length_a       113.579
_cell_length_b       112.14
_cell_length_c       35.8183
_cell_angle_alpha    76.9435
_cell_angle_beta     76.9414
_cell_angle_gamma    100.598

_space_group_name_H-M_alt    "P 1"
_space_group_IT_number       1

loop_
  _space_group_symop_operation_xyz
  'x, y, z'

loop_
  _atom_site_type_symbol
  _atom_site_label
  _atom_site_symmetry_multiplicity
  _atom_site_fract_x
  _atom_site_fract_y
  _atom_site_fract_z
  _atom_site_occupancy
  Fe  Fe1       1.0  0.06243  0.48275  0.55627  1.0000
  S   S1        1.0  0.06815  0.47717  0.50037  1.0000
  Fe  Fe2       1.0  0.06393  0.45816  0.60782  1.0000
  S   S2        1.0  0.07008  0.45059  0.55433  1.0000
  S   S3        1.0  0.05833  0.44897  0.67538  1.0000
  Fe  Fe3       1.0  0.08288  0.47034  0.52542  1.0000
  Fe  Fe4       1.0  0.05494  0.45813  0.53200  1.0000
  S   S4        1.0  0.04141  0.45272  0.49535  1.0000
  S   S5        1.0  0.07778  0.47693  0.58011  1.0000
  S   S6        1.0  0.04820  0.46444  0.58670  1.0000
  C   C1        1.0  0.11040  0.48335  0.36999  1.0000
  H   H1        1.0  0.09273  0.47702  0.32138  1.0000
  S   S7        1.0  0.00501  0.40784  0.45995  1.0000
  C   C2        1.0  0.08891  0.45926  0.25764  1.0000
  C   C3        1.0  0.12094  0.45410  0.45257  1.0000
  C   C4        1.0  0.02165  0.46852  0.78695  1.0000
  H   H2        1.0  0.99746  0.44045  0.69821  1.0000
  C   C5        1.0  0.03044  0.45513  0.83016  1.0000
  H   H3        1.0  0.00184  0.44685  0.62532  1.0000
  C   C6        1.0  0.06148  0.48060  0.40046  1.0000
  C   C7        1.0  0.13170  0.47495  0.09296  1.0000
  H   H4        1.0  0.11743  0.45488  0.48252  1.0000
  C   C8        1.0  0.02289  0.46858  0.96985  1.0000
  H   H5        1.0  0.02907  0.48916  0.57411  1.0000
  C   C9        1.0  0.13263  0.48807  0.51515  1.0000
  S   S8        1.0  0.99079  0.47114  0.08265  1.0000
  C   C10       1.0  0.05403  0.45016  0.07822  1.0000
  H   H6        1.0  0.06455  0.46266  0.22829  1.0000
  C   C11       1.0  0.12426  0.46484  0.42003  1.0000
  H   H7        1.0  0.03587  0.44055  0.16573  1.0000
  H   H8        1.0  0.02484  0.48075  0.68063  1.0000
  S   S9        1.0  0.99014  0.40820  0.99353  1.0000
  C   C12       1.0  0.04841  0.47018  0.24064  1.0000
  H   H9        1.0  0.04129  0.48853  0.50856  1.0000
  Fe  Fe5       1.0  0.07534  0.46576  0.86998  1.0000
  S   S10       1.0  0.07586  0.45277  0.92802  1.0000
  S   S11       1.0  0.08330  0.46618  0.80458  1.0000
  C   C13       1.0  0.99326  0.49343  0.64147  1.0000
  S   S12       1.0  0.06658  0.47313  0.97300  1.0000
  Fe  Fe6       1.0  0.08502  0.47033  0.94246  1.0000
  S   S13       1.0  0.10171  0.47850  0.47746  1.0000
  Fe  Fe7       1.0  0.05729  0.45662  0.95464  1.0000
  S   S14       1.0  0.04008  0.44351  0.00332  1.0000
  S   S15       1.0  0.05635  0.46849  0.89619  1.0000
  C   C14       1.0  0.02603  0.43438  0.99911  1.0000
  C   C15       1.0  0.02478  0.43231  0.96292  1.0000
  C   C16       1.0  0.01369  0.42445  0.96160  1.0000
  C   C17       1.0  0.00361  0.41873  0.99622  1.0000
  C   C18       1.0  0.00475  0.42109  0.03216  1.0000
  C   C19       1.0  0.01592  0.42875  0.03363  1.0000
  H   H10       1.0  0.03249  0.43646  0.93621  1.0000
  H   H11       1.0  0.01298  0.42263  0.93372  1.0000
  H   H12       1.0  0.99716  0.41675  0.05908  1.0000
  H   H13       1.0  0.01674  0.43027  0.06179  1.0000
  H   H14       1.0  0.14225  0.49415  0.38535  1.0000
  C   C20       1.0  0.99113  0.43571  0.90175  1.0000
  H   H15       1.0  0.12362  0.48056  0.89559  1.0000
  C   C21       1.0  0.98793  0.44619  0.91283  1.0000
  Fe  Fe8       1.0  0.06701  0.48447  0.91267  1.0000
  H   H16       1.0  0.06259  0.47747  0.65710  1.0000
  Fe  Fe9       1.0  0.99016  0.49089  0.05579  1.0000
  C   C22       1.0  0.10249  0.49137  0.37588  1.0000
  H   H17       1.0  0.99968  0.48378  0.92931  1.0000
  H   H18       1.0  0.12579  0.47351  0.98567  1.0000
  C   C23       1.0  0.03464  0.48511  0.67487  1.0000
  H   H19       1.0  0.10681  0.47332  0.38453  1.0000
  C   C24       1.0  0.12258  0.46489  0.29339  1.0000
  H   H20       1.0  0.04015  0.46786  0.67110  1.0000
  C   C25       1.0  0.12259  0.48164  0.99099  1.0000
  C   C26       1.0  0.06416  0.48602  0.75393  1.0000
  H   H21       1.0  0.08510  0.44963  0.25788  1.0000
  C   C27       1.0  0.13237  0.47457  0.29341  1.0000
  C   C28       1.0  0.12222  0.44248  0.44648  1.0000
  H   H22       1.0  0.00501  0.45557  0.42794  1.0000
  C   C29       1.0  0.06521  0.45425  0.71077  1.0000
  C   C30       1.0  0.05875  0.44971  0.75169  1.0000
  C   C31       1.0  0.06401  0.45343  0.78075  1.0000
  C   C32       1.0  0.07594  0.46155  0.76930  1.0000
  C   C33       1.0  0.08241  0.46603  0.72840  1.0000
  C   C34       1.0  0.07703  0.46258  0.69928  1.0000
  H   H23       1.0  0.04970  0.44311  0.76103  1.0000
  H   H24       1.0  0.05906  0.44970  0.81209  1.0000
  H   H25       1.0  0.00682  0.47768  0.60094  1.0000
  H   H26       1.0  0.08221  0.46604  0.66806  1.0000
  C   C35       1.0  0.03140  0.44000  0.48614  1.0000
  C   C36       1.0  0.03109  0.42727  0.50182  1.0000
  C   C37       1.0  0.02313  0.41763  0.49305  1.0000
  C   C38       1.0  0.01517  0.42048  0.46905  1.0000
  C   C39       1.0  0.01551  0.43319  0.45328  1.0000
  C   C40       1.0  0.02358  0.44285  0.46165  1.0000
  H   H27       1.0  0.03706  0.42485  0.52048  1.0000
  H   H28       1.0  0.02304  0.40785  0.50532  1.0000
  H   H29       1.0  0.00955  0.43555  0.43462  1.0000
  H   H30       1.0  0.02370  0.45262  0.44926  1.0000
  H   H31       1.0  0.11473  0.46662  0.08145  1.0000
  C   C41       1.0  0.04324  0.47776  0.66952  1.0000
  H   H32       1.0  0.00625  0.44325  0.56572  1.0000
  C   C42       1.0  0.05827  0.48517  0.79343  1.0000
  C   C43       1.0  0.03797  0.47318  0.18858  1.0000
  H   H33       1.0  0.98965  0.44784  0.98802  1.0000
  C   C44       1.0  0.99701  0.42868  0.54544  1.0000
  C   C45       1.0  0.13010  0.49060  0.00359  1.0000
  C   C46       1.0  0.04368  0.49182  0.01628  1.0000
  C   C47       1.0  0.11598  0.48686  0.48242  1.0000
  H   H34       1.0  0.01057  0.48884  0.25528  1.0000
  S   S16       1.0  0.00742  0.48177  0.41968  1.0000
  H   H35       1.0  0.09170  0.47213  0.71919  1.0000
  C   C48       1.0  0.14101  0.48180  0.25700  1.0000
  H   H36       1.0  0.14658  0.48377  0.87901  1.0000
  H   H37       1.0  0.11374  0.48789  0.66017  1.0000
  C   C49       1.0  0.14038  0.47880  0.22155  1.0000
  C   C50       1.0  0.03877  0.47385  0.22648  1.0000
  C   C51       1.0  0.99357  0.48338  0.91014  1.0000
  H   H38       1.0  0.08851  0.46891  0.05171  1.0000
  H   H39       1.0  0.04446  0.44516  0.08304  1.0000
  C   C52       1.0  0.01953  0.45913  0.12084  1.0000
  C   C53       1.0  0.02126  0.45521  0.86342  1.0000
  H   H40       1.0  0.08332  0.44971  0.02961  1.0000
  H   H41       1.0  0.03020  0.47561  0.17859  1.0000
  C   C54       1.0  0.04688  0.46897  0.16426  1.0000
  C   C55       1.0  0.01782  0.46864  0.93771  1.0000
  P   P1        1.0  0.99958  0.46079  0.90172  1.0000
  H   H42       1.0  0.01518  0.42532  0.18815  1.0000
  C   C56       1.0  0.13025  0.45240  0.37517  1.0000
  C   C57       1.0  0.12957  0.48985  0.89062  1.0000
  S   S17       1.0  0.10219  0.47159  0.96767  1.0000
  C   C58       1.0  0.06356  0.44607  0.05641  1.0000
  H   H43       1.0  0.13893  0.48925  0.00800  1.0000
  C   C59       1.0  0.12288  0.48834  0.34689  1.0000
  C   C60       1.0  0.02977  0.45562  0.13183  1.0000
  C   C61       1.0  0.03063  0.46176  0.79189  1.0000
  H   H44       1.0  0.03735  0.44982  0.83416  1.0000
  H   H45       1.0  0.11552  0.45951  0.32091  1.0000
  C   C62       1.0  0.02455  0.48397  0.55691  1.0000
  C   C63       1.0  0.03150  0.48361  0.51984  1.0000
  C   C64       1.0  0.02582  0.47692  0.49741  1.0000
  C   C65       1.0  0.01326  0.47040  0.51229  1.0000
  H   H46       1.0  0.05633  0.47156  0.42167  1.0000
  H   H47       1.0  0.04881  0.47040  0.27045  1.0000
  H   H48       1.0  0.00910  0.46513  0.49460  1.0000
  H   H49       1.0  0.07176  0.47641  0.08966  1.0000
  H   H50       1.0  0.11441  0.47497  0.54047  1.0000
  C   C66       1.0  0.01212  0.46190  0.85872  1.0000
  P   P2        1.0  0.13326  0.47811  0.33958  1.0000
  C   C67       1.0  0.13087  0.46884  0.22199  1.0000
  C   C68       1.0  0.05646  0.46513  0.17896  1.0000
  C   C69       1.0  0.99202  0.47356  0.89197  1.0000
  H   H51       1.0  0.13743  0.47068  0.07403  1.0000
  C   C70       1.0  0.02811  0.44342  0.15661  1.0000
  C   C71       1.0  0.12697  0.44165  0.40783  1.0000
  H   H52       1.0  0.12352  0.47381  0.42548  1.0000
  C   C72       1.0  0.01643  0.43479  0.16946  1.0000
  C   C73       1.0  0.11691  0.48638  0.14096  1.0000
  H   H53       1.0  0.14716  0.48513  0.10767  1.0000
  C   C74       1.0  0.04462  0.48119  0.08236  1.0000
  H   H54       1.0  0.03120  0.47658  0.46871  1.0000
  C   C75       1.0  0.09966  0.48107  0.22068  1.0000
  C   C76       1.0  0.01667  0.44291  0.27599  1.0000
  C   C77       1.0  0.01754  0.44377  0.31366  1.0000
  C   C78       1.0  0.01166  0.45181  0.33144  1.0000
  C   C79       1.0  0.00466  0.45878  0.31208  1.0000
  C   C80       1.0  0.00340  0.45762  0.27481  1.0000
  C   C81       1.0  0.00976  0.44993  0.25639  1.0000
  H   H55       1.0  0.99357  0.48438  0.50623  1.0000
  C   C82       1.0  0.01202  0.48940  0.22387  1.0000
  C   C83       1.0  0.00531  0.47982  0.21192  1.0000
  C   C84       1.0  0.98912  0.44693  0.55396  1.0000
  P   P3        1.0  0.10705  0.49307  0.17342  1.0000
  H   H56       1.0  0.02114  0.44984  0.89283  1.0000
  C   C85       1.0  0.11153  0.47833  0.12105  1.0000
  C   C86       1.0  0.00750  0.48074  0.17103  1.0000
  C   C87       1.0  0.07598  0.45270  0.04754  1.0000
  H   H57       1.0  0.10166  0.47652  0.12344  1.0000
  H   H58       1.0  0.99725  0.43174  0.16777  1.0000
  C   C88       1.0  0.12031  0.48273  0.51548  1.0000
  H   H59       1.0  0.00327  0.48851  0.72490  1.0000
  H   H60       1.0  0.00071  0.43583  0.88862  1.0000
  H   H61       1.0  0.06039  0.47923  0.73977  1.0000
  C   C89       1.0  0.00632  0.43836  0.15813  1.0000
  H   H62       1.0  0.08405  0.45502  0.32181  1.0000
  C   C90       1.0  0.99811  0.43991  0.55654  1.0000
  C   C91       1.0  0.99890  0.45376  0.98236  1.0000
  H   H63       1.0  0.02114  0.43660  0.26233  1.0000
  H   H64       1.0  0.02262  0.43809  0.32939  1.0000
  H   H65       1.0  0.01232  0.45245  0.36068  1.0000
  H   H66       1.0  0.00014  0.46489  0.32665  1.0000
  H   H67       1.0  0.00912  0.44914  0.22729  1.0000
  H   H68       1.0  0.00004  0.45329  0.12559  1.0000
  H   H69       1.0  0.09496  0.46597  0.19391  1.0000
  H   H70       1.0  0.02334  0.47442  0.90822  1.0000
  C   C92       1.0  0.00625  0.47049  0.54986  1.0000
  H   H71       1.0  0.00288  0.47333  0.16070  1.0000
  C   C93       1.0  0.11111  0.48321  0.98442  1.0000
  C   C94       1.0  0.01240  0.46858  0.82016  1.0000
  H   H72       1.0  0.04993  0.47780  0.80993  1.0000
  C   C95       1.0  0.09317  0.47470  0.29338  1.0000
  C   C96       1.0  0.99192  0.44605  0.68445  1.0000
  C   C97       1.0  0.01596  0.46118  0.00819  1.0000
  S   S18       1.0  0.08588  0.48276  0.88273  1.0000
  C   C98       1.0  0.07890  0.46353  0.06006  1.0000
  C   C99       1.0  0.11889  0.47263  0.09732  1.0000
  H   H73       1.0  0.99869  0.44797  0.04408  1.0000
  H   H74       1.0  0.11969  0.43418  0.47182  1.0000
  C   C100      1.0  0.99431  0.46946  0.42735  1.0000
  C   C101      1.0  0.12851  0.46400  0.38099  1.0000
  H   H75       1.0  0.06310  0.46120  0.16194  1.0000
  H   H76       1.0  0.02181  0.47365  0.75734  1.0000
  C   C102      1.0  0.05726  0.46583  0.21688  1.0000
  C   C103      1.0  0.09861  0.48410  0.25714  1.0000
  H   H77       1.0  0.11448  0.45433  0.25811  1.0000
  H   H78       1.0  0.09306  0.48747  0.39544  1.0000
  C   C104      1.0  0.06939  0.46773  0.08155  1.0000
  C   C105      1.0  0.00788  0.45052  0.13410  1.0000
  H   H79       1.0  0.13045  0.46645  0.19457  1.0000
  C   C106      1.0  0.99432  0.44962  0.64290  1.0000
  C   C107      1.0  0.06725  0.48123  0.36104  1.0000
  C   C108      1.0  0.01196  0.47746  0.57190  1.0000
  C   C109      1.0  0.00397  0.45383  0.01442  1.0000
  P   P4        1.0  0.04472  0.46685  0.11744  1.0000
  C   C110      1.0  0.08830  0.46229  0.29366  1.0000
  C   C111      1.0  0.99310  0.48861  0.68120  1.0000
  H   H80       1.0  0.06122  0.43802  0.04505  1.0000
  H   H81       1.0  0.03775  0.46163  0.76613  1.0000
  C   C112      1.0  0.13719  0.48316  0.11177  1.0000
  C   C113      1.0  0.05690  0.46088  0.09168  1.0000
  H   H82       1.0  0.02038  0.46848  0.10222  1.0000
  C   C114      1.0  0.14250  0.49166  0.88152  1.0000
  P   P5        1.0  0.99433  0.46642  0.24938  1.0000
  C   C115      1.0  0.05595  0.48316  0.66160  1.0000
  C   C116      1.0  0.12988  0.48898  0.13533  1.0000
  H   H83       1.0  0.06653  0.47264  0.35174  1.0000
  H   H84       1.0  0.00553  0.47382  0.81555  1.0000
  C   C117      1.0  0.00583  0.46111  0.94367  1.0000
  C   C118      1.0  0.12190  0.46198  0.25783  1.0000
  H   H85       1.0  0.04280  0.47203  0.03601  1.0000
  C   C119      1.0  0.09456  0.46859  0.22132  1.0000
  H   H86       1.0  0.00402  0.42338  0.54733  1.0000
  H   H87       1.0  0.01996  0.46091  0.03299  1.0000
  H   H88       1.0  0.03228  0.47405  0.96493  1.0000
  C   C120      1.0  0.04362  0.48083  0.04422  1.0000
  C   C121      1.0  0.99590  0.45729  0.42944  1.0000
  C   C122      1.0  0.00353  0.49249  0.69414  1.0000
  H   H89       1.0  0.12823  0.43268  0.40327  1.0000
  Fe  Fe10      1.0  0.98810  0.40730  0.43411  1.0000
  H   H90       1.0  0.05743  0.49098  0.44321  1.0000
  P   P6        1.0  0.99032  0.46113  0.57051  1.0000
  H   H91       1.0  0.03167  0.47685  0.24538  1.0000
  H   H92       1.0  0.13603  0.48440  0.54019  1.0000
  C   C123      1.0  0.06216  0.49162  0.41268  1.0000
  C   C124      1.0  0.14881  0.48548  0.33944  1.0000
  H   H93       1.0  0.13424  0.45166  0.34560  1.0000
  H   H94       1.0  0.04304  0.49156  0.98670  1.0000
  H   H95       1.0  0.14729  0.48429  0.19375  1.0000
  C   C125      1.0  0.01575  0.49141  0.14260  1.0000
  H   H96       1.0  0.07991  0.49023  0.20305  1.0000
  H   H97       1.0  0.14830  0.48972  0.25570  1.0000
  H   H98       1.0  0.98842  0.49108  0.25109  1.0000
  C   C126      1.0  0.04578  0.49274  0.09198  1.0000
  H   H99       1.0  0.01712  0.49218  0.11108  1.0000
  H   H100      1.0  0.04667  0.49332  0.12092  1.0000
  H   H101      1.0  0.05872  0.49301  0.84262  1.0000
  C   C127      1.0  0.15031  0.49269  0.36606  1.0000
  C   C128      1.0  0.07380  0.49292  0.33382  1.0000
  H   H102      1.0  0.10153  0.49354  0.71700  1.0000
  C   C129      1.0  0.06336  0.49363  0.81214  1.0000
  H   H103      1.0  0.07813  0.49343  0.30315  1.0000
  H   H104      1.0  0.10204  0.49367  0.25796  1.0000
  C   C130      1.0  0.10725  0.49393  0.99088  1.0000
  C   C131      1.0  0.08285  0.49467  0.17118  1.0000
  S   S19       1.0  0.03346  0.54231  0.38858  1.0000
  H   H105      1.0  0.09619  0.51703  0.58296  1.0000
  Fe  Fe11      1.0  0.08736  0.58281  0.58282  1.0000
  S   S20       1.0  0.08483  0.59304  0.52409  1.0000
  S   S21       1.0  0.08130  0.58667  0.64337  1.0000
  Fe  Fe12      1.0  0.09562  0.56258  0.54802  1.0000
  S   S22       1.0  0.09442  0.57120  0.48662  1.0000
  S   S23       1.0  0.09990  0.54381  0.56595  1.0000
  Fe  Fe13      1.0  0.10348  0.58948  0.49701  1.0000
  S   S24       1.0  0.11919  0.60382  0.44621  1.0000
  Fe  Fe14      1.0  0.07603  0.57398  0.51796  1.0000
  S   S25       1.0  0.05659  0.56735  0.50942  1.0000
  S   S26       1.0  0.10629  0.58030  0.55595  1.0000
  S   S27       1.0  0.07696  0.56436  0.57900  1.0000
  H   H106      1.0  0.02798  0.56361  0.86280  1.0000
  C   C132      1.0  0.99891  0.53273  0.83600  1.0000
  C   C133      1.0  0.03443  0.54571  0.65238  1.0000
  C   C134      1.0  0.09325  0.53354  0.45608  1.0000
  C   C135      1.0  0.12836  0.57421  0.45511  1.0000
  C   C136      1.0  0.05439  0.52376  0.80185  1.0000
  C   C137      1.0  0.00191  0.55391  0.21285  1.0000
  H   H107      1.0  0.12814  0.61992  0.16746  1.0000
  C   C138      1.0  0.06872  0.50339  0.38564  1.0000
  H   H108      1.0  0.14713  0.54447  0.31380  1.0000
  C   C139      1.0  0.10549  0.50061  0.68833  1.0000
  C   C140      1.0  0.08907  0.54768  0.30596  1.0000
  C   C141      1.0  0.04629  0.57768  0.68948  1.0000
  S   S28       1.0  0.06324  0.50367  0.90215  1.0000
  C   C142      1.0  0.03596  0.54758  0.97878  1.0000
  Fe  Fe15      1.0  0.10984  0.58665  0.82766  1.0000
  S   S29       1.0  0.10388  0.59453  0.88015  1.0000
  S   S30       1.0  0.11507  0.59501  0.76013  1.0000
  Fe  Fe16      1.0  0.10990  0.56167  0.88032  1.0000
  S   S31       1.0  0.10404  0.56721  0.93654  1.0000
  S   S32       1.0  0.11363  0.54257  0.88146  1.0000
  Fe  Fe17      1.0  0.09036  0.57526  0.90876  1.0000
  S   S33       1.0  0.07026  0.57219  0.94601  1.0000
  Fe  Fe18      1.0  0.11804  0.58595  0.90520  1.0000
  S   S34       1.0  0.13028  0.59146  0.94546  1.0000
  S   S35       1.0  0.09529  0.56842  0.85461  1.0000
  S   S36       1.0  0.12492  0.57950  0.85075  1.0000
  C   C143      1.0  0.07735  0.51438  0.89557  1.0000
  C   C144      1.0  0.07961  0.52689  0.87294  1.0000
  C   C145      1.0  0.09100  0.53541  0.86701  1.0000
  C   C146      1.0  0.10001  0.53157  0.88452  1.0000
  C   C147      1.0  0.09787  0.51896  0.90627  1.0000
  C   C148      1.0  0.08651  0.51039  0.91203  1.0000
  H   H109      1.0  0.07263  0.52997  0.85969  1.0000
  H   H110      1.0  0.09287  0.54485  0.84818  1.0000
  H   H111      1.0  0.10475  0.51594  0.92014  1.0000
  C   C149      1.0  0.14706  0.55766  0.39073  1.0000
  H   H112      1.0  0.02295  0.50324  0.44186  1.0000
  H   H113      1.0  0.13692  0.52495  0.94366  1.0000
  H   H114      1.0  0.03143  0.61812  0.17121  1.0000
  C   C150      1.0  0.05025  0.53899  0.93801  1.0000
  C   C151      1.0  0.06019  0.54932  0.93335  1.0000
  C   C152      1.0  0.05806  0.55892  0.95109  1.0000
  C   C153      1.0  0.04587  0.55802  0.97359  1.0000
  H   H115      1.0  0.05202  0.53166  0.92387  1.0000
  H   H116      1.0  0.06949  0.54985  0.91584  1.0000
  H   H117      1.0  0.04404  0.56550  0.98675  1.0000
  H   H118      1.0  0.15358  0.58608  0.91553  1.0000
  C   C154      1.0  0.05323  0.56398  0.05769  1.0000
  S   S37       1.0  0.98889  0.52508  0.01373  1.0000
  C   C155      1.0  0.14165  0.60380  0.95133  1.0000
  C   C156      1.0  0.14539  0.61612  0.92582  1.0000
  C   C157      1.0  0.14500  0.54542  0.34381  1.0000
  H   H119      1.0  0.15323  0.58552  0.48541  1.0000
  C   C158      1.0  0.01434  0.50600  0.62738  1.0000
  H   H120      1.0  0.14126  0.61847  0.90158  1.0000
  C   C159      1.0  0.13705  0.59503  0.35013  1.0000
  H   H121      1.0  0.12338  0.57720  0.43374  1.0000
  H   H122      1.0  0.02571  0.53918  0.88504  1.0000
  H   H123      1.0  0.08474  0.50077  0.93004  1.0000
  H   H124      1.0  0.02005  0.51254  0.49889  1.0000
  C   C160      1.0  0.04858  0.53296  0.81235  1.0000
  H   H125      1.0  0.04392  0.50586  0.39890  1.0000
  H   H126      1.0  0.04775  0.53426  0.84189  1.0000
  H   H127      1.0  0.10224  0.61594  0.61329  1.0000
  C   C161      1.0  0.10786  0.63812  0.64398  1.0000
  C   C162      1.0  0.09065  0.58769  0.67679  1.0000
  C   C163      1.0  0.08514  0.58812  0.71567  1.0000
  C   C164      1.0  0.09241  0.58974  0.74219  1.0000
  C   C165      1.0  0.10530  0.59111  0.72995  1.0000
  C   C166      1.0  0.11076  0.59051  0.69131  1.0000
  C   C167      1.0  0.10347  0.58861  0.66507  1.0000
  H   H128      1.0  0.07525  0.58750  0.72505  1.0000
  H   H129      1.0  0.08814  0.59057  0.77138  1.0000
  H   H130      1.0  0.12073  0.59165  0.68157  1.0000
  H   H131      1.0  0.10780  0.58819  0.63542  1.0000
  C   C168      1.0  0.13333  0.61206  0.45231  1.0000
  C   C169      1.0  0.13550  0.61077  0.48978  1.0000
  C   C170      1.0  0.14654  0.61801  0.49345  1.0000
  C   C171      1.0  0.12714  0.50139  0.32848  1.0000
  C   C172      1.0  0.15151  0.55299  0.87300  1.0000
  C   C173      1.0  0.14258  0.62023  0.41851  1.0000
  H   H132      1.0  0.12853  0.60447  0.51599  1.0000
  C   C174      1.0  0.02318  0.50499  0.73763  1.0000
  H   H133      1.0  0.13827  0.51477  0.22843  1.0000
  H   H134      1.0  0.14103  0.62133  0.38941  1.0000
  C   C175      1.0  0.05058  0.55935  0.47707  1.0000
  C   C176      1.0  0.03768  0.55373  0.48738  1.0000
  C   C177      1.0  0.03233  0.54809  0.46151  1.0000
  C   C178      1.0  0.03977  0.54819  0.42442  1.0000
  C   C179      1.0  0.05809  0.55906  0.44060  1.0000
  H   H135      1.0  0.03174  0.55391  0.51537  1.0000
  H   H136      1.0  0.02239  0.54401  0.46978  1.0000
  H   H137      1.0  0.13448  0.49549  0.14869  1.0000
  C   C180      1.0  0.05269  0.55370  0.41436  1.0000
  H   H138      1.0  0.07055  0.50529  0.09519  1.0000
  C   C181      1.0  0.04298  0.54923  0.61469  1.0000
  C   C182      1.0  0.08812  0.53220  0.56159  1.0000
  C   C183      1.0  0.07823  0.53540  0.54765  1.0000
  C   C184      1.0  0.06879  0.52593  0.54484  1.0000
  C   C185      1.0  0.06930  0.51328  0.55540  1.0000
  C   C186      1.0  0.07926  0.51022  0.56891  1.0000
  C   C187      1.0  0.08860  0.51959  0.57226  1.0000
  H   H139      1.0  0.07788  0.54515  0.53859  1.0000
  H   H140      1.0  0.06114  0.52842  0.53429  1.0000
  C   C188      1.0  0.01221  0.50788  0.75641  1.0000
  H   H141      1.0  0.04450  0.51167  0.00448  1.0000
  C   C189      1.0  0.14073  0.49773  0.48212  1.0000
  H   H142      1.0  0.00455  0.55320  0.24030  1.0000
  C   C190      1.0  0.00695  0.56009  0.14064  1.0000
  H   H143      1.0  0.13513  0.57503  0.36560  1.0000
  H   H144      1.0  0.15334  0.54873  0.49390  1.0000
  H   H145      1.0  0.14068  0.59011  0.23449  1.0000
  C   C191      1.0  0.04240  0.52722  0.61947  1.0000
  C   C192      1.0  0.02536  0.57813  0.72250  1.0000
  H   H146      1.0  0.14017  0.56797  0.68919  1.0000
  H   H147      1.0  0.13162  0.56200  0.94123  1.0000
  C   C193      1.0  0.13003  0.55858  0.51116  1.0000
  H   H148      1.0  0.01734  0.56589  0.78202  1.0000
  Fe  Fe19      1.0  0.00443  0.50097  0.39751  1.0000
  C   C194      1.0  0.07745  0.50315  0.11049  1.0000
  C   C195      1.0  0.01413  0.50146  0.66752  1.0000
  H   H149      1.0  0.05981  0.51474  0.75570  1.0000
  H   H150      1.0  0.05333  0.54283  0.56854  1.0000
  H   H151      1.0  0.14229  0.50977  0.42451  1.0000
  H   H152      1.0  0.09268  0.51022  0.05669  1.0000
  C   C196      1.0  0.08575  0.53696  0.33867  1.0000
  C   C197      1.0  0.14073  0.54689  0.42234  1.0000
  H   H153      1.0  0.04537  0.52021  0.60564  1.0000
  H   H154      1.0  0.02283  0.56858  0.25449  1.0000
  Fe  Fe20      1.0  0.00580  0.51694  0.00459  1.0000
  C   C198      1.0  0.01080  0.55940  0.17557  1.0000
  H   H155      1.0  0.13510  0.56291  0.28570  1.0000
  H   H156      1.0  0.11564  0.55584  0.48167  1.0000
  S   S38       1.0  0.02592  0.52493  0.96471  1.0000
  C   C199      1.0  0.99454  0.55486  0.14301  1.0000
  H   H157      1.0  0.00070  0.50905  0.81173  1.0000
  H   H158      1.0  0.04645  0.55912  0.59782  1.0000
  H   H159      1.0  0.01734  0.58208  0.72257  1.0000
  H   H160      1.0  0.05495  0.51299  0.66433  1.0000
  C   C200      1.0  0.05175  0.52127  0.46507  1.0000
  Fe  Fe21      1.0  0.00464  0.52050  0.32257  1.0000
  C   C201      1.0  0.13617  0.50235  0.45004  1.0000
  H   H161      1.0  0.07418  0.57292  0.82409  1.0000
  C   C202      1.0  0.04691  0.54000  0.59821  1.0000
  H   H162      1.0  0.14799  0.61723  0.52256  1.0000
  H   H163      1.0  0.01246  0.54296  0.78014  1.0000
  C   C203      1.0  0.12547  0.59583  0.26744  1.0000
  C   C204      1.0  0.10687  0.50437  0.35804  1.0000
  H   H164      1.0  0.05960  0.52629  0.47218  1.0000
  S   S39       1.0  0.01051  0.52399  0.25487  1.0000
  C   C205      1.0  0.11248  0.49741  0.65629  1.0000
  C   C206      1.0  0.00393  0.50203  0.61450  1.0000
  C   C207      1.0  0.08541  0.50987  0.44432  1.0000
  C   C208      1.0  0.01082  0.53976  0.81215  1.0000
  C   C209      1.0  0.14830  0.58983  0.10007  1.0000
  H   H165      1.0  0.10495  0.52495  0.48784  1.0000
  C   C210      1.0  0.04479  0.57292  0.87264  1.0000
  H   H166      1.0  0.07960  0.51291  0.32453  1.0000
  C   C211      1.0  0.14722  0.60103  0.98266  1.0000
  C   C212      1.0  0.03805  0.56544  0.85436  1.0000
  C   C213      1.0  0.11916  0.50937  0.33402  1.0000
  H   H167      1.0  0.05019  0.58353  0.11699  1.0000
  H   H168      1.0  0.09800  0.50397  0.47739  1.0000
  C   C214      1.0  0.11148  0.51238  0.81208  1.0000
  C   C215      1.0  0.04633  0.56843  0.72293  1.0000
  H   H169      1.0  0.00368  0.52350  0.12493  1.0000
  H   H170      1.0  0.03585  0.58972  0.66323  1.0000
  H   H171      1.0  0.98742  0.52293  0.89593  1.0000
  C   C216      1.0  0.98945  0.54898  0.21508  1.0000
  C   C217      1.0  0.14156  0.59124  0.13615  1.0000
  S   S40       1.0  0.00102  0.51345  0.43746  1.0000
  C   C218      1.0  0.13794  0.65662  0.58819  1.0000
  C   C219      1.0  0.02782  0.56134  0.25154  1.0000
  C   C220      1.0  0.12443  0.50538  0.20528  1.0000
  C   C221      1.0  0.13333  0.57019  0.11003  1.0000
  C   C222      1.0  0.12640  0.57160  0.14558  1.0000
  C   C223      1.0  0.13046  0.58210  0.15859  1.0000
  C   C224      1.0  0.12359  0.63324  0.52508  1.0000
  H   H172      1.0  0.02664  0.54706  0.99597  1.0000
  C   C225      1.0  0.05781  0.57570  0.86144  1.0000
  C   C226      1.0  0.00645  0.52346  0.18267  1.0000
  C   C227      1.0  0.13352  0.54292  0.94683  1.0000
  C   C228      1.0  0.03719  0.56552  0.12764  1.0000
  H   H173      1.0  0.03888  0.53991  0.30832  1.0000
  H   H174      1.0  0.01241  0.58490  0.14874  1.0000
  H   H175      1.0  0.11786  0.56459  0.16293  1.0000
  H   H176      1.0  0.12485  0.58304  0.18595  1.0000
  C   C229      1.0  0.15141  0.54216  0.52305  1.0000
  H   H177      1.0  0.09228  0.64344  0.67698  1.0000
  C   C230      1.0  0.14812  0.59923  0.62142  1.0000
  H   H178      1.0  0.06005  0.55099  0.30356  1.0000
  H   H179      1.0  0.06798  0.56341  0.43197  1.0000
  H   H180      1.0  0.14116  0.61531  0.32818  1.0000
  H   H181      1.0  0.07969  0.50061  0.57775  1.0000
  H   H182      1.0  0.02831  0.55710  0.31299  1.0000
  C   C231      1.0  0.13310  0.55961  0.02047  1.0000
  C   C232      1.0  0.13493  0.54790  0.03781  1.0000
  C   C233      1.0  0.12477  0.53818  0.06275  1.0000
  C   C234      1.0  0.11278  0.54022  0.07083  1.0000
  C   C235      1.0  0.11085  0.55202  0.05395  1.0000
  C   C236      1.0  0.12109  0.56156  0.02768  1.0000
  P   P7        1.0  0.09516  0.55423  0.06198  1.0000
  C   C237      1.0  0.09580  0.57085  0.04331  1.0000
  C   C238      1.0  0.08682  0.54483  0.03677  1.0000
  C   C239      1.0  0.07381  0.54285  0.04468  1.0000
  C   C240      1.0  0.06738  0.53614  0.02376  1.0000
  C   C241      1.0  0.07383  0.53099  0.99587  1.0000
  C   C242      1.0  0.08669  0.53260  0.98884  1.0000
  C   C243      1.0  0.09320  0.53956  0.00886  1.0000
  C   C244      1.0  0.10382  0.58003  0.05320  1.0000
  C   C245      1.0  0.10524  0.59289  0.03593  1.0000
  C   C246      1.0  0.09853  0.59672  0.00913  1.0000
  C   C247      1.0  0.09031  0.58768  0.99989  1.0000
  C   C248      1.0  0.08894  0.57482  0.01690  1.0000
  C   C249      1.0  0.08701  0.54854  0.11476  1.0000
  C   C250      1.0  0.08494  0.55695  0.13790  1.0000
  C   C251      1.0  0.07840  0.55236  0.17844  1.0000
  C   C252      1.0  0.07387  0.53937  0.19627  1.0000
  C   C253      1.0  0.07579  0.53094  0.17347  1.0000
  C   C254      1.0  0.08226  0.53550  0.13288  1.0000
  H   H183      1.0  0.14097  0.56707  0.00039  1.0000
  H   H184      1.0  0.11420  0.49843  0.90191  1.0000
  H   H185      1.0  0.12619  0.52896  0.07486  1.0000
  H   H186      1.0  0.10501  0.53245  0.08887  1.0000
  H   H187      1.0  0.11991  0.57045  0.01178  1.0000
  H   H188      1.0  0.06874  0.54684  0.06605  1.0000
  H   H189      1.0  0.05746  0.53524  0.02809  1.0000
  H   H190      1.0  0.06894  0.52601  0.97891  1.0000
  H   H191      1.0  0.09173  0.52881  0.96682  1.0000
  H   H192      1.0  0.10325  0.54110  0.00127  1.0000
  H   H193      1.0  0.10942  0.57725  0.07287  1.0000
  H   H194      1.0  0.09993  0.60667  0.99471  1.0000
  H   H195      1.0  0.08531  0.59061  0.97837  1.0000
  H   H196      1.0  0.08291  0.56808  0.00785  1.0000
  H   H197      1.0  0.08816  0.56705  0.12485  1.0000
  H   H198      1.0  0.07670  0.55891  0.19596  1.0000
  H   H199      1.0  0.06877  0.53585  0.22767  1.0000
  H   H200      1.0  0.07213  0.52086  0.18713  1.0000
  H   H201      1.0  0.08339  0.52884  0.11550  1.0000
  C   C255      1.0  0.12393  0.56224  0.48234  1.0000
  P   P8        1.0  0.14678  0.60511  0.15179  1.0000
  H   H202      1.0  0.11084  0.60385  0.29314  1.0000
  H   H203      1.0  0.07820  0.50933  0.80693  1.0000
  H   H204      1.0  0.05471  0.56512  0.72294  1.0000
  P   P9        1.0  0.14751  0.56229  0.55334  1.0000
  Fe  Fe22      1.0  0.01524  0.52912  0.38824  1.0000
  H   H205      1.0  0.14167  0.62908  0.02432  1.0000
  C   C256      1.0  0.03896  0.60186  0.18427  1.0000
  H   H206      1.0  0.00475  0.52688  0.92658  1.0000
  C   C257      1.0  0.04433  0.56049  0.82531  1.0000
  C   C258      1.0  0.12426  0.49998  0.89404  1.0000
  H   H207      1.0  0.06251  0.55988  0.79126  1.0000
  P   P10       1.0  0.06895  0.51758  0.40167  1.0000
  C   C259      1.0  0.01699  0.50284  0.81989  1.0000
  H   H208      1.0  0.03855  0.52399  0.51393  1.0000
  C   C260      1.0  0.15161  0.61019  0.63274  1.0000
  H   H209      1.0  0.13668  0.50541  0.31030  1.0000
  H   H210      1.0  0.14949  0.57835  0.05934  1.0000
  C   C261      1.0  0.09828  0.52360  0.47083  1.0000
  H   H211      1.0  0.01452  0.60716  0.14845  1.0000
  H   H212      1.0  0.09927  0.50022  0.79110  1.0000
  C   C262      1.0  0.07459  0.50397  0.34607  1.0000
  C   C263      1.0  0.12287  0.52961  0.16870  1.0000
  C   C264      1.0  0.09434  0.51177  0.46501  1.0000
  C   C265      1.0  0.11658  0.63064  0.49913  1.0000
  H   H213      1.0  0.09882  0.55224  0.29114  1.0000
  C   C266      1.0  0.05594  0.57447  0.07194  1.0000
  C   C267      1.0  0.13450  0.59639  0.23291  1.0000
  H   H214      1.0  0.15315  0.59195  0.62566  1.0000
  C   C268      1.0  0.15149  0.58485  0.31581  1.0000
  C   C269      1.0  0.15042  0.64581  0.54989  1.0000
  H   H215      1.0  0.05804  0.51812  0.82319  1.0000
  C   C270      1.0  0.13551  0.60498  0.19646  1.0000
  H   H216      1.0  0.11271  0.61927  0.22902  1.0000
  H   H217      1.0  0.03994  0.57653  0.89562  1.0000
  H   H218      1.0  0.12644  0.54927  0.53213  1.0000
  H   H219      1.0  0.13156  0.52711  0.43959  1.0000
  C   C271      1.0  0.03698  0.54848  0.21291  1.0000
  C   C272      1.0  0.14803  0.53987  0.89070  1.0000
  C   C273      1.0  0.06725  0.54691  0.31260  1.0000
  C   C274      1.0  0.11760  0.56241  0.64269  1.0000
  H   H220      1.0  0.12251  0.53901  0.15368  1.0000
  C   C275      1.0  0.04796  0.57526  0.10678  1.0000
  H   H221      1.0  0.09332  0.63150  0.74310  1.0000
  H   H222      1.0  0.02495  0.50765  0.20500  1.0000
  C   C276      1.0  0.08028  0.51979  0.42941  1.0000
  H   H223      1.0  0.14261  0.59166  0.43459  1.0000
  C   C277      1.0  0.11749  0.62453  0.68360  1.0000
  H   H224      1.0  0.12419  0.61890  0.68636  1.0000
  C   C278      1.0  0.14511  0.62964  0.04990  1.0000
  H   H225      1.0  0.00609  0.51111  0.73933  1.0000
  C   C279      1.0  0.03397  0.52357  0.65778  1.0000
  H   H226      1.0  0.08987  0.61190  0.56753  1.0000
  C   C280      1.0  0.07313  0.53123  0.35889  1.0000
  C   C281      1.0  0.04294  0.50980  0.42405  1.0000
  C   C282      1.0  0.14855  0.54618  0.55763  1.0000
  H   H227      1.0  0.10913  0.52041  0.14544  1.0000
  H   H228      1.0  0.12301  0.50387  0.59421  1.0000
  C   C283      1.0  0.06390  0.53610  0.34502  1.0000
  C   C284      1.0  0.07794  0.54062  0.66028  1.0000
  C   C285      1.0  0.07714  0.54983  0.68068  1.0000
  C   C286      1.0  0.08103  0.54874  0.71535  1.0000
  C   C287      1.0  0.08594  0.53857  0.72916  1.0000
  C   C288      1.0  0.08757  0.52978  0.70715  1.0000
  C   C289      1.0  0.08310  0.53064  0.67344  1.0000
  P   P11       1.0  0.09388  0.51658  0.72425  1.0000
  C   C290      1.0  0.10376  0.51973  0.75548  1.0000
  H   H229      1.0  0.10721  0.64325  0.61530  1.0000
  C   C291      1.0  0.11766  0.60411  0.26611  1.0000
  H   H230      1.0  0.12965  0.65668  0.60994  1.0000
  C   C292      1.0  0.11626  0.50681  0.18133  1.0000
  P   P12       1.0  0.12753  0.63084  0.60058  1.0000
  C   C293      1.0  0.03465  0.55491  0.11336  1.0000
  H   H231      1.0  0.14792  0.57096  0.87673  1.0000
  C   C294      1.0  0.14523  0.61969  0.62689  1.0000
  C   C295      1.0  0.11805  0.52473  0.80697  1.0000
  C   C296      1.0  0.11780  0.53454  0.77546  1.0000
  C   C297      1.0  0.11093  0.53200  0.74912  1.0000
  C   C298      1.0  0.10347  0.51278  0.68322  1.0000
  C   C299      1.0  0.10921  0.52194  0.64636  1.0000
  C   C300      1.0  0.11623  0.51871  0.61443  1.0000
  C   C301      1.0  0.11774  0.50641  0.61921  1.0000
  C   C302      1.0  0.08046  0.50373  0.75203  1.0000
  H   H232      1.0  0.13569  0.52565  0.37000  1.0000
  H   H233      1.0  0.07470  0.54120  0.63389  1.0000
  H   H234      1.0  0.07339  0.55775  0.66992  1.0000
  H   H235      1.0  0.08019  0.55576  0.73159  1.0000
  H   H236      1.0  0.08839  0.53761  0.75702  1.0000
  H   H237      1.0  0.08373  0.52368  0.65692  1.0000
  C   C303      1.0  0.15013  0.50363  0.87542  1.0000
  H   H238      1.0  0.04649  0.51257  0.07148  1.0000
  H   H239      1.0  0.03129  0.55292  0.66479  1.0000
  C   C304      1.0  0.00639  0.53056  0.89466  1.0000
  C   C305      1.0  0.07982  0.55272  0.29313  1.0000
  H   H240      1.0  0.05410  0.53187  0.36002  1.0000
  H   H241      1.0  0.02311  0.53048  0.70254  1.0000
  H   H242      1.0  0.12315  0.52675  0.82782  1.0000
  H   H243      1.0  0.12268  0.54413  0.77214  1.0000
  H   H244      1.0  0.11095  0.53965  0.72451  1.0000
  H   H245      1.0  0.10815  0.53152  0.64186  1.0000
  C   C306      1.0  0.02103  0.60214  0.15852  1.0000
  C   C307      1.0  0.15150  0.54608  0.75472  1.0000
  C   C308      1.0  0.14330  0.56524  0.63029  1.0000
  C   C309      1.0  0.10439  0.50986  0.78637  1.0000
  C   C310      1.0  0.13593  0.56609  0.66622  1.0000
  C   C311      1.0  0.12311  0.56478  0.67227  1.0000
  C   C312      1.0  0.12493  0.56159  0.60675  1.0000
  C   C313      1.0  0.13790  0.56326  0.59985  1.0000
  C   C314      1.0  0.99920  0.52205  0.15617  1.0000
  S   S41       1.0  0.05734  0.50144  0.55246  1.0000
  C   C315      1.0  0.02047  0.54266  0.82970  1.0000
  H   H246      1.0  0.14418  0.54625  0.03079  1.0000
  C   C316      1.0  0.03569  0.56364  0.75598  1.0000
  C   C317      1.0  0.02535  0.56884  0.75601  1.0000
  H   H247      1.0  0.12260  0.51946  0.32029  1.0000
  H   H248      1.0  0.04409  0.53409  0.24496  1.0000
  H   H249      1.0  0.06413  0.58208  0.05548  1.0000
  H   H250      1.0  0.06304  0.58152  0.87550  1.0000
  P   P13       1.0  0.02747  0.50699  0.68420  1.0000
  H   H251      1.0  0.03940  0.49846  0.74751  1.0000
  H   H252      1.0  0.04062  0.54333  0.72674  1.0000
  C   C318      1.0  0.03579  0.58247  0.68913  1.0000
  H   H253      1.0  0.14808  0.62819  0.63555  1.0000
  H   H254      1.0  0.11743  0.56566  0.69980  1.0000
  C   C319      1.0  0.03975  0.51993  0.48901  1.0000
  H   H255      1.0  0.12033  0.52572  0.58571  1.0000
  S   S42       1.0  0.00179  0.50679  0.06951  1.0000
  C   C320      1.0  0.14069  0.58404  0.34560  1.0000
  H   H256      1.0  0.05858  0.55403  0.38574  1.0000
  C   C321      1.0  0.05742  0.56333  0.81423  1.0000
  C   C322      1.0  0.05347  0.51615  0.43252  1.0000
  C   C323      1.0  0.13648  0.55587  0.92789  1.0000
  H   H257      1.0  0.06417  0.49529  0.16854  1.0000
  H   H258      1.0  0.12460  0.58909  0.29538  1.0000
  H   H259      1.0  0.09600  0.54258  0.46183  1.0000
  H   H260      1.0  0.11167  0.51110  0.00830  1.0000
  C   C324      1.0  0.15176  0.64125  0.05120  1.0000
  H   H261      1.0  0.05450  0.58129  0.66397  1.0000
  C   C325      1.0  0.11470  0.50279  0.00401  1.0000
  C   C326      1.0  0.03089  0.50079  0.76079  1.0000
  H   H262      1.0  0.11190  0.59991  0.04208  1.0000
  H   H263      1.0  0.01650  0.52587  0.17164  1.0000
  H   H264      1.0  0.12039  0.55980  0.58446  1.0000
  C   C327      1.0  0.03809  0.53803  0.96080  1.0000
  C   C328      1.0  0.13532  0.61828  0.60962  1.0000
  H   H265      1.0  0.13209  0.55876  0.22306  1.0000
  C   C329      1.0  0.07447  0.50282  0.79177  1.0000
  C   C330      1.0  0.13633  0.53545  0.41485  1.0000
  P   P14       1.0  0.03584  0.55173  0.79921  1.0000
  C   C331      1.0  0.08429  0.53165  0.43546  1.0000
  H   H266      1.0  0.98772  0.49995  0.91977  1.0000
  C   C332      1.0  0.02935  0.51353  0.48052  1.0000
  C   C333      1.0  0.12394  0.49683  0.44994  1.0000
  C   C334      1.0  0.05151  0.50321  0.66560  1.0000
  H   H267      1.0  0.05123  0.52743  0.70802  1.0000
  C   C335      1.0  0.09926  0.61794  0.55553  1.0000
  C   C336      1.0  0.14735  0.52512  0.59755  1.0000
  H   H268      1.0  0.04444  0.58435  0.19454  1.0000
  H   H269      1.0  0.13720  0.53624  0.19507  1.0000
  C   C337      1.0  0.14141  0.56209  0.22522  1.0000
  S   S43       1.0  0.13469  0.51234  0.02990  1.0000
  C   C338      1.0  0.10902  0.62472  0.71839  1.0000
  H   H270      1.0  0.14435  0.54042  0.62217  1.0000
  S   S44       1.0  0.01964  0.51598  0.35081  1.0000
  C   C339      1.0  0.01827  0.53765  0.87098  1.0000
  C   C340      1.0  0.11700  0.63128  0.64609  1.0000
  H   H271      1.0  0.01352  0.56456  0.11149  1.0000
  H   H272      1.0  0.02799  0.50962  0.13265  1.0000
  C   C341      1.0  0.14850  0.61926  0.11260  1.0000
  C   C342      1.0  0.00083  0.52186  0.22321  1.0000
  S   S45       1.0  0.15120  0.52859  0.09240  1.0000
  H   H273      1.0  0.13535  0.58922  0.59591  1.0000
  C   C343      1.0  0.13816  0.59771  0.60460  1.0000
  C   C344      1.0  0.04455  0.53805  0.74773  1.0000
  H   H274      1.0  0.12648  0.53895  0.97526  1.0000
  C   C345      1.0  0.06411  0.57085  0.83245  1.0000
  C   C346      1.0  0.06007  0.49589  0.65931  1.0000
  H   H275      1.0  0.00413  0.50567  0.58354  1.0000
  H   H276      1.0  0.02644  0.54725  0.12903  1.0000
  H   H277      1.0  0.10764  0.56135  0.64733  1.0000
  C   C347      1.0  0.13937  0.53496  0.92855  1.0000
  C   C348      1.0  0.13174  0.51596  0.21081  1.0000
  C   C349      1.0  0.13908  0.58241  0.45602  1.0000
  C   C350      1.0  0.05537  0.52182  0.76414  1.0000
  C   C351      1.0  0.12611  0.50113  0.01100  1.0000
  S   S46       1.0  0.00082  0.53453  0.35731  1.0000
  C   C352      1.0  0.12754  0.61318  0.19517  1.0000
  C   C353      1.0  0.14507  0.57887  0.48528  1.0000
  H   H278      1.0  0.07972  0.49566  0.70285  1.0000
  H   H279      1.0  0.08236  0.56124  0.26859  1.0000
  C   C354      1.0  0.13174  0.60716  0.59890  1.0000
  H   H280      1.0  0.08249  0.50061  0.44046  1.0000
  H   H281      1.0  0.09912  0.62087  0.49399  1.0000
  C   C355      1.0  0.10628  0.62036  0.58153  1.0000
  C   C356      1.0  0.03097  0.50840  0.44816  1.0000
  C   C357      1.0  0.04385  0.54034  0.78496  1.0000
  C   C358      1.0  0.01986  0.58948  0.15879  1.0000
  C   C359      1.0  0.02200  0.50115  0.15474  1.0000
  C   C360      1.0  0.09938  0.63825  0.67883  1.0000
  C   C361      1.0  0.14343  0.61868  0.08046  1.0000
  H   H282      1.0  0.12411  0.60577  0.58570  1.0000
  H   H283      1.0  0.13308  0.63892  0.51242  1.0000
  C   C362      1.0  0.13110  0.52808  0.19208  1.0000
  H   H284      1.0  0.02251  0.51261  0.60583  1.0000
  C   C363      1.0  0.14045  0.56698  0.51364  1.0000
  C   C364      1.0  0.05044  0.52895  0.73718  1.0000
  H   H285      1.0  0.09302  0.53327  0.34868  1.0000
  H   H286      1.0  0.12891  0.59452  0.37373  1.0000
  H   H287      1.0  0.11161  0.50475  0.83644  1.0000
  C   C365      1.0  0.11871  0.61279  0.23000  1.0000
  H   H288      1.0  0.13835  0.60984  0.07830  1.0000
  H   H289      1.0  0.10936  0.61937  0.74723  1.0000
  H   H290      1.0  0.08029  0.53940  0.42495  1.0000
  C   C366      1.0  0.10442  0.62302  0.51431  1.0000
  C   C367      1.0  0.11540  0.51902  0.16364  1.0000
  C   C368      1.0  0.09995  0.63154  0.71605  1.0000
  H   H291      1.0  0.12072  0.63423  0.46713  1.0000
  C   C369      1.0  0.02985  0.53294  0.67372  1.0000
  C   C370      1.0  0.11847  0.62815  0.56653  1.0000
  C   C371      1.0  0.08996  0.50597  0.08872  1.0000
  H   H292      1.0  0.05930  0.56351  0.03029  1.0000
  C   C372      1.0  0.03782  0.58920  0.18454  1.0000
  H   H293      1.0  0.13953  0.54733  0.45272  1.0000
  H   H294      1.0  0.03902  0.54553  0.18597  1.0000
  C   C373      1.0  0.03691  0.54518  0.28213  1.0000
  H   H295      1.0  0.99171  0.55495  0.11603  1.0000
  C   C374      1.0  0.13944  0.64549  0.57802  1.0000
  C   C375      1.0  0.15171  0.56394  0.19270  1.0000
  H   H296      1.0  0.04633  0.60666  0.19424  1.0000
  C   C376      1.0  0.14421  0.57934  0.08721  1.0000
  C   C377      1.0  0.04260  0.55419  0.07836  1.0000
  C   C378      1.0  0.00914  0.50678  0.79736  1.0000
  C   C379      1.0  0.03996  0.54199  0.24630  1.0000
  C   C380      1.0  0.03056  0.60832  0.17131  1.0000
  S   S47       1.0  0.99550  0.50009  0.99028  1.0000
  H   H297      1.0  0.04041  0.54617  0.06678  1.0000
  C   C381      1.0  0.03089  0.55486  0.28475  1.0000
  C   C382      1.0  0.04574  0.50370  0.06400  1.0000
  C   C383      1.0  0.15373  0.62726  0.42209  1.0000
  C   C384      1.0  0.03089  0.55824  0.21524  1.0000
  P   P15       1.0  0.02675  0.56652  0.17251  1.0000
  H   H298      1.0  0.12754  0.51972  0.89001  1.0000
  C   C385      1.0  0.02821  0.58289  0.17202  1.0000
  H   H299      1.0  0.13030  0.56205  0.09992  1.0000
  C   C386      1.0  0.13858  0.53468  0.37559  1.0000
  H   H300      1.0  0.01473  0.50223  0.85147  1.0000
  C   C387      1.0  0.14897  0.55711  0.35113  1.0000
  C   C388      1.0  0.14315  0.56445  0.26058  1.0000
  C   C389      1.0  0.02028  0.50004  0.19538  1.0000
  C   C390      1.0  0.14986  0.54235  0.79593  1.0000
  C   C391      1.0  0.14485  0.51385  0.87905  1.0000
  H   H301      1.0  0.10079  0.51056  0.36345  1.0000
  H   H302      1.0  0.12076  0.50005  0.42407  1.0000
  C   C392      1.0  0.14396  0.60681  0.32442  1.0000
  S   S48       1.0  0.98979  0.50420  0.36651  1.0000
  C   C393      1.0  0.15194  0.52967  0.52576  1.0000
  H   H303      1.0  0.06996  0.50012  0.65220  1.0000
  H   H304      1.0  0.10859  0.50520  0.09046  1.0000
  Fe  Fe23      1.0  0.15335  0.51829  0.04489  1.0000
  H   H305      1.0  0.15044  0.56211  0.16519  1.0000
  H   H306      1.0  0.12530  0.49609  0.21921  1.0000
  C   C394      1.0  0.04463  0.50323  0.02623  1.0000
  H   H307      1.0  0.99138  0.53078  0.82262  1.0000
  H   H308      1.0  0.09856  0.49543  0.98549  1.0000
  C   C395      1.0  0.03870  0.49788  0.67320  1.0000
  C   C396      1.0  0.13184  0.51196  0.88797  1.0000
  H   H309      1.0  0.14452  0.59155  0.00242  1.0000
  H   H310      1.0  0.15060  0.51150  0.56461  1.0000
  C   C397      1.0  0.07522  0.49527  0.73324  1.0000
  C   C398      1.0  0.09893  0.50309  0.10799  1.0000
  H   H311      1.0  0.15066  0.56637  0.39728  1.0000
  H   H312      1.0  0.15351  0.64962  0.02661  1.0000
  C   C399      1.0  0.02780  0.49976  0.80168  1.0000
  C   C400      1.0  0.07390  0.49755  0.15173  1.0000
  H   H313      1.0  0.14581  0.55182  0.74272  1.0000
  C   C401      1.0  0.14563  0.56093  0.89133  1.0000
  H   H314      1.0  0.14264  0.54504  0.81537  1.0000
  H   H315      1.0  0.14579  0.51847  0.62638  1.0000
  H   H316      1.0  0.03388  0.49669  0.81926  1.0000
  H   H317      1.0  0.15322  0.56628  0.62604  1.0000
  C   C402      1.0  0.99668  0.52824  0.87730  1.0000
  C   C403      1.0  0.14999  0.52115  0.56291  1.0000
  C   C404      1.0  0.14655  0.53758  0.59501  1.0000
  H   H318      1.0  0.15181  0.63737  0.54143  1.0000
  C   C405      1.0  0.09543  0.49734  0.14936  1.0000
  H   H319      1.0  0.14604  0.67644  0.57798  1.0000
  C   C406      1.0  0.14725  0.66788  0.57015  1.0000
  C   C407      1.0  0.98782  0.51898  0.23700  1.0000
  H   H320      1.0  0.31508  0.46545  0.21598  1.0000
  H   H321      1.0  0.31342  0.45071  0.17410  1.0000
  H   H322      1.0  0.15849  0.47696  0.29711  1.0000
  C   C408      1.0  0.31898  0.46893  0.18387  1.0000
  C   C409      1.0  0.31805  0.46062  0.16028  1.0000
  C   C410      1.0  0.15938  0.48305  0.31634  1.0000
  C   C411      1.0  0.17130  0.48838  0.31837  1.0000
  H   H323      1.0  0.17947  0.48674  0.29988  1.0000
  Fe  Fe24      1.0  0.29156  0.59702  0.51472  1.0000
  S   S49       1.0  0.27377  0.58568  0.56156  1.0000
  S   S50       1.0  0.29667  0.61848  0.49296  1.0000
  Fe  Fe25      1.0  0.29888  0.57371  0.49868  1.0000
  S   S51       1.0  0.28169  0.56031  0.54406  1.0000
  Fe  Fe26      1.0  0.27105  0.57377  0.51945  1.0000
  S   S52       1.0  0.25149  0.56983  0.50977  1.0000
  Fe  Fe27      1.0  0.28539  0.57298  0.58356  1.0000
  S   S53       1.0  0.28182  0.56359  0.65034  1.0000
  S   S54       1.0  0.28792  0.58628  0.47129  1.0000
  S   S55       1.0  0.30349  0.58522  0.53966  1.0000
  H   H324      1.0  0.22756  0.71817  0.71788  1.0000
  H   H325      1.0  0.15586  0.58872  0.55160  1.0000
  C   C412      1.0  0.29725  0.73042  0.69152  1.0000
  C   C413      1.0  0.19505  0.59343  0.05905  1.0000
  C   C414      1.0  0.22059  0.60091  0.97818  1.0000
  Fe  Fe28      1.0  0.29866  0.56193  0.92322  1.0000
  H   H326      1.0  0.31665  0.69080  0.59864  1.0000
  Fe  Fe29      1.0  0.27251  0.56661  0.93877  1.0000
  S   S56       1.0  0.28015  0.58641  0.89855  1.0000
  S   S57       1.0  0.25195  0.56275  0.97301  1.0000
  Fe  Fe30      1.0  0.29151  0.57826  0.85546  1.0000
  S   S58       1.0  0.29413  0.58693  0.78869  1.0000
  Fe  Fe31      1.0  0.29567  0.58775  0.92768  1.0000
  S   S59       1.0  0.30108  0.60586  0.94487  1.0000
  S   S60       1.0  0.28307  0.55826  0.89414  1.0000
  S   S61       1.0  0.28738  0.56855  0.97117  1.0000
  H   H327      1.0  0.22770  0.55027  0.34925  1.0000
  H   H328      1.0  0.28174  0.60144  0.02356  1.0000
  S   S62       1.0  0.21008  0.64068  0.06826  1.0000
  C   C415      1.0  0.21728  0.55714  0.88843  1.0000
  C   C416      1.0  0.19816  0.56287  0.88198  1.0000
  C   C417      1.0  0.23867  0.55714  0.28770  1.0000
  H   H329      1.0  0.25940  0.70354  0.07611  1.0000
  H   H330      1.0  0.27375  0.72508  0.74891  1.0000
  C   C418      1.0  0.23668  0.67038  0.10879  1.0000
  Fe  Fe32      1.0  0.20007  0.53395  0.42015  1.0000
  S   S63       1.0  0.18223  0.53359  0.46384  1.0000
  S   S64       1.0  0.21943  0.53449  0.43075  1.0000
  Fe  Fe33      1.0  0.18740  0.53429  0.35165  1.0000
  S   S65       1.0  0.16878  0.53437  0.38995  1.0000
  S   S66       1.0  0.19274  0.53740  0.28394  1.0000
  Fe  Fe34      1.0  0.17986  0.54810  0.41367  1.0000
  H   H331      1.0  0.30467  0.59514  0.22040  1.0000
  Fe  Fe35      1.0  0.17219  0.51968  0.43758  1.0000
  C   C419      1.0  0.25803  0.57290  0.27385  1.0000
  S   S67       1.0  0.19823  0.54943  0.37157  1.0000
  S   S68       1.0  0.19035  0.51857  0.39771  1.0000
  C   C420      1.0  0.17269  0.49572  0.34461  1.0000
  S   S69       1.0  0.22196  0.64762  0.36234  1.0000
  S   S70       1.0  0.23293  0.66992  0.41954  1.0000
  C   C421      1.0  0.30933  0.51122  0.05583  1.0000
  S   S71       1.0  0.21465  0.61171  0.41457  1.0000
  H   H332      1.0  0.23008  0.68704  0.53749  1.0000
  C   C422      1.0  0.28649  0.56233  0.22440  1.0000
  S   S72       1.0  0.22833  0.66549  0.95994  1.0000
  S   S73       1.0  0.25508  0.69887  0.53604  1.0000
  H   H333      1.0  0.21923  0.65498  0.19086  1.0000
  H   H334      1.0  0.21624  0.55889  0.23878  1.0000
  Fe  Fe36      1.0  0.16563  0.52003  0.11409  1.0000
  S   S74       1.0  0.18175  0.53612  0.07553  1.0000
  H   H335      1.0  0.22572  0.53830  0.85728  1.0000
  H   H336      1.0  0.27063  0.67137  0.11320  1.0000
  S   S75       1.0  0.16890  0.53432  0.00154  1.0000
  S   S76       1.0  0.30781  0.58134  0.88140  1.0000
  Fe  Fe37      1.0  0.18220  0.52541  0.02959  1.0000
  S   S77       1.0  0.20069  0.52408  0.99148  1.0000
  C   C423      1.0  0.26972  0.55920  0.37701  1.0000
  H   H337      1.0  0.29927  0.57616  0.39909  1.0000
  S   S78       1.0  0.16680  0.50843  0.06984  1.0000
  H   H338      1.0  0.26136  0.55425  0.37207  1.0000
  C   C424      1.0  0.24274  0.66168  0.09564  1.0000
  H   H339      1.0  0.20815  0.65115  0.14074  1.0000
  C   C425      1.0  0.17333  0.57412  0.31127  1.0000
  H   H340      1.0  0.20606  0.53097  0.08983  1.0000
  H   H341      1.0  0.22098  0.57514  0.79419  1.0000
  H   H342      1.0  0.26252  0.66591  0.49636  1.0000
  H   H343      1.0  0.29041  0.62534  0.25328  1.0000
  C   C426      1.0  0.19452  0.58058  0.07321  1.0000
  C   C427      1.0  0.18572  0.57142  0.06609  1.0000
  H   H344      1.0  0.27299  0.60991  0.30610  1.0000
  H   H345      1.0  0.18732  0.60699  0.02584  1.0000
  C   C428      1.0  0.23995  0.69170  0.26366  1.0000
  H   H346      1.0  0.20083  0.57770  0.08997  1.0000
  H   H347      1.0  0.18523  0.56154  0.07764  1.0000
  C   C429      1.0  0.27687  0.64182  0.51249  1.0000
  C   C430      1.0  0.25639  0.70587  0.69743  1.0000
  C   C431      1.0  0.28653  0.55832  0.40812  1.0000
  C   C432      1.0  0.18353  0.53090  0.25592  1.0000
  C   C433      1.0  0.17187  0.52240  0.27418  1.0000
  H   H348      1.0  0.24919  0.59743  0.31708  1.0000
  C   C434      1.0  0.16999  0.51996  0.20929  1.0000
  C   C435      1.0  0.18145  0.52883  0.19088  1.0000
  C   C436      1.0  0.18821  0.53420  0.21411  1.0000
  H   H349      1.0  0.16809  0.51995  0.30619  1.0000
  C   C437      1.0  0.25499  0.66208  0.09701  1.0000
  H   H350      1.0  0.18528  0.53129  0.15889  1.0000
  H   H351      1.0  0.19721  0.54080  0.19962  1.0000
  C   C438      1.0  0.18426  0.57745  0.42342  1.0000
  C   C439      1.0  0.19654  0.57646  0.41987  1.0000
  C   C440      1.0  0.20584  0.58698  0.41744  1.0000
  C   C441      1.0  0.20287  0.59852  0.41852  1.0000
  C   C442      1.0  0.18546  0.57679  0.51953  1.0000
  H   H352      1.0  0.29110  0.55299  0.42707  1.0000
  H   H353      1.0  0.19887  0.56757  0.41928  1.0000
  H   H354      1.0  0.21531  0.58615  0.41474  1.0000
  C   C443      1.0  0.28006  0.67727  0.01485  1.0000
  H   H355      1.0  0.24844  0.64806  0.57022  1.0000
  C   C444      1.0  0.25690  0.58916  0.36385  1.0000
  C   C445      1.0  0.31256  0.70472  0.22536  1.0000
  C   C446      1.0  0.21155  0.60091  0.92294  1.0000
  C   C447      1.0  0.26951  0.66093  0.50234  1.0000
  H   H356      1.0  0.31927  0.71330  0.46342  1.0000
  H   H357      1.0  0.22236  0.55258  0.90718  1.0000
  H   H358      1.0  0.19478  0.59402  0.33669  1.0000
  C   C448      1.0  0.16541  0.61324  0.18616  1.0000
  C   C449      1.0  0.15522  0.56864  0.26377  1.0000
  C   C450      1.0  0.31717  0.60401  0.59155  1.0000
  S   S79       1.0  0.30527  0.73984  0.78851  1.0000
  S   S80       1.0  0.20336  0.63889  0.45227  1.0000
  C   C451      1.0  0.21245  0.58843  0.92608  1.0000
  C   C452      1.0  0.15445  0.62546  0.93177  1.0000
  C   C453      1.0  0.25570  0.57215  0.31465  1.0000
  C   C454      1.0  0.23619  0.55657  0.32813  1.0000
  C   C455      1.0  0.20406  0.56951  0.84198  1.0000
  C   C456      1.0  0.23799  0.55191  0.97613  1.0000
  C   C457      1.0  0.22660  0.55389  0.99539  1.0000
  C   C458      1.0  0.21517  0.54560  0.99957  1.0000
  C   C459      1.0  0.21497  0.53490  0.98574  1.0000
  C   C460      1.0  0.22637  0.53285  0.96643  1.0000
  C   C461      1.0  0.23784  0.54138  0.96132  1.0000
  H   H359      1.0  0.22662  0.56181  0.00780  1.0000
  H   H360      1.0  0.20652  0.54738  0.01424  1.0000
  H   H361      1.0  0.22633  0.52457  0.95574  1.0000
  H   H362      1.0  0.24654  0.53965  0.94676  1.0000
  H   H363      1.0  0.16657  0.59750  0.26669  1.0000
  C   C462      1.0  0.25588  0.69686  0.67608  1.0000
  C   C463      1.0  0.22874  0.72813  0.71585  1.0000
  C   C464      1.0  0.16406  0.58520  0.54364  1.0000
  H   H364      1.0  0.17308  0.55908  0.52632  1.0000
  H   H365      1.0  0.19932  0.56331  0.28628  1.0000
  H   H366      1.0  0.16060  0.60803  0.01232  1.0000
  H   H367      1.0  0.23353  0.71646  0.78578  1.0000
  H   H368      1.0  0.17915  0.51406  0.95538  1.0000
  C   C465      1.0  0.21656  0.56988  0.82506  1.0000
  C   C466      1.0  0.19859  0.57923  0.31010  1.0000
  C   C467      1.0  0.25044  0.68385  0.93460  1.0000
  C   C468      1.0  0.23998  0.67711  0.96703  1.0000
  C   C469      1.0  0.23909  0.67982  0.00365  1.0000
  C   C470      1.0  0.24853  0.68919  0.00762  1.0000
  H   H369      1.0  0.25119  0.68187  0.90611  1.0000
  H   H370      1.0  0.23106  0.67480  0.02877  1.0000
  H   H371      1.0  0.24770  0.69128  0.03594  1.0000
  H   H372      1.0  0.26752  0.56110  0.05515  1.0000
  S   S81       1.0  0.20009  0.66199  0.38344  1.0000
  H   H373      1.0  0.21513  0.61676  0.94758  1.0000
  H   H374      1.0  0.25135  0.69195  0.62526  1.0000
  S   S82       1.0  0.20393  0.63412  0.98850  1.0000
  Fe  Fe38      1.0  0.20573  0.65106  0.33899  1.0000
  C   C471      1.0  0.28474  0.57037  0.68883  1.0000
  C   C472      1.0  0.28977  0.58330  0.68148  1.0000
  C   C473      1.0  0.29251  0.58817  0.71243  1.0000
  C   C474      1.0  0.29017  0.58022  0.75124  1.0000
  C   C475      1.0  0.28483  0.56732  0.75888  1.0000
  C   C476      1.0  0.28211  0.56245  0.72786  1.0000
  H   H375      1.0  0.29158  0.58953  0.65192  1.0000
  H   H376      1.0  0.29656  0.59818  0.70620  1.0000
  H   H377      1.0  0.28299  0.56107  0.78848  1.0000
  H   H378      1.0  0.27814  0.55244  0.73398  1.0000
  C   C477      1.0  0.15820  0.59671  0.28965  1.0000
  C   C478      1.0  0.21384  0.60666  0.83826  1.0000
  H   H379      1.0  0.29083  0.70069  0.75238  1.0000
  H   H380      1.0  0.20023  0.55152  0.93626  1.0000
  H   H381      1.0  0.19408  0.64754  0.90884  1.0000
  H   H382      1.0  0.21701  0.57230  0.95924  1.0000
  H   H383      1.0  0.30968  0.64487  0.46404  1.0000
  Fe  Fe39      1.0  0.18453  0.63657  0.00960  1.0000
  C   C479      1.0  0.19108  0.52705  0.90020  1.0000
  C   C480      1.0  0.24296  0.56009  0.48658  1.0000
  C   C481      1.0  0.24745  0.55078  0.47171  1.0000
  C   C482      1.0  0.24016  0.54313  0.45459  1.0000
  C   C483      1.0  0.22830  0.54466  0.45192  1.0000
  C   C484      1.0  0.22393  0.55416  0.46602  1.0000
  C   C485      1.0  0.23118  0.56176  0.48333  1.0000
  H   H384      1.0  0.25641  0.54930  0.47420  1.0000
  H   H385      1.0  0.24366  0.53581  0.44390  1.0000
  H   H386      1.0  0.21489  0.55556  0.46405  1.0000
  H   H387      1.0  0.22759  0.56895  0.49451  1.0000
  H   H388      1.0  0.30627  0.61805  0.21010  1.0000
  C   C486      1.0  0.26770  0.64805  0.50411  1.0000
  H   H389      1.0  0.16060  0.63373  0.39588  1.0000
  C   C487      1.0  0.16340  0.59036  0.90975  1.0000
  C   C488      1.0  0.26717  0.59865  0.99475  1.0000
  C   C489      1.0  0.19101  0.58657  0.32475  1.0000
  H   H390      1.0  0.23088  0.63896  0.00259  1.0000
  H   H391      1.0  0.16175  0.65095  0.08458  1.0000
  C   C490      1.0  0.19355  0.56924  0.29654  1.0000
  C   C491      1.0  0.25699  0.68923  0.46899  1.0000
  C   C492      1.0  0.25185  0.68288  0.44402  1.0000
  C   C493      1.0  0.23886  0.67789  0.45257  1.0000
  H   H392      1.0  0.27586  0.63192  0.51441  1.0000
  C   C494      1.0  0.23463  0.71592  0.10438  1.0000
  H   H393      1.0  0.26697  0.69298  0.46167  1.0000
  H   H394      1.0  0.25799  0.68187  0.41771  1.0000
  H   H395      1.0  0.27217  0.54211  0.41292  1.0000
  S   S83       1.0  0.29528  0.73883  0.90462  1.0000
  C   C495      1.0  0.20478  0.55670  0.90519  1.0000
  C   C496      1.0  0.28189  0.66200  0.97678  1.0000
  H   H396      1.0  0.23793  0.65468  0.08410  1.0000
  C   C497      1.0  0.17841  0.58396  0.32577  1.0000
  C   C498      1.0  0.27846  0.63060  0.34526  1.0000
  C   C499      1.0  0.27499  0.62105  0.38120  1.0000
  C   C500      1.0  0.28390  0.61846  0.40095  1.0000
  C   C501      1.0  0.29627  0.62553  0.38511  1.0000
  C   C502      1.0  0.29988  0.63514  0.34889  1.0000
  C   C503      1.0  0.29086  0.63764  0.32912  1.0000
  H   H397      1.0  0.16704  0.59203  0.13145  1.0000
  Fe  Fe40      1.0  0.31288  0.74069  0.92560  1.0000
  H   H398      1.0  0.17404  0.53128  0.72499  1.0000
  C   C504      1.0  0.30584  0.65680  0.38965  1.0000
  C   C505      1.0  0.31351  0.56168  0.64177  1.0000
  C   C506      1.0  0.16006  0.62268  0.96299  1.0000
  H   H399      1.0  0.25937  0.68859  0.68487  1.0000
  C   C507      1.0  0.17715  0.61426  0.19302  1.0000
  C   C508      1.0  0.25255  0.71694  0.68501  1.0000
  C   C509      1.0  0.29932  0.56581  0.22001  1.0000
  C   C510      1.0  0.26733  0.55689  0.08579  1.0000
  H   H400      1.0  0.31266  0.63161  0.86774  1.0000
  C   C511      1.0  0.22572  0.53566  0.08460  1.0000
  C   C512      1.0  0.24753  0.70973  0.62997  1.0000
  C   C513      1.0  0.18112  0.59902  0.15686  1.0000
  H   H401      1.0  0.26943  0.68841  0.81094  1.0000
  C   C514      1.0  0.30120  0.73718  0.71723  1.0000
  H   H402      1.0  0.25972  0.65542  0.08636  1.0000
  H   H403      1.0  0.18026  0.62076  0.20910  1.0000
  H   H404      1.0  0.27146  0.63270  0.33041  1.0000
  H   H405      1.0  0.26534  0.61585  0.39412  1.0000
  H   H406      1.0  0.28121  0.61119  0.42920  1.0000
  H   H407      1.0  0.30293  0.62375  0.40185  1.0000
  H   H408      1.0  0.29327  0.64517  0.30177  1.0000
  H   H409      1.0  0.29793  0.64867  0.40145  1.0000
  H   H410      1.0  0.29813  0.66600  0.43261  1.0000
  C   C515      1.0  0.31272  0.62615  0.47260  1.0000
  H   H411      1.0  0.25500  0.74065  0.03057  1.0000
  H   H412      1.0  0.30033  0.54421  0.30261  1.0000
  C   C516      1.0  0.26686  0.54536  0.16414  1.0000
  Fe  Fe41      1.0  0.30559  0.73251  0.85358  1.0000
  C   C517      1.0  0.30448  0.55959  0.24858  1.0000
  H   H413      1.0  0.28338  0.53998  0.13761  1.0000
  H   H414      1.0  0.16800  0.65719  0.50961  1.0000
  H   H415      1.0  0.19420  0.60814  0.18305  1.0000
  H   H416      1.0  0.18420  0.64832  0.27832  1.0000
  C   C518      1.0  0.27389  0.66506  0.90220  1.0000
  C   C519      1.0  0.29099  0.65837  0.99459  1.0000
  C   C520      1.0  0.16151  0.60529  0.16370  1.0000
  H   H417      1.0  0.20823  0.58100  0.31068  1.0000
  C   C521      1.0  0.29859  0.61121  0.23326  1.0000
  H   H418      1.0  0.27179  0.62858  0.99627  1.0000
  H   H419      1.0  0.24488  0.54257  0.08132  1.0000
  H   H420      1.0  0.15929  0.61137  0.64591  1.0000
  C   C522      1.0  0.24047  0.73573  0.71241  1.0000
  C   C523      1.0  0.18065  0.53609  0.85291  1.0000
  H   H421      1.0  0.30426  0.55238  0.70385  1.0000
  P   P16       1.0  0.31550  0.64530  0.33172  1.0000
  C   C524      1.0  0.24237  0.71107  0.83156  1.0000
  H   H422      1.0  0.31485  0.67781  0.21337  1.0000
  H   H423      1.0  0.21046  0.60372  0.74822  1.0000
  C   C525      1.0  0.27905  0.68610  0.85648  1.0000
  C   C526      1.0  0.27073  0.68187  0.83616  1.0000
  C   C527      1.0  0.16905  0.52879  0.87872  1.0000
  H   H424      1.0  0.18126  0.54257  0.82474  1.0000
  C   C528      1.0  0.19164  0.53506  0.86342  1.0000
  C   C529      1.0  0.25767  0.55165  0.15701  1.0000
  H   H425      1.0  0.25138  0.59327  0.97296  1.0000
  H   H426      1.0  0.31391  0.55557  0.38929  1.0000
  C   C530      1.0  0.16950  0.59815  0.14921  1.0000
  H   H427      1.0  0.16527  0.67683  0.52769  1.0000
  C   C531      1.0  0.16286  0.57268  0.54167  1.0000
  C   C532      1.0  0.31658  0.63942  0.46136  1.0000
  C   C533      1.0  0.26289  0.63085  0.99690  1.0000
  H   H428      1.0  0.31171  0.63249  0.55353  1.0000
  C   C534      1.0  0.28793  0.64694  0.91921  1.0000
  C   C535      1.0  0.24039  0.62500  0.02379  1.0000
  H   H429      1.0  0.27775  0.53863  0.31094  1.0000
  C   C536      1.0  0.25526  0.59167  0.99810  1.0000
  C   C537      1.0  0.28021  0.66742  0.50916  1.0000
  C   C538      1.0  0.28922  0.66111  0.51776  1.0000
  C   C539      1.0  0.28755  0.64834  0.51934  1.0000
  H   H430      1.0  0.28147  0.67733  0.50832  1.0000
  H   H431      1.0  0.29747  0.66611  0.52332  1.0000
  H   H432      1.0  0.29449  0.64340  0.52621  1.0000
  H   H433      1.0  0.23117  0.60733  0.85460  1.0000
  C   C540      1.0  0.24106  0.59956  0.41210  1.0000
  C   C541      1.0  0.27419  0.57239  0.36186  1.0000
  P   P17       1.0  0.26636  0.58185  0.33286  1.0000
  H   H434      1.0  0.24242  0.56356  0.37312  1.0000
  H   H435      1.0  0.23209  0.55122  0.27766  1.0000
  H   H436      1.0  0.21205  0.64934  0.51594  1.0000
  C   C542      1.0  0.22325  0.56357  0.84806  1.0000
  H   H437      1.0  0.27576  0.68455  0.02283  1.0000
  S   S84       1.0  0.15660  0.50308  0.48134  1.0000
  H   H438      1.0  0.30043  0.61032  0.58989  1.0000
  C   C543      1.0  0.22751  0.60442  0.76537  1.0000
  C   C544      1.0  0.25389  0.57934  0.06479  1.0000
  S   S85       1.0  0.19293  0.63249  0.37697  1.0000
  S   S86       1.0  0.29938  0.71189  0.88701  1.0000
  S   S87       1.0  0.28707  0.70828  0.67468  1.0000
  C   C545      1.0  0.31316  0.61904  0.98672  1.0000
  C   C546      1.0  0.23511  0.53886  0.85970  1.0000
  C   C547      1.0  0.24119  0.70308  0.23550  1.0000
  C   C548      1.0  0.28962  0.61531  0.25751  1.0000
  H   H439      1.0  0.22413  0.58335  0.00603  1.0000
  C   C549      1.0  0.31590  0.65751  0.35732  1.0000
  C   C550      1.0  0.25025  0.58210  0.70733  1.0000
  H   H440      1.0  0.23182  0.51864  0.88137  1.0000
  H   H441      1.0  0.24306  0.60542  0.79077  1.0000
  S   S88       1.0  0.27079  0.70741  0.98216  1.0000
  H   H442      1.0  0.26874  0.54999  0.26110  1.0000
  H   H443      1.0  0.24535  0.72741  0.64032  1.0000
  H   H444      1.0  0.22967  0.64257  0.48077  1.0000
  C   C551      1.0  0.24145  0.60146  0.37190  1.0000
  H   H445      1.0  0.18804  0.60804  0.42553  1.0000
  C   C552      1.0  0.29767  0.59830  0.23904  1.0000
  H   H446      1.0  0.23481  0.60333  0.43119  1.0000
  C   C553      1.0  0.18158  0.60763  0.87413  1.0000
  C   C554      1.0  0.27862  0.59349  0.29300  1.0000
  H   H447      1.0  0.24542  0.59512  0.90782  1.0000
  C   C555      1.0  0.24833  0.57820  0.83961  1.0000
  C   C556      1.0  0.28071  0.67774  0.88918  1.0000
  C   C557      1.0  0.25072  0.64540  0.97621  1.0000
  C   C558      1.0  0.24939  0.59256  0.88119  1.0000
  C   C559      1.0  0.24054  0.64827  0.55808  1.0000
  H   H448      1.0  0.26901  0.53994  0.86480  1.0000
  H   H449      1.0  0.23453  0.57611  0.89498  1.0000
  H   H450      1.0  0.26574  0.60812  0.86095  1.0000
  C   C560      1.0  0.27968  0.60650  0.28732  1.0000
  C   C561      1.0  0.29111  0.57139  0.39258  1.0000
  S   S89       1.0  0.20578  0.60485  0.06905  1.0000
  H   H451      1.0  0.21260  0.68216  0.20773  1.0000
  C   C562      1.0  0.24321  0.58174  0.87375  1.0000
  C   C563      1.0  0.26080  0.59988  0.85481  1.0000
  H   H452      1.0  0.26298  0.55984  0.84233  1.0000
  H   H453      1.0  0.25690  0.57433  0.65897  1.0000
  H   H454      1.0  0.25362  0.55293  0.70297  1.0000
  C   C564      1.0  0.27588  0.55222  0.40013  1.0000
  C   C565      1.0  0.28493  0.57841  0.36988  1.0000
  C   C566      1.0  0.24850  0.59247  0.42821  1.0000
  C   C567      1.0  0.23050  0.65222  0.57772  1.0000
  S   S90       1.0  0.30702  0.71991  0.56217  1.0000
  C   C568      1.0  0.25300  0.57242  0.69093  1.0000
  C   C569      1.0  0.25112  0.56031  0.71585  1.0000
  H   H455      1.0  0.28841  0.58859  0.35931  1.0000
  C   C570      1.0  0.24926  0.59619  0.34789  1.0000
  H   H456      1.0  0.26627  0.57931  0.25223  1.0000
  H   H457      1.0  0.21560  0.66094  0.87884  1.0000
  C   C571      1.0  0.25604  0.55093  0.85117  1.0000
  C   C572      1.0  0.25951  0.53968  0.86381  1.0000
  C   C573      1.0  0.26617  0.59620  0.82151  1.0000
  C   C574      1.0  0.24664  0.55785  0.75724  1.0000
  C   C575      1.0  0.23625  0.68588  0.51150  1.0000
  H   H458      1.0  0.25198  0.59154  0.68791  1.0000
  H   H459      1.0  0.24565  0.54845  0.77566  1.0000
  C   C576      1.0  0.28781  0.58947  0.26904  1.0000
  C   C577      1.0  0.23924  0.60298  0.56742  1.0000
  H   H460      1.0  0.23175  0.59779  0.59405  1.0000
  H   H461      1.0  0.23533  0.62087  0.56872  1.0000
  C   C578      1.0  0.24132  0.61608  0.55290  1.0000
  P   P18       1.0  0.25340  0.63962  0.49771  1.0000
  C   C579      1.0  0.16523  0.51682  0.25103  1.0000
  C   C580      1.0  0.25903  0.69589  0.97524  1.0000
  H   H462      1.0  0.15955  0.61895  0.19759  1.0000
  H   H463      1.0  0.24414  0.58736  0.76105  1.0000
  H   H464      1.0  0.27529  0.60154  0.80195  1.0000
  C   C581      1.0  0.25094  0.62280  0.51808  1.0000
  P   P19       1.0  0.23973  0.56495  0.82786  1.0000
  C   C582      1.0  0.24043  0.64480  0.52281  1.0000
  C   C583      1.0  0.25991  0.69316  0.93864  1.0000
  H   H465      1.0  0.28738  0.57949  0.27394  1.0000
  C   C584      1.0  0.24379  0.55060  0.84915  1.0000
  C   C585      1.0  0.25078  0.52807  0.87493  1.0000
  C   C586      1.0  0.26004  0.58533  0.81412  1.0000
  C   C587      1.0  0.24402  0.56758  0.77416  1.0000
  H   H466      1.0  0.26223  0.59812  0.49763  1.0000
  C   C588      1.0  0.24577  0.57969  0.74874  1.0000
  H   H467      1.0  0.23538  0.60671  0.35981  1.0000
  H   H468      1.0  0.25349  0.51939  0.88502  1.0000
  C   C589      1.0  0.23858  0.52765  0.87284  1.0000
  H   H469      1.0  0.24115  0.62485  0.45296  1.0000
  Fe  Fe42      1.0  0.21575  0.65727  0.40959  1.0000
  Fe  Fe43      1.0  0.20865  0.62988  0.40346  1.0000
  C   C590      1.0  0.24675  0.59653  0.54742  1.0000
  H   H470      1.0  0.24514  0.58636  0.55864  1.0000
  C   C591      1.0  0.22018  0.65248  0.56279  1.0000
  C   C592      1.0  0.23112  0.67954  0.48653  1.0000
  C   C593      1.0  0.18092  0.56649  0.29800  1.0000
  C   C594      1.0  0.25841  0.61622  0.49806  1.0000
  C   C595      1.0  0.25637  0.60316  0.51288  1.0000
  S   S91       1.0  0.17255  0.56457  0.42531  1.0000
  C   C596      1.0  0.16854  0.52096  0.91596  1.0000
  C   C597      1.0  0.22746  0.57811  0.21636  1.0000
  H   H471      1.0  0.17489  0.57464  0.23115  1.0000
  H   H472      1.0  0.22113  0.67600  0.49348  1.0000
  C   C598      1.0  0.29312  0.63007  0.89164  1.0000
  C   C599      1.0  0.25418  0.64260  0.44537  1.0000
  H   H473      1.0  0.26587  0.62123  0.47119  1.0000
  H   H474      1.0  0.26789  0.69828  0.91348  1.0000
  C   C600      1.0  0.24924  0.69079  0.50314  1.0000
  H   H475      1.0  0.26455  0.58250  0.78864  1.0000
  C   C601      1.0  0.24697  0.63368  0.43223  1.0000
  C   C602      1.0  0.19054  0.59939  0.42293  1.0000
  Fe  Fe44      1.0  0.16743  0.54379  0.05051  1.0000
  H   H476      1.0  0.19375  0.57365  0.50892  1.0000
  H   H477      1.0  0.23082  0.65529  0.60414  1.0000
  C   C603      1.0  0.25644  0.58729  0.40431  1.0000
  C   C604      1.0  0.19349  0.67989  0.14795  1.0000
  H   H478      1.0  0.26187  0.58157  0.41803  1.0000
  C   C605      1.0  0.24459  0.56410  0.34156  1.0000
  H   H479      1.0  0.25127  0.56606  0.22899  1.0000
  C   C606      1.0  0.24952  0.56539  0.26048  1.0000
  C   C607      1.0  0.26098  0.65426  0.41813  1.0000
  H   H480      1.0  0.26619  0.66149  0.42774  1.0000
  H   H481      1.0  0.30847  0.69361  0.28648  1.0000
  H   H482      1.0  0.24783  0.59073  0.45963  1.0000
  C   C608      1.0  0.18126  0.58890  0.42514  1.0000
  C   C609      1.0  0.24673  0.63632  0.39242  1.0000
  H   H483      1.0  0.24079  0.62956  0.38293  1.0000
  C   C610      1.0  0.23000  0.64504  0.50810  1.0000
  H   H484      1.0  0.19570  0.59580  0.51149  1.0000
  Fe  Fe45      1.0  0.21104  0.65159  0.00608  1.0000
  H   H485      1.0  0.17711  0.55841  0.28873  1.0000
  C   C611      1.0  0.25353  0.64795  0.36550  1.0000
  C   C612      1.0  0.26066  0.65690  0.37833  1.0000
  H   H486      1.0  0.25288  0.65019  0.33510  1.0000
  H   H487      1.0  0.26553  0.66610  0.35789  1.0000
  S   S92       1.0  0.28240  0.69600  0.58581  1.0000
  C   C613      1.0  0.21990  0.64882  0.52815  1.0000
  H   H488      1.0  0.21251  0.65579  0.57749  1.0000
  H   H489      1.0  0.22026  0.56626  0.11107  1.0000
  C   C614      1.0  0.18656  0.58927  0.52107  1.0000
  H   H490      1.0  0.29817  0.71267  0.79696  1.0000
  C   C615      1.0  0.25145  0.69878  0.64240  1.0000
  C   C616      1.0  0.15566  0.62639  0.45974  1.0000
  H   H491      1.0  0.23282  0.60376  0.73700  1.0000
  P   P20       1.0  0.24623  0.56584  0.10773  1.0000
  Fe  Fe46      1.0  0.18818  0.64270  0.42325  1.0000
  C   C617      1.0  0.26115  0.67110  0.11195  1.0000
  C   C618      1.0  0.21573  0.60716  0.94910  1.0000
  C   C619      1.0  0.24810  0.71881  0.65106  1.0000
  H   H492      1.0  0.17671  0.60330  0.53281  1.0000
  C   C620      1.0  0.23327  0.60538  0.79553  1.0000
  H   H493      1.0  0.16015  0.50491  0.86735  1.0000
  C   C621      1.0  0.22648  0.60647  0.83181  1.0000
  C   C622      1.0  0.17366  0.56853  0.52945  1.0000
  C   C623      1.0  0.26571  0.66080  0.88119  1.0000
  S   S93       1.0  0.21095  0.65669  0.27074  1.0000
  C   C624      1.0  0.20249  0.65187  0.23824  1.0000
  C   C625      1.0  0.29782  0.71764  0.76785  1.0000
  H   H494      1.0  0.17266  0.58946  0.33896  1.0000
  H   H495      1.0  0.16601  0.57560  0.95481  1.0000
  C   C626      1.0  0.22092  0.58831  0.98224  1.0000
  C   C627      1.0  0.20288  0.65033  0.17075  1.0000
  Fe  Fe47      1.0  0.20128  0.62368  0.05195  1.0000
  H   H496      1.0  0.22370  0.60573  0.99850  1.0000
  C   C628      1.0  0.20915  0.65249  0.19931  1.0000
  H   H497      1.0  0.29028  0.62101  0.88604  1.0000
  Fe  Fe48      1.0  0.28827  0.71291  0.60769  1.0000
  S   S94       1.0  0.31127  0.68973  0.52591  1.0000
  C   C629      1.0  0.16550  0.57087  0.23048  1.0000
  H   H498      1.0  0.19895  0.57440  0.82412  1.0000
  C   C630      1.0  0.25791  0.55757  0.11775  1.0000
  H   H499      1.0  0.25764  0.66592  0.83267  1.0000
  C   C631      1.0  0.18687  0.59710  0.03740  1.0000
  Fe  Fe49      1.0  0.30045  0.70391  0.53798  1.0000
  C   C632      1.0  0.31717  0.55947  0.32541  1.0000
  H   H500      1.0  0.27256  0.60571  0.96710  1.0000
  C   C633      1.0  0.17750  0.57511  0.04460  1.0000
  H   H501      1.0  0.20060  0.54059  0.84334  1.0000
  H   H502      1.0  0.18371  0.67659  0.15004  1.0000
  C   C634      1.0  0.21492  0.60442  0.77167  1.0000
  C   C635      1.0  0.30126  0.73086  0.75590  1.0000
  H   H503      1.0  0.26766  0.72490  0.03029  1.0000
  C   C636      1.0  0.16585  0.53084  0.78593  1.0000
  P   P21       1.0  0.15480  0.52957  0.86506  1.0000
  C   C637      1.0  0.20837  0.62540  0.88111  1.0000
  H   H504      1.0  0.18845  0.56251  0.89512  1.0000
  C   C638      1.0  0.18944  0.64871  0.24862  1.0000
  H   H505      1.0  0.26657  0.54069  0.19443  1.0000
  Fe  Fe50      1.0  0.19048  0.64293  0.08486  1.0000
  S   S95       1.0  0.19178  0.65492  0.02328  1.0000
  H   H506      1.0  0.31812  0.71175  0.68435  1.0000
  H   H507      1.0  0.23190  0.61830  0.04341  1.0000
  C   C639      1.0  0.28946  0.67400  0.03121  1.0000
  C   C640      1.0  0.29375  0.71089  0.74234  1.0000
  C   C641      1.0  0.17586  0.59349  0.53305  1.0000
  H   H508      1.0  0.27012  0.58456  0.08540  1.0000
  C   C642      1.0  0.26408  0.66920  0.84847  1.0000
  C   C643      1.0  0.27870  0.55264  0.25739  1.0000
  C   C644      1.0  0.21687  0.58208  0.95611  1.0000
  C   C645      1.0  0.28378  0.54624  0.28553  1.0000
  Fe  Fe51      1.0  0.31632  0.71588  0.90887  1.0000
  H   H509      1.0  0.26870  0.67365  0.97637  1.0000
  C   C646      1.0  0.18987  0.64777  0.18052  1.0000
  C   C647      1.0  0.23661  0.68032  0.21546  1.0000
  H   H510      1.0  0.17311  0.64487  0.22765  1.0000
  H   H511      1.0  0.17177  0.58969  0.42810  1.0000
  Fe  Fe52      1.0  0.28994  0.71816  0.93879  1.0000
  C   C648      1.0  0.27617  0.67118  0.98817  1.0000
  C   C649      1.0  0.31632  0.70035  0.64444  1.0000
  H   H512      1.0  0.18949  0.62492  0.91305  1.0000
  C   C650      1.0  0.24862  0.58206  0.03299  1.0000
  C   C651      1.0  0.24175  0.70690  0.10441  1.0000
  P   P22       1.0  0.20536  0.60870  0.88473  1.0000
  C   C652      1.0  0.31689  0.62557  0.56166  1.0000
  H   H513      1.0  0.16331  0.60674  0.86506  1.0000
  Fe  Fe53      1.0  0.27438  0.70777  0.54316  1.0000
  S   S96       1.0  0.17116  0.63508  0.96969  1.0000
  H   H514      1.0  0.18804  0.58539  0.94374  1.0000
  C   C653      1.0  0.29489  0.66450  0.02129  1.0000
  C   C654      1.0  0.19727  0.67949  0.18263  1.0000
  C   C655      1.0  0.16218  0.49773  0.36886  1.0000
  H   H515      1.0  0.26058  0.65099  0.89009  1.0000
  C   C656      1.0  0.21357  0.65111  0.87869  1.0000
  C   C657      1.0  0.23573  0.54443  0.08741  1.0000
  H   H516      1.0  0.28259  0.56717  0.20220  1.0000
  H   H517      1.0  0.17189  0.59089  0.01324  1.0000
  H   H518      1.0  0.23985  0.59650  0.18631  1.0000
  S   S97       1.0  0.16855  0.63661  0.46641  1.0000
  S   S98       1.0  0.16615  0.56397  0.03587  1.0000
  C   C658      1.0  0.17813  0.58797  0.03021  1.0000
  S   S99       1.0  0.18160  0.62505  0.07252  1.0000
  H   H519      1.0  0.24083  0.71200  0.17635  1.0000
  C   C659      1.0  0.25515  0.67987  0.12486  1.0000
  C   C660      1.0  0.22054  0.63314  0.86358  1.0000
  H   H520      1.0  0.22282  0.58100  0.24152  1.0000
  S   S100      1.0  0.18168  0.64644  0.14415  1.0000
  C   C661      1.0  0.24292  0.67972  0.12280  1.0000
  C   C662      1.0  0.25132  0.73130  0.05140  1.0000
  S   S101      1.0  0.27857  0.72430  0.56939  1.0000
  H   H521      1.0  0.20942  0.58351  0.90586  1.0000
  C   C663      1.0  0.20143  0.64354  0.89570  1.0000
  H   H522      1.0  0.19957  0.52639  0.90872  1.0000
  C   C664      1.0  0.21191  0.54892  0.10111  1.0000
  C   C665      1.0  0.25847  0.72243  0.05134  1.0000
  H   H523      1.0  0.23364  0.70701  0.85484  1.0000
  H   H524      1.0  0.18731  0.59363  0.14507  1.0000
  C   C666      1.0  0.18317  0.64681  0.21976  1.0000
  S   S102      1.0  0.29241  0.71494  0.49404  1.0000
  C   C667      1.0  0.15639  0.61034  0.98830  1.0000
  C   C668      1.0  0.31053  0.61306  0.58213  1.0000
  C   C669      1.0  0.25193  0.62211  0.02182  1.0000
  C   C670      1.0  0.31529  0.66369  0.26487  1.0000
  H   H525      1.0  0.22665  0.55225  0.18184  1.0000
  H   H526      1.0  0.15672  0.59689  0.08169  1.0000
  H   H527      1.0  0.20270  0.55070  0.10607  1.0000
  H   H528      1.0  0.25006  0.65452  0.95980  1.0000
  H   H529      1.0  0.30977  0.66754  0.28578  1.0000
  C   C671      1.0  0.26232  0.64248  0.97338  1.0000
  C   C672      1.0  0.23980  0.63663  0.00092  1.0000
  H   H530      1.0  0.23448  0.67137  0.20865  1.0000
  H   H531      1.0  0.24282  0.71188  0.24349  1.0000
  H   H532      1.0  0.23382  0.73492  0.07788  1.0000
  C   C673      1.0  0.31944  0.65289  0.27866  1.0000
  H   H533      1.0  0.22717  0.66974  0.10766  1.0000
  H   H534      1.0  0.31936  0.65245  0.87992  1.0000
  C   C674      1.0  0.23766  0.69168  0.18715  1.0000
  P   P23       1.0  0.27646  0.65405  0.94308  1.0000
  C   C675      1.0  0.21893  0.68712  0.14297  1.0000
  H   H535      1.0  0.19041  0.67595  0.21158  1.0000
  H   H536      1.0  0.22537  0.71357  0.12483  1.0000
  H   H537      1.0  0.27367  0.71606  0.81837  1.0000
  H   H538      1.0  0.30517  0.57331  0.19417  1.0000
  S   S103      1.0  0.31060  0.54804  0.93443  1.0000
  C   C676      1.0  0.18501  0.60716  0.17837  1.0000
  H   H539      1.0  0.26006  0.68685  0.13619  1.0000
  C   C677      1.0  0.29332  0.71724  0.70413  1.0000
  C   C678      1.0  0.24237  0.71648  0.79230  1.0000
  C   C679      1.0  0.19885  0.63068  0.89764  1.0000
  C   C680      1.0  0.31090  0.60767  0.97617  1.0000
  C   C681      1.0  0.25373  0.71026  0.07760  1.0000
  C   C682      1.0  0.15966  0.65706  0.53179  1.0000
  C   C683      1.0  0.20236  0.68413  0.11070  1.0000
  C   C684      1.0  0.24003  0.70310  0.19738  1.0000
  C   C685      1.0  0.22377  0.56568  0.21487  1.0000
  C   C686      1.0  0.23708  0.58683  0.18526  1.0000
  H   H540      1.0  0.29513  0.65086  0.98795  1.0000
  C   C687      1.0  0.29662  0.54956  0.28091  1.0000
  C   C688      1.0  0.22312  0.64592  0.86259  1.0000
  C   C689      1.0  0.22191  0.55774  0.10375  1.0000
  S   S104      1.0  0.30657  0.72051  0.96364  1.0000
  C   C690      1.0  0.21503  0.68787  0.10814  1.0000
  H   H541      1.0  0.29692  0.73542  0.66240  1.0000
  H   H542      1.0  0.24050  0.69162  0.29356  1.0000
  H   H543      1.0  0.22182  0.69102  0.07905  1.0000
  H   H544      1.0  0.19943  0.68424  0.08388  1.0000
  C   C691      1.0  0.18303  0.59009  0.92518  1.0000
  H   H545      1.0  0.15964  0.51556  0.93691  1.0000
  H   H546      1.0  0.16322  0.50313  0.39003  1.0000
  C   C692      1.0  0.20994  0.68302  0.18026  1.0000
  P   P24       1.0  0.23539  0.69130  0.13903  1.0000
  C   C693      1.0  0.15729  0.53499  0.81176  1.0000
  H   H547      1.0  0.25238  0.61313  0.03992  1.0000
  C   C694      1.0  0.27236  0.59620  0.02664  1.0000
  C   C695      1.0  0.20810  0.60555  0.80792  1.0000
  H   H548      1.0  0.23633  0.67146  0.27572  1.0000
  H   H549      1.0  0.25035  0.55174  0.18210  1.0000
  H   H550      1.0  0.28732  0.68123  0.90419  1.0000
  C   C696      1.0  0.23770  0.68034  0.25356  1.0000
  C   C697      1.0  0.21378  0.53779  0.09217  1.0000
  C   C698      1.0  0.31639  0.59810  0.99083  1.0000
  H   H551      1.0  0.27443  0.63067  0.91827  1.0000
  C   C699      1.0  0.22970  0.56194  0.18240  1.0000
  C   C700      1.0  0.28420  0.63548  0.91050  1.0000
  H   H552      1.0  0.30368  0.66236  0.91178  1.0000
  H   H553      1.0  0.17173  0.56976  0.17010  1.0000
  C   C701      1.0  0.24295  0.58316  0.15242  1.0000
  C   C702      1.0  0.23939  0.72805  0.07795  1.0000
  C   C703      1.0  0.23384  0.55539  0.09800  1.0000
  H   H554      1.0  0.31536  0.56903  0.72764  1.0000
  Fe  Fe54      1.0  0.29731  0.73051  0.52277  1.0000
  H   H555      1.0  0.28413  0.69591  0.84715  1.0000
  H   H556      1.0  0.30447  0.52910  0.04194  1.0000
  C   C704      1.0  0.15449  0.60765  0.29406  1.0000
  C   C705      1.0  0.30064  0.65324  0.90689  1.0000
  C   C706      1.0  0.15809  0.66811  0.54189  1.0000
  H   H557      1.0  0.15646  0.50995  0.26562  1.0000
  H   H558      1.0  0.25019  0.59013  0.12836  1.0000
  H   H559      1.0  0.25363  0.70703  0.87152  1.0000
  H   H560      1.0  0.32021  0.55905  0.52297  1.0000
  C   C707      1.0  0.23921  0.57070  0.15057  1.0000
  H   H561      1.0  0.23972  0.57635  0.03414  1.0000
  C   C708      1.0  0.26576  0.58661  0.06156  1.0000
  H   H562      1.0  0.22722  0.52728  0.07599  1.0000
  H   H563      1.0  0.31287  0.69791  0.98556  1.0000
  H   H564      1.0  0.31473  0.58932  0.98280  1.0000
  H   H565      1.0  0.28374  0.55021  0.06805  1.0000
  C   C709      1.0  0.27630  0.54491  0.13215  1.0000
  H   H566      1.0  0.26023  0.70437  0.72265  1.0000
  H   H567      1.0  0.30708  0.69479  0.66240  1.0000
  H   H568      1.0  0.31204  0.59435  0.60702  1.0000
  C   C710      1.0  0.16893  0.60200  0.88118  1.0000
  H   H569      1.0  0.18192  0.49981  0.34633  1.0000
  C   C711      1.0  0.18880  0.60167  0.89580  1.0000
  S   S105      1.0  0.16155  0.51227  0.18153  1.0000
  H   H570      1.0  0.31369  0.68619  0.05192  1.0000
  H   H571      1.0  0.30299  0.70525  0.22774  1.0000
  H   H572      1.0  0.30968  0.56420  0.32522  1.0000
  C   C712      1.0  0.26491  0.71607  0.81105  1.0000
  H   H573      1.0  0.31579  0.61925  0.33108  1.0000
  H   H574      1.0  0.19842  0.60568  0.81179  1.0000
  C   C713      1.0  0.30579  0.63608  0.88114  1.0000
  C   C714      1.0  0.17954  0.52006  0.92652  1.0000
  C   C715      1.0  0.25364  0.71099  0.84098  1.0000
  C   C716      1.0  0.27651  0.55065  0.09300  1.0000
  C   C717      1.0  0.30589  0.66663  0.40766  1.0000
  H   H575      1.0  0.30894  0.62648  0.97547  1.0000
  H   H576      1.0  0.15854  0.63194  0.13889  1.0000
  H   H577      1.0  0.22811  0.62930  0.85145  1.0000
  C   C718      1.0  0.17042  0.58446  0.93187  1.0000
  H   H578      1.0  0.31891  0.60901  0.47667  1.0000
  H   H579      1.0  0.29251  0.67883  0.05161  1.0000
  S   S106      1.0  0.31343  0.57001  0.45075  1.0000
  H   H580      1.0  0.23255  0.65179  0.84990  1.0000
  P   P25       1.0  0.25375  0.72891  0.71130  1.0000
  H   H581      1.0  0.16144  0.54496  0.69723  1.0000
  H   H582      1.0  0.17121  0.52460  0.79764  1.0000
  H   H583      1.0  0.15851  0.55706  0.84452  1.0000
  H   H584      1.0  0.30219  0.66197  0.03408  1.0000
  C   C719      1.0  0.16741  0.53452  0.74476  1.0000
  H   H585      1.0  0.31605  0.68476  0.40824  1.0000
  C   C720      1.0  0.25368  0.72189  0.76215  1.0000
  H   H586      1.0  0.24440  0.71131  0.60319  1.0000
  C   C721      1.0  0.16029  0.54220  0.72912  1.0000
  H   H587      1.0  0.18569  0.61669  0.85201  1.0000
  H   H588      1.0  0.31300  0.54532  0.20206  1.0000
  C   C722      1.0  0.31051  0.52394  0.05452  1.0000
  C   C723      1.0  0.30955  0.64773  0.88842  1.0000
  H   H589      1.0  0.30827  0.55461  0.63148  1.0000
  C   C724      1.0  0.26493  0.72132  0.77171  1.0000
  C   C725      1.0  0.16373  0.56827  0.19543  1.0000
  H   H590      1.0  0.30225  0.50649  0.04461  1.0000
  C   C726      1.0  0.31122  0.56044  0.68261  1.0000
  C   C727      1.0  0.31600  0.67721  0.39392  1.0000
  C   C728      1.0  0.31812  0.66954  0.22390  1.0000
  C   C729      1.0  0.31749  0.56983  0.69596  1.0000
  H   H591      1.0  0.31509  0.56472  0.98412  1.0000
  C   C730      1.0  0.31944  0.55451  0.36184  1.0000
  C   C731      1.0  0.27349  0.74344  0.64478  1.0000
  H   H592      1.0  0.31923  0.71580  0.16424  1.0000
  C   C732      1.0  0.31978  0.53013  0.06822  1.0000
  C   C733      1.0  0.26787  0.74130  0.68568  1.0000
  C   C734      1.0  0.31743  0.50470  0.07077  1.0000
  P   P26       1.0  0.15721  0.57112  0.31045  1.0000
  H   H593      1.0  0.15994  0.61682  0.27447  1.0000
  C   C735      1.0  0.31563  0.69814  0.25842  1.0000
  H   H594      1.0  0.31973  0.73431  0.62749  1.0000
  C   C736      1.0  0.15472  0.63108  0.11438  1.0000
  H   H595      1.0  0.20941  0.72740  0.71941  1.0000
  C   C737      1.0  0.15646  0.64198  0.08363  1.0000
  H   H596      1.0  0.15714  0.63495  0.91199  1.0000
  H   H597      1.0  0.26964  0.73762  0.62808  1.0000
  C   C738      1.0  0.21842  0.73332  0.71686  1.0000
  C   C739      1.0  0.32051  0.69363  0.98794  1.0000
  H   H598      1.0  0.15404  0.52662  0.49889  1.0000
  H   H599      1.0  0.31641  0.49490  0.07104  1.0000
  C   C740      1.0  0.28950  0.76086  0.64564  1.0000
  H   H600      1.0  0.29790  0.76833  0.63027  1.0000
  C   C741      1.0  0.28397  0.75883  0.68630  1.0000
  C   C742      1.0  0.31765  0.76281  0.28734  1.0000
  S   S107      1.0  0.30590  0.75089  0.48400  1.0000
  H   H601      1.0  0.23229  0.76365  0.70971  1.0000
  C   C743      1.0  0.27318  0.74914  0.70624  1.0000
  H   H602      1.0  0.30072  0.75035  0.38515  1.0000
  H   H603      1.0  0.31288  0.75365  0.60619  1.0000
  C   C744      1.0  0.28426  0.75317  0.62487  1.0000
  C   C745      1.0  0.30796  0.76541  0.27100  1.0000
  H   H604      1.0  0.30989  0.77005  0.23950  1.0000
  H   H605      1.0  0.30402  0.74739  0.70735  1.0000
  C   C746      1.0  0.29570  0.76223  0.29547  1.0000
  H   H606      1.0  0.28824  0.76425  0.28276  1.0000
  H   H607      1.0  0.28813  0.76468  0.70256  1.0000
  H   H608      1.0  0.25051  0.75466  0.70800  1.0000
  H   H609      1.0  0.21169  0.75013  0.71535  1.0000
  H   H610      1.0  0.31853  0.75039  0.22402  1.0000
  C   C747      1.0  0.24165  0.74857  0.71038  1.0000
  H   H611      1.0  0.28858  0.75467  0.59333  1.0000
  C   C748      1.0  0.23130  0.75373  0.71141  1.0000
  C   C749      1.0  0.31496  0.75747  0.32871  1.0000
  H   H612      1.0  0.26902  0.74776  0.73774  1.0000
  C   C750      1.0  0.30272  0.75437  0.35313  1.0000
  H   H613      1.0  0.28360  0.75434  0.35556  1.0000
  C   C751      1.0  0.29307  0.75668  0.33649  1.0000
  C   C752      1.0  0.31984  0.76078  0.48601  1.0000
  H   H614      1.0  0.31978  0.77617  0.43752  1.0000
  C   C753      1.0  0.21970  0.74612  0.71459  1.0000
  S   S108      1.0  0.32023  0.75713  0.95091  1.0000
  H   H615      1.0  0.32012  0.74877  0.15549  1.0000
  C   C754      1.0  0.47039  0.05401  0.16975  1.0000
  H   H616      1.0  0.43918  0.04094  0.19109  1.0000
  C   C755      1.0  0.45237  0.99905  0.68962  1.0000
  C   C756      1.0  0.47417  0.04295  0.18307  1.0000
  H   H617      1.0  0.45813  0.03081  0.67848  1.0000
  H   H618      1.0  0.43503  0.02576  0.69507  1.0000
  C   C757      1.0  0.46832  0.08629  0.12422  1.0000
  C   C758      1.0  0.45278  0.03060  0.20257  1.0000
  C   C759      1.0  0.43985  0.01832  0.69371  1.0000
  C   C760      1.0  0.43307  0.00586  0.70153  1.0000
  H   H619      1.0  0.46645  0.09962  0.21578  1.0000
  C   C761      1.0  0.46208  0.09580  0.12791  1.0000
  C   C762      1.0  0.47412  0.08165  0.15322  1.0000
  C   C763      1.0  0.45771  0.05321  0.17265  1.0000
  C   C764      1.0  0.46703  0.09595  0.19009  1.0000
  C   C765      1.0  0.46537  0.03132  0.19965  1.0000
  C   C766      1.0  0.45911  0.01157  0.68256  1.0000
  H   H620      1.0  0.46836  0.02282  0.20995  1.0000
  H   H621      1.0  0.48393  0.04325  0.18052  1.0000
  H   H622      1.0  0.45659  0.10799  0.16367  1.0000
  H   H623      1.0  0.42298  0.00364  0.70907  1.0000
  H   H624      1.0  0.46919  0.01393  0.67572  1.0000
  H   H625      1.0  0.48037  0.05882  0.23306  1.0000
  H   H626      1.0  0.44603  0.02153  0.21514  1.0000
  C   C767      1.0  0.44895  0.04153  0.18901  1.0000
  H   H627      1.0  0.45451  0.06152  0.16227  1.0000
  C   C768      1.0  0.46146  0.10065  0.16078  1.0000
  H   H628      1.0  0.46770  0.00442  0.60818  1.0000
  H   H629      1.0  0.45768  0.09937  0.10532  1.0000
  C   C769      1.0  0.45287  0.02116  0.68434  1.0000
  P   P27       1.0  0.48179  0.06905  0.14888  1.0000
  C   C770      1.0  0.47330  0.08645  0.18647  1.0000
  H   H630      1.0  0.46855  0.08251  0.09883  1.0000
  H   H631      1.0  0.47743  0.08288  0.20973  1.0000
  C   C771      1.0  0.47593  0.00167  0.61386  1.0000
  H   H632      1.0  0.46151  0.99782  0.75504  1.0000
  C   C772      1.0  0.43929  0.99624  0.69971  1.0000
  H   H633      1.0  0.48436  0.05139  0.09910  1.0000
  S   S109      1.0  0.48557  0.00116  0.49483  1.0000
  H   H634      1.0  0.48590  0.01170  0.26216  1.0000
  C   C773      1.0  0.45517  0.44596  0.37399  1.0000
  S   S110      1.0  0.46921  0.47635  0.55420  1.0000
  C   C774      1.0  0.48089  0.41345  0.36957  1.0000
  S   S111      1.0  0.43880  0.47401  0.58019  1.0000
  H   H635      1.0  0.41903  0.46403  0.78482  1.0000
  Fe  Fe55      1.0  0.45258  0.46792  0.53635  1.0000
  S   S112      1.0  0.44944  0.44826  0.52811  1.0000
  H   H636      1.0  0.44998  0.41364  0.62759  1.0000
  H   H637      1.0  0.46051  0.45201  0.34465  1.0000
  C   C775      1.0  0.48597  0.44747  0.39465  1.0000
  C   C776      1.0  0.45347  0.48231  0.69782  1.0000
  Fe  Fe56      1.0  0.45231  0.47362  0.86825  1.0000
  S   S113      1.0  0.44736  0.46585  0.93530  1.0000
  S   S114      1.0  0.44610  0.46167  0.82977  1.0000
  C   C777      1.0  0.32496  0.48172  0.16612  1.0000
  C   C778      1.0  0.48386  0.39784  0.42332  1.0000
  C   C779      1.0  0.46361  0.36439  0.98064  1.0000
  C   C780      1.0  0.41979  0.47234  0.79564  1.0000
  C   C781      1.0  0.44144  0.43136  0.45110  1.0000
  H   H638      1.0  0.41689  0.46177  0.85654  1.0000
  H   H639      1.0  0.47638  0.45525  0.52048  1.0000
  H   H640      1.0  0.47851  0.48194  0.74199  1.0000
  C   C782      1.0  0.45974  0.44640  0.64576  1.0000
  P   P28       1.0  0.47958  0.44062  0.67476  1.0000
  H   H641      1.0  0.43803  0.42969  0.61297  1.0000
  H   H642      1.0  0.46979  0.43311  0.24746  1.0000
  C   C783      1.0  0.47607  0.45166  0.73797  1.0000
  S   S115      1.0  0.44832  0.49251  0.86916  1.0000
  C   C784      1.0  0.47554  0.44257  0.99168  1.0000
  H   H643      1.0  0.44428  0.45057  0.62427  1.0000
  C   C785      1.0  0.44883  0.46919  0.71128  1.0000
  C   C786      1.0  0.44633  0.46291  0.75205  1.0000
  C   C787      1.0  0.44848  0.46973  0.77933  1.0000
  H   H644      1.0  0.47260  0.35415  0.94350  1.0000
  H   H645      1.0  0.38347  0.48891  0.10372  1.0000
  H   H646      1.0  0.44739  0.46389  0.69029  1.0000
  H   H647      1.0  0.44299  0.45273  0.76236  1.0000
  H   H648      1.0  0.41907  0.48073  0.88142  1.0000
  C   C788      1.0  0.32308  0.46509  0.11889  1.0000
  C   C789      1.0  0.46028  0.43721  0.39582  1.0000
  H   H649      1.0  0.46328  0.42945  0.32056  1.0000
  H   H650      1.0  0.43628  0.42602  0.48149  1.0000
  C   C790      1.0  0.45743  0.42662  0.53280  1.0000
  H   H651      1.0  0.42735  0.44134  0.44252  1.0000
  C   C791      1.0  0.47353  0.44525  0.52380  1.0000
  H   H652      1.0  0.44778  0.42217  0.53658  1.0000
  C   C792      1.0  0.42254  0.48433  0.76883  1.0000
  H   H653      1.0  0.32235  0.45865  0.10059  1.0000
  C   C793      1.0  0.47232  0.43564  0.30331  1.0000
  H   H654      1.0  0.46230  0.45565  0.64998  1.0000
  C   C794      1.0  0.47859  0.42475  0.53007  1.0000
  H   H655      1.0  0.45867  0.42278  0.73768  1.0000
  S   S116      1.0  0.45464  0.48451  0.48408  1.0000
  Fe  Fe57      1.0  0.46778  0.47381  0.92776  1.0000
  H   H656      1.0  0.45416  0.48823  0.78681  1.0000
  C   C795      1.0  0.48519  0.45359  0.97809  1.0000
  C   C796      1.0  0.45505  0.48913  0.72542  1.0000
  H   H657      1.0  0.48214  0.40251  0.47910  1.0000
  C   C797      1.0  0.46606  0.41921  0.53474  1.0000
  S   S117      1.0  0.47277  0.48018  0.86083  1.0000
  C   C798      1.0  0.42261  0.49376  0.82337  1.0000
  H   H658      1.0  0.33287  0.48118  0.06887  1.0000
  C   C799      1.0  0.45329  0.42991  0.43452  1.0000
  C   C800      1.0  0.45258  0.42269  0.63341  1.0000
  H   H659      1.0  0.48427  0.46896  0.44841  1.0000
  C   C801      1.0  0.43643  0.44005  0.42919  1.0000
  H   H660      1.0  0.45561  0.36387  0.96879  1.0000
  S   S118      1.0  0.45833  0.49068  0.64684  1.0000
  C   C802      1.0  0.47872  0.42126  0.39478  1.0000
  H   H661      1.0  0.48090  0.30321  0.64819  1.0000
  C   C803      1.0  0.33007  0.48630  0.12453  1.0000
  C   C804      1.0  0.46103  0.43963  0.52799  1.0000
  C   C805      1.0  0.44582  0.43171  0.62526  1.0000
  C   C806      1.0  0.48049  0.44109  0.32246  1.0000
  H   H662      1.0  0.46797  0.41834  0.65411  1.0000
  H   H663      1.0  0.46979  0.42282  0.02497  1.0000
  C   C807      1.0  0.46654  0.43736  0.65435  1.0000
  C   C808      1.0  0.48344  0.40180  0.38388  1.0000
  C   C809      1.0  0.44326  0.44730  0.39056  1.0000
  P   P29       1.0  0.47629  0.43678  0.37637  1.0000
  C   C810      1.0  0.44942  0.44354  0.63138  1.0000
  C   C811      1.0  0.47925  0.41721  0.43429  1.0000
  C   C812      1.0  0.41856  0.47105  0.83613  1.0000
  H   H664      1.0  0.47807  0.42324  0.45382  1.0000
  H   H665      1.0  0.46298  0.40908  0.54036  1.0000
  C   C813      1.0  0.47953  0.35916  0.14829  1.0000
  S   S119      1.0  0.46456  0.49246  0.93472  1.0000
  H   H666      1.0  0.45705  0.42336  0.45260  1.0000
  H   H667      1.0  0.48361  0.48573  0.66858  1.0000
  H   H668      1.0  0.32557  0.48795  0.18504  1.0000
  H   H669      1.0  0.41991  0.49198  0.12144  1.0000
  C   C814      1.0  0.47731  0.43131  0.01420  1.0000
  C   C815      1.0  0.47698  0.40480  0.77275  1.0000
  H   H670      1.0  0.47304  0.46027  0.78631  1.0000
  H   H671      1.0  0.48629  0.36490  0.19477  1.0000
  Fe  Fe58      1.0  0.45579  0.48399  0.59332  1.0000
  C   C816      1.0  0.47899  0.47415  0.72914  1.0000
  H   H672      1.0  0.47355  0.44226  0.75815  1.0000
  C   C817      1.0  0.46286  0.42547  0.64803  1.0000
  H   H673      1.0  0.46669  0.44275  0.98536  1.0000
  C   C818      1.0  0.48428  0.36571  0.01157  1.0000
  H   H674      1.0  0.42363  0.48497  0.73766  1.0000
  Fe  Fe59      1.0  0.44471  0.48538  0.93548  1.0000
  C   C819      1.0  0.41991  0.48175  0.85002  1.0000
  H   H675      1.0  0.43943  0.45418  0.37389  1.0000
  H   H676      1.0  0.48247  0.28201  0.64098  1.0000
  C   C820      1.0  0.45267  0.48289  0.76597  1.0000
  H   H677      1.0  0.39998  0.47884  0.12112  1.0000
  C   C821      1.0  0.48354  0.35966  0.98156  1.0000
  H   H678      1.0  0.47153  0.45650  0.41710  1.0000
  H   H679      1.0  0.47051  0.35374  0.16821  1.0000
  C   C822      1.0  0.47864  0.42648  0.71252  1.0000
  H   H680      1.0  0.45727  0.40366  0.79030  1.0000
  C   C823      1.0  0.48236  0.43785  0.52402  1.0000
  H   H681      1.0  0.48550  0.39600  0.36399  1.0000
  S   S120      1.0  0.43010  0.49025  0.98063  1.0000
  C   C824      1.0  0.46625  0.40887  0.76954  1.0000
  C   C825      1.0  0.48104  0.45574  0.41434  1.0000
  Fe  Fe60      1.0  0.47043  0.49331  0.50486  1.0000
  C   C826      1.0  0.46706  0.41968  0.73961  1.0000
  C   C827      1.0  0.47317  0.35889  0.96649  1.0000
  C   C828      1.0  0.40154  0.48903  0.11336  1.0000
  C   C829      1.0  0.47597  0.43765  0.26195  1.0000
  C   C830      1.0  0.48192  0.47625  0.68782  1.0000
  C   C831      1.0  0.32907  0.47787  0.10104  1.0000
  H   H682      1.0  0.35716  0.48879  0.09052  1.0000
  C   C832      1.0  0.48199  0.46606  0.67146  1.0000
  H   H683      1.0  0.47633  0.39640  0.79594  1.0000
  H   H684      1.0  0.48101  0.41636  0.33859  1.0000
  H   H685      1.0  0.47552  0.37683  0.04638  1.0000
  C   C833      1.0  0.47596  0.46187  0.75419  1.0000
  C   C834      1.0  0.47913  0.45368  0.69639  1.0000
  S   S121      1.0  0.48342  0.46826  0.95210  1.0000
  H   H686      1.0  0.47548  0.35465  0.09673  1.0000
  H   H687      1.0  0.48398  0.46781  0.63941  1.0000
  C   C835      1.0  0.39225  0.49469  0.10352  1.0000
  H   H688      1.0  0.37470  0.49038  0.03272  1.0000
  H   H689      1.0  0.45722  0.37531  0.01993  1.0000
  C   C836      1.0  0.47482  0.37154  0.02477  1.0000
  C   C837      1.0  0.48234  0.35982  0.10767  1.0000
  H   H690      1.0  0.48180  0.48482  0.00735  1.0000
  C   C838      1.0  0.48165  0.40549  0.44863  1.0000
  Fe  Fe61      1.0  0.44219  0.49129  0.52900  1.0000
  H   H691      1.0  0.48620  0.38898  0.43392  1.0000
  C   C839      1.0  0.46448  0.37079  0.00958  1.0000
  H   H692      1.0  0.33697  0.60327  0.50914  1.0000
  Fe  Fe62      1.0  0.39392  0.53626  0.38277  1.0000
  S   S122      1.0  0.39951  0.55067  0.32283  1.0000
  S   S123      1.0  0.40447  0.52084  0.38461  1.0000
  Fe  Fe63      1.0  0.37481  0.54941  0.41876  1.0000
  S   S124      1.0  0.37932  0.56489  0.36213  1.0000
  S   S125      1.0  0.36061  0.54964  0.47429  1.0000
  Fe  Fe64      1.0  0.37915  0.54942  0.33185  1.0000
  S   S126      1.0  0.36943  0.55148  0.28295  1.0000
  Fe  Fe65      1.0  0.39924  0.56484  0.35794  1.0000
  S   S127      1.0  0.41324  0.58370  0.33507  1.0000
  S   S128      1.0  0.37328  0.53372  0.38901  1.0000
  S   S129      1.0  0.39498  0.55065  0.41743  1.0000
  Fe  Fe66      1.0  0.46105  0.61481  0.42169  1.0000
  H   H693      1.0  0.34355  0.57304  0.91032  1.0000
  S   S130      1.0  0.44681  0.59608  0.44703  1.0000
  Fe  Fe67      1.0  0.47070  0.64078  0.43312  1.0000
  C   C840      1.0  0.42176  0.50797  0.48644  1.0000
  S   S131      1.0  0.45691  0.63356  0.40235  1.0000
  Fe  Fe68      1.0  0.38741  0.54342  0.06831  1.0000
  S   S132      1.0  0.37449  0.53259  0.04145  1.0000
  S   S133      1.0  0.39097  0.53565  0.12754  1.0000
  Fe  Fe69      1.0  0.39668  0.56594  0.99533  1.0000
  S   S134      1.0  0.38452  0.55740  0.96207  1.0000
  S   S135      1.0  0.41000  0.58506  0.96998  1.0000
  Fe  Fe70      1.0  0.36958  0.55111  0.02046  1.0000
  S   S136      1.0  0.35038  0.55512  0.03188  1.0000
  Fe  Fe71      1.0  0.39049  0.53965  0.98481  1.0000
  S   S137      1.0  0.39754  0.52942  0.93931  1.0000
  S   S138      1.0  0.38140  0.56127  0.05183  1.0000
  S   S139      1.0  0.40370  0.54882  0.01372  1.0000
  H   H694      1.0  0.38951  0.73466  0.02605  1.0000
  P   P30       1.0  0.42713  0.51081  0.74871  1.0000
  S   S140      1.0  0.44333  0.59498  0.08465  1.0000
  C   C841      1.0  0.32953  0.68653  0.46839  1.0000
  H   H695      1.0  0.40106  0.50371  0.79623  1.0000
  S   S141      1.0  0.46010  0.62876  0.08200  1.0000
  H   H696      1.0  0.36247  0.57183  0.51439  1.0000
  H   H697      1.0  0.40352  0.52758  0.45908  1.0000
  S   S142      1.0  0.36264  0.63438  0.08129  1.0000
  C   C842      1.0  0.32408  0.62331  0.33843  1.0000
  Fe  Fe72      1.0  0.45900  0.71687  0.51993  1.0000
  S   S143      1.0  0.44302  0.70558  0.57316  1.0000
  S   S144      1.0  0.47164  0.70912  0.47720  1.0000
  Fe  Fe73      1.0  0.43172  0.71759  0.54588  1.0000
  S   S145      1.0  0.41201  0.70987  0.54396  1.0000
  Fe  Fe74      1.0  0.44822  0.72118  0.60141  1.0000
  S   S146      1.0  0.44562  0.71413  0.66872  1.0000
  S   S147      1.0  0.44730  0.72798  0.49122  1.0000
  C   C843      1.0  0.40821  0.63010  0.92871  1.0000
  C   C844      1.0  0.33994  0.72141  0.09868  1.0000
  S   S148      1.0  0.38380  0.69795  0.32555  1.0000
  S   S149      1.0  0.38374  0.66835  0.36042  1.0000
  Fe  Fe75      1.0  0.38786  0.68627  0.37851  1.0000
  S   S150      1.0  0.40642  0.69284  0.38997  1.0000
  H   H698      1.0  0.43995  0.57034  0.01088  1.0000
  H   H699      1.0  0.37706  0.63112  0.19885  1.0000
  C   C845      1.0  0.44057  0.55798  0.06559  1.0000
  C   C846      1.0  0.35230  0.51973  0.19366  1.0000
  S   S151      1.0  0.35039  0.65137  0.02001  1.0000
  S   S152      1.0  0.36035  0.66258  0.08883  1.0000
  S   S153      1.0  0.44541  0.71869  0.90088  1.0000
  C   C847      1.0  0.34541  0.59154  0.54641  1.0000
  Fe  Fe76      1.0  0.43217  0.72790  0.93414  1.0000
  S   S154      1.0  0.41117  0.72055  0.95940  1.0000
  Fe  Fe77      1.0  0.45777  0.72466  0.93793  1.0000
  S   S155      1.0  0.46813  0.71271  0.97199  1.0000
  S   S156      1.0  0.32349  0.73607  0.87159  1.0000
  Fe  Fe78      1.0  0.34249  0.65828  0.07236  1.0000
  H   H700      1.0  0.34673  0.70275  0.21771  1.0000
  Fe  Fe79      1.0  0.36782  0.65409  0.04032  1.0000
  S   S157      1.0  0.38738  0.66171  0.99878  1.0000
  C   C848      1.0  0.37571  0.66790  0.23240  1.0000
  C   C849      1.0  0.40462  0.70423  0.96925  1.0000
  C   C850      1.0  0.39179  0.69931  0.98769  1.0000
  C   C851      1.0  0.38641  0.68627  0.99709  1.0000
  C   C852      1.0  0.39384  0.67809  0.98778  1.0000
  C   C853      1.0  0.40664  0.68304  0.96893  1.0000
  C   C854      1.0  0.41202  0.69606  0.95983  1.0000
  H   H701      1.0  0.38600  0.70556  0.99522  1.0000
  H   H702      1.0  0.37652  0.68257  0.01136  1.0000
  C   C855      1.0  0.44997  0.51743  0.76539  1.0000
  H   H703      1.0  0.42195  0.69970  0.94656  1.0000
  C   C856      1.0  0.47186  0.53499  0.92570  1.0000
  C   C857      1.0  0.37819  0.66841  0.19190  1.0000
  H   H704      1.0  0.37357  0.65940  0.14825  1.0000
  H   H705      1.0  0.38555  0.67597  0.17018  1.0000
  C   C858      1.0  0.42669  0.65099  0.04946  1.0000
  C   C859      1.0  0.44972  0.72266  0.70206  1.0000
  C   C860      1.0  0.44603  0.71651  0.74327  1.0000
  C   C861      1.0  0.44915  0.72288  0.77079  1.0000
  H   H706      1.0  0.41843  0.51562  0.27125  1.0000
  C   C862      1.0  0.35490  0.58864  0.02251  1.0000
  H   H707      1.0  0.40163  0.64631  0.90610  1.0000
  H   H708      1.0  0.44070  0.70677  0.75398  1.0000
  H   H709      1.0  0.44611  0.71811  0.80234  1.0000
  P   P31       1.0  0.42381  0.65904  0.08770  1.0000
  C   C863      1.0  0.41058  0.70527  0.50085  1.0000
  C   C864      1.0  0.42106  0.70523  0.47161  1.0000
  C   C865      1.0  0.41964  0.70152  0.43761  1.0000
  C   C866      1.0  0.40775  0.69790  0.43240  1.0000
  C   C867      1.0  0.39726  0.69799  0.46152  1.0000
  C   C868      1.0  0.39868  0.70147  0.49590  1.0000
  H   H710      1.0  0.43027  0.70785  0.47543  1.0000
  H   H711      1.0  0.42779  0.70135  0.41542  1.0000
  H   H712      1.0  0.38806  0.69526  0.45777  1.0000
  H   H713      1.0  0.39057  0.70116  0.51890  1.0000
  C   C869      1.0  0.46254  0.67037  0.98333  1.0000
  C   C870      1.0  0.45608  0.67751  0.96168  1.0000
  C   C871      1.0  0.45750  0.69042  0.95875  1.0000
  C   C872      1.0  0.46544  0.69632  0.97740  1.0000
  C   C873      1.0  0.45980  0.74159  0.71622  1.0000
  C   C874      1.0  0.34322  0.62094  0.35491  1.0000
  H   H714      1.0  0.45003  0.67310  0.94670  1.0000
  H   H715      1.0  0.45262  0.69584  0.94149  1.0000
  C   C875      1.0  0.36357  0.60247  0.59712  1.0000
  H   H716      1.0  0.34740  0.57026  0.19829  1.0000
  C   C876      1.0  0.34061  0.55442  0.99995  1.0000
  C   C877      1.0  0.33128  0.56113  0.00261  1.0000
  H   H717      1.0  0.46429  0.51871  0.90845  1.0000
  H   H718      1.0  0.34444  0.70567  0.07722  1.0000
  C   C878      1.0  0.33187  0.54457  0.95508  1.0000
  C   C879      1.0  0.34102  0.54631  0.97547  1.0000
  H   H719      1.0  0.33079  0.56733  0.02177  1.0000
  H   H720      1.0  0.41187  0.65805  0.17173  1.0000
  C   C880      1.0  0.34039  0.71372  0.07259  1.0000
  H   H721      1.0  0.34809  0.54104  0.97345  1.0000
  C   C881      1.0  0.40701  0.51893  0.95013  1.0000
  C   C882      1.0  0.40791  0.51469  0.98885  1.0000
  C   C883      1.0  0.36233  0.51334  0.98908  1.0000
  H   H722      1.0  0.36698  0.60873  0.08733  1.0000
  H   H723      1.0  0.37665  0.61939  0.65181  1.0000
  H   H724      1.0  0.40298  0.51809  0.01210  1.0000
  C   C884      1.0  0.40915  0.64997  0.12374  1.0000
  C   C885      1.0  0.32938  0.54537  0.15832  1.0000
  C   C886      1.0  0.41921  0.58774  0.00194  1.0000
  C   C887      1.0  0.42922  0.59844  0.98944  1.0000
  C   C888      1.0  0.43659  0.60075  0.01480  1.0000
  C   C889      1.0  0.43403  0.59240  0.05273  1.0000
  C   C890      1.0  0.42395  0.58175  0.06537  1.0000
  C   C891      1.0  0.41657  0.57939  0.03998  1.0000
  H   H725      1.0  0.43133  0.60490  0.96002  1.0000
  H   H726      1.0  0.44420  0.60904  0.00492  1.0000
  H   H727      1.0  0.42192  0.57523  0.09463  1.0000
  H   H728      1.0  0.40882  0.57113  0.05002  1.0000
  C   C892      1.0  0.46551  0.66726  0.47646  1.0000
  C   C893      1.0  0.45869  0.67065  0.50871  1.0000
  C   C894      1.0  0.46018  0.68341  0.50884  1.0000
  C   C895      1.0  0.46873  0.69297  0.47698  1.0000
  H   H729      1.0  0.42734  0.53064  0.02504  1.0000
  C   C896      1.0  0.35433  0.73322  0.14577  1.0000
  H   H730      1.0  0.45231  0.66333  0.53396  1.0000
  H   H731      1.0  0.45493  0.68581  0.53404  1.0000
  C   C897      1.0  0.32599  0.66823  0.34351  1.0000
  H   H732      1.0  0.36250  0.72159  0.68055  1.0000
  H   H733      1.0  0.34577  0.59747  0.44839  1.0000
  H   H734      1.0  0.35882  0.58200  0.45061  1.0000
  C   C898      1.0  0.40578  0.65155  0.16224  1.0000
  C   C899      1.0  0.43678  0.66060  0.10954  1.0000
  C   C900      1.0  0.45071  0.52935  0.92125  1.0000
  H   H735      1.0  0.42363  0.50193  0.83482  1.0000
  C   C901      1.0  0.33793  0.55476  0.50157  1.0000
  C   C902      1.0  0.34739  0.55516  0.46799  1.0000
  C   C903      1.0  0.34642  0.56044  0.42988  1.0000
  C   C904      1.0  0.33615  0.56532  0.42535  1.0000
  C   C905      1.0  0.36025  0.74356  0.11191  1.0000
  H   H736      1.0  0.33864  0.55074  0.53118  1.0000
  H   H737      1.0  0.35359  0.56077  0.40383  1.0000
  C   C906      1.0  0.42067  0.51637  0.23954  1.0000
  C   C907      1.0  0.37595  0.54751  0.23945  1.0000
  C   C908      1.0  0.38324  0.53874  0.24025  1.0000
  C   C909      1.0  0.38764  0.53511  0.20570  1.0000
  C   C910      1.0  0.38516  0.54052  0.16992  1.0000
  C   C911      1.0  0.37800  0.54942  0.16894  1.0000
  C   C912      1.0  0.37328  0.55279  0.20384  1.0000
  H   H738      1.0  0.38517  0.53450  0.26778  1.0000
  H   H739      1.0  0.39285  0.52796  0.20679  1.0000
  H   H740      1.0  0.37605  0.55357  0.14146  1.0000
  H   H741      1.0  0.36760  0.55953  0.20339  1.0000
  C   C913      1.0  0.42270  0.58688  0.36612  1.0000
  C   C914      1.0  0.42888  0.59938  0.36102  1.0000
  C   C915      1.0  0.43665  0.60224  0.38482  1.0000
  C   C916      1.0  0.43802  0.59258  0.41461  1.0000
  C   C917      1.0  0.43187  0.58002  0.41978  1.0000
  C   C918      1.0  0.42426  0.57717  0.39542  1.0000
  H   H742      1.0  0.42753  0.60688  0.33888  1.0000
  H   H743      1.0  0.44131  0.61196  0.38074  1.0000
  H   H744      1.0  0.43291  0.57251  0.44280  1.0000
  H   H745      1.0  0.41962  0.56748  0.39939  1.0000
  C   C919      1.0  0.35284  0.57776  0.90989  1.0000
  C   C920      1.0  0.41105  0.51605  0.42414  1.0000
  C   C921      1.0  0.40919  0.52087  0.45715  1.0000
  C   C922      1.0  0.41447  0.51679  0.48822  1.0000
  C   C923      1.0  0.33030  0.60171  0.23982  1.0000
  C   C924      1.0  0.41184  0.56245  0.18840  1.0000
  C   C925      1.0  0.41750  0.56219  0.21930  1.0000
  C   C926      1.0  0.41726  0.57153  0.23931  1.0000
  C   C927      1.0  0.41130  0.58108  0.22865  1.0000
  C   C928      1.0  0.40586  0.58160  0.19698  1.0000
  C   C929      1.0  0.40604  0.57212  0.17722  1.0000
  P   P32       1.0  0.39936  0.59478  0.18116  1.0000
  C   C930      1.0  0.38416  0.59311  0.21406  1.0000
  C   C931      1.0  0.41048  0.60871  0.18027  1.0000
  C   C932      1.0  0.40671  0.61743  0.20000  1.0000
  C   C933      1.0  0.41557  0.62738  0.20296  1.0000
  C   C934      1.0  0.42824  0.62891  0.18536  1.0000
  C   C935      1.0  0.43207  0.62028  0.16573  1.0000
  C   C936      1.0  0.42327  0.61022  0.16312  1.0000
  C   C937      1.0  0.37656  0.60090  0.20185  1.0000
  C   C938      1.0  0.36461  0.59953  0.22632  1.0000
  C   C939      1.0  0.36014  0.59030  0.26311  1.0000
  C   C940      1.0  0.36762  0.58247  0.27534  1.0000
  C   C941      1.0  0.37958  0.58383  0.25093  1.0000
  C   C942      1.0  0.39719  0.59548  0.13243  1.0000
  C   C943      1.0  0.38674  0.58730  0.12921  1.0000
  C   C944      1.0  0.38493  0.58750  0.09185  1.0000
  C   C945      1.0  0.39351  0.59585  0.05745  1.0000
  C   C946      1.0  0.40385  0.60412  0.06036  1.0000
  C   C947      1.0  0.40574  0.60392  0.09773  1.0000
  H   H746      1.0  0.41190  0.55517  0.17302  1.0000
  H   H747      1.0  0.42194  0.55467  0.22815  1.0000
  H   H748      1.0  0.42145  0.57124  0.26377  1.0000
  H   H749      1.0  0.41102  0.58809  0.24507  1.0000
  H   H750      1.0  0.40184  0.57214  0.15296  1.0000
  H   H751      1.0  0.39698  0.61646  0.21380  1.0000
  H   H752      1.0  0.41263  0.63384  0.21934  1.0000
  H   H753      1.0  0.43513  0.63661  0.18763  1.0000
  H   H754      1.0  0.44190  0.62106  0.15400  1.0000
  H   H755      1.0  0.42647  0.60341  0.14864  1.0000
  H   H756      1.0  0.37985  0.60794  0.17317  1.0000
  H   H757      1.0  0.35882  0.60561  0.21665  1.0000
  H   H758      1.0  0.35087  0.58912  0.28210  1.0000
  H   H759      1.0  0.36409  0.57512  0.30353  1.0000
  H   H760      1.0  0.38511  0.57752  0.26085  1.0000
  H   H761      1.0  0.38014  0.58058  0.15556  1.0000
  H   H762      1.0  0.37698  0.58106  0.08940  1.0000
  H   H763      1.0  0.39228  0.59567  0.02853  1.0000
  H   H764      1.0  0.41059  0.61041  0.03348  1.0000
  H   H765      1.0  0.41396  0.61018  0.09921  1.0000
  C   C948      1.0  0.45733  0.66424  0.14097  1.0000
  C   C949      1.0  0.44723  0.66925  0.15347  1.0000
  C   C950      1.0  0.43713  0.66765  0.13730  1.0000
  C   C951      1.0  0.43096  0.63805  0.99116  1.0000
  C   C952      1.0  0.43041  0.63222  0.03055  1.0000
  C   C953      1.0  0.42807  0.63857  0.05974  1.0000
  H   H766      1.0  0.39170  0.64604  0.21882  1.0000
  H   H767      1.0  0.48090  0.53282  0.92281  1.0000
  H   H768      1.0  0.44739  0.67465  0.17499  1.0000
  H   H769      1.0  0.42983  0.67235  0.14543  1.0000
  H   H770      1.0  0.43209  0.62290  0.03833  1.0000
  H   H771      1.0  0.42767  0.63394  0.09016  1.0000
  C   C954      1.0  0.38852  0.58009  0.44580  1.0000
  C   C955      1.0  0.39759  0.57834  0.46565  1.0000
  C   C956      1.0  0.40698  0.58870  0.46333  1.0000
  C   C957      1.0  0.40744  0.60077  0.44053  1.0000
  C   C958      1.0  0.39841  0.60259  0.42027  1.0000
  C   C959      1.0  0.38883  0.59217  0.42355  1.0000
  P   P33       1.0  0.39816  0.61836  0.39465  1.0000
  C   C960      1.0  0.38886  0.62458  0.42981  1.0000
  C   C961      1.0  0.41385  0.62841  0.37523  1.0000
  C   C962      1.0  0.41912  0.63473  0.39949  1.0000
  C   C963      1.0  0.43109  0.64278  0.38448  1.0000
  C   C964      1.0  0.43797  0.64447  0.34528  1.0000
  C   C965      1.0  0.43293  0.63805  0.32111  1.0000
  C   C966      1.0  0.42089  0.63007  0.33591  1.0000
  C   C967      1.0  0.37971  0.61641  0.46380  1.0000
  C   C968      1.0  0.37225  0.62131  0.49006  1.0000
  C   C969      1.0  0.37383  0.63434  0.48264  1.0000
  C   C970      1.0  0.38293  0.64252  0.44903  1.0000
  C   C971      1.0  0.39040  0.63769  0.42261  1.0000
  C   C972      1.0  0.39140  0.61792  0.35373  1.0000
  C   C973      1.0  0.39364  0.60932  0.33158  1.0000
  C   C974      1.0  0.38819  0.60865  0.30064  1.0000
  C   C975      1.0  0.38065  0.61674  0.29093  1.0000
  C   C976      1.0  0.37860  0.62555  0.31216  1.0000
  C   C977      1.0  0.38390  0.62612  0.34360  1.0000
  H   H772      1.0  0.38127  0.57204  0.44750  1.0000
  H   H773      1.0  0.39745  0.56893  0.48228  1.0000
  H   H774      1.0  0.41416  0.58730  0.47811  1.0000
  H   H775      1.0  0.41500  0.60858  0.43817  1.0000
  H   H776      1.0  0.38158  0.59333  0.40899  1.0000
  H   H777      1.0  0.41402  0.63345  0.43002  1.0000
  H   H778      1.0  0.43514  0.64759  0.40340  1.0000
  H   H779      1.0  0.44733  0.65060  0.33389  1.0000
  H   H780      1.0  0.43848  0.63920  0.29105  1.0000
  H   H781      1.0  0.41721  0.62511  0.31679  1.0000
  H   H782      1.0  0.37810  0.60626  0.46976  1.0000
  H   H783      1.0  0.36495  0.61500  0.51542  1.0000
  H   H784      1.0  0.36764  0.63812  0.50186  1.0000
  H   H785      1.0  0.38379  0.65261  0.44254  1.0000
  H   H786      1.0  0.39713  0.64417  0.39600  1.0000
  H   H787      1.0  0.39955  0.60304  0.33842  1.0000
  H   H788      1.0  0.38985  0.60180  0.28442  1.0000
  H   H789      1.0  0.37640  0.61620  0.26699  1.0000
  H   H790      1.0  0.37286  0.63193  0.30438  1.0000
  H   H791      1.0  0.38209  0.63295  0.35980  1.0000
  H   H792      1.0  0.46460  0.59056  0.02896  1.0000
  H   H793      1.0  0.41986  0.54626  0.80477  1.0000
  C   C978      1.0  0.47615  0.54923  0.80994  1.0000
  H   H794      1.0  0.34857  0.70250  0.84040  1.0000
  C   C979      1.0  0.32992  0.62904  0.55025  1.0000
  C   C980      1.0  0.35107  0.58399  0.06411  1.0000
  C   C981      1.0  0.35535  0.59126  0.08748  1.0000
  C   C982      1.0  0.36359  0.60313  0.06922  1.0000
  C   C983      1.0  0.36737  0.60786  0.02761  1.0000
  C   C984      1.0  0.35228  0.58231  0.54783  1.0000
  H   H795      1.0  0.34477  0.57470  0.07799  1.0000
  H   H796      1.0  0.35233  0.58770  0.11966  1.0000
  H   H797      1.0  0.37362  0.61718  0.01415  1.0000
  C   C985      1.0  0.35732  0.57910  0.51316  1.0000
  C   C986      1.0  0.35523  0.58479  0.47714  1.0000
  C   C987      1.0  0.34791  0.59353  0.47588  1.0000
  C   C988      1.0  0.34296  0.59684  0.51042  1.0000
  C   C989      1.0  0.39429  0.64468  0.18930  1.0000
  C   C990      1.0  0.45740  0.65781  0.11182  1.0000
  C   C991      1.0  0.38598  0.63635  0.17797  1.0000
  C   C992      1.0  0.36300  0.60067  0.00381  1.0000
  C   C993      1.0  0.42705  0.65673  0.00998  1.0000
  H   H798      1.0  0.41996  0.50356  0.39661  1.0000
  H   H799      1.0  0.43310  0.63321  0.96846  1.0000
  C   C994      1.0  0.46163  0.50213  0.05781  1.0000
  C   C995      1.0  0.32182  0.71071  0.18930  1.0000
  C   C996      1.0  0.41846  0.50732  0.42210  1.0000
  C   C997      1.0  0.44723  0.65604  0.09603  1.0000
  C   C998      1.0  0.42915  0.65024  0.98097  1.0000
  H   H800      1.0  0.42589  0.66624  0.00136  1.0000
  C   C999      1.0  0.38894  0.63521  0.13918  1.0000
  C   C1000     1.0  0.46877  0.64258  0.21722  1.0000
  C   C1001     1.0  0.32515  0.66468  0.19639  1.0000
  C   C1002     1.0  0.33732  0.74409  0.63313  1.0000
  C   C1003     1.0  0.32754  0.55954  0.49701  1.0000
  H   H801      1.0  0.36248  0.50747  0.11773  1.0000
  C   C1004     1.0  0.40042  0.64202  0.11211  1.0000
  H   H802      1.0  0.41926  0.68715  0.58251  1.0000
  C   C1005     1.0  0.41509  0.50975  0.10225  1.0000
  C   C1006     1.0  0.35454  0.62492  0.95602  1.0000
  C   C1007     1.0  0.42384  0.50331  0.45306  1.0000
  H   H803      1.0  0.38057  0.63394  0.91344  1.0000
  S   S158      1.0  0.33518  0.63899  0.11569  1.0000
  H   H804      1.0  0.40230  0.64119  0.08190  1.0000
  H   H805      1.0  0.36264  0.65716  0.54990  1.0000
  H   H806      1.0  0.42976  0.65486  0.95038  1.0000
  H   H807      1.0  0.43922  0.54184  0.93523  1.0000
  H   H808      1.0  0.34658  0.51913  0.01797  1.0000
  H   H809      1.0  0.40990  0.74091  0.40682  1.0000
  H   H810      1.0  0.44015  0.54364  0.11705  1.0000
  C   C1008     1.0  0.46940  0.66593  0.87040  1.0000
  C   C1009     1.0  0.41714  0.52553  0.21392  1.0000
  S   S159      1.0  0.38453  0.67974  0.24667  1.0000
  C   C1010     1.0  0.32608  0.67798  0.36204  1.0000
  S   S160      1.0  0.44385  0.73250  0.97412  1.0000
  C   C1011     1.0  0.37134  0.65910  0.17945  1.0000
  H   H811      1.0  0.38867  0.71805  0.91628  1.0000
  H   H812      1.0  0.45158  0.49783  0.01610  1.0000
  C   C1012     1.0  0.37231  0.65674  0.54156  1.0000
  H   H813      1.0  0.37746  0.67250  0.48898  1.0000
  H   H814      1.0  0.44788  0.65151  0.07229  1.0000
  H   H815      1.0  0.44265  0.68251  0.04447  1.0000
  C   C1013     1.0  0.40350  0.53081  0.82454  1.0000
  H   H816      1.0  0.41211  0.53179  0.22589  1.0000
  H   H817      1.0  0.38221  0.62928  0.12974  1.0000
  C   C1014     1.0  0.40207  0.70138  0.67443  1.0000
  C   C1015     1.0  0.44838  0.54000  0.93256  1.0000
  C   C1016     1.0  0.37649  0.64766  0.56527  1.0000
  C   C1017     1.0  0.38064  0.66535  0.50710  1.0000
  H   H818      1.0  0.37006  0.64110  0.59227  1.0000
  H   H819      1.0  0.32442  0.53852  0.14670  1.0000
  C   C1018     1.0  0.42264  0.67486  0.06726  1.0000
  C   C1019     1.0  0.43356  0.68455  0.04824  1.0000
  C   C1020     1.0  0.34364  0.50963  0.13693  1.0000
  C   C1021     1.0  0.32936  0.64568  0.44797  1.0000
  Fe  Fe80      1.0  0.37808  0.67976  0.31079  1.0000
  H   H820      1.0  0.38317  0.65777  0.91883  1.0000
  C   C1022     1.0  0.46961  0.54570  0.93747  1.0000
  H   H821      1.0  0.38518  0.72597  0.65069  1.0000
  C   C1023     1.0  0.33804  0.71263  0.72385  1.0000
  C   C1024     1.0  0.43285  0.53548  0.07494  1.0000
  C   C1025     1.0  0.41974  0.52638  0.17316  1.0000
  C   C1026     1.0  0.45943  0.68891  0.75016  1.0000
  H   H822      1.0  0.35698  0.71821  0.43876  1.0000
  H   H823      1.0  0.41230  0.67858  0.53162  1.0000
  C   C1027     1.0  0.33732  0.64082  0.35014  1.0000
  S   S161      1.0  0.46101  0.65442  0.98357  1.0000
  C   C1028     1.0  0.44957  0.53211  0.43543  1.0000
  H   H824      1.0  0.33200  0.53799  0.93717  1.0000
  H   H825      1.0  0.33819  0.63903  0.89820  1.0000
  C   C1029     1.0  0.38900  0.64720  0.55445  1.0000
  C   C1030     1.0  0.39313  0.66488  0.49610  1.0000
  C   C1031     1.0  0.41097  0.67774  0.07108  1.0000
  H   H826      1.0  0.40239  0.67041  0.08467  1.0000
  H   H827      1.0  0.44618  0.55053  0.41728  1.0000
  H   H828      1.0  0.44227  0.52750  0.42479  1.0000
  C   C1032     1.0  0.33558  0.71638  0.03980  1.0000
  C   C1033     1.0  0.41490  0.50583  0.99764  1.0000
  P   P34       1.0  0.33787  0.50280  0.10122  1.0000
  H   H829      1.0  0.48246  0.50010  0.55065  1.0000
  H   H830      1.0  0.42915  0.50065  0.24460  1.0000
  H   H831      1.0  0.38715  0.51230  0.08583  1.0000
  H   H832      1.0  0.42491  0.65734  0.87124  1.0000
  C   C1034     1.0  0.39737  0.65565  0.51930  1.0000
  C   C1035     1.0  0.41686  0.67323  0.55053  1.0000
  C   C1036     1.0  0.42084  0.67815  0.57933  1.0000
  H   H833      1.0  0.39221  0.64039  0.57376  1.0000
  H   H834      1.0  0.39947  0.67187  0.46988  1.0000
  C   C1037     1.0  0.47155  0.57380  0.03415  1.0000
  H   H835      1.0  0.35859  0.56316  0.14303  1.0000
  C   C1038     1.0  0.35110  0.60302  0.61052  1.0000
  C   C1039     1.0  0.33559  0.51371  0.16464  1.0000
  C   C1040     1.0  0.43357  0.55074  0.01383  1.0000
  C   C1041     1.0  0.45173  0.54507  0.43142  1.0000
  H   H836      1.0  0.32839  0.59251  0.02687  1.0000
  C   C1042     1.0  0.36024  0.51541  0.16690  1.0000
  C   C1043     1.0  0.47350  0.70044  0.83779  1.0000
  S   S162      1.0  0.45831  0.50152  0.54473  1.0000
  H   H837      1.0  0.45097  0.68738  0.41450  1.0000
  H   H838      1.0  0.43785  0.67464  0.48087  1.0000
  C   C1044     1.0  0.43285  0.69699  0.03407  1.0000
  H   H839      1.0  0.41381  0.67295  0.89224  1.0000
  C   C1045     1.0  0.39932  0.63612  0.91742  1.0000
  C   C1046     1.0  0.48109  0.57713  0.47458  1.0000
  H   H840      1.0  0.37563  0.67543  0.93778  1.0000
  C   C1047     1.0  0.46222  0.52454  0.75686  1.0000
  C   C1048     1.0  0.42070  0.50578  0.92853  1.0000
  C   C1049     1.0  0.46083  0.55092  0.44653  1.0000
  C   C1050     1.0  0.32441  0.55817  0.28976  1.0000
  C   C1051     1.0  0.35246  0.51261  0.02167  1.0000
  P   P35       1.0  0.33904  0.59580  0.59118  1.0000
  H   H841      1.0  0.43045  0.67565  0.62481  1.0000
  C   C1052     1.0  0.43007  0.66687  0.86733  1.0000
  H   H842      1.0  0.44768  0.66355  0.84088  1.0000
  C   C1053     1.0  0.44198  0.68133  0.41747  1.0000
  C   C1054     1.0  0.43444  0.67409  0.45531  1.0000
  H   H843      1.0  0.44134  0.70440  0.01937  1.0000
  C   C1055     1.0  0.42708  0.67163  0.60324  1.0000
  C   C1056     1.0  0.42382  0.67566  0.87888  1.0000
  C   C1057     1.0  0.42654  0.73385  0.81516  1.0000
  H   H844      1.0  0.35151  0.58273  0.00533  1.0000
  H   H845      1.0  0.47762  0.53852  0.71275  1.0000
  C   C1058     1.0  0.38522  0.66677  0.89649  1.0000
  C   C1059     1.0  0.44339  0.51898  0.73653  1.0000
  H   H846      1.0  0.46222  0.56094  0.44338  1.0000
  C   C1060     1.0  0.34858  0.62560  0.88408  1.0000
  C   C1061     1.0  0.46774  0.54379  0.46623  1.0000
  C   C1062     1.0  0.46580  0.53086  0.46883  1.0000
  H   H847      1.0  0.44343  0.52297  0.91525  1.0000
  C   C1063     1.0  0.32411  0.59992  0.01582  1.0000
  H   H848      1.0  0.40368  0.70785  0.87117  1.0000
  H   H849      1.0  0.35097  0.72454  0.84418  1.0000
  C   C1064     1.0  0.47169  0.68914  0.99984  1.0000
  C   C1065     1.0  0.44301  0.67041  0.85033  1.0000
  P   P36       1.0  0.41371  0.65570  0.50794  1.0000
  C   C1066     1.0  0.41891  0.66162  0.54579  1.0000
  H   H850      1.0  0.33483  0.63866  0.53317  1.0000
  C   C1067     1.0  0.38734  0.62903  0.92176  1.0000
  C   C1068     1.0  0.32658  0.56472  0.45876  1.0000
  H   H851      1.0  0.39501  0.73977  0.58182  1.0000
  H   H852      1.0  0.41644  0.53318  0.15406  1.0000
  H   H853      1.0  0.32499  0.58404  0.28481  1.0000
  C   C1069     1.0  0.43796  0.68071  0.38370  1.0000
  C   C1070     1.0  0.42279  0.66616  0.45971  1.0000
  H   H854      1.0  0.44376  0.68640  0.35441  1.0000
  C   C1071     1.0  0.44708  0.73219  0.37082  1.0000
  H   H855      1.0  0.39544  0.66070  0.84885  1.0000
  C   C1072     1.0  0.38095  0.67675  0.90726  1.0000
  H   H856      1.0  0.39074  0.59979  0.96306  1.0000
  H   H857      1.0  0.40723  0.52547  0.08402  1.0000
  C   C1073     1.0  0.40936  0.71523  0.84477  1.0000
  H   H858      1.0  0.41747  0.63556  0.92552  1.0000
  C   C1074     1.0  0.41908  0.72412  0.84847  1.0000
  C   C1075     1.0  0.39309  0.60991  0.94959  1.0000
  C   C1076     1.0  0.42645  0.67275  0.38775  1.0000
  C   C1077     1.0  0.41896  0.66538  0.42557  1.0000
  H   H859      1.0  0.39733  0.63057  0.51747  1.0000
  C   C1078     1.0  0.43050  0.68801  0.87314  1.0000
  H   H860      1.0  0.42567  0.69490  0.88149  1.0000
  H   H861      1.0  0.46212  0.66709  0.89362  1.0000
  C   C1079     1.0  0.39216  0.66845  0.85726  1.0000
  H   H862      1.0  0.41284  0.52044  0.51390  1.0000
  H   H863      1.0  0.42328  0.67237  0.36161  1.0000
  H   H864      1.0  0.38615  0.59438  0.90787  1.0000
  H   H865      1.0  0.33036  0.60613  0.34496  1.0000
  C   C1080     1.0  0.47394  0.56502  0.49771  1.0000
  H   H866      1.0  0.32542  0.74218  0.05344  1.0000
  C   C1081     1.0  0.44980  0.68278  0.84494  1.0000
  C   C1082     1.0  0.34574  0.63343  0.35666  1.0000
  H   H867      1.0  0.41016  0.65914  0.42814  1.0000
  H   H868      1.0  0.33720  0.70421  0.55556  1.0000
  C   C1083     1.0  0.44343  0.69154  0.85640  1.0000
  S   S163      1.0  0.36864  0.68253  0.41940  1.0000
  C   C1084     1.0  0.47382  0.67683  0.44408  1.0000
  H   H869      1.0  0.41620  0.70304  0.74782  1.0000
  C   C1085     1.0  0.44066  0.73714  0.39932  1.0000
  H   H870      1.0  0.34668  0.62279  0.54952  1.0000
  H   H871      1.0  0.35664  0.62475  0.98409  1.0000
  C   C1086     1.0  0.42913  0.66004  0.59882  1.0000
  C   C1087     1.0  0.42498  0.65498  0.57039  1.0000
  H   H872      1.0  0.45576  0.55635  0.94932  1.0000
  C   C1088     1.0  0.41031  0.69022  0.05706  1.0000
  C   C1089     1.0  0.46245  0.52689  0.91766  1.0000
  C   C1090     1.0  0.38412  0.61582  0.93792  1.0000
  H   H873      1.0  0.36635  0.59757  0.57523  1.0000
  P   P37       1.0  0.36818  0.60673  0.94989  1.0000
  H   H874      1.0  0.32594  0.51292  0.16468  1.0000
  C   C1091     1.0  0.33721  0.70333  0.21934  1.0000
  C   C1092     1.0  0.45817  0.57449  0.52897  1.0000
  C   C1093     1.0  0.36211  0.64908  0.20758  1.0000
  C   C1094     1.0  0.43101  0.53819  0.03676  1.0000
  H   H875      1.0  0.33584  0.74316  0.71117  1.0000
  C   C1095     1.0  0.41660  0.64041  0.50748  1.0000
  C   C1096     1.0  0.40688  0.62985  0.51293  1.0000
  H   H876      1.0  0.44842  0.70114  0.85210  1.0000
  P   P38       1.0  0.46640  0.68763  0.82084  1.0000
  Fe  Fe81      1.0  0.34448  0.63227  0.06504  1.0000
  S   S164      1.0  0.33620  0.61321  0.05765  1.0000
  C   C1097     1.0  0.40511  0.61700  0.94462  1.0000
  H   H877      1.0  0.35408  0.63734  0.36406  1.0000
  S   S165      1.0  0.35442  0.64566  0.43526  1.0000
  H   H878      1.0  0.47119  0.52523  0.48320  1.0000
  C   C1098     1.0  0.41343  0.51444  0.91992  1.0000
  P   P39       1.0  0.47848  0.55094  0.49008  1.0000
  C   C1099     1.0  0.46236  0.56378  0.52461  1.0000
  H   H879      1.0  0.44911  0.57350  0.54894  1.0000
  S   S166      1.0  0.47359  0.62139  0.45702  1.0000
  C   C1100     1.0  0.41755  0.50822  0.63158  1.0000
  C   C1101     1.0  0.36643  0.59383  0.92717  1.0000
  C   C1102     1.0  0.45242  0.51350  0.10205  1.0000
  C   C1103     1.0  0.46692  0.58388  0.35543  1.0000
  H   H880      1.0  0.47448  0.53019  0.00223  1.0000
  C   C1104     1.0  0.40970  0.73346  0.17230  1.0000
  C   C1105     1.0  0.39820  0.51888  0.82177  1.0000
  H   H881      1.0  0.45489  0.51496  0.45715  1.0000
  C   C1106     1.0  0.39331  0.73824  0.90580  1.0000
  H   H882      1.0  0.42090  0.72345  0.87714  1.0000
  C   C1107     1.0  0.41462  0.72587  0.77407  1.0000
  C   C1108     1.0  0.44932  0.52777  0.69901  1.0000
  H   H883      1.0  0.34866  0.72112  0.57723  1.0000
  C   C1109     1.0  0.39488  0.68016  0.82881  1.0000
  C   C1110     1.0  0.38363  0.68844  0.87897  1.0000
  C   C1111     1.0  0.41576  0.53706  0.80225  1.0000
  H   H884      1.0  0.34611  0.62571  0.85654  1.0000
  H   H885      1.0  0.40202  0.61011  0.51509  1.0000
  C   C1112     1.0  0.42124  0.69985  0.03876  1.0000
  Fe  Fe82      1.0  0.36396  0.66557  0.39679  1.0000
  H   H886      1.0  0.41246  0.67676  0.96218  1.0000
  H   H887      1.0  0.45684  0.58103  0.36670  1.0000
  H   H888      1.0  0.45641  0.55454  0.54148  1.0000
  H   H889      1.0  0.46964  0.50800  0.10184  1.0000
  H   H890      1.0  0.45825  0.49930  0.71527  1.0000
  P   P40       1.0  0.34650  0.71836  0.14046  1.0000
  C   C1113     1.0  0.40879  0.70272  0.73327  1.0000
  H   H891      1.0  0.42673  0.64604  0.56747  1.0000
  C   C1114     1.0  0.46874  0.69309  0.76753  1.0000
  H   H892      1.0  0.46206  0.59477  0.50910  1.0000
  H   H893      1.0  0.43412  0.65508  0.61697  1.0000
  H   H894      1.0  0.46944  0.71516  0.79526  1.0000
  H   H895      1.0  0.38232  0.60787  0.60154  1.0000
  C   C1115     1.0  0.47661  0.54048  0.53874  1.0000
  C   C1116     1.0  0.36646  0.65789  0.26065  1.0000
  C   C1117     1.0  0.33033  0.68062  0.02872  1.0000
  S   S167      1.0  0.42795  0.50305  0.52678  1.0000
  C   C1118     1.0  0.41763  0.51920  0.77538  1.0000
  H   H896      1.0  0.41195  0.61228  0.95360  1.0000
  C   C1119     1.0  0.32640  0.63582  0.34103  1.0000
  S   S168      1.0  0.46994  0.64622  0.28971  1.0000
  H   H897      1.0  0.42559  0.50238  0.90517  1.0000
  C   C1120     1.0  0.37274  0.60841  0.61184  1.0000
  C   C1121     1.0  0.37110  0.72891  0.82688  1.0000
  C   C1122     1.0  0.39058  0.69023  0.83942  1.0000
  H   H898      1.0  0.40030  0.68127  0.79868  1.0000
  C   C1123     1.0  0.42896  0.63926  0.49874  1.0000
  C   C1124     1.0  0.45611  0.73546  0.75739  1.0000
  H   H899      1.0  0.40133  0.69242  0.05948  1.0000
  C   C1125     1.0  0.45737  0.60490  0.28853  1.0000
  H   H900      1.0  0.43665  0.64737  0.49320  1.0000
  H   H901      1.0  0.38030  0.69608  0.88815  1.0000
  H   H902      1.0  0.42398  0.60821  0.50126  1.0000
  C   C1126     1.0  0.42674  0.50797  0.22446  1.0000
  H   H903      1.0  0.46895  0.49769  0.04741  1.0000
  S   S169      1.0  0.35359  0.70783  0.36342  1.0000
  C   C1127     1.0  0.37677  0.58985  0.90911  1.0000
  C   C1128     1.0  0.34130  0.70274  0.40729  1.0000
  H   H904      1.0  0.38307  0.57654  0.87932  1.0000
  C   C1129     1.0  0.40951  0.61823  0.51112  1.0000
  C   C1130     1.0  0.45098  0.61429  0.28101  1.0000
  C   C1131     1.0  0.35911  0.73299  0.62834  1.0000
  H   H905      1.0  0.33071  0.54439  0.39137  1.0000
  C   C1132     1.0  0.33833  0.63863  0.44614  1.0000
  H   H906      1.0  0.32827  0.58233  0.16347  1.0000
  C   C1133     1.0  0.44220  0.61312  0.25950  1.0000
  C   C1134     1.0  0.38167  0.72433  0.81620  1.0000
  C   C1135     1.0  0.42185  0.61714  0.50321  1.0000
  C   C1136     1.0  0.32642  0.61131  0.02625  1.0000
  C   C1137     1.0  0.39808  0.74350  0.06425  1.0000
  C   C1138     1.0  0.37508  0.57976  0.89234  1.0000
  C   C1139     1.0  0.45668  0.52504  0.45371  1.0000
  H   H907      1.0  0.33222  0.65588  0.44050  1.0000
  H   H908      1.0  0.32463  0.73378  0.47769  1.0000
  H   H909      1.0  0.45265  0.62233  0.29280  1.0000
  H   H910      1.0  0.47827  0.73974  0.42637  1.0000
  H   H911      1.0  0.34003  0.55094  0.26468  1.0000
  C   C1140     1.0  0.44005  0.56488  0.32133  1.0000
  H   H912      1.0  0.32770  0.67704  0.48757  1.0000
  H   H913      1.0  0.43709  0.62028  0.25456  1.0000
  C   C1141     1.0  0.32085  0.62084  0.01179  1.0000
  C   C1142     1.0  0.43155  0.62767  0.49694  1.0000
  C   C1143     1.0  0.36312  0.57368  0.89288  1.0000
  C   C1144     1.0  0.33332  0.70571  0.58420  1.0000
  Fe  Fe83      1.0  0.35374  0.64269  0.12827  1.0000
  C   C1145     1.0  0.32689  0.51093  0.08407  1.0000
  H   H914      1.0  0.44116  0.62691  0.49039  1.0000
  P   P41       1.0  0.34242  0.72995  0.64952  1.0000
  H   H915      1.0  0.43237  0.53622  0.76140  1.0000
  C   C1146     1.0  0.33447  0.62544  0.45577  1.0000
  C   C1147     1.0  0.47557  0.56516  0.01463  1.0000
  C   C1148     1.0  0.34226  0.56330  0.18738  1.0000
  H   H916      1.0  0.34143  0.62006  0.45320  1.0000
  H   H917      1.0  0.34384  0.63874  0.96109  1.0000
  H   H918      1.0  0.43288  0.60146  0.22945  1.0000
  S   S170      1.0  0.35802  0.67560  0.34529  1.0000
  H   H919      1.0  0.35947  0.61213  0.87777  1.0000
  C   C1149     1.0  0.35745  0.70880  0.13181  1.0000
  C   C1150     1.0  0.46547  0.58650  0.50648  1.0000
  C   C1151     1.0  0.47586  0.56663  0.97440  1.0000
  C   C1152     1.0  0.38931  0.73358  0.16223  1.0000
  C   C1153     1.0  0.32861  0.58172  0.62732  1.0000
  H   H920      1.0  0.37805  0.50602  0.96798  1.0000
  C   C1154     1.0  0.43984  0.60255  0.24533  1.0000
  H   H921      1.0  0.41275  0.51762  0.88983  1.0000
  C   C1155     1.0  0.33425  0.71011  0.18606  1.0000
  S   S171      1.0  0.43560  0.73229  0.57782  1.0000
  C   C1156     1.0  0.37225  0.72492  0.93206  1.0000
  C   C1157     1.0  0.32815  0.52378  0.08189  1.0000
  C   C1158     1.0  0.45780  0.54819  0.94053  1.0000
  H   H922      1.0  0.39215  0.72784  0.32235  1.0000
  C   C1159     1.0  0.33446  0.73166  0.09165  1.0000
  H   H923      1.0  0.45436  0.53601  0.34168  1.0000
  H   H924      1.0  0.46524  0.66563  0.15311  1.0000
  C   C1160     1.0  0.32573  0.74333  0.62492  1.0000
  H   H925      1.0  0.42070  0.70949  0.02740  1.0000
  H   H926      1.0  0.41052  0.71697  0.21562  1.0000
  H   H927      1.0  0.36461  0.65738  0.29201  1.0000
  S   S172      1.0  0.46768  0.62276  0.99499  1.0000
  C   C1161     1.0  0.39692  0.70368  0.75275  1.0000
  C   C1162     1.0  0.40991  0.51268  0.65886  1.0000
  C   C1163     1.0  0.35484  0.73454  0.18355  1.0000
  H   H928      1.0  0.32251  0.62961  0.01984  1.0000
  C   C1164     1.0  0.35602  0.61776  0.89660  1.0000
  H   H929      1.0  0.41516  0.50230  0.02795  1.0000
  H   H930      1.0  0.47861  0.55749  0.03085  1.0000
  C   C1165     1.0  0.38501  0.73786  0.59474  1.0000
  H   H931      1.0  0.32638  0.72862  0.00771  1.0000
  C   C1166     1.0  0.37944  0.73004  0.63356  1.0000
  C   C1167     1.0  0.45184  0.50217  0.04021  1.0000
  H   H932      1.0  0.33036  0.69237  0.28088  1.0000
  C   C1168     1.0  0.36956  0.61492  0.64008  1.0000
  C   C1169     1.0  0.42281  0.53131  0.77769  1.0000
  C   C1170     1.0  0.35878  0.61709  0.93327  1.0000
  H   H933      1.0  0.34378  0.54232  0.32896  1.0000
  H   H934      1.0  0.37448  0.71721  0.19761  1.0000
  C   C1171     1.0  0.34223  0.55032  0.14174  1.0000
  C   C1172     1.0  0.34417  0.63314  0.90739  1.0000
  C   C1173     1.0  0.33972  0.68156  0.99453  1.0000
  S   S173      1.0  0.35397  0.63692  0.19266  1.0000
  H   H935      1.0  0.33608  0.72050  0.39933  1.0000
  H   H936      1.0  0.32947  0.71427  0.81974  1.0000
  H   H937      1.0  0.35412  0.69778  0.48749  1.0000
  C   C1174     1.0  0.41134  0.70165  0.69425  1.0000
  C   C1175     1.0  0.38304  0.73486  0.36930  1.0000
  H   H938      1.0  0.38185  0.73627  0.49579  1.0000
  C   C1176     1.0  0.47213  0.70234  0.68515  1.0000
  H   H939      1.0  0.38808  0.70668  0.23150  1.0000
  H   H940      1.0  0.35840  0.67792  0.14628  1.0000
  H   H941      1.0  0.46502  0.59329  0.95819  1.0000
  C   C1177     1.0  0.35445  0.58770  0.92723  1.0000
  C   C1178     1.0  0.38429  0.72181  0.19058  1.0000
  H   H942      1.0  0.44451  0.58516  0.24068  1.0000
  H   H943      1.0  0.44410  0.56570  0.07687  1.0000
  H   H944      1.0  0.37884  0.72543  0.38907  1.0000
  C   C1179     1.0  0.37385  0.71643  0.52190  1.0000
  H   H945      1.0  0.40179  0.51548  0.65230  1.0000
  C   C1180     1.0  0.48240  0.63259  0.17898  1.0000
  C   C1181     1.0  0.48545  0.50541  0.75441  1.0000
  H   H946      1.0  0.44564  0.51085  0.79464  1.0000
  C   C1182     1.0  0.36010  0.70622  0.48950  1.0000
  H   H947      1.0  0.45382  0.69056  0.69592  1.0000
  C   C1183     1.0  0.41269  0.51346  0.69454  1.0000
  H   H948      1.0  0.47146  0.57275  0.06503  1.0000
  C   C1184     1.0  0.33412  0.55204  0.29130  1.0000
  C   C1185     1.0  0.36167  0.68812  0.13655  1.0000
  C   C1186     1.0  0.34805  0.60979  0.63841  1.0000
  C   C1187     1.0  0.44632  0.59322  0.25231  1.0000
  P   P42       1.0  0.39380  0.70536  0.80300  1.0000
  H   H949      1.0  0.41955  0.73780  0.16561  1.0000
  H   H950      1.0  0.40417  0.70073  0.64391  1.0000
  C   C1188     1.0  0.34865  0.55929  0.15623  1.0000
  C   C1189     1.0  0.33026  0.60741  0.58020  1.0000
  C   C1190     1.0  0.32694  0.58850  0.25328  1.0000
  H   H951      1.0  0.36402  0.52035  0.96085  1.0000
  C   C1191     1.0  0.47395  0.58679  0.38097  1.0000
  H   H952      1.0  0.35274  0.64059  0.27001  1.0000
  C   C1192     1.0  0.33239  0.61587  0.34579  1.0000
  H   H953      1.0  0.36482  0.69653  0.54111  1.0000
  C   C1193     1.0  0.33483  0.70875  0.76561  1.0000
  C   C1194     1.0  0.40702  0.71607  0.80749  1.0000
  C   C1195     1.0  0.46117  0.69350  0.70913  1.0000
  S   S174      1.0  0.46531  0.73177  0.54976  1.0000
  C   C1196     1.0  0.39017  0.70203  0.69383  1.0000
  C   C1197     1.0  0.33882  0.69047  0.43201  1.0000
  H   H954      1.0  0.33378  0.52209  0.21370  1.0000
  C   C1198     1.0  0.36175  0.71781  0.46184  1.0000
  H   H955      1.0  0.46718  0.52335  0.77943  1.0000
  H   H956      1.0  0.33401  0.68613  0.35192  1.0000
  C   C1199     1.0  0.40574  0.51533  0.09233  1.0000
  H   H957      1.0  0.34959  0.61515  0.36109  1.0000
  C   C1200     1.0  0.35977  0.64842  0.24821  1.0000
  H   H958      1.0  0.33557  0.56950  0.39572  1.0000
  H   H959      1.0  0.46817  0.55736  0.30738  1.0000
  H   H960      1.0  0.40664  0.51694  0.71513  1.0000
  C   C1201     1.0  0.33631  0.54707  0.32786  1.0000
  C   C1202     1.0  0.43811  0.54546  0.08853  1.0000
  C   C1203     1.0  0.45494  0.59419  0.27468  1.0000
  H   H961      1.0  0.42059  0.70119  0.67908  1.0000
  H   H962      1.0  0.46125  0.64728  0.22006  1.0000
  Fe  Fe84      1.0  0.36424  0.69284  0.36456  1.0000
  H   H963      1.0  0.44222  0.72407  0.36384  1.0000
  H   H964      1.0  0.34393  0.68390  0.42301  1.0000
  C   C1204     1.0  0.36608  0.70553  0.51970  1.0000
  C   C1205     1.0  0.45659  0.73527  0.68870  1.0000
  C   C1206     1.0  0.48309  0.67283  0.80296  1.0000
  H   H965      1.0  0.35056  0.72678  0.21024  1.0000
  P   P43       1.0  0.42935  0.51928  0.10493  1.0000
  H   H966      1.0  0.37834  0.70383  0.74686  1.0000
  C   C1207     1.0  0.38758  0.70319  0.73279  1.0000
  H   H967      1.0  0.34628  0.59053  0.94106  1.0000
  H   H968      1.0  0.46415  0.60611  0.30514  1.0000
  H   H969      1.0  0.36179  0.56574  0.88042  1.0000
  H   H970      1.0  0.43583  0.57280  0.31718  1.0000
  H   H971      1.0  0.41302  0.72684  0.74498  1.0000
  C   C1208     1.0  0.40463  0.72169  0.20072  1.0000
  H   H972      1.0  0.38067  0.68798  0.11091  1.0000
  H   H973      1.0  0.34680  0.68938  0.93061  1.0000
  C   C1209     1.0  0.48541  0.58473  0.15486  1.0000
  C   C1210     1.0  0.45815  0.55615  0.31615  1.0000
  C   C1211     1.0  0.32243  0.55114  0.95819  1.0000
  C   C1212     1.0  0.47248  0.63839  0.18319  1.0000
  C   C1213     1.0  0.43232  0.55280  0.34124  1.0000
  H   H974      1.0  0.43411  0.74069  0.81800  1.0000
  C   C1214     1.0  0.33660  0.62000  0.55936  1.0000
  S   S175      1.0  0.46034  0.74398  0.79066  1.0000
  P   P44       1.0  0.46330  0.58209  0.28286  1.0000
  C   C1215     1.0  0.47690  0.58781  0.47926  1.0000
  C   C1216     1.0  0.48410  0.53438  0.99978  1.0000
  C   C1217     1.0  0.43085  0.50540  0.67533  1.0000
  C   C1218     1.0  0.44222  0.50761  0.05405  1.0000
  Fe  Fe85      1.0  0.46002  0.61171  0.05924  1.0000
  C   C1219     1.0  0.37424  0.69381  0.11681  1.0000
  C   C1220     1.0  0.35327  0.69557  0.14353  1.0000
  H   H975      1.0  0.33380  0.66905  0.31844  1.0000
  H   H976      1.0  0.35575  0.52374  0.21518  1.0000
  H   H977      1.0  0.36707  0.69419  0.82253  1.0000
  H   H978      1.0  0.47178  0.64933  0.90909  1.0000
  H   H979      1.0  0.38297  0.70171  0.67845  1.0000
  C   C1221     1.0  0.47283  0.58514  0.31533  1.0000
  C   C1222     1.0  0.48317  0.57329  0.75601  1.0000
  H   H980      1.0  0.38822  0.71134  0.08907  1.0000
  C   C1223     1.0  0.39195  0.71585  0.20974  1.0000
  C   C1224     1.0  0.33282  0.60781  0.19927  1.0000
  C   C1225     1.0  0.38035  0.71177  0.81432  1.0000
  H   H981      1.0  0.36585  0.71564  0.94119  1.0000
  C   C1226     1.0  0.32794  0.69742  0.25532  1.0000
  H   H982      1.0  0.39078  0.73058  0.81000  1.0000
  C   C1227     1.0  0.32215  0.57227  0.61419  1.0000
  H   H983      1.0  0.47749  0.51205  0.70707  1.0000
  H   H984      1.0  0.42232  0.55148  0.35190  1.0000
  C   C1228     1.0  0.32231  0.55961  0.98149  1.0000
  C   C1229     1.0  0.36833  0.70395  0.82315  1.0000
  H   H985      1.0  0.47917  0.67437  0.41913  1.0000
  C   C1230     1.0  0.32934  0.55837  0.20426  1.0000
  C   C1231     1.0  0.47724  0.57329  0.17898  1.0000
  Fe  Fe86      1.0  0.47340  0.63751  0.34894  1.0000
  C   C1232     1.0  0.44223  0.51296  0.08591  1.0000
  C   C1233     1.0  0.47449  0.57087  0.79309  1.0000
  H   H986      1.0  0.34350  0.69096  0.15778  1.0000
  C   C1234     1.0  0.47335  0.67444  0.83198  1.0000
  H   H987      1.0  0.46470  0.73319  0.33132  1.0000
  C   C1235     1.0  0.45302  0.56660  0.30793  1.0000
  C   C1236     1.0  0.32173  0.61920  0.46879  1.0000
  H   H988      1.0  0.34721  0.67700  0.99700  1.0000
  C   C1237     1.0  0.43747  0.54239  0.34795  1.0000
  C   C1238     1.0  0.47233  0.58278  0.23352  1.0000
  H   H989      1.0  0.43144  0.53306  0.36325  1.0000
  C   C1239     1.0  0.48491  0.55162  0.77302  1.0000
  H   H990      1.0  0.47900  0.73251  0.81871  1.0000
  S   S176      1.0  0.33014  0.67166  0.07584  1.0000
  H   H991      1.0  0.47231  0.57825  0.92301  1.0000
  H   H992      1.0  0.43091  0.73273  0.41477  1.0000
  C   C1240     1.0  0.45039  0.54407  0.33560  1.0000
  C   C1241     1.0  0.33220  0.60075  0.17200  1.0000
  C   C1242     1.0  0.36655  0.72760  0.65037  1.0000
  C   C1243     1.0  0.37847  0.70697  0.10456  1.0000
  H   H993      1.0  0.47708  0.57106  0.57076  1.0000
  S   S177      1.0  0.47642  0.61810  0.36627  1.0000
  H   H994      1.0  0.35361  0.57749  0.57581  1.0000
  C   C1244     1.0  0.42142  0.50140  0.96759  1.0000
  C   C1245     1.0  0.48546  0.50926  0.71460  1.0000
  C   C1246     1.0  0.36942  0.72883  0.46410  1.0000
  Fe  Fe87      1.0  0.46905  0.63988  0.01784  1.0000
  C   C1247     1.0  0.43825  0.56062  0.02833  1.0000
  C   C1248     1.0  0.35783  0.70861  0.83333  1.0000
  C   C1249     1.0  0.35919  0.72106  0.83543  1.0000
  H   H995      1.0  0.33937  0.65033  0.35278  1.0000
  C   C1250     1.0  0.42800  0.50456  0.63987  1.0000
  C   C1251     1.0  0.41288  0.49652  0.11316  1.0000
  C   C1252     1.0  0.33858  0.72510  0.70350  1.0000
  C   C1253     1.0  0.33951  0.68859  0.95702  1.0000
  C   C1254     1.0  0.48666  0.54071  0.55562  1.0000
  C   C1255     1.0  0.48154  0.70640  0.70204  1.0000
  C   C1256     1.0  0.32169  0.69816  0.60834  1.0000
  C   C1257     1.0  0.47376  0.52394  0.61371  1.0000
  C   C1258     1.0  0.47023  0.67617  0.00290  1.0000
  H   H996      1.0  0.33854  0.61051  0.64881  1.0000
  H   H997      1.0  0.33071  0.58764  0.67963  1.0000
  H   H998      1.0  0.46546  0.65441  0.10075  1.0000
  H   H999      1.0  0.43164  0.55285  0.98511  1.0000
  C   C1259     1.0  0.37011  0.71446  0.11213  1.0000
  C   C1260     1.0  0.47099  0.55884  0.82007  1.0000
  C   C1261     1.0  0.47466  0.64057  0.24787  1.0000
  H   H1000     1.0  0.33425  0.60553  0.14050  1.0000
  H   H1001     1.0  0.33006  0.63993  0.26018  1.0000
  H   H1002     1.0  0.37350  0.72462  0.10233  1.0000
  H   H1003     1.0  0.39818  0.53510  0.84455  1.0000
  C   C1262     1.0  0.33418  0.71098  0.41834  1.0000
  H   H1004     1.0  0.47732  0.50494  0.77781  1.0000
  C   C1263     1.0  0.32884  0.58757  0.18526  1.0000
  H   H1005     1.0  0.36021  0.74282  0.08228  1.0000
  C   C1264     1.0  0.46502  0.53209  0.56044  1.0000
  C   C1265     1.0  0.46366  0.52381  0.59759  1.0000
  H   H1006     1.0  0.45707  0.53165  0.54838  1.0000
  C   C1266     1.0  0.42318  0.50978  0.70310  1.0000
  C   C1267     1.0  0.48424  0.63432  0.24434  1.0000
  C   C1268     1.0  0.46808  0.53315  0.71938  1.0000
  H   H1007     1.0  0.33494  0.65037  0.18841  1.0000
  C   C1269     1.0  0.42443  0.73460  0.77789  1.0000
  H   H1008     1.0  0.45488  0.51695  0.61328  1.0000
  C   C1270     1.0  0.48698  0.59521  0.16978  1.0000
  H   H1009     1.0  0.33095  0.60729  0.26072  1.0000
  H   H1010     1.0  0.34724  0.54725  0.11754  1.0000
  C   C1271     1.0  0.34733  0.63296  0.94293  1.0000
  S   S178      1.0  0.46342  0.65093  0.47902  1.0000
  C   C1272     1.0  0.32895  0.54824  0.36309  1.0000
  C   C1273     1.0  0.35601  0.51051  0.13840  1.0000
  H   H1011     1.0  0.47273  0.51716  0.64180  1.0000
  H   H1012     1.0  0.47429  0.56799  0.69396  1.0000
  H   H1013     1.0  0.34072  0.72678  0.32232  1.0000
  C   C1274     1.0  0.33585  0.73359  0.72566  1.0000
  C   C1275     1.0  0.33451  0.71736  0.63341  1.0000
  C   C1276     1.0  0.47549  0.68959  0.44454  1.0000
  C   C1277     1.0  0.46790  0.58537  0.97391  1.0000
  C   C1278     1.0  0.37563  0.72801  0.49395  1.0000
  C   C1279     1.0  0.47362  0.71298  0.81952  1.0000
  C   C1280     1.0  0.47067  0.57231  0.21810  1.0000
  C   C1281     1.0  0.33216  0.71729  0.78735  1.0000
  H   H1014     1.0  0.46428  0.55693  0.84884  1.0000
  C   C1282     1.0  0.33274  0.72970  0.76734  1.0000
  H   H1015     1.0  0.47048  0.57832  0.80095  1.0000
  C   C1283     1.0  0.33013  0.72658  0.03311  1.0000
  C   C1284     1.0  0.39060  0.73619  0.33116  1.0000
  H   H1016     1.0  0.33523  0.61801  0.18885  1.0000
  H   H1017     1.0  0.47321  0.70620  0.65360  1.0000
  C   C1285     1.0  0.46164  0.53473  0.69044  1.0000
  H   H1018     1.0  0.46472  0.57012  0.63840  1.0000
  H   H1019     1.0  0.46785  0.63983  0.15994  1.0000
  C   C1286     1.0  0.36766  0.73554  0.93443  1.0000
  H   H1020     1.0  0.46618  0.54136  0.66127  1.0000
  H   H1021     1.0  0.44442  0.52936  0.67638  1.0000
  H   H1022     1.0  0.33042  0.73627  0.78414  1.0000
  C   C1287     1.0  0.38506  0.72628  0.91779  1.0000
  C   C1288     1.0  0.32956  0.73420  0.05905  1.0000
  H   H1023     1.0  0.46921  0.58628  0.41134  1.0000
  H   H1024     1.0  0.46411  0.56348  0.23561  1.0000
  H   H1025     1.0  0.48229  0.59711  0.46059  1.0000
  C   C1289     1.0  0.46771  0.58388  0.01382  1.0000
  S   S179      1.0  0.32977  0.70346  0.90669  1.0000
  H   H1026     1.0  0.47523  0.67075  0.01969  1.0000
  C   C1290     1.0  0.47903  0.72288  0.83276  1.0000
  P   P45       1.0  0.48192  0.55615  0.94772  1.0000
  C   C1291     1.0  0.32618  0.58043  0.66847  1.0000
  C   C1292     1.0  0.48037  0.59431  0.20873  1.0000
  H   H1027     1.0  0.45073  0.68231  0.76807  1.0000
  C   C1293     1.0  0.42945  0.50885  0.18366  1.0000
  H   H1028     1.0  0.40077  0.73510  0.07739  1.0000
  H   H1029     1.0  0.38325  0.73810  0.14769  1.0000
  H   H1030     1.0  0.37211  0.73852  0.82895  1.0000
  C   C1294     1.0  0.47872  0.69800  0.86982  1.0000
  H   H1031     1.0  0.47340  0.53991  0.83091  1.0000
  C   C1295     1.0  0.47199  0.57682  0.95420  1.0000
  H   H1032     1.0  0.32350  0.57318  0.58265  1.0000
  H   H1033     1.0  0.40320  0.73905  0.89446  1.0000
  C   C1296     1.0  0.33995  0.51883  0.19266  1.0000
  C   C1297     1.0  0.33285  0.73884  0.45321  1.0000
  H   H1034     1.0  0.35769  0.73449  0.94522  1.0000
  C   C1298     1.0  0.35723  0.61563  0.65329  1.0000
  H   H1035     1.0  0.36976  0.51592  0.16816  1.0000
  H   H1036     1.0  0.47781  0.69366  0.01449  1.0000
  C   C1299     1.0  0.33974  0.71531  0.59660  1.0000
  H   H1037     1.0  0.37867  0.71586  0.54494  1.0000
  H   H1038     1.0  0.38873  0.51400  0.83939  1.0000
  C   C1300     1.0  0.47428  0.56933  0.63344  1.0000
  C   C1301     1.0  0.40521  0.51310  0.79724  1.0000
  H   H1039     1.0  0.35472  0.62065  0.67526  1.0000
  S   S180      1.0  0.48109  0.51723  0.83501  1.0000
  H   H1040     1.0  0.33423  0.69909  0.78123  1.0000
  H   H1041     1.0  0.34541  0.73248  0.48484  1.0000
  Fe  Fe88      1.0  0.45415  0.73821  0.85898  1.0000
  Fe  Fe89      1.0  0.47949  0.62781  0.08462  1.0000
  C   C1302     1.0  0.35850  0.49567  0.06233  1.0000
  S   S181      1.0  0.47874  0.60980  0.06659  1.0000
  C   C1303     1.0  0.32988  0.69464  0.95371  1.0000
  C   C1304     1.0  0.32085  0.68680  0.02543  1.0000
  H   H1042     1.0  0.42942  0.49650  0.45143  1.0000
  C   C1305     1.0  0.40209  0.73942  0.15251  1.0000
  H   H1043     1.0  0.43472  0.50749  0.04000  1.0000
  C   C1306     1.0  0.37029  0.50529  0.99313  1.0000
  C   C1307     1.0  0.42632  0.51832  0.15746  1.0000
  Fe  Fe90      1.0  0.45225  0.74204  0.52444  1.0000
  H   H1044     1.0  0.45291  0.51810  0.12537  1.0000
  C   C1308     1.0  0.35047  0.50377  0.05861  1.0000
  H   H1045     1.0  0.32801  0.74039  0.29534  1.0000
  H   H1046     1.0  0.33577  0.52902  0.08979  1.0000
  C   C1309     1.0  0.45986  0.73736  0.35261  1.0000
  H   H1047     1.0  0.47584  0.56523  0.16714  1.0000
  H   H1048     1.0  0.45952  0.74011  0.65712  1.0000
  H   H1049     1.0  0.33995  0.70586  0.70743  1.0000
  C   C1310     1.0  0.39432  0.50783  0.09333  1.0000
  C   C1311     1.0  0.32258  0.69481  0.47986  1.0000
  C   C1312     1.0  0.46197  0.50790  0.08850  1.0000
  H   H1050     1.0  0.48576  0.58266  0.73532  1.0000
  C   C1313     1.0  0.47489  0.65585  0.87934  1.0000
  P   P46       1.0  0.32109  0.56423  0.24289  1.0000
  C   C1314     1.0  0.47979  0.56815  0.66489  1.0000
  C   C1315     1.0  0.48519  0.53256  0.59310  1.0000
  C   C1316     1.0  0.32609  0.58130  0.22609  1.0000
  C   C1317     1.0  0.48118  0.56976  0.59535  1.0000
  Fe  Fe91      1.0  0.46834  0.49821  0.86851  1.0000
  C   C1318     1.0  0.48443  0.65421  0.85015  1.0000
  H   H1051     1.0  0.43386  0.50100  0.61877  1.0000
  H   H1052     1.0  0.33607  0.71051  0.01952  1.0000
  H   H1053     1.0  0.48139  0.60267  0.21927  1.0000
  C   C1319     1.0  0.36480  0.74084  0.58927  1.0000
  H   H1054     1.0  0.48215  0.69689  0.41981  1.0000
  H   H1055     1.0  0.41538  0.50754  0.60399  1.0000
  C   C1320     1.0  0.47991  0.70173  0.74301  1.0000
  H   H1056     1.0  0.43375  0.50198  0.17284  1.0000
  H   H1057     1.0  0.33402  0.73773  0.11123  1.0000
  C   C1321     1.0  0.32263  0.70997  0.65680  1.0000
  C   C1322     1.0  0.34478  0.73680  0.30837  1.0000
  C   C1323     1.0  0.34469  0.73817  0.45709  1.0000
  C   C1324     1.0  0.32941  0.65404  0.20984  1.0000
  C   C1325     1.0  0.48416  0.70794  0.88288  1.0000
  C   C1326     1.0  0.48589  0.58920  0.30126  1.0000
  C   C1327     1.0  0.35721  0.74195  0.30582  1.0000
  H   H1058     1.0  0.32730  0.66913  0.16457  1.0000
  H   H1059     1.0  0.43899  0.50251  0.68127  1.0000
  S   S182      1.0  0.46771  0.74362  0.89352  1.0000
  Fe  Fe92      1.0  0.48648  0.62233  0.00388  1.0000
  C   C1328     1.0  0.32477  0.70698  0.45468  1.0000
  H   H1060     1.0  0.48654  0.51729  0.03576  1.0000
  H   H1061     1.0  0.47835  0.68845  0.88550  1.0000
  C   C1329     1.0  0.36840  0.49648  0.02973  1.0000
  H   H1062     1.0  0.36267  0.73590  0.31803  1.0000
  C   C1330     1.0  0.32294  0.54931  0.18964  1.0000
  H   H1063     1.0  0.43057  0.74186  0.75180  1.0000
  C   C1331     1.0  0.48694  0.59101  0.36669  1.0000
  C   C1332     1.0  0.32658  0.64814  0.25074  1.0000
  C   C1333     1.0  0.48427  0.72036  0.86450  1.0000
  C   C1334     1.0  0.39160  0.74317  0.03543  1.0000
  C   C1335     1.0  0.37770  0.74331  0.57270  1.0000
  H   H1064     1.0  0.41097  0.74378  0.47280  1.0000
  C   C1336     1.0  0.42396  0.49517  0.78247  1.0000
  C   C1337     1.0  0.33761  0.74456  0.29333  1.0000
  H   H1065     1.0  0.32079  0.54002  0.06680  1.0000
  H   H1066     1.0  0.48648  0.67932  0.77328  1.0000
  P   P47       1.0  0.37072  0.74392  0.43003  1.0000
  H   H1067     1.0  0.48719  0.66154  0.11902  1.0000
  S   S183      1.0  0.48720  0.64595  0.37835  1.0000
  H   H1068     1.0  0.48728  0.70503  0.75560  1.0000
  C   C1338     1.0  0.33474  0.76619  0.20626  1.0000
  H   H1069     1.0  0.34317  0.74974  0.96374  1.0000
  C   C1339     1.0  0.32698  0.75582  0.16071  1.0000
  Fe  Fe93      1.0  0.47682  0.84572  0.41795  1.0000
  H   H1070     1.0  0.35186  0.78089  0.17868  1.0000
  S   S184      1.0  0.45695  0.84625  0.44213  1.0000
  C   C1340     1.0  0.34473  0.77399  0.17406  1.0000
  C   C1341     1.0  0.33530  0.78126  0.46124  1.0000
  H   H1071     1.0  0.47961  0.81572  0.21991  1.0000
  H   H1072     1.0  0.32447  0.77877  0.98140  1.0000
  C   C1342     1.0  0.48666  0.97857  0.96949  1.0000
  C   C1343     1.0  0.34235  0.78603  0.29090  1.0000
  Fe  Fe94      1.0  0.39764  0.81058  0.42976  1.0000
  S   S185      1.0  0.38435  0.81156  0.48476  1.0000
  S   S186      1.0  0.41446  0.80293  0.43293  1.0000
  Fe  Fe95      1.0  0.38349  0.82205  0.37488  1.0000
  S   S187      1.0  0.36923  0.82447  0.42633  1.0000
  S   S188      1.0  0.38429  0.82895  0.30888  1.0000
  Fe  Fe96      1.0  0.38558  0.83134  0.44954  1.0000
  S   S189      1.0  0.38683  0.84728  0.48116  1.0000
  Fe  Fe97      1.0  0.36927  0.80456  0.45749  1.0000
  S   S190      1.0  0.39967  0.83057  0.39533  1.0000
  S   S191      1.0  0.38275  0.80196  0.40506  1.0000
  Fe  Fe98      1.0  0.43334  0.90086  0.55997  1.0000
  S   S192      1.0  0.43805  0.89447  0.61816  1.0000
  S   S193      1.0  0.42676  0.88774  0.52273  1.0000
  Fe  Fe99      1.0  0.44660  0.92893  0.54931  1.0000
  S   S194      1.0  0.45193  0.92459  0.60677  1.0000
  Fe  Fe100     1.0  0.45681  0.90786  0.58885  1.0000
  S   S195      1.0  0.47393  0.90193  0.59870  1.0000
  Fe  Fe101     1.0  0.43282  0.91158  0.63358  1.0000
  S   S196      1.0  0.42305  0.90823  0.69979  1.0000
  S   S197      1.0  0.45295  0.91292  0.52971  1.0000
  S   S198      1.0  0.42662  0.91723  0.57715  1.0000
  H   H1073     1.0  0.34078  0.78806  0.00997  1.0000
  H   H1074     1.0  0.42258  0.76428  0.47703  1.0000
  C   C1344     1.0  0.46630  0.91220  0.70034  1.0000
  H   H1075     1.0  0.33852  0.79079  0.44161  1.0000
  H   H1076     1.0  0.42091  0.75812  0.34519  1.0000
  C   C1345     1.0  0.34137  0.77970  0.00012  1.0000
  Fe  Fe102     1.0  0.47842  0.83686  0.05268  1.0000
  S   S199      1.0  0.45918  0.83997  0.06843  1.0000
  H   H1077     1.0  0.44476  0.75945  0.32871  1.0000
  H   H1078     1.0  0.41160  0.74807  0.93877  1.0000
  H   H1079     1.0  0.45341  0.81481  0.93836  1.0000
  C   C1346     1.0  0.40089  0.78678  0.17150  1.0000
  C   C1347     1.0  0.32459  0.77298  0.45925  1.0000
  C   C1348     1.0  0.47397  0.80617  0.34204  1.0000
  Fe  Fe103     1.0  0.39920  0.80534  0.05233  1.0000
  S   S200      1.0  0.38878  0.81202  0.00916  1.0000
  S   S201      1.0  0.41822  0.80227  0.02930  1.0000
  Fe  Fe104     1.0  0.38342  0.82395  0.05007  1.0000
  S   S202      1.0  0.38528  0.84501  0.02426  1.0000
  H   H1080     1.0  0.42635  0.91163  0.83228  1.0000
  S   S203      1.0  0.39487  0.81803  0.09100  1.0000
  C   C1349     1.0  0.42852  0.87700  0.23999  1.0000
  Fe  Fe105     1.0  0.44866  0.92795  0.87959  1.0000
  S   S204      1.0  0.43625  0.92631  0.94085  1.0000
  S   S205      1.0  0.44623  0.93454  0.81693  1.0000
  Fe  Fe106     1.0  0.46949  0.92160  0.91403  1.0000
  S   S206      1.0  0.45874  0.91909  0.97676  1.0000
  C   C1350     1.0  0.47518  0.99296  0.64986  1.0000
  Fe  Fe107     1.0  0.44252  0.90846  0.96105  1.0000
  S   S207      1.0  0.43307  0.88885  0.00548  1.0000
  Fe  Fe108     1.0  0.45364  0.93710  0.95196  1.0000
  S   S208      1.0  0.45401  0.90975  0.89949  1.0000
  S   S209      1.0  0.46535  0.94005  0.88934  1.0000
  S   S210      1.0  0.45373  0.76255  0.49185  1.0000
  S   S211      1.0  0.45389  0.76961  0.94502  1.0000
  H   H1081     1.0  0.44443  0.96520  0.59641  1.0000
  C   C1351     1.0  0.35401  0.75263  0.39094  1.0000
  H   H1082     1.0  0.37708  0.89178  0.94520  1.0000
  C   C1352     1.0  0.40107  0.75458  0.07591  1.0000
  C   C1353     1.0  0.37588  0.74753  0.92267  1.0000
  Fe  Fe109     1.0  0.45292  0.75108  0.92747  1.0000
  P   P48       1.0  0.39567  0.85352  0.88718  1.0000
  H   H1083     1.0  0.45361  0.87371  0.58673  1.0000
  C   C1354     1.0  0.39871  0.85704  0.01938  1.0000
  C   C1355     1.0  0.39963  0.86959  0.99880  1.0000
  C   C1356     1.0  0.41023  0.87937  0.99300  1.0000
  C   C1357     1.0  0.41990  0.87679  0.00917  1.0000
  C   C1358     1.0  0.41887  0.86430  0.03077  1.0000
  C   C1359     1.0  0.40845  0.85446  0.03536  1.0000
  H   H1084     1.0  0.39207  0.87176  0.98730  1.0000
  H   H1085     1.0  0.41074  0.88896  0.97702  1.0000
  H   H1086     1.0  0.42626  0.86221  0.04359  1.0000
  H   H1087     1.0  0.40796  0.84490  0.05136  1.0000
  H   H1088     1.0  0.46699  0.82686  0.96923  1.0000
  C   C1360     1.0  0.47219  0.79734  0.98331  1.0000
  C   C1361     1.0  0.46299  0.78922  0.97363  1.0000
  C   C1362     1.0  0.46575  0.77925  0.95813  1.0000
  C   C1363     1.0  0.46654  0.97170  0.81193  1.0000
  H   H1089     1.0  0.34679  0.77616  0.61319  1.0000
  H   H1090     1.0  0.46992  0.80496  0.99507  1.0000
  H   H1091     1.0  0.45368  0.79069  0.97806  1.0000
  C   C1364     1.0  0.36641  0.75637  0.15372  1.0000
  C   C1365     1.0  0.45953  0.85149  0.91196  1.0000
  C   C1366     1.0  0.44813  0.82952  0.05636  1.0000
  C   C1367     1.0  0.43677  0.83242  0.05475  1.0000
  C   C1368     1.0  0.42770  0.82415  0.04579  1.0000
  C   C1369     1.0  0.42988  0.81290  0.03860  1.0000
  C   C1370     1.0  0.44132  0.81005  0.03964  1.0000
  C   C1371     1.0  0.45045  0.81835  0.04864  1.0000
  H   H1092     1.0  0.43506  0.84116  0.05980  1.0000
  H   H1093     1.0  0.41915  0.82670  0.04330  1.0000
  H   H1094     1.0  0.44310  0.80139  0.03383  1.0000
  H   H1095     1.0  0.45926  0.81610  0.04964  1.0000
  C   C1372     1.0  0.43019  0.91502  0.73219  1.0000
  C   C1373     1.0  0.44033  0.92562  0.71742  1.0000
  C   C1374     1.0  0.44522  0.93129  0.74388  1.0000
  C   C1375     1.0  0.44031  0.92626  0.78546  1.0000
  C   C1376     1.0  0.43038  0.91544  0.80037  1.0000
  C   C1377     1.0  0.42526  0.90995  0.77385  1.0000
  H   H1096     1.0  0.44420  0.92971  0.68559  1.0000
  H   H1097     1.0  0.45281  0.93969  0.73201  1.0000
  C   C1378     1.0  0.40599  0.87646  0.77251  1.0000
  P   P49       1.0  0.46046  0.98663  0.68831  1.0000
  C   C1379     1.0  0.47083  0.83724  0.55967  1.0000
  C   C1380     1.0  0.38882  0.74899  0.90843  1.0000
  H   H1098     1.0  0.38717  0.91271  0.18208  1.0000
  C   C1381     1.0  0.45762  0.86000  0.67608  1.0000
  C   C1382     1.0  0.38126  0.81919  0.27748  1.0000
  C   C1383     1.0  0.38221  0.82496  0.23739  1.0000
  C   C1384     1.0  0.37999  0.81770  0.21114  1.0000
  C   C1385     1.0  0.45201  0.87331  0.51210  1.0000
  H   H1099     1.0  0.35926  0.74510  0.57167  1.0000
  H   H1100     1.0  0.34120  0.75933  0.36070  1.0000
  H   H1101     1.0  0.38469  0.83514  0.22659  1.0000
  H   H1102     1.0  0.38063  0.82233  0.18052  1.0000
  C   C1386     1.0  0.39834  0.85819  0.49251  1.0000
  C   C1387     1.0  0.39442  0.86371  0.52335  1.0000
  C   C1388     1.0  0.40294  0.87260  0.53312  1.0000
  C   C1389     1.0  0.41560  0.87631  0.51188  1.0000
  C   C1390     1.0  0.41954  0.87088  0.48074  1.0000
  C   C1391     1.0  0.41101  0.86192  0.47110  1.0000
  H   H1103     1.0  0.38467  0.86107  0.53998  1.0000
  H   H1104     1.0  0.39967  0.87664  0.55702  1.0000
  H   H1105     1.0  0.42930  0.87352  0.46415  1.0000
  H   H1106     1.0  0.41424  0.85789  0.44716  1.0000
  H   H1107     1.0  0.46519  0.75132  0.70548  1.0000
  C   C1392     1.0  0.34085  0.76696  0.61711  1.0000
  C   C1393     1.0  0.47684  0.92213  0.69131  1.0000
  C   C1394     1.0  0.46610  0.77610  0.48194  1.0000
  C   C1395     1.0  0.46439  0.78807  0.46553  1.0000
  C   C1396     1.0  0.47418  0.79903  0.45494  1.0000
  C   C1397     1.0  0.38996  0.86539  0.90787  1.0000
  C   C1398     1.0  0.48604  0.98952  0.65584  1.0000
  H   H1108     1.0  0.45549  0.78887  0.46053  1.0000
  H   H1109     1.0  0.47270  0.80813  0.44223  1.0000
  C   C1399     1.0  0.42848  0.77272  0.41342  1.0000
  H   H1110     1.0  0.48274  0.81142  0.34392  1.0000
  H   H1111     1.0  0.38584  0.79806  0.80866  1.0000
  C   C1400     1.0  0.39369  0.77443  0.19030  1.0000
  H   H1112     1.0  0.46453  0.98960  0.82112  1.0000
  H   H1113     1.0  0.47341  0.94859  0.68279  1.0000
  C   C1401     1.0  0.46825  0.97149  0.46142  1.0000
  H   H1114     1.0  0.48385  0.87695  0.43721  1.0000
  H   H1115     1.0  0.46998  0.86190  0.30224  1.0000
  C   C1402     1.0  0.36253  0.75484  0.28761  1.0000
  H   H1116     1.0  0.43073  0.80415  0.35839  1.0000
  C   C1403     1.0  0.44527  0.83373  0.44140  1.0000
  C   C1404     1.0  0.43308  0.83517  0.44669  1.0000
  C   C1405     1.0  0.42358  0.82556  0.44519  1.0000
  C   C1406     1.0  0.42624  0.81450  0.43777  1.0000
  C   C1407     1.0  0.43840  0.81293  0.43291  1.0000
  C   C1408     1.0  0.44792  0.82255  0.43481  1.0000
  H   H1117     1.0  0.43096  0.84380  0.45155  1.0000
  H   H1118     1.0  0.41418  0.82670  0.45016  1.0000
  H   H1119     1.0  0.44049  0.80433  0.42749  1.0000
  H   H1120     1.0  0.45725  0.82127  0.43144  1.0000
  C   C1409     1.0  0.40777  0.83508  0.91375  1.0000
  C   C1410     1.0  0.47153  0.98064  0.02532  1.0000
  H   H1121     1.0  0.36105  0.74706  0.21661  1.0000
  C   C1411     1.0  0.38093  0.74557  0.38127  1.0000
  C   C1412     1.0  0.32927  0.76610  0.60925  1.0000
  H   H1122     1.0  0.34203  0.77833  0.31572  1.0000
  H   H1123     1.0  0.35930  0.75879  0.99348  1.0000
  H   H1124     1.0  0.45211  0.90041  0.05553  1.0000
  H   H1125     1.0  0.41732  0.90187  0.78564  1.0000
  C   C1413     1.0  0.48433  0.79568  0.97719  1.0000
  H   H1126     1.0  0.46840  0.77183  0.31956  1.0000
  H   H1127     1.0  0.48409  0.89164  0.09269  1.0000
  S   S212      1.0  0.48339  0.81889  0.07740  1.0000
  C   C1414     1.0  0.39934  0.87012  0.81219  1.0000
  C   C1415     1.0  0.45946  0.81519  0.16285  1.0000
  C   C1416     1.0  0.46848  0.81173  0.18094  1.0000
  C   C1417     1.0  0.47246  0.81826  0.20648  1.0000
  C   C1418     1.0  0.46778  0.82853  0.21290  1.0000
  C   C1419     1.0  0.45868  0.83206  0.19501  1.0000
  C   C1420     1.0  0.45453  0.82527  0.16997  1.0000
  P   P50       1.0  0.45300  0.84561  0.20279  1.0000
  C   C1421     1.0  0.43778  0.84425  0.19400  1.0000
  C   C1422     1.0  0.45315  0.84587  0.25308  1.0000
  C   C1423     1.0  0.44615  0.83549  0.28563  1.0000
  C   C1424     1.0  0.44726  0.83497  0.32405  1.0000
  C   C1425     1.0  0.45574  0.84458  0.33002  1.0000
  C   C1426     1.0  0.46298  0.85478  0.29778  1.0000
  C   C1427     1.0  0.46171  0.85545  0.25949  1.0000
  C   C1428     1.0  0.43695  0.84701  0.15448  1.0000
  C   C1429     1.0  0.42532  0.84553  0.14674  1.0000
  C   C1430     1.0  0.41441  0.84136  0.17831  1.0000
  C   C1431     1.0  0.41515  0.83879  0.21761  1.0000
  C   C1432     1.0  0.42675  0.84028  0.22551  1.0000
  C   C1433     1.0  0.46294  0.86011  0.16768  1.0000
  C   C1434     1.0  0.47402  0.86016  0.14065  1.0000
  C   C1435     1.0  0.33209  0.77439  0.98380  1.0000
  H   H1128     1.0  0.45486  0.81180  0.51714  1.0000
  C   C1436     1.0  0.46717  0.88289  0.14062  1.0000
  C   C1437     1.0  0.45954  0.87154  0.16744  1.0000
  H   H1129     1.0  0.45661  0.81042  0.14200  1.0000
  H   H1130     1.0  0.47271  0.80428  0.17416  1.0000
  C   C1438     1.0  0.45973  0.75247  0.39151  1.0000
  H   H1131     1.0  0.47152  0.83387  0.23114  1.0000
  H   H1132     1.0  0.44777  0.82786  0.15486  1.0000
  H   H1133     1.0  0.44016  0.82758  0.28107  1.0000
  H   H1134     1.0  0.44186  0.82695  0.34914  1.0000
  H   H1135     1.0  0.45700  0.84395  0.35944  1.0000
  C   C1439     1.0  0.32172  0.75429  0.61321  1.0000
  H   H1136     1.0  0.46794  0.86314  0.23491  1.0000
  H   H1137     1.0  0.44532  0.85009  0.12953  1.0000
  H   H1138     1.0  0.42475  0.84755  0.11623  1.0000
  H   H1139     1.0  0.40540  0.84010  0.17229  1.0000
  H   H1140     1.0  0.40669  0.83565  0.24209  1.0000
  H   H1141     1.0  0.42695  0.83833  0.25619  1.0000
  H   H1142     1.0  0.47673  0.85144  0.13994  1.0000
  C   C1440     1.0  0.47074  0.81842  0.53699  1.0000
  H   H1143     1.0  0.36642  0.77055  0.52271  1.0000
  H   H1144     1.0  0.46447  0.89169  0.14025  1.0000
  H   H1145     1.0  0.45098  0.87164  0.18798  1.0000
  H   H1146     1.0  0.37333  0.78851  0.27586  1.0000
  C   C1441     1.0  0.43638  0.90774  0.41762  1.0000
  C   C1442     1.0  0.42103  0.75938  0.96884  1.0000
  C   C1443     1.0  0.36827  0.75913  0.48171  1.0000
  H   H1147     1.0  0.42804  0.94674  0.72144  1.0000
  H   H1148     1.0  0.42960  0.86167  0.76286  1.0000
  H   H1149     1.0  0.40243  0.82915  0.90029  1.0000
  H   H1150     1.0  0.45292  0.77209  0.10473  1.0000
  C   C1444     1.0  0.34133  0.77742  0.49020  1.0000
  H   H1151     1.0  0.37284  0.80257  0.86688  1.0000
  H   H1152     1.0  0.47570  0.84463  0.56961  1.0000
  H   H1153     1.0  0.48476  0.82040  0.68861  1.0000
  C   C1445     1.0  0.34301  0.80634  0.22804  1.0000
  C   C1446     1.0  0.42219  0.76294  0.44820  1.0000
  C   C1447     1.0  0.34255  0.75803  0.97393  1.0000
  C   C1448     1.0  0.47290  0.92124  0.76139  1.0000
  C   C1449     1.0  0.46242  0.91120  0.77036  1.0000
  H   H1154     1.0  0.38100  0.83246  0.95616  1.0000
  C   C1450     1.0  0.45763  0.78684  0.36296  1.0000
  H   H1155     1.0  0.39760  0.78183  0.81857  1.0000
  C   C1451     1.0  0.45471  0.85424  0.60580  1.0000
  C   C1452     1.0  0.33157  0.74630  0.41822  1.0000
  C   C1453     1.0  0.37738  0.83152  0.93112  1.0000
  C   C1454     1.0  0.42512  0.75699  0.09569  1.0000
  S   S213      1.0  0.48232  0.83273  0.38216  1.0000
  H   H1156     1.0  0.44123  0.96361  0.73803  1.0000
  H   H1157     1.0  0.44759  0.87811  0.09560  1.0000
  C   C1455     1.0  0.40374  0.86086  0.83486  1.0000
  C   C1456     1.0  0.44695  0.74740  0.40916  1.0000
  H   H1158     1.0  0.34158  0.76191  0.53775  1.0000
  C   C1457     1.0  0.44473  0.89690  0.08333  1.0000
  C   C1458     1.0  0.35538  0.74488  0.42556  1.0000
  P   P51       1.0  0.40846  0.75462  0.11574  1.0000
  C   C1459     1.0  0.47544  0.98343  0.45957  1.0000
  H   H1159     1.0  0.39561  0.76062  0.41552  1.0000
  C   C1460     1.0  0.34673  0.80857  0.26097  1.0000
  H   H1160     1.0  0.47480  0.92486  0.78545  1.0000
  H   H1161     1.0  0.45653  0.90733  0.80083  1.0000
  H   H1162     1.0  0.47817  0.89724  0.97419  1.0000
  C   C1461     1.0  0.45589  0.84493  0.63743  1.0000
  C   C1462     1.0  0.35175  0.76324  0.99078  1.0000
  C   C1463     1.0  0.38907  0.76271  0.43853  1.0000
  C   C1464     1.0  0.39722  0.87792  0.89517  1.0000
  C   C1465     1.0  0.39165  0.90948  0.23829  1.0000
  C   C1466     1.0  0.48702  0.78561  0.96219  1.0000
  C   C1467     1.0  0.47730  0.87586  0.86251  1.0000
  C   C1468     1.0  0.48225  0.91814  0.45457  1.0000
  C   C1469     1.0  0.47950  0.88826  0.83825  1.0000
  C   C1470     1.0  0.45919  0.81873  0.52991  1.0000
  C   C1471     1.0  0.45337  0.82818  0.53813  1.0000
  C   C1472     1.0  0.45910  0.83748  0.55335  1.0000
  C   C1473     1.0  0.38628  0.75760  0.35395  1.0000
  P   P52       1.0  0.45207  0.85026  0.56165  1.0000
  C   C1474     1.0  0.43539  0.84552  0.56933  1.0000
  C   C1475     1.0  0.42701  0.84218  0.60767  1.0000
  C   C1476     1.0  0.41414  0.83853  0.61288  1.0000
  C   C1477     1.0  0.40957  0.83795  0.58007  1.0000
  C   C1478     1.0  0.41785  0.84109  0.54206  1.0000
  C   C1479     1.0  0.43068  0.84515  0.53656  1.0000
  H   H1163     1.0  0.45780  0.98217  0.61205  1.0000
  H   H1164     1.0  0.47086  0.85005  0.95323  1.0000
  C   C1480     1.0  0.37735  0.78873  0.91011  1.0000
  C   C1481     1.0  0.34623  0.79842  0.29263  1.0000
  C   C1482     1.0  0.45097  0.76179  0.06176  1.0000
  C   C1483     1.0  0.38796  0.75387  0.01831  1.0000
  H   H1165     1.0  0.41590  0.81694  0.34486  1.0000
  H   H1166     1.0  0.43032  0.84249  0.63353  1.0000
  H   H1167     1.0  0.40770  0.83618  0.64231  1.0000
  H   H1168     1.0  0.39962  0.83517  0.58387  1.0000
  H   H1169     1.0  0.41429  0.84048  0.51677  1.0000
  H   H1170     1.0  0.43697  0.84793  0.50678  1.0000
  H   H1171     1.0  0.44626  0.75094  0.02260  1.0000
  H   H1172     1.0  0.33585  0.79246  0.20111  1.0000
  C   C1484     1.0  0.38534  0.79286  0.83866  1.0000
  C   C1485     1.0  0.44289  0.88958  0.35901  1.0000
  C   C1486     1.0  0.46676  0.96421  0.78562  1.0000
  C   C1487     1.0  0.41673  0.87201  0.23583  1.0000
  C   C1488     1.0  0.36734  0.82137  0.93666  1.0000
  H   H1173     1.0  0.40642  0.88039  0.87464  1.0000
  H   H1174     1.0  0.46525  0.96277  0.72815  1.0000
  H   H1175     1.0  0.38865  0.78239  0.49827  1.0000
  H   H1176     1.0  0.37081  0.76538  0.15687  1.0000
  C   C1489     1.0  0.45090  0.97404  0.67628  1.0000
  C   C1490     1.0  0.46279  0.83182  0.94824  1.0000
  C   C1491     1.0  0.37817  0.80598  0.29103  1.0000
  C   C1492     1.0  0.41599  0.83027  0.93320  1.0000
  C   C1493     1.0  0.41634  0.89054  0.37297  1.0000
  C   C1494     1.0  0.45516  0.82503  0.93069  1.0000
  C   C1495     1.0  0.43747  0.90481  0.09600  1.0000
  H   H1177     1.0  0.38130  0.84619  0.83310  1.0000
  C   C1496     1.0  0.33688  0.76504  0.51569  1.0000
  H   H1178     1.0  0.40315  0.77721  0.44503  1.0000
  C   C1497     1.0  0.39258  0.88740  0.90842  1.0000
  H   H1179     1.0  0.47235  0.89364  0.42693  1.0000
  C   C1498     1.0  0.45853  0.86391  0.51855  1.0000
  H   H1180     1.0  0.39787  0.89727  0.15940  1.0000
  C   C1499     1.0  0.48584  0.79815  0.46038  1.0000
  C   C1500     1.0  0.46848  0.88536  0.45231  1.0000
  C   C1501     1.0  0.43357  0.76383  0.11120  1.0000
  C   C1502     1.0  0.44643  0.76638  0.09385  1.0000
  C   C1503     1.0  0.33894  0.79394  0.22650  1.0000
  H   H1181     1.0  0.45059  0.89950  0.74639  1.0000
  H   H1182     1.0  0.42525  0.75205  0.98102  1.0000
  H   H1183     1.0  0.40839  0.88904  0.26924  1.0000
  H   H1184     1.0  0.47328  0.97862  0.55801  1.0000
  H   H1185     1.0  0.48351  0.87580  0.62666  1.0000
  H   H1186     1.0  0.43028  0.76743  0.13617  1.0000
  C   C1504     1.0  0.47651  0.82763  0.55210  1.0000
  C   C1505     1.0  0.40389  0.89416  0.24975  1.0000
  C   C1506     1.0  0.34557  0.77300  0.13537  1.0000
  H   H1187     1.0  0.41098  0.87127  0.12434  1.0000
  C   C1507     1.0  0.45645  0.80505  0.31383  1.0000
  C   C1508     1.0  0.45120  0.79251  0.33757  1.0000
  C   C1509     1.0  0.36232  0.82022  0.90507  1.0000
  P   P53       1.0  0.43750  0.78319  0.33065  1.0000
  C   C1510     1.0  0.42706  0.79288  0.31875  1.0000
  C   C1511     1.0  0.44345  0.77682  0.29030  1.0000
  C   C1512     1.0  0.44633  0.78413  0.25050  1.0000
  C   C1513     1.0  0.45148  0.77944  0.21923  1.0000
  C   C1514     1.0  0.45408  0.76756  0.22746  1.0000
  C   C1515     1.0  0.45153  0.76037  0.26700  1.0000
  C   C1516     1.0  0.44630  0.76500  0.29831  1.0000
  C   C1517     1.0  0.41985  0.79052  0.29284  1.0000
  C   C1518     1.0  0.41156  0.79794  0.28480  1.0000
  C   C1519     1.0  0.41023  0.80755  0.30320  1.0000
  C   C1520     1.0  0.41719  0.80975  0.32959  1.0000
  C   C1521     1.0  0.42557  0.80246  0.33729  1.0000
  H   H1188     1.0  0.45193  0.80951  0.29296  1.0000
  P   P54       1.0  0.43237  0.89964  0.35265  1.0000
  H   H1189     1.0  0.44475  0.79353  0.24360  1.0000
  H   H1190     1.0  0.45361  0.78507  0.18854  1.0000
  H   H1191     1.0  0.39795  0.76821  0.29509  1.0000
  P   P55       1.0  0.33358  0.76758  0.25622  1.0000
  C   C1522     1.0  0.35538  0.76262  0.27253  1.0000
  H   H1192     1.0  0.42056  0.78293  0.27908  1.0000
  H   H1193     1.0  0.40603  0.79620  0.26467  1.0000
  H   H1194     1.0  0.40368  0.81317  0.29758  1.0000
  H   H1195     1.0  0.44458  0.82832  0.53143  1.0000
  C   C1523     1.0  0.42857  0.77093  0.37580  1.0000
  H   H1196     1.0  0.42207  0.87855  0.72414  1.0000
  H   H1197     1.0  0.48045  0.96382  0.94295  1.0000
  H   H1198     1.0  0.42731  0.85581  0.96224  1.0000
  C   C1524     1.0  0.32621  0.75678  0.51374  1.0000
  C   C1525     1.0  0.37803  0.79543  0.87144  1.0000
  C   C1526     1.0  0.42116  0.86402  0.77676  1.0000
  H   H1199     1.0  0.45375  0.75126  0.27345  1.0000
  C   C1527     1.0  0.42980  0.75205  0.06433  1.0000
  C   C1528     1.0  0.40833  0.76684  0.92682  1.0000
  C   C1529     1.0  0.46769  0.81190  0.31660  1.0000
  H   H1200     1.0  0.46454  0.76002  0.40106  1.0000
  H   H1201     1.0  0.42875  0.87181  0.37839  1.0000
  C   C1530     1.0  0.40883  0.89119  0.40909  1.0000
  C   C1531     1.0  0.41332  0.75719  0.94448  1.0000
  C   C1532     1.0  0.45699  0.88401  0.47922  1.0000
  H   H1202     1.0  0.37166  0.79072  0.93557  1.0000
  H   H1203     1.0  0.34337  0.81422  0.20355  1.0000
  H   H1204     1.0  0.35318  0.77920  0.11052  1.0000
  C   C1533     1.0  0.39604  0.74819  0.30448  1.0000
  H   H1205     1.0  0.46808  0.95476  0.79469  1.0000
  C   C1534     1.0  0.33670  0.76396  0.12862  1.0000
  S   S214      1.0  0.45325  0.94745  0.49904  1.0000
  S   S215      1.0  0.45384  0.95194  0.98780  1.0000
  H   H1206     1.0  0.47163  0.82166  0.29892  1.0000
  H   H1207     1.0  0.39900  0.79443  0.18389  1.0000
  H   H1208     1.0  0.36345  0.82835  0.84342  1.0000
  C   C1535     1.0  0.38527  0.77496  0.48563  1.0000
  H   H1209     1.0  0.38866  0.77345  0.01489  1.0000
  S   S216      1.0  0.36329  0.78034  0.02484  1.0000
  H   H1210     1.0  0.45188  0.89123  0.47465  1.0000
  H   H1211     1.0  0.40047  0.77426  0.06421  1.0000
  C   C1536     1.0  0.37641  0.75627  0.45109  1.0000
  H   H1212     1.0  0.41263  0.86428  0.92904  1.0000
  H   H1213     1.0  0.47392  0.78918  0.38457  1.0000
  H   H1214     1.0  0.45400  0.77712  0.38090  1.0000
  C   C1537     1.0  0.37819  0.85771  0.20006  1.0000
  H   H1215     1.0  0.40749  0.84570  0.31496  1.0000
  H   H1216     1.0  0.44748  0.84927  0.87357  1.0000
  H   H1217     1.0  0.47341  0.79149  0.26526  1.0000
  H   H1218     1.0  0.42117  0.79001  0.96397  1.0000
  C   C1538     1.0  0.42374  0.77115  0.97617  1.0000
  H   H1219     1.0  0.39090  0.87262  0.82532  1.0000
  H   H1220     1.0  0.42690  0.88838  0.83336  1.0000
  H   H1221     1.0  0.42711  0.88860  0.90263  1.0000
  H   H1222     1.0  0.45723  0.87051  0.82351  1.0000
  C   C1539     1.0  0.41248  0.77960  0.11919  1.0000
  C   C1540     1.0  0.48171  0.96214  0.62543  1.0000
  S   S217      1.0  0.37288  0.79499  0.19357  1.0000
  H   H1223     1.0  0.43429  0.89781  0.43341  1.0000
  C   C1541     1.0  0.40628  0.84734  0.91254  1.0000
  H   H1224     1.0  0.44198  0.77307  0.79958  1.0000
  H   H1225     1.0  0.37740  0.80139  0.32178  1.0000
  H   H1226     1.0  0.44380  0.82612  0.89012  1.0000
  C   C1542     1.0  0.41339  0.85448  0.29427  1.0000
  H   H1227     1.0  0.42838  0.85446  0.32194  1.0000
  C   C1543     1.0  0.41026  0.78936  0.13597  1.0000
  C   C1544     1.0  0.44267  0.75446  0.04751  1.0000
  C   C1545     1.0  0.37665  0.80451  0.22485  1.0000
  C   C1546     1.0  0.43601  0.91153  0.37784  1.0000
  C   C1547     1.0  0.43925  0.91674  0.43769  1.0000
  H   H1228     1.0  0.42724  0.77289  0.86156  1.0000
  H   H1229     1.0  0.43918  0.91371  0.46870  1.0000
  C   C1548     1.0  0.41466  0.85778  0.81671  1.0000
  C   C1549     1.0  0.43339  0.88429  0.84677  1.0000
  C   C1550     1.0  0.43353  0.88441  0.88561  1.0000
  C   C1551     1.0  0.47494  0.87596  0.45811  1.0000
  C   C1552     1.0  0.42358  0.76962  0.83924  1.0000
  C   C1553     1.0  0.42516  0.85940  0.29799  1.0000
  H   H1230     1.0  0.40006  0.85654  0.26132  1.0000
  Fe  Fe110     1.0  0.37784  0.80256  0.12560  1.0000
  H   H1231     1.0  0.37200  0.75555  0.92444  1.0000
  H   H1232     1.0  0.41965  0.78184  0.09117  1.0000
  C   C1554     1.0  0.37589  0.79869  0.26483  1.0000
  H   H1233     1.0  0.48211  0.92639  0.66029  1.0000
  H   H1234     1.0  0.45056  0.86336  0.04560  1.0000
  C   C1555     1.0  0.36083  0.74607  0.18741  1.0000
  H   H1235     1.0  0.48007  0.88404  0.56085  1.0000
  C   C1556     1.0  0.40917  0.86072  0.26343  1.0000
  H   H1236     1.0  0.45542  0.83537  0.63545  1.0000
  C   C1557     1.0  0.46513  0.96879  0.74793  1.0000
  H   H1237     1.0  0.44185  0.87449  0.27380  1.0000
  H   H1238     1.0  0.41565  0.79899  0.12083  1.0000
  C   C1558     1.0  0.47784  0.96843  0.96591  1.0000
  H   H1239     1.0  0.35968  0.77254  0.25796  1.0000
  C   C1559     1.0  0.44977  0.83142  0.90351  1.0000
  H   H1240     1.0  0.45846  0.84066  0.69637  1.0000
  C   C1560     1.0  0.44208  0.87929  0.90256  1.0000
  H   H1241     1.0  0.44209  0.87960  0.93258  1.0000
  H   H1242     1.0  0.44901  0.85706  0.98507  1.0000
  H   H1243     1.0  0.47292  0.91541  0.45166  1.0000
  C   C1561     1.0  0.37273  0.76836  0.49910  1.0000
  C   C1562     1.0  0.36741  0.82920  0.86783  1.0000
  H   H1244     1.0  0.41868  0.91482  0.31044  1.0000
  H   H1245     1.0  0.46767  0.96804  0.84132  1.0000
  C   C1563     1.0  0.44180  0.87908  0.82482  1.0000
  H   H1246     1.0  0.44172  0.87908  0.79468  1.0000
  H   H1247     1.0  0.32236  0.74692  0.41573  1.0000
  C   C1564     1.0  0.41490  0.76122  0.78025  1.0000
  C   C1565     1.0  0.43273  0.87067  0.27081  1.0000
  H   H1248     1.0  0.42926  0.83397  0.96613  1.0000
  H   H1249     1.0  0.32634  0.77463  0.59888  1.0000
  H   H1250     1.0  0.48008  0.76980  0.94103  1.0000
  C   C1566     1.0  0.45633  0.86937  0.01670  1.0000
  S   S218      1.0  0.38320  0.78919  0.09032  1.0000
  C   C1567     1.0  0.40642  0.76078  0.81589  1.0000
  H   H1251     1.0  0.38617  0.77261  0.21715  1.0000
  H   H1252     1.0  0.39450  0.85785  0.10775  1.0000
  H   H1253     1.0  0.40810  0.78659  0.91932  1.0000
  S   S219      1.0  0.35328  0.78808  0.49961  1.0000
  C   C1568     1.0  0.39186  0.90755  0.20097  1.0000
  C   C1569     1.0  0.40200  0.86741  0.14636  1.0000
  C   C1570     1.0  0.45551  0.86580  0.98221  1.0000
  H   H1254     1.0  0.43431  0.76592  0.74691  1.0000
  H   H1255     1.0  0.46138  0.95729  0.56078  1.0000
  H   H1256     1.0  0.46544  0.88332  0.04046  1.0000
  H   H1257     1.0  0.41825  0.85069  0.83336  1.0000
  C   C1571     1.0  0.42770  0.76575  0.77425  1.0000
  C   C1572     1.0  0.38261  0.84054  0.89375  1.0000
  H   H1258     1.0  0.38533  0.86748  0.23838  1.0000
  C   C1573     1.0  0.46465  0.88060  0.01389  1.0000
  C   C1574     1.0  0.47197  0.88838  0.97658  1.0000
  C   C1575     1.0  0.39262  0.85982  0.13653  1.0000
  C   C1576     1.0  0.43854  0.87636  0.37142  1.0000
  H   H1259     1.0  0.44307  0.87235  0.53262  1.0000
  H   H1260     1.0  0.45073  0.89975  0.27876  1.0000
  H   H1261     1.0  0.43040  0.86987  0.15764  1.0000
  H   H1262     1.0  0.43444  0.88579  0.21941  1.0000
  H   H1263     1.0  0.45624  0.87864  0.64813  1.0000
  C   C1577     1.0  0.33252  0.76348  0.97061  1.0000
  C   C1578     1.0  0.45051  0.87417  0.84135  1.0000
  C   C1579     1.0  0.41068  0.76509  0.84554  1.0000
  C   C1580     1.0  0.43203  0.76984  0.80386  1.0000
  C   C1581     1.0  0.47762  0.77524  0.48866  1.0000
  C   C1582     1.0  0.45072  0.87424  0.88036  1.0000
  C   C1583     1.0  0.46319  0.87339  0.94464  1.0000
  C   C1584     1.0  0.32605  0.75685  0.19947  1.0000
  C   C1585     1.0  0.44686  0.86878  0.37614  1.0000
  C   C1586     1.0  0.40541  0.76712  0.13802  1.0000
  H   H1264     1.0  0.44348  0.85860  0.38635  1.0000
  H   H1265     1.0  0.32230  0.75587  0.34235  1.0000
  H   H1266     1.0  0.46586  0.86833  0.37350  1.0000
  S   S220      1.0  0.36563  0.80899  0.08714  1.0000
  C   C1587     1.0  0.46266  0.97062  0.02138  1.0000
  Fe  Fe111     1.0  0.37215  0.79643  0.04901  1.0000
  P   P56       1.0  0.39961  0.76448  0.89148  1.0000
  C   C1588     1.0  0.45952  0.87428  0.36889  1.0000
  C   C1589     1.0  0.46393  0.88741  0.35675  1.0000
  H   H1267     1.0  0.36897  0.85391  0.22091  1.0000
  C   C1590     1.0  0.38391  0.77940  0.91608  1.0000
  H   H1268     1.0  0.43938  0.91451  0.07799  1.0000
  H   H1269     1.0  0.47256  0.89367  0.84264  1.0000
  H   H1270     1.0  0.35444  0.81241  0.90956  1.0000
  C   C1591     1.0  0.45564  0.89505  0.35202  1.0000
  H   H1271     1.0  0.38318  0.77427  0.94635  1.0000
  H   H1272     1.0  0.47374  0.89161  0.35166  1.0000
  H   H1273     1.0  0.36203  0.75828  0.36682  1.0000
  H   H1274     1.0  0.45915  0.90523  0.34307  1.0000
  C   C1592     1.0  0.39188  0.87531  0.40511  1.0000
  H   H1275     1.0  0.39104  0.88375  0.45364  1.0000
  H   H1276     1.0  0.38262  0.86904  0.41852  1.0000
  C   C1593     1.0  0.39664  0.88360  0.42497  1.0000
  H   H1277     1.0  0.45885  0.86231  0.70297  1.0000
  C   C1594     1.0  0.38075  0.85491  0.16340  1.0000
  H   H1278     1.0  0.47287  0.96373  0.62181  1.0000
  C   C1595     1.0  0.44203  0.92960  0.41809  1.0000
  C   C1596     1.0  0.39343  0.77208  0.45548  1.0000
  H   H1279     1.0  0.37352  0.84901  0.15564  1.0000
  H   H1280     1.0  0.43849  0.92165  0.18733  1.0000
  C   C1597     1.0  0.41132  0.77876  0.93370  1.0000
  P   P57       1.0  0.46255  0.86855  0.90019  1.0000
  H   H1281     1.0  0.44426  0.93654  0.43391  1.0000
  H   H1282     1.0  0.37019  0.76316  0.08995  1.0000
  C   C1598     1.0  0.46897  0.79363  0.36503  1.0000
  C   C1599     1.0  0.41138  0.88236  0.35277  1.0000
  C   C1600     1.0  0.42767  0.91894  0.24773  1.0000
  C   C1601     1.0  0.39130  0.77673  0.88329  1.0000
  C   C1602     1.0  0.44188  0.93348  0.37829  1.0000
  C   C1603     1.0  0.43455  0.90666  0.30009  1.0000
  C   C1604     1.0  0.41356  0.85484  0.92954  1.0000
  C   C1605     1.0  0.43888  0.92450  0.35815  1.0000
  C   C1606     1.0  0.42623  0.91354  0.28825  1.0000
  C   C1607     1.0  0.44422  0.90508  0.27072  1.0000
  C   C1608     1.0  0.37753  0.83932  0.86210  1.0000
  C   C1609     1.0  0.39960  0.87009  0.18353  1.0000
  P   P58       1.0  0.41139  0.88046  0.19612  1.0000
  C   C1610     1.0  0.43734  0.91739  0.21873  1.0000
  H   H1283     1.0  0.41707  0.88158  0.32525  1.0000
  H   H1284     1.0  0.43384  0.98665  0.70617  1.0000
  C   C1611     1.0  0.46303  0.96198  0.49793  1.0000
  H   H1285     1.0  0.41233  0.89725  0.42577  1.0000
  C   C1612     1.0  0.38754  0.86531  0.21000  1.0000
  C   C1613     1.0  0.44561  0.91047  0.23023  1.0000
  C   C1614     1.0  0.33895  0.78368  0.25740  1.0000
  H   H1286     1.0  0.43892  0.92777  0.32734  1.0000
  H   H1287     1.0  0.39558  0.86807  0.35409  1.0000
  H   H1288     1.0  0.37230  0.85292  0.94612  1.0000
  H   H1289     1.0  0.44407  0.94348  0.36317  1.0000
  H   H1290     1.0  0.48562  0.82759  0.55639  1.0000
  C   C1615     1.0  0.46496  0.84497  0.93905  1.0000
  H   H1291     1.0  0.42991  0.77291  0.99448  1.0000
  C   C1616     1.0  0.45193  0.84460  0.89414  1.0000
  C   C1617     1.0  0.46524  0.96452  0.53258  1.0000
  C   C1618     1.0  0.39923  0.87472  0.36892  1.0000
  H   H1292     1.0  0.45823  0.76401  0.20318  1.0000
  C   C1619     1.0  0.42298  0.83774  0.95075  1.0000
  C   C1620     1.0  0.37805  0.86249  0.93485  1.0000
  C   C1621     1.0  0.38064  0.88445  0.93468  1.0000
  C   C1622     1.0  0.42481  0.88740  0.15318  1.0000
  H   H1293     1.0  0.34907  0.80018  0.31824  1.0000
  C   C1623     1.0  0.44391  0.96484  0.62728  1.0000
  H   H1294     1.0  0.45334  0.96769  0.04151  1.0000
  C   C1624     1.0  0.47207  0.97658  0.53090  1.0000
  H   H1295     1.0  0.45316  0.90937  0.20766  1.0000
  H   H1296     1.0  0.47897  0.76610  0.50183  1.0000
  H   H1297     1.0  0.47518  0.85816  0.49490  1.0000
  H   H1298     1.0  0.38679  0.91614  0.24836  1.0000
  H   H1299     1.0  0.41158  0.75792  0.75739  1.0000
  C   C1625     1.0  0.41887  0.78083  0.95866  1.0000
  C   C1626     1.0  0.48648  0.76796  0.30200  1.0000
  H   H1300     1.0  0.38287  0.75360  0.99621  1.0000
  H   H1301     1.0  0.38456  0.76601  0.36205  1.0000
  H   H1302     1.0  0.39826  0.89703  0.89840  1.0000
  C   C1627     1.0  0.44218  0.88433  0.10581  1.0000
  C   C1628     1.0  0.42751  0.90010  0.13085  1.0000
  C   C1629     1.0  0.43554  0.95480  0.65790  1.0000
  C   C1630     1.0  0.43239  0.87967  0.14084  1.0000
  C   C1631     1.0  0.44222  0.96406  0.70691  1.0000
  C   C1632     1.0  0.41691  0.87346  0.75484  1.0000
  C   C1633     1.0  0.42189  0.85005  0.94849  1.0000
  H   H1303     1.0  0.47899  0.90278  0.50724  1.0000
  H   H1304     1.0  0.36339  0.81443  0.96560  1.0000
  C   C1634     1.0  0.47130  0.88480  0.94209  1.0000
  C   C1635     1.0  0.39798  0.89884  0.18813  1.0000
  C   C1636     1.0  0.35128  0.77414  0.00397  1.0000
  C   C1637     1.0  0.45474  0.86638  0.61014  1.0000
  C   C1638     1.0  0.47727  0.98609  0.49446  1.0000
  C   C1639     1.0  0.39761  0.90274  0.26274  1.0000
  C   C1640     1.0  0.42146  0.75954  0.37371  1.0000
  C   C1641     1.0  0.48164  0.87154  0.11394  1.0000
  C   C1642     1.0  0.45152  0.97445  0.63635  1.0000
  H   H1305     1.0  0.46659  0.96966  0.43443  1.0000
  H   H1306     1.0  0.43336  0.78162  0.41609  1.0000
  H   H1307     1.0  0.36427  0.86964  0.96914  1.0000
  C   C1643     1.0  0.43460  0.95450  0.69767  1.0000
  H   H1308     1.0  0.33743  0.76329  0.09844  1.0000
  H   H1309     1.0  0.47537  0.81127  0.52961  1.0000
  H   H1310     1.0  0.39730  0.90412  0.29192  1.0000
  H   H1311     1.0  0.39654  0.75714  0.82029  1.0000
  H   H1312     1.0  0.42132  0.92439  0.23875  1.0000
  H   H1313     1.0  0.47698  0.92892  0.56803  1.0000
  H   H1314     1.0  0.46093  0.76400  0.04757  1.0000
  C   C1644     1.0  0.46569  0.96439  0.99169  1.0000
  H   H1315     1.0  0.42975  0.94727  0.65085  1.0000
  C   C1645     1.0  0.39786  0.76544  0.05717  1.0000
  H   H1316     1.0  0.41679  0.82067  0.93546  1.0000
  C   C1646     1.0  0.37341  0.87199  0.94804  1.0000
  C   C1647     1.0  0.40412  0.89215  0.21230  1.0000
  H   H1317     1.0  0.40279  0.88387  0.75539  1.0000
  H   H1318     1.0  0.39022  0.75514  0.18873  1.0000
  C   C1648     1.0  0.45908  0.90676  0.73982  1.0000
  H   H1319     1.0  0.42189  0.90634  0.13954  1.0000
  C   C1649     1.0  0.39197  0.78357  0.84448  1.0000
  C   C1650     1.0  0.46302  0.98844  0.76295  1.0000
  H   H1320     1.0  0.35007  0.81817  0.26195  1.0000
  C   C1651     1.0  0.47779  0.77740  0.95291  1.0000
  C   C1652     1.0  0.39123  0.76503  0.02880  1.0000
  C   C1653     1.0  0.47821  0.88288  0.11380  1.0000
  C   C1654     1.0  0.48567  0.92725  0.57238  1.0000
  H   H1321     1.0  0.35847  0.75429  0.49219  1.0000
  C   C1655     1.0  0.45747  0.84785  0.67224  1.0000
  C   C1656     1.0  0.34215  0.75328  0.38729  1.0000
  C   C1657     1.0  0.48030  0.92672  0.72175  1.0000
  H   H1322     1.0  0.37218  0.75881  0.28536  1.0000
  C   C1658     1.0  0.47752  0.77493  0.29842  1.0000
  C   C1659     1.0  0.36610  0.75510  0.11603  1.0000
  H   H1323     1.0  0.46357  0.90896  0.67647  1.0000
  C   C1660     1.0  0.45616  0.86922  0.64517  1.0000
  C   C1661     1.0  0.39596  0.76460  0.17378  1.0000
  C   C1662     1.0  0.34484  0.75600  0.62930  1.0000
  C   C1663     1.0  0.46474  0.98384  0.80052  1.0000
  C   C1664     1.0  0.48362  0.98481  0.99918  1.0000
  C   C1665     1.0  0.47001  0.86529  0.49113  1.0000
  C   C1666     1.0  0.46308  0.98090  0.73645  1.0000
  C   C1667     1.0  0.34276  0.75760  0.27633  1.0000
  H   H1324     1.0  0.48574  0.98280  0.68312  1.0000
  H   H1325     1.0  0.42360  0.74650  0.05233  1.0000
  H   H1326     1.0  0.47929  0.99065  0.43134  1.0000
  C   C1668     1.0  0.48205  0.95350  0.65986  1.0000
  H   H1327     1.0  0.46894  0.98526  0.04823  1.0000
  H   H1328     1.0  0.35377  0.75684  0.63574  1.0000
  H   H1329     1.0  0.47716  0.89101  0.91367  1.0000
  S   S221      1.0  0.44001  0.74705  0.88990  1.0000
  C   C1669     1.0  0.39387  0.75890  0.31587  1.0000
  C   C1670     1.0  0.48628  0.87787  0.56401  1.0000
  H   H1330     1.0  0.40186  0.74916  0.27492  1.0000
  C   C1671     1.0  0.41513  0.74979  0.40858  1.0000
  C   C1672     1.0  0.46630  0.74747  0.36318  1.0000
  H   H1331     1.0  0.32280  0.74740  0.53421  1.0000
  H   H1332     1.0  0.38208  0.74951  0.54283  1.0000
  C   C1673     1.0  0.41564  0.75143  0.44580  1.0000
  H   H1333     1.0  0.44212  0.75098  0.43229  1.0000
  P   P59       1.0  0.48295  0.75362  0.34232  1.0000
  C   C1674     1.0  0.48034  0.78612  0.26763  1.0000
  C   C1675     1.0  0.48537  0.74844  0.41981  1.0000
  H   H1334     1.0  0.48686  0.94136  0.92192  1.0000
  C   C1676     1.0  0.48565  0.91104  0.48593  1.0000
  C   C1677     1.0  0.48677  0.91492  0.58637  1.0000
  H   H1335     1.0  0.48538  0.85987  0.87590  1.0000
  C   C1678     1.0  0.48668  0.86931  0.85709  1.0000
  Fe  Fe112     1.0  0.58860  0.13222  0.53381  1.0000
  S   S222      1.0  0.57347  0.11500  0.57082  1.0000
  S   S223      1.0  0.60852  0.13095  0.51609  1.0000
  Fe  Fe113     1.0  0.57067  0.14832  0.52003  1.0000
  S   S224      1.0  0.55383  0.13215  0.55535  1.0000
  S   S225      1.0  0.56954  0.16803  0.48807  1.0000
  Fe  Fe114     1.0  0.56514  0.12853  0.59965  1.0000
  S   S226      1.0  0.55629  0.12332  0.66717  1.0000
  Fe  Fe115     1.0  0.56337  0.11952  0.52406  1.0000
  S   S227      1.0  0.55839  0.10441  0.49125  1.0000
  S   S228      1.0  0.58119  0.14541  0.56615  1.0000
  S   S229      1.0  0.57923  0.13617  0.48547  1.0000
  Fe  Fe116     1.0  0.51546  0.04487  0.43787  1.0000
  S   S230      1.0  0.52864  0.04533  0.38000  1.0000
  S   S231      1.0  0.51688  0.05959  0.47392  1.0000
  Fe  Fe117     1.0  0.49982  0.01769  0.44593  1.0000
  S   S232      1.0  0.51230  0.01643  0.38913  1.0000
  C   C1679     1.0  0.57177  0.00303  0.54519  1.0000
  Fe  Fe118     1.0  0.52788  0.02532  0.41041  1.0000
  S   S233      1.0  0.54502  0.01823  0.41024  1.0000
  Fe  Fe119     1.0  0.51184  0.03652  0.36284  1.0000
  S   S234      1.0  0.51337  0.04465  0.29661  1.0000
  S   S235      1.0  0.51572  0.02515  0.46882  1.0000
  S   S236      1.0  0.49834  0.03754  0.41888  1.0000
  Fe  Fe120     1.0  0.63000  0.06986  0.41537  1.0000
  S   S237      1.0  0.61759  0.07553  0.37725  1.0000
  Fe  Fe121     1.0  0.62392  0.06277  0.34077  1.0000
  H   H1336     1.0  0.54339  0.04155  0.85169  1.0000
  Fe  Fe122     1.0  0.60312  0.05839  0.41685  1.0000
  S   S238      1.0  0.58371  0.05944  0.44427  1.0000
  S   S239      1.0  0.61481  0.05328  0.45723  1.0000
  Fe  Fe123     1.0  0.50153  0.02192  0.11043  1.0000
  S   S240      1.0  0.49468  0.02780  0.05561  1.0000
  C   C1680     1.0  0.63818  0.23041  0.30514  1.0000
  Fe  Fe124     1.0  0.52570  0.01944  0.06180  1.0000
  S   S241      1.0  0.52089  0.02480  0.00434  1.0000
  S   S242      1.0  0.54397  0.01477  0.06370  1.0000
  Fe  Fe125     1.0  0.51440  0.04028  0.02715  1.0000
  S   S243      1.0  0.52233  0.05977  0.98081  1.0000
  Fe  Fe126     1.0  0.50176  0.01177  0.03646  1.0000
  H   H1337     1.0  0.59891  0.02600  0.50830  1.0000
  S   S244      1.0  0.52026  0.03544  0.08325  1.0000
  S   S245      1.0  0.50739  0.00537  0.09283  1.0000
  Fe  Fe127     1.0  0.63337  0.06276  0.99815  1.0000
  S   S246      1.0  0.62145  0.06505  0.05402  1.0000
  Fe  Fe128     1.0  0.60562  0.05467  0.03673  1.0000
  S   S247      1.0  0.58839  0.06173  0.03634  1.0000
  Fe  Fe129     1.0  0.62275  0.04556  0.08365  1.0000
  S   S248      1.0  0.61724  0.05377  0.97867  1.0000
  Fe  Fe130     1.0  0.59006  0.14014  0.91394  1.0000
  S   S249      1.0  0.59024  0.15796  0.87041  1.0000
  S   S250      1.0  0.60696  0.13445  0.92730  1.0000
  Fe  Fe131     1.0  0.56177  0.13095  0.94066  1.0000
  S   S251      1.0  0.55975  0.14862  0.89947  1.0000
  S   S252      1.0  0.54641  0.11519  0.98917  1.0000
  Fe  Fe132     1.0  0.57539  0.14568  0.85325  1.0000
  S   S253      1.0  0.57971  0.14859  0.78554  1.0000
  Fe  Fe133     1.0  0.57493  0.15955  0.91963  1.0000
  S   S254      1.0  0.57440  0.17842  0.93461  1.0000
  S   S255      1.0  0.57658  0.12765  0.89343  1.0000
  S   S256      1.0  0.57556  0.14219  0.96414  1.0000
  Fe  Fe134     1.0  0.61194  0.23231  0.02008  1.0000
  S   S257      1.0  0.61081  0.21351  0.00310  1.0000
  S   S258      1.0  0.62156  0.23413  0.06817  1.0000
  C   C1681     1.0  0.50021  0.08541  0.03055  1.0000
  H   H1338     1.0  0.63690  0.08194  0.55364  1.0000
  S   S259      1.0  0.61102  0.21801  0.46476  1.0000
  H   H1339     1.0  0.57573  0.01937  0.94089  1.0000
  C   C1682     1.0  0.60062  0.20404  0.98341  1.0000
  C   C1683     1.0  0.60347  0.19298  0.97541  1.0000
  C   C1684     1.0  0.59559  0.18501  0.96079  1.0000
  C   C1685     1.0  0.58468  0.18797  0.95381  1.0000
  C   C1686     1.0  0.58178  0.19897  0.96211  1.0000
  C   C1687     1.0  0.58965  0.20694  0.97680  1.0000
  H   H1340     1.0  0.61189  0.19056  0.98045  1.0000
  H   H1341     1.0  0.59802  0.17663  0.95460  1.0000
  H   H1342     1.0  0.57339  0.20140  0.95690  1.0000
  H   H1343     1.0  0.58723  0.21533  0.98291  1.0000
  C   C1688     1.0  0.52998  0.07468  0.98468  1.0000
  C   C1689     1.0  0.52818  0.07778  0.02098  1.0000
  C   C1690     1.0  0.53319  0.09020  0.02179  1.0000
  C   C1691     1.0  0.54048  0.09958  0.98661  1.0000
  C   C1692     1.0  0.54263  0.09636  0.95055  1.0000
  C   C1693     1.0  0.53727  0.08406  0.94958  1.0000
  H   H1344     1.0  0.52241  0.07076  0.04810  1.0000
  H   H1345     1.0  0.53133  0.09257  0.04979  1.0000
  H   H1346     1.0  0.54816  0.10344  0.92323  1.0000
  H   H1347     1.0  0.53866  0.08185  0.92128  1.0000
  C   C1694     1.0  0.55623  0.02806  0.05438  1.0000
  C   C1695     1.0  0.55416  0.04015  0.05066  1.0000
  C   C1696     1.0  0.56403  0.05052  0.04517  1.0000
  C   C1697     1.0  0.57610  0.04893  0.04133  1.0000
  C   C1698     1.0  0.57829  0.03703  0.04209  1.0000
  C   C1699     1.0  0.56835  0.02653  0.04997  1.0000
  H   H1348     1.0  0.54503  0.04159  0.05180  1.0000
  H   H1349     1.0  0.56229  0.05974  0.04388  1.0000
  H   H1350     1.0  0.58763  0.03587  0.03584  1.0000
  H   H1351     1.0  0.57010  0.01729  0.05145  1.0000
  C   C1700     1.0  0.62731  0.04925  0.24719  1.0000
  S   S260      1.0  0.63744  0.05796  0.37625  1.0000
  C   C1701     1.0  0.54724  0.99983  0.22749  1.0000
  H   H1352     1.0  0.62883  0.04492  0.27536  1.0000
  C   C1702     1.0  0.62579  0.06157  0.23928  1.0000
  C   C1703     1.0  0.62350  0.06027  0.17366  1.0000
  H   H1353     1.0  0.61428  0.00187  0.54423  1.0000
  H   H1354     1.0  0.58159  0.05609  0.60910  1.0000
  C   C1704     1.0  0.62723  0.04260  0.21815  1.0000
  C   C1705     1.0  0.50804  0.03649  0.26394  1.0000
  C   C1706     1.0  0.51323  0.04165  0.22243  1.0000
  C   C1707     1.0  0.50865  0.03606  0.19536  1.0000
  C   C1708     1.0  0.49871  0.02528  0.20943  1.0000
  C   C1709     1.0  0.49809  0.00348  0.59078  1.0000
  C   C1710     1.0  0.49836  0.02548  0.27806  1.0000
  H   H1355     1.0  0.52071  0.05016  0.21103  1.0000
  C   C1711     1.0  0.63935  0.16594  0.92361  1.0000
  C   C1712     1.0  0.56318  0.01058  0.54448  1.0000
  C   C1713     1.0  0.59759  0.01080  0.43649  1.0000
  C   C1714     1.0  0.55549  0.02920  0.42252  1.0000
  C   C1715     1.0  0.55204  0.03970  0.43239  1.0000
  C   C1716     1.0  0.56056  0.04865  0.44103  1.0000
  C   C1717     1.0  0.57269  0.04736  0.43848  1.0000
  C   C1718     1.0  0.57597  0.03661  0.43028  1.0000
  C   C1719     1.0  0.56735  0.02748  0.42256  1.0000
  H   H1356     1.0  0.54276  0.04087  0.43402  1.0000
  H   H1357     1.0  0.55792  0.05682  0.44820  1.0000
  H   H1358     1.0  0.58506  0.03521  0.43065  1.0000
  H   H1359     1.0  0.56993  0.01921  0.41609  1.0000
  C   C1720     1.0  0.58146  0.18179  0.48011  1.0000
  C   C1721     1.0  0.58030  0.19361  0.45966  1.0000
  C   C1722     1.0  0.58946  0.20476  0.45359  1.0000
  C   C1723     1.0  0.59982  0.20420  0.46822  1.0000
  C   C1724     1.0  0.60109  0.19236  0.48800  1.0000
  C   C1725     1.0  0.59197  0.18121  0.49397  1.0000
  H   H1360     1.0  0.57223  0.19415  0.44875  1.0000
  H   H1361     1.0  0.58839  0.21380  0.43838  1.0000
  H   H1362     1.0  0.60909  0.19181  0.49933  1.0000
  H   H1363     1.0  0.59303  0.17219  0.50952  1.0000
  C   C1726     1.0  0.57307  0.14027  0.75537  1.0000
  C   C1727     1.0  0.56042  0.13407  0.76608  1.0000
  C   C1728     1.0  0.55544  0.12877  0.73901  1.0000
  C   C1729     1.0  0.56298  0.12981  0.70076  1.0000
  C   C1730     1.0  0.57566  0.13576  0.69047  1.0000
  C   C1731     1.0  0.58066  0.14076  0.71787  1.0000
  H   H1364     1.0  0.55441  0.13361  0.79477  1.0000
  H   H1365     1.0  0.54563  0.12408  0.74741  1.0000
  H   H1366     1.0  0.58163  0.13650  0.66142  1.0000
  H   H1367     1.0  0.59048  0.14521  0.70965  1.0000
  C   C1732     1.0  0.54677  0.09168  0.48791  1.0000
  C   C1733     1.0  0.55007  0.08499  0.45976  1.0000
  C   C1734     1.0  0.54117  0.07514  0.45515  1.0000
  C   C1735     1.0  0.52876  0.07176  0.47875  1.0000
  C   C1736     1.0  0.52551  0.07834  0.50722  1.0000
  C   C1737     1.0  0.53440  0.08818  0.51183  1.0000
  H   H1368     1.0  0.55959  0.08748  0.44116  1.0000
  H   H1369     1.0  0.54389  0.07028  0.43301  1.0000
  H   H1370     1.0  0.51598  0.07589  0.52571  1.0000
  H   H1371     1.0  0.53162  0.09315  0.53361  1.0000
  H   H1372     1.0  0.65109  0.04997  0.12956  1.0000
  C   C1738     1.0  0.54800  0.21852  0.69210  1.0000
  C   C1739     1.0  0.53050  0.03282  0.53821  1.0000
  S   S261      1.0  0.60824  0.04608  0.37763  1.0000
  C   C1740     1.0  0.60426  0.15580  0.01317  1.0000
  C   C1741     1.0  0.61491  0.16284  0.01865  1.0000
  C   C1742     1.0  0.61373  0.16925  0.04795  1.0000
  C   C1743     1.0  0.60190  0.16857  0.07187  1.0000
  C   C1744     1.0  0.58303  0.19748  0.09836  1.0000
  C   C1745     1.0  0.58234  0.18641  0.08637  1.0000
  H   H1373     1.0  0.60510  0.15084  0.99052  1.0000
  H   H1374     1.0  0.62407  0.16341  0.00002  1.0000
  H   H1375     1.0  0.62199  0.17485  0.05175  1.0000
  H   H1376     1.0  0.60121  0.17352  0.09464  1.0000
  H   H1377     1.0  0.57812  0.20550  0.14718  1.0000
  H   H1378     1.0  0.58787  0.20654  0.07672  1.0000
  H   H1379     1.0  0.58666  0.18707  0.05552  1.0000
  C   C1746     1.0  0.56901  0.10584  0.82070  1.0000
  C   C1747     1.0  0.56974  0.10105  0.78771  1.0000
  C   C1748     1.0  0.57324  0.08969  0.78858  1.0000
  C   C1749     1.0  0.57612  0.08320  0.82229  1.0000
  C   C1750     1.0  0.57568  0.08812  0.85518  1.0000
  C   C1751     1.0  0.57188  0.09938  0.85434  1.0000
  P   P60       1.0  0.57972  0.07981  0.89821  1.0000
  C   C1752     1.0  0.57041  0.06373  0.91568  1.0000
  C   C1753     1.0  0.59626  0.08054  0.88732  1.0000
  C   C1754     1.0  0.60187  0.07885  0.91869  1.0000
  C   C1755     1.0  0.61474  0.08004  0.91070  1.0000
  C   C1756     1.0  0.62210  0.08269  0.87155  1.0000
  C   C1757     1.0  0.61661  0.08425  0.84016  1.0000
  C   C1758     1.0  0.60377  0.08329  0.84790  1.0000
  C   C1759     1.0  0.57467  0.05417  0.93726  1.0000
  C   C1760     1.0  0.56704  0.04193  0.95344  1.0000
  C   C1761     1.0  0.55050  0.04873  0.92919  1.0000
  C   C1762     1.0  0.55821  0.06095  0.91201  1.0000
  C   C1763     1.0  0.57613  0.08701  0.93818  1.0000
  C   C1764     1.0  0.56606  0.08096  0.97237  1.0000
  C   C1765     1.0  0.56327  0.08689  0.00241  1.0000
  C   C1766     1.0  0.57028  0.09897  0.99805  1.0000
  C   C1767     1.0  0.58050  0.10485  0.96484  1.0000
  C   C1768     1.0  0.58349  0.09890  0.93501  1.0000
  H   H1380     1.0  0.56611  0.11455  0.82041  1.0000
  H   H1381     1.0  0.56742  0.10609  0.76177  1.0000
  H   H1382     1.0  0.57361  0.08590  0.76321  1.0000
  H   H1383     1.0  0.57869  0.07435  0.82293  1.0000
  H   H1384     1.0  0.57090  0.10315  0.87974  1.0000
  H   H1385     1.0  0.59635  0.07676  0.94941  1.0000
  H   H1386     1.0  0.61908  0.07915  0.93490  1.0000
  H   H1387     1.0  0.63206  0.08360  0.86573  1.0000
  H   H1388     1.0  0.62237  0.08633  0.80979  1.0000
  H   H1389     1.0  0.59984  0.08482  0.82301  1.0000
  H   H1390     1.0  0.58371  0.05615  0.94279  1.0000
  H   H1391     1.0  0.55441  0.06831  0.89760  1.0000
  H   H1392     1.0  0.56018  0.07178  0.97597  1.0000
  H   H1393     1.0  0.55540  0.08225  0.02840  1.0000
  H   H1394     1.0  0.56776  0.10390  0.02003  1.0000
  H   H1395     1.0  0.58594  0.11418  0.96185  1.0000
  H   H1396     1.0  0.59128  0.10377  0.90892  1.0000
  C   C1769     1.0  0.55650  0.16350  0.66698  1.0000
  H   H1397     1.0  0.55219  0.14767  0.64349  1.0000
  C   C1770     1.0  0.59729  0.16743  0.41084  1.0000
  C   C1771     1.0  0.60802  0.16311  0.40094  1.0000
  C   C1772     1.0  0.56495  0.18407  0.61789  1.0000
  C   C1773     1.0  0.61612  0.18062  0.34084  1.0000
  C   C1774     1.0  0.60521  0.18488  0.35030  1.0000
  C   C1775     1.0  0.59586  0.17826  0.38581  1.0000
  P   P61       1.0  0.60379  0.19912  0.31773  1.0000
  C   C1776     1.0  0.59010  0.20397  0.33933  1.0000
  C   C1777     1.0  0.61750  0.21120  0.31180  1.0000
  C   C1778     1.0  0.61085  0.20367  0.62078  1.0000
  H   H1398     1.0  0.55304  0.02485  0.87785  1.0000
  C   C1779     1.0  0.54950  0.20174  0.66020  1.0000
  C   C1780     1.0  0.59206  0.06916  0.32284  1.0000
  C   C1781     1.0  0.62363  0.22025  0.27497  1.0000
  C   C1782     1.0  0.57821  0.19640  0.34465  1.0000
  C   C1783     1.0  0.56751  0.20004  0.36104  1.0000
  C   C1784     1.0  0.56861  0.21139  0.37152  1.0000
  C   C1785     1.0  0.58041  0.21910  0.36561  1.0000
  C   C1786     1.0  0.59114  0.21541  0.34969  1.0000
  C   C1787     1.0  0.60239  0.19694  0.27023  1.0000
  C   C1788     1.0  0.60436  0.18604  0.25925  1.0000
  C   C1789     1.0  0.60347  0.18471  0.22197  1.0000
  C   C1790     1.0  0.60057  0.19419  0.19550  1.0000
  C   C1791     1.0  0.59834  0.20492  0.20654  1.0000
  C   C1792     1.0  0.59914  0.20625  0.24384  1.0000
  H   H1399     1.0  0.59004  0.16240  0.43819  1.0000
  H   H1400     1.0  0.61608  0.20358  0.55892  1.0000
  C   C1793     1.0  0.63426  0.00662  0.52560  1.0000
  C   C1794     1.0  0.58092  0.00829  0.20516  1.0000
  H   H1401     1.0  0.58749  0.18140  0.39486  1.0000
  H   H1402     1.0  0.61698  0.20528  0.37430  1.0000
  H   H1403     1.0  0.49420  0.02144  0.30986  1.0000
  C   C1795     1.0  0.56127  0.21356  0.50441  1.0000
  H   H1404     1.0  0.54501  0.19306  0.65535  1.0000
  H   H1405     1.0  0.62034  0.22025  0.24892  1.0000
  H   H1406     1.0  0.57721  0.18759  0.33661  1.0000
  H   H1407     1.0  0.55836  0.19402  0.36583  1.0000
  H   H1408     1.0  0.56032  0.21418  0.38430  1.0000
  H   H1409     1.0  0.58128  0.22790  0.37365  1.0000
  H   H1410     1.0  0.60014  0.22156  0.34560  1.0000
  H   H1411     1.0  0.60649  0.17851  0.27929  1.0000
  H   H1412     1.0  0.60505  0.17632  0.21356  1.0000
  H   H1413     1.0  0.60002  0.19324  0.16642  1.0000
  H   H1414     1.0  0.59607  0.21229  0.18607  1.0000
  H   H1415     1.0  0.59737  0.21464  0.25186  1.0000
  C   C1796     1.0  0.55358  0.05265  0.14290  1.0000
  C   C1797     1.0  0.54290  0.05062  0.12976  1.0000
  C   C1798     1.0  0.53803  0.06077  0.11593  1.0000
  C   C1799     1.0  0.54364  0.07292  0.11609  1.0000
  C   C1800     1.0  0.55408  0.07499  0.13080  1.0000
  C   C1801     1.0  0.55915  0.06479  0.14344  1.0000
  P   P62       1.0  0.56103  0.09049  0.13381  1.0000
  C   C1802     1.0  0.57479  0.09815  0.09240  1.0000
  C   C1803     1.0  0.54976  0.10001  0.13431  1.0000
  C   C1804     1.0  0.54345  0.10206  0.17000  1.0000
  C   C1805     1.0  0.53755  0.11171  0.09938  1.0000
  C   C1806     1.0  0.54681  0.10504  0.09894  1.0000
  C   C1807     1.0  0.57871  0.11142  0.07917  1.0000
  C   C1808     1.0  0.58961  0.11739  0.04805  1.0000
  C   C1809     1.0  0.59677  0.11020  0.03040  1.0000
  C   C1810     1.0  0.59299  0.09701  0.04361  1.0000
  C   C1811     1.0  0.58203  0.09099  0.07440  1.0000
  C   C1812     1.0  0.56546  0.08845  0.17978  1.0000
  C   C1813     1.0  0.57686  0.09558  0.18091  1.0000
  C   C1814     1.0  0.58006  0.09413  0.21684  1.0000
  C   C1815     1.0  0.57190  0.08565  0.25186  1.0000
  C   C1816     1.0  0.56059  0.07842  0.25095  1.0000
  C   C1817     1.0  0.55740  0.07975  0.21502  1.0000
  H   H1416     1.0  0.55759  0.04483  0.15228  1.0000
  H   H1417     1.0  0.53855  0.04122  0.12936  1.0000
  H   H1418     1.0  0.52992  0.05920  0.10480  1.0000
  H   H1419     1.0  0.53972  0.08056  0.10476  1.0000
  H   H1420     1.0  0.56742  0.06622  0.15369  1.0000
  H   H1421     1.0  0.54542  0.09832  0.19785  1.0000
  H   H1422     1.0  0.55138  0.10351  0.07110  1.0000
  H   H1423     1.0  0.57336  0.11716  0.09277  1.0000
  H   H1424     1.0  0.59251  0.12760  0.03721  1.0000
  H   H1425     1.0  0.60512  0.11491  0.00591  1.0000
  H   H1426     1.0  0.59839  0.09137  0.02949  1.0000
  H   H1427     1.0  0.57923  0.08077  0.08348  1.0000
  H   H1428     1.0  0.58332  0.10226  0.15422  1.0000
  H   H1429     1.0  0.58890  0.09956  0.21764  1.0000
  H   H1430     1.0  0.57437  0.08467  0.27968  1.0000
  H   H1431     1.0  0.55426  0.07181  0.27815  1.0000
  H   H1432     1.0  0.54857  0.07410  0.21490  1.0000
  H   H1433     1.0  0.64903  0.22793  0.41288  1.0000
  H   H1434     1.0  0.59826  0.05567  0.54314  1.0000
  C   C1818     1.0  0.59244  0.15526  0.03650  1.0000
  C   C1819     1.0  0.57147  0.18516  0.16574  1.0000
  H   H1435     1.0  0.52928  0.11020  0.19795  1.0000
  C   C1820     1.0  0.55529  0.04303  0.24613  1.0000
  C   C1821     1.0  0.54266  0.03759  0.25253  1.0000
  C   C1822     1.0  0.53643  0.02705  0.28495  1.0000
  C   C1823     1.0  0.54287  0.02195  0.31091  1.0000
  C   C1824     1.0  0.55562  0.02714  0.30396  1.0000
  H   H1436     1.0  0.53755  0.04175  0.23316  1.0000
  H   H1437     1.0  0.52653  0.02311  0.29064  1.0000
  H   H1438     1.0  0.53791  0.01420  0.33721  1.0000
  H   H1439     1.0  0.56031  0.02314  0.32496  1.0000
  C   C1825     1.0  0.62777  0.06373  0.55048  1.0000
  C   C1826     1.0  0.61681  0.05633  0.54796  1.0000
  H   H1440     1.0  0.63603  0.06011  0.54894  1.0000
  H   H1441     1.0  0.61662  0.04699  0.54422  1.0000
  C   C1827     1.0  0.62521  0.17026  0.80231  1.0000
  C   C1828     1.0  0.61840  0.17890  0.81157  1.0000
  C   C1829     1.0  0.61359  0.18549  0.78308  1.0000
  C   C1830     1.0  0.61567  0.18353  0.74519  1.0000
  C   C1831     1.0  0.62236  0.17473  0.73572  1.0000
  C   C1832     1.0  0.62722  0.16819  0.76454  1.0000
  P   P63       1.0  0.62588  0.17300  0.68563  1.0000
  C   C1833     1.0  0.63048  0.15841  0.68496  1.0000
  C   C1834     1.0  0.61274  0.17269  0.66473  1.0000
  C   C1835     1.0  0.61446  0.17300  0.62435  1.0000
  C   C1836     1.0  0.60429  0.17184  0.60836  1.0000
  C   C1837     1.0  0.59232  0.17042  0.63243  1.0000
  C   C1838     1.0  0.59050  0.17014  0.67252  1.0000
  C   C1839     1.0  0.60061  0.17102  0.68885  1.0000
  H   H1442     1.0  0.64147  0.12866  0.66833  1.0000
  C   C1840     1.0  0.64566  0.19214  0.45668  1.0000
  H   H1443     1.0  0.59119  0.00278  0.53080  1.0000
  C   C1841     1.0  0.62579  0.13696  0.67929  1.0000
  C   C1842     1.0  0.62186  0.14769  0.68491  1.0000
  C   C1843     1.0  0.63875  0.18597  0.65339  1.0000
  P   P64       1.0  0.54662  0.00316  0.56025  1.0000
  H   H1444     1.0  0.65062  0.20970  0.16800  1.0000
  H   H1445     1.0  0.61008  0.01649  0.58735  1.0000
  H   H1446     1.0  0.52366  0.01647  0.18628  1.0000
  H   H1447     1.0  0.52997  0.00708  0.63169  1.0000
  H   H1448     1.0  0.60270  0.20324  0.68172  1.0000
  H   H1449     1.0  0.60893  0.15462  0.42059  1.0000
  H   H1450     1.0  0.60821  0.19209  0.79056  1.0000
  H   H1451     1.0  0.61212  0.18895  0.72322  1.0000
  H   H1452     1.0  0.63261  0.16152  0.75806  1.0000
  H   H1453     1.0  0.62357  0.17370  0.60542  1.0000
  H   H1454     1.0  0.60562  0.17178  0.57747  1.0000
  H   H1455     1.0  0.58443  0.16918  0.62023  1.0000
  H   H1456     1.0  0.58115  0.16851  0.69170  1.0000
  H   H1457     1.0  0.59872  0.16975  0.72067  1.0000
  H   H1458     1.0  0.60775  0.01848  0.24029  1.0000
  H   H1459     1.0  0.56827  0.18355  0.55622  1.0000
  C   C1844     1.0  0.56105  0.17660  0.65780  1.0000
  H   H1460     1.0  0.61915  0.12886  0.67811  1.0000
  H   H1461     1.0  0.61216  0.14770  0.68814  1.0000
  H   H1462     1.0  0.56145  0.02998  0.53072  1.0000
  H   H1463     1.0  0.59585  0.03055  0.59057  1.0000
  H   H1464     1.0  0.64977  0.16603  0.68194  1.0000
  H   H1465     1.0  0.61902  0.00094  0.68084  1.0000
  C   C1845     1.0  0.64673  0.11712  0.79959  1.0000
  C   C1846     1.0  0.60590  0.13593  0.80583  1.0000
  C   C1847     1.0  0.60117  0.12708  0.78770  1.0000
  C   C1848     1.0  0.60748  0.11789  0.78038  1.0000
  C   C1849     1.0  0.61866  0.11770  0.79059  1.0000
  C   C1850     1.0  0.62363  0.12680  0.80787  1.0000
  C   C1851     1.0  0.61698  0.13568  0.81641  1.0000
  P   P65       1.0  0.63763  0.12642  0.82348  1.0000
  C   C1852     1.0  0.63317  0.11956  0.87697  1.0000
  C   C1853     1.0  0.64183  0.12148  0.89880  1.0000
  C   C1854     1.0  0.63851  0.11567  0.93984  1.0000
  C   C1855     1.0  0.62663  0.10778  0.95934  1.0000
  C   C1856     1.0  0.61791  0.10595  0.93797  1.0000
  C   C1857     1.0  0.62117  0.11175  0.89691  1.0000
  C   C1858     1.0  0.48992  0.06399  0.21733  1.0000
  C   C1859     1.0  0.64255  0.09793  0.29761  1.0000
  C   C1860     1.0  0.64687  0.10723  0.46346  1.0000
  C   C1861     1.0  0.61262  0.02854  0.88045  1.0000
  H   H1466     1.0  0.60089  0.14290  0.81225  1.0000
  H   H1467     1.0  0.59251  0.12726  0.77990  1.0000
  H   H1468     1.0  0.62020  0.14227  0.83204  1.0000
  C   C1862     1.0  0.59033  0.10045  0.49329  1.0000
  C   C1863     1.0  0.64620  0.14975  0.83672  1.0000
  H   H1469     1.0  0.64038  0.14565  0.86693  1.0000
  H   H1470     1.0  0.62419  0.10321  0.99107  1.0000
  H   H1471     1.0  0.60861  0.10005  0.95320  1.0000
  H   H1472     1.0  0.61430  0.11008  0.88094  1.0000
  C   C1864     1.0  0.64189  0.19728  0.66365  1.0000
  H   H1473     1.0  0.53054  0.04002  0.51211  1.0000
  C   C1865     1.0  0.57757  0.19688  0.13802  1.0000
  C   C1866     1.0  0.53425  0.10883  0.17024  1.0000
  C   C1867     1.0  0.56195  0.03771  0.27133  1.0000
  C   C1868     1.0  0.50593  0.07623  0.15653  1.0000
  H   H1474     1.0  0.57032  0.03467  0.97056  1.0000
  H   H1475     1.0  0.54090  0.04676  0.92788  1.0000
  H   H1476     1.0  0.55977  0.05154  0.22204  1.0000
  C   C1869     1.0  0.55496  0.03919  0.94963  1.0000
  H   H1477     1.0  0.53512  0.11522  0.07204  1.0000
  Fe  Fe135     1.0  0.62092  0.04179  0.41593  1.0000
  H   H1478     1.0  0.51803  0.03941  0.57894  1.0000
  C   C1870     1.0  0.59115  0.16166  0.06601  1.0000
  H   H1479     1.0  0.63480  0.01069  0.49458  1.0000
  C   C1871     1.0  0.48910  0.07128  0.09660  1.0000
  S   S262      1.0  0.60580  0.03529  0.07098  1.0000
  S   S263      1.0  0.63571  0.04366  0.02831  1.0000
  C   C1872     1.0  0.62520  0.04799  0.18142  1.0000
  C   C1873     1.0  0.49344  0.06970  0.17595  1.0000
  C   C1874     1.0  0.49947  0.07512  0.01461  1.0000
  H   H1480     1.0  0.57791  0.03754  0.19141  1.0000
  H   H1481     1.0  0.59498  0.20237  0.55143  1.0000
  C   C1875     1.0  0.63897  0.15330  0.94026  1.0000
  P   P66       1.0  0.57588  0.16041  0.09757  1.0000
  C   C1876     1.0  0.57621  0.17460  0.11388  1.0000
  H   H1482     1.0  0.54892  0.02976  0.96374  1.0000
  C   C1877     1.0  0.62872  0.14376  0.94260  1.0000
  C   C1878     1.0  0.60085  0.01289  0.60799  1.0000
  C   C1879     1.0  0.61777  0.08089  0.55383  1.0000
  C   C1880     1.0  0.62825  0.07600  0.55330  1.0000
  C   C1881     1.0  0.60634  0.06126  0.54786  1.0000
  C   C1882     1.0  0.59247  0.01293  0.17616  1.0000
  C   C1883     1.0  0.64146  0.14708  0.52924  1.0000
  C   C1884     1.0  0.64853  0.09544  0.45868  1.0000
  H   H1483     1.0  0.58439  0.14989  0.03113  1.0000
  C   C1885     1.0  0.64370  0.10242  0.33028  1.0000
  H   H1484     1.0  0.60359  0.11647  0.60305  1.0000
  C   C1886     1.0  0.53130  0.11365  0.13495  1.0000
  C   C1887     1.0  0.52346  0.03249  0.57596  1.0000
  C   C1888     1.0  0.56499  0.04809  0.59512  1.0000
  H   H1485     1.0  0.60678  0.10470  0.55314  1.0000
  C   C1889     1.0  0.57080  0.17404  0.15380  1.0000
  H   H1486     1.0  0.56220  0.13831  0.08052  1.0000
  C   C1890     1.0  0.62263  0.00165  0.55395  1.0000
  C   C1891     1.0  0.59619  0.00614  0.14929  1.0000
  C   C1892     1.0  0.60664  0.07352  0.55158  1.0000
  H   H1487     1.0  0.65033  0.10702  0.85353  1.0000
  C   C1893     1.0  0.57145  0.03383  0.83656  1.0000
  H   H1488     1.0  0.63434  0.21652  0.47877  1.0000
  C   C1894     1.0  0.55966  0.14658  0.06568  1.0000
  C   C1895     1.0  0.56459  0.15858  0.06948  1.0000
  C   C1896     1.0  0.56151  0.16915  0.04829  1.0000
  H   H1489     1.0  0.58261  0.10070  0.51691  1.0000
  H   H1490     1.0  0.56549  0.17858  0.04908  1.0000
  H   H1491     1.0  0.59042  0.14362  0.13107  1.0000
  C   C1897     1.0  0.49378  0.06292  0.03954  1.0000
  H   H1492     1.0  0.64009  0.23242  0.93244  1.0000
  H   H1493     1.0  0.58658  0.04874  0.11971  1.0000
  C   C1898     1.0  0.55354  0.16774  0.02416  1.0000
  C   C1899     1.0  0.54883  0.15583  0.02014  1.0000
  C   C1900     1.0  0.55187  0.14526  0.04093  1.0000
  C   C1901     1.0  0.58075  0.14014  0.14851  1.0000
  C   C1902     1.0  0.59917  0.10054  0.58021  1.0000
  H   H1494     1.0  0.55162  0.17601  0.00662  1.0000
  C   C1903     1.0  0.59734  0.10731  0.60851  1.0000
  H   H1495     1.0  0.56728  0.18471  0.19653  1.0000
  C   C1904     1.0  0.58710  0.10264  0.64237  1.0000
  H   H1496     1.0  0.53280  0.20251  0.70149  1.0000
  H   H1497     1.0  0.55079  0.00311  0.63780  1.0000
  H   H1498     1.0  0.58536  0.10819  0.66326  1.0000
  H   H1499     1.0  0.61862  0.09058  0.55437  1.0000
  H   H1500     1.0  0.52410  0.11880  0.13516  1.0000
  C   C1905     1.0  0.60275  0.10855  0.42431  1.0000
  H   H1501     1.0  0.51778  0.02287  0.63875  1.0000
  C   C1906     1.0  0.52338  0.02320  0.60954  1.0000
  H   H1502     1.0  0.55587  0.06019  0.79553  1.0000
  H   H1503     1.0  0.58833  0.04544  0.79197  1.0000
  C   C1907     1.0  0.57171  0.14648  0.13955  1.0000
  H   H1504     1.0  0.58738  0.11561  0.45047  1.0000
  H   H1505     1.0  0.54319  0.15489  0.99977  1.0000
  H   H1506     1.0  0.54860  0.13614  0.03636  1.0000
  C   C1908     1.0  0.54251  0.20714  0.68614  1.0000
  Fe  Fe136     1.0  0.61838  0.03484  0.01304  1.0000
  C   C1909     1.0  0.51469  0.07709  0.17831  1.0000
  C   C1910     1.0  0.58299  0.04736  0.18248  1.0000
  C   C1911     1.0  0.59096  0.08886  0.58592  1.0000
  C   C1912     1.0  0.57734  0.12912  0.18023  1.0000
  C   C1913     1.0  0.58063  0.08426  0.62001  1.0000
  P   P67       1.0  0.59344  0.08029  0.54864  1.0000
  H   H1507     1.0  0.58435  0.12429  0.18704  1.0000
  H   H1508     1.0  0.56610  0.16510  0.17582  1.0000
  H   H1509     1.0  0.54253  0.02397  0.50452  1.0000
  H   H1510     1.0  0.57049  0.08780  0.67339  1.0000
  C   C1914     1.0  0.63880  0.19868  0.47858  1.0000
  C   C1915     1.0  0.57872  0.09114  0.64803  1.0000
  C   C1916     1.0  0.61911  0.14674  0.92676  1.0000
  H   H1511     1.0  0.57929  0.03146  0.34176  1.0000
  H   H1512     1.0  0.55926  0.05194  0.32195  1.0000
  H   H1513     1.0  0.61169  0.16180  0.90027  1.0000
  C   C1917     1.0  0.55925  0.14164  0.16280  1.0000
  P   P68       1.0  0.57886  0.02171  0.85542  1.0000
  H   H1514     1.0  0.51789  0.07180  0.23635  1.0000
  C   C1918     1.0  0.59301  0.10890  0.45550  1.0000
  S   S264      1.0  0.62479  0.03895  0.14656  1.0000
  H   H1515     1.0  0.57834  0.06201  0.76536  1.0000
  C   C1919     1.0  0.53738  0.02384  0.53397  1.0000
  H   H1516     1.0  0.54601  0.02253  0.14792  1.0000
  H   H1517     1.0  0.55214  0.14635  0.15622  1.0000
  C   C1920     1.0  0.59731  0.09149  0.50012  1.0000
  H   H1518     1.0  0.57378  0.07562  0.62460  1.0000
  C   C1921     1.0  0.64292  0.16815  0.41603  1.0000
  C   C1922     1.0  0.58282  0.01296  0.81963  1.0000
  H   H1519     1.0  0.58588  0.04535  0.87618  1.0000
  C   C1923     1.0  0.61930  0.15941  0.91117  1.0000
  H   H1520     1.0  0.64752  0.23138  0.14943  1.0000
  C   C1924     1.0  0.58533  0.02858  0.31930  1.0000
  P   P69       1.0  0.57814  0.04525  0.26375  1.0000
  H   H1521     1.0  0.62089  0.04383  0.90071  1.0000
  C   C1925     1.0  0.56493  0.12438  0.20332  1.0000
  C   C1926     1.0  0.55590  0.13067  0.19471  1.0000
  H   H1522     1.0  0.59821  0.07120  0.09809  1.0000
  H   H1523     1.0  0.61679  0.18043  0.84094  1.0000
  C   C1927     1.0  0.53763  0.01467  0.56746  1.0000
  H   H1524     1.0  0.50369  0.07652  0.98308  1.0000
  C   C1928     1.0  0.59283  0.02097  0.60994  1.0000
  C   C1929     1.0  0.58668  0.03377  0.27862  1.0000
  C   C1930     1.0  0.59496  0.03018  0.25025  1.0000
  C   C1931     1.0  0.58787  0.05367  0.14185  1.0000
  H   H1525     1.0  0.64392  0.20609  0.28111  1.0000
  H   H1526     1.0  0.59682  0.03451  0.21871  1.0000
  C   C1932     1.0  0.57199  0.06956  0.52974  1.0000
  C   C1933     1.0  0.57952  0.06817  0.55586  1.0000
  H   H1527     1.0  0.57446  0.07770  0.50396  1.0000
  H   H1528     1.0  0.56232  0.11588  0.22804  1.0000
  C   C1934     1.0  0.62851  0.16181  0.53516  1.0000
  C   C1935     1.0  0.59261  0.02907  0.86727  1.0000
  H   H1529     1.0  0.59733  0.02033  0.42313  1.0000
  C   C1936     1.0  0.58902  0.20247  0.64888  1.0000
  H   H1530     1.0  0.64392  0.17596  0.60955  1.0000
  H   H1531     1.0  0.59944  0.06022  0.27901  1.0000
  C   C1937     1.0  0.57288  0.05389  0.78997  1.0000
  C   C1938     1.0  0.63152  0.13843  0.52548  1.0000
  C   C1939     1.0  0.59334  0.04063  0.87679  1.0000
  H   H1532     1.0  0.56163  0.18085  0.68183  1.0000
  C   C1940     1.0  0.60356  0.04601  0.88838  1.0000
  C   C1941     1.0  0.63214  0.22140  0.34178  1.0000
  S   S265      1.0  0.62679  0.07069  0.27369  1.0000
  H   H1533     1.0  0.60481  0.11511  0.39508  1.0000
  C   C1942     1.0  0.57595  0.05731  0.58853  1.0000
  C   C1943     1.0  0.60687  0.09097  0.46840  1.0000
  H   H1534     1.0  0.56219  0.03982  0.62053  1.0000
  H   H1535     1.0  0.52310  0.99849  0.53966  1.0000
  H   H1536     1.0  0.62873  0.03319  0.22430  1.0000
  C   C1944     1.0  0.62392  0.06705  0.20231  1.0000
  H   H1537     1.0  0.60393  0.05474  0.89670  1.0000
  H   H1538     1.0  0.62195  0.06456  0.14555  1.0000
  H   H1539     1.0  0.56098  0.01242  0.17370  1.0000
  H   H1540     1.0  0.64998  0.04894  0.92661  1.0000
  C   C1945     1.0  0.60968  0.09958  0.43081  1.0000
  C   C1946     1.0  0.58475  0.05365  0.21134  1.0000
  H   H1541     1.0  0.54630  0.12707  0.21284  1.0000
  H   H1542     1.0  0.62278  0.07660  0.19579  1.0000
  C   C1947     1.0  0.61316  0.03992  0.89043  1.0000
  H   H1543     1.0  0.61215  0.08391  0.47241  1.0000
  C   C1948     1.0  0.56104  0.06034  0.53645  1.0000
  C   C1949     1.0  0.59103  0.06157  0.29715  1.0000
  C   C1950     1.0  0.57850  0.04448  0.80499  1.0000
  C   C1951     1.0  0.56849  0.05690  0.32106  1.0000
  C   C1952     1.0  0.56812  0.01071  0.90042  1.0000
  H   H1544     1.0  0.60133  0.08252  0.14848  1.0000
  H   H1545     1.0  0.62889  0.16518  0.82461  1.0000
  H   H1546     1.0  0.61718  0.09918  0.40679  1.0000
  C   C1953     1.0  0.57925  0.05557  0.29550  1.0000
  C   C1954     1.0  0.59443  0.06635  0.12964  1.0000
  C   C1955     1.0  0.56024  0.05286  0.80682  1.0000
  H   H1547     1.0  0.56126  0.06536  0.36687  1.0000
  C   C1956     1.0  0.60862  0.20344  0.58407  1.0000
  H   H1548     1.0  0.62354  0.18571  0.31394  1.0000
  C   C1957     1.0  0.62011  0.14149  0.52588  1.0000
  H   H1549     1.0  0.60979  0.15563  0.53086  1.0000
  C   C1958     1.0  0.56956  0.06449  0.34678  1.0000
  C   C1959     1.0  0.59612  0.07273  0.15805  1.0000
  C   C1960     1.0  0.59130  0.06643  0.19878  1.0000
  H   H1550     1.0  0.51254  0.04034  0.16362  1.0000
  C   C1961     1.0  0.55319  0.04235  0.83841  1.0000
  C   C1962     1.0  0.53041  0.01429  0.60538  1.0000
  H   H1551     1.0  0.63280  0.12946  0.52110  1.0000
  C   C1963     1.0  0.55874  0.03285  0.85321  1.0000
  C   C1964     1.0  0.61854  0.15316  0.53109  1.0000
  H   H1552     1.0  0.59278  0.07158  0.22009  1.0000
  S   S266      1.0  0.49183  0.01863  0.17642  1.0000
  C   C1965     1.0  0.57694  0.00430  0.66144  1.0000
  C   C1966     1.0  0.55997  0.16511  0.59669  1.0000
  H   H1553     1.0  0.60364  0.11089  0.76703  1.0000
  C   C1967     1.0  0.60237  0.02307  0.86923  1.0000
  C   C1968     1.0  0.58030  0.22828  0.50031  1.0000
  C   C1969     1.0  0.58225  0.01714  0.78013  1.0000
  H   H1554     1.0  0.54257  0.22269  0.71217  1.0000
  C   C1970     1.0  0.58134  0.07062  0.34769  1.0000
  C   C1971     1.0  0.49503  0.08352  0.07137  1.0000
  C   C1972     1.0  0.61747  0.16973  0.36594  1.0000
  C   C1973     1.0  0.63992  0.21152  0.46240  1.0000
  H   H1555     1.0  0.49358  0.05496  0.02702  1.0000
  C   C1974     1.0  0.58599  0.00148  0.83184  1.0000
  C   C1975     1.0  0.58798  0.99849  0.76606  1.0000
  C   C1976     1.0  0.54286  0.01551  0.17672  1.0000
  H   H1556     1.0  0.62738  0.17089  0.53844  1.0000
  H   H1557     1.0  0.55358  0.15770  0.69773  1.0000
  C   C1977     1.0  0.56750  0.21920  0.64598  1.0000
  C   C1978     1.0  0.55582  0.15779  0.63643  1.0000
  H   H1558     1.0  0.54901  0.04259  0.57429  1.0000
  C   C1979     1.0  0.58459  0.00861  0.53227  1.0000
  H   H1559     1.0  0.58814  0.22408  0.54924  1.0000
  H   H1560     1.0  0.59862  0.02183  0.17406  1.0000
  H   H1561     1.0  0.55828  0.99964  0.86930  1.0000
  H   H1562     1.0  0.58147  0.20175  0.67458  1.0000
  H   H1563     1.0  0.61994  0.02368  0.88303  1.0000
  H   H1564     1.0  0.57711  0.22409  0.63006  1.0000
  H   H1565     1.0  0.55401  0.19791  0.55724  1.0000
  H   H1566     1.0  0.58389  0.03951  0.50997  1.0000
  H   H1567     1.0  0.48785  0.01364  0.55686  1.0000
  C   C1980     1.0  0.57143  0.20965  0.55733  1.0000
  H   H1568     1.0  0.63580  0.10459  0.34830  1.0000
  C   C1981     1.0  0.56472  0.17817  0.58732  1.0000
  C   C1982     1.0  0.56154  0.20622  0.54128  1.0000
  C   C1983     1.0  0.56048  0.22458  0.67185  1.0000
  C   C1984     1.0  0.58066  0.22090  0.53693  1.0000
  C   C1985     1.0  0.59662  0.20275  0.57978  1.0000
  H   H1569     1.0  0.62328  0.11038  0.78541  1.0000
  H   H1570     1.0  0.55966  0.00563  0.00152  1.0000
  H   H1571     1.0  0.57462  0.02288  0.63756  1.0000
  C   C1986     1.0  0.63525  0.23339  0.53385  1.0000
  H   H1572     1.0  0.64478  0.18223  0.46984  1.0000
  C   C1987     1.0  0.58084  0.01664  0.63639  1.0000
  C   C1988     1.0  0.58677  0.20244  0.61193  1.0000
  H   H1573     1.0  0.64584  0.23814  0.30290  1.0000
  C   C1989     1.0  0.62182  0.21188  0.34522  1.0000
  C   C1990     1.0  0.64446  0.00067  0.57685  1.0000
  C   C1991     1.0  0.55752  0.04965  0.56916  1.0000
  H   H1574     1.0  0.58214  0.07616  0.36861  1.0000
  H   H1575     1.0  0.62609  0.00173  0.94112  1.0000
  S   S267      1.0  0.61745  0.01843  0.98345  1.0000
  H   H1576     1.0  0.50899  0.08062  0.12468  1.0000
  H   H1577     1.0  0.55958  0.16060  0.57309  1.0000
  H   H1578     1.0  0.62009  0.20394  0.62449  1.0000
  H   H1579     1.0  0.62830  0.13405  0.95638  1.0000
  H   H1580     1.0  0.49601  0.06019  0.27068  1.0000
  C   C1992     1.0  0.56213  0.20761  0.64060  1.0000
  C   C1993     1.0  0.64819  0.21795  0.42497  1.0000
  P   P70       1.0  0.57121  0.20089  0.60658  1.0000
  H   H1581     1.0  0.64829  0.08783  0.02179  1.0000
  H   H1582     1.0  0.62582  0.16639  0.35834  1.0000
  H   H1583     1.0  0.60120  0.07365  0.32410  1.0000
  C   C1994     1.0  0.49364  0.01999  0.25092  1.0000
  C   C1995     1.0  0.60105  0.20322  0.65313  1.0000
  C   C1996     1.0  0.56768  0.02380  0.53220  1.0000
  H   H1584     1.0  0.55531  0.06155  0.51607  1.0000
  H   H1585     1.0  0.58423  0.01309  0.72334  1.0000
  C   C1997     1.0  0.48864  0.06096  0.08044  1.0000
  C   C1998     1.0  0.64296  0.15797  0.68141  1.0000
  H   H1586     1.0  0.60524  0.00941  0.31249  1.0000
  C   C1999     1.0  0.64001  0.15878  0.53409  1.0000
  H   H1587     1.0  0.55376  0.21070  0.49183  1.0000
  H   H1588     1.0  0.60201  0.01400  0.86339  1.0000
  C   C2000     1.0  0.54198  0.99627  0.52316  1.0000
  H   H1589     1.0  0.64879  0.06743  0.07760  1.0000
  C   C2001     1.0  0.64676  0.14266  0.80900  1.0000
  C   C2002     1.0  0.63394  0.22980  0.27176  1.0000
  H   H1590     1.0  0.62954  0.17882  0.89767  1.0000
  H   H1591     1.0  0.63253  0.19376  0.50793  1.0000
  C   C2003     1.0  0.62937  0.16902  0.90989  1.0000
  C   C2004     1.0  0.65140  0.20219  0.28869  1.0000
  H   H1592     1.0  0.64178  0.13673  0.44111  1.0000
  C   C2005     1.0  0.57065  0.22459  0.48394  1.0000
  S   S268      1.0  0.62055  0.02131  0.44559  1.0000
  C   C2006     1.0  0.60916  0.00679  0.96480  1.0000
  C   C2007     1.0  0.58050  0.02932  0.52027  1.0000
  H   H1593     1.0  0.63831  0.23710  0.24378  1.0000
  C   C2008     1.0  0.64134  0.22371  0.54112  1.0000
  C   C2009     1.0  0.53026  0.01197  0.19804  1.0000
  C   C2010     1.0  0.55946  0.00435  0.97252  1.0000
  H   H1594     1.0  0.57956  0.02577  0.76988  1.0000
  H   H1595     1.0  0.63376  0.09663  0.29010  1.0000
  H   H1596     1.0  0.58750  0.23690  0.48467  1.0000
  C   C2011     1.0  0.59202  0.01986  0.33134  1.0000
  S   S269      1.0  0.63839  0.08661  0.43719  1.0000
  H   H1597     1.0  0.59059  0.00934  0.98413  1.0000
  H   H1598     1.0  0.64653  0.15087  0.95164  1.0000
  H   H1599     1.0  0.58005  0.00247  0.42801  1.0000
  C   C2012     1.0  0.60778  0.00861  0.45032  1.0000
  H   H1600     1.0  0.50499  0.09481  0.01123  1.0000
  H   H1601     1.0  0.62791  0.15120  0.43657  1.0000
  C   C2013     1.0  0.63833  0.13682  0.67392  1.0000
  C   C2014     1.0  0.59623  0.00424  0.96847  1.0000
  H   H1602     1.0  0.62553  0.23196  0.54963  1.0000
  C   C2015     1.0  0.55880  0.00101  0.89792  1.0000
  H   H1603     1.0  0.63937  0.11072  0.45449  1.0000
  H   H1604     1.0  0.64495  0.12498  0.74079  1.0000
  H   H1605     1.0  0.59112  0.01613  0.36266  1.0000
  H   H1606     1.0  0.56469  0.23349  0.67604  1.0000
  H   H1607     1.0  0.63512  0.22204  0.36802  1.0000
  H   H1608     1.0  0.64452  0.20035  0.35112  1.0000
  C   C2016     1.0  0.63791  0.15507  0.42812  1.0000
  H   H1609     1.0  0.64509  0.11743  0.95673  1.0000
  C   C2017     1.0  0.58485  0.00993  0.75351  1.0000
  H   H1610     1.0  0.57809  0.01368  0.22565  1.0000
  H   H1611     1.0  0.60515  0.00977  0.12685  1.0000
  H   H1612     1.0  0.63644  0.21475  0.56273  1.0000
  H   H1613     1.0  0.63662  0.19862  0.69088  1.0000
  C   C2018     1.0  0.58896  0.02173  0.51952  1.0000
  C   C2019     1.0  0.59998  0.01609  0.30300  1.0000
  H   H1614     1.0  0.52430  0.08203  0.16326  1.0000
  Fe  Fe137     1.0  0.61333  0.23832  0.42889  1.0000
  H   H1615     1.0  0.57044  0.23031  0.45546  1.0000
  C   C2020     1.0  0.65195  0.10857  0.82171  1.0000
  C   C2021     1.0  0.64687  0.14726  0.67544  1.0000
  C   C2022     1.0  0.64898  0.11862  0.75840  1.0000
  H   H1616     1.0  0.49568  0.09161  0.08323  1.0000
  C   C2023     1.0  0.60136  0.02117  0.26245  1.0000
  S   S270      1.0  0.59759  0.23896  0.15776  1.0000
  C   C2024     1.0  0.64598  0.18464  0.61793  1.0000
  C   C2025     1.0  0.56847  0.01222  0.93802  1.0000
  C   C2026     1.0  0.64575  0.14686  0.43087  1.0000
  S   S271      1.0  0.59663  0.24107  0.04501  1.0000
  C   C2027     1.0  0.51108  0.07144  0.21947  1.0000
  C   C2028     1.0  0.64985  0.23757  0.92268  1.0000
  C   C2029     1.0  0.55135  0.00960  0.19150  1.0000
  S   S272      1.0  0.64798  0.07918  0.95034  1.0000
  H   H1617     1.0  0.63668  0.17436  0.41422  1.0000
  C   C2030     1.0  0.49871  0.06487  0.23891  1.0000
  S   S273      1.0  0.49517  0.99786  0.00146  1.0000
  C   C2031     1.0  0.52607  0.00228  0.23378  1.0000
  C   C2032     1.0  0.63284  0.99568  0.60532  1.0000
  H   H1618     1.0  0.50686  0.00757  0.56773  1.0000
  C   C2033     1.0  0.65349  0.19837  0.41813  1.0000
  C   C2034     1.0  0.65216  0.20701  0.63898  1.0000
  C   C2035     1.0  0.59916  0.24095  0.23208  1.0000
  H   H1619     1.0  0.58952  0.23558  0.24271  1.0000
  C   C2036     1.0  0.61618  0.99998  0.94434  1.0000
  H   H1620     1.0  0.65118  0.12740  0.88417  1.0000
  C   C2037     1.0  0.59686  0.00037  0.63244  1.0000
  H   H1621     1.0  0.65036  0.14477  0.52718  1.0000
  C   C2038     1.0  0.65261  0.09464  0.27543  1.0000
  H   H1622     1.0  0.60015  0.24269  0.29045  1.0000
  C   C2039     1.0  0.64518  0.00619  0.53705  1.0000
  Fe  Fe138     1.0  0.60705  0.24388  0.09078  1.0000
  C   C2040     1.0  0.60550  0.24396  0.19123  1.0000
  H   H1623     1.0  0.65153  0.09082  0.25079  1.0000
  H   H1624     1.0  0.56777  0.00096  0.68265  1.0000
  C   C2041     1.0  0.58775  0.00063  0.43946  1.0000
  H   H1625     1.0  0.58600  0.99781  0.86251  1.0000
  H   H1626     1.0  0.51622  0.99940  0.24971  1.0000
  C   C2042     1.0  0.57299  0.99679  0.20742  1.0000
  H   H1627     1.0  0.54437  0.99574  0.38133  1.0000
  C   C2043     1.0  0.58492  0.99621  0.65956  1.0000
  H   H1628     1.0  0.65332  0.12351  0.48352  1.0000
  C   C2044     1.0  0.65186  0.19907  0.32833  1.0000
  C   C2045     1.0  0.60775  0.99607  0.46851  1.0000
  H   H1629     1.0  0.65293  0.00012  0.58555  1.0000
  C   C2046     1.0  0.65323  0.16226  0.82565  1.0000
  C   C2047     1.0  0.62182  0.99638  0.59424  1.0000
  C   C2048     1.0  0.53446  0.99606  0.24807  1.0000
  S   S274      1.0  0.65232  0.17791  0.91929  1.0000
  H   H1630     1.0  0.65307  0.16755  0.84753  1.0000
  S   S275      1.0  0.65267  0.16973  0.53770  1.0000
  H   H1631     1.0  0.65353  0.21527  0.96973  1.0000
  C   C2049     1.0  0.65377  0.22548  0.51998  1.0000
  C   C2050     1.0  0.59058  0.99496  0.95195  1.0000
  C   C2051     1.0  0.48735  0.00695  0.58466  1.0000
  H   H1632     1.0  0.54153  0.99493  0.31576  1.0000
  Fe  Fe139     1.0  0.60183  0.35234  0.56222  1.0000
  S   S276      1.0  0.59463  0.34176  0.52251  1.0000
  S   S277      1.0  0.61787  0.36937  0.52962  1.0000
  Fe  Fe140     1.0  0.58186  0.33569  0.63639  1.0000
  S   S278      1.0  0.57295  0.32384  0.60224  1.0000
  S   S279      1.0  0.57307  0.33111  0.70296  1.0000
  Fe  Fe141     1.0  0.59258  0.32417  0.57045  1.0000
  S   S280      1.0  0.60017  0.30729  0.56074  1.0000
  Fe  Fe142     1.0  0.57574  0.34248  0.55694  1.0000
  S   S281      1.0  0.56250  0.34811  0.52103  1.0000
  S   S282      1.0  0.60129  0.33477  0.60810  1.0000
  S   S283      1.0  0.58309  0.35418  0.59351  1.0000
  C   C2052     1.0  0.57850  0.31128  0.87715  1.0000
  Fe  Fe143     1.0  0.52928  0.40409  0.49241  1.0000
  S   S284      1.0  0.53726  0.41259  0.42628  1.0000
  S   S285      1.0  0.53932  0.39495  0.53485  1.0000
  Fe  Fe144     1.0  0.50590  0.41428  0.49403  1.0000
  S   S286      1.0  0.51186  0.42332  0.42795  1.0000
  C   C2053     1.0  0.62389  0.25493  0.20502  1.0000
  Fe  Fe145     1.0  0.51782  0.40564  0.42250  1.0000
  S   S287      1.0  0.51544  0.39581  0.37482  1.0000
  Fe  Fe146     1.0  0.53074  0.42958  0.43627  1.0000
  S   S288      1.0  0.54140  0.44987  0.40883  1.0000
  S   S289      1.0  0.51018  0.39577  0.48848  1.0000
  S   S290      1.0  0.52443  0.42187  0.50269  1.0000
  C   C2054     1.0  0.64609  0.46346  0.99187  1.0000
  Fe  Fe147     1.0  0.51516  0.42127  0.15296  1.0000
  S   S291      1.0  0.50588  0.40435  0.13695  1.0000
  S   S292      1.0  0.51033  0.42724  0.21002  1.0000
  Fe  Fe148     1.0  0.53345  0.43222  0.06994  1.0000
  S   S293      1.0  0.52555  0.41654  0.04684  1.0000
  S   S294      1.0  0.54956  0.44811  0.02959  1.0000
  Fe  Fe149     1.0  0.50690  0.41838  0.07940  1.0000
  H   H1633     1.0  0.49669  0.47448  0.56786  1.0000
  Fe  Fe150     1.0  0.52533  0.40388  0.10514  1.0000
  S   S295      1.0  0.53355  0.38673  0.10925  1.0000
  S   S296      1.0  0.51487  0.43530  0.09739  1.0000
  S   S297      1.0  0.53438  0.41956  0.12659  1.0000
  Fe  Fe151     1.0  0.58926  0.35422  0.87953  1.0000
  S   S298      1.0  0.56960  0.34386  0.91494  1.0000
  S   S299      1.0  0.59772  0.35898  0.81264  1.0000
  Fe  Fe152     1.0  0.59637  0.35878  0.95320  1.0000
  S   S300      1.0  0.57739  0.34875  0.99429  1.0000
  S   S301      1.0  0.61068  0.36767  0.97935  1.0000
  Fe  Fe153     1.0  0.57866  0.33438  0.95946  1.0000
  S   S302      1.0  0.57269  0.31356  0.99323  1.0000
  Fe  Fe154     1.0  0.57033  0.35924  0.94638  1.0000
  S   S303      1.0  0.55614  0.37110  0.95290  1.0000
  S   S304      1.0  0.59829  0.34379  0.92192  1.0000
  S   S305      1.0  0.58940  0.37029  0.90739  1.0000
  C   C2055     1.0  0.56828  0.41619  0.47032  1.0000
  H   H1634     1.0  0.65275  0.37156  0.98068  1.0000
  S   S306      1.0  0.61841  0.26327  0.05419  1.0000
  H   H1635     1.0  0.58661  0.43551  0.03817  1.0000
  Fe  Fe155     1.0  0.60956  0.25987  0.00631  1.0000
  S   S307      1.0  0.60803  0.27687  0.96066  1.0000
  C   C2056     1.0  0.59554  0.31020  0.80844  1.0000
  H   H1636     1.0  0.57204  0.31166  0.90404  1.0000
  Fe  Fe156     1.0  0.60653  0.26372  0.41745  1.0000
  S   S308      1.0  0.62356  0.27358  0.36583  1.0000
  S   S309      1.0  0.59303  0.27530  0.43699  1.0000
  C   C2057     1.0  0.54282  0.47902  0.98865  1.0000
  S   S310      1.0  0.63110  0.24666  0.37931  1.0000
  H   H1637     1.0  0.58651  0.25750  0.11078  1.0000
  Fe  Fe157     1.0  0.61965  0.25621  0.34445  1.0000
  S   S311      1.0  0.61686  0.25424  0.45711  1.0000
  H   H1638     1.0  0.56837  0.29294  0.87830  1.0000
  H   H1639     1.0  0.49838  0.39325  0.03333  1.0000
  C   C2058     1.0  0.53139  0.32404  0.63562  1.0000
  H   H1640     1.0  0.64203  0.39939  0.41500  1.0000
  C   C2059     1.0  0.61236  0.29084  0.82425  1.0000
  H   H1641     1.0  0.62881  0.37567  0.65032  1.0000
  C   C2060     1.0  0.63319  0.38493  0.95118  1.0000
  H   H1642     1.0  0.54381  0.32725  0.72660  1.0000
  C   C2061     1.0  0.59745  0.32082  0.82297  1.0000
  C   C2062     1.0  0.58277  0.30355  0.98439  1.0000
  C   C2063     1.0  0.57983  0.29126  0.01004  1.0000
  C   C2064     1.0  0.58769  0.28309  0.00391  1.0000
  C   C2065     1.0  0.59839  0.28707  0.97147  1.0000
  C   C2066     1.0  0.60128  0.29932  0.94567  1.0000
  C   C2067     1.0  0.59361  0.30758  0.95239  1.0000
  H   H1643     1.0  0.57141  0.28804  0.03458  1.0000
  H   H1644     1.0  0.58530  0.27360  0.02347  1.0000
  H   H1645     1.0  0.60947  0.30244  0.92033  1.0000
  H   H1646     1.0  0.59600  0.31698  0.93244  1.0000
  C   C2068     1.0  0.62464  0.37595  0.94277  1.0000
  H   H1647     1.0  0.64383  0.34444  0.73568  1.0000
  H   H1648     1.0  0.59306  0.41581  0.03464  1.0000
  H   H1649     1.0  0.65218  0.40078  0.53823  1.0000
  C   C2069     1.0  0.62725  0.37376  0.90522  1.0000
  C   C2070     1.0  0.52910  0.48086  0.36868  1.0000
  H   H1650     1.0  0.53339  0.45111  0.16032  1.0000
  H   H1651     1.0  0.62069  0.36682  0.89857  1.0000
  C   C2071     1.0  0.54008  0.38262  0.06543  1.0000
  C   C2072     1.0  0.54593  0.37256  0.06829  1.0000
  C   C2073     1.0  0.55135  0.36920  0.03391  1.0000
  C   C2074     1.0  0.55074  0.37575  0.99645  1.0000
  C   C2075     1.0  0.54492  0.38580  0.99365  1.0000
  C   C2076     1.0  0.53966  0.38925  0.02786  1.0000
  H   H1652     1.0  0.54627  0.36735  0.09722  1.0000
  H   H1653     1.0  0.55569  0.36136  0.03652  1.0000
  H   H1654     1.0  0.54431  0.39083  0.96492  1.0000
  H   H1655     1.0  0.53512  0.39690  0.02508  1.0000
  H   H1656     1.0  0.61231  0.38204  0.03496  1.0000
  C   C2077     1.0  0.56131  0.45143  0.05287  1.0000
  C   C2078     1.0  0.56868  0.46375  0.04300  1.0000
  H   H1657     1.0  0.52927  0.34800  0.60547  1.0000
  S   S312      1.0  0.62609  0.48268  0.06392  1.0000
  C   C2079     1.0  0.57229  0.44467  0.10149  1.0000
  C   C2080     1.0  0.56323  0.44191  0.08184  1.0000
  H   H1658     1.0  0.56725  0.47120  0.02061  1.0000
  C   C2081     1.0  0.55777  0.31334  0.50551  1.0000
  H   H1659     1.0  0.57395  0.43722  0.12310  1.0000
  H   H1660     1.0  0.55805  0.43233  0.08823  1.0000
  C   C2082     1.0  0.52006  0.47196  0.11045  1.0000
  C   C2083     1.0  0.62113  0.44982  0.44291  1.0000
  C   C2084     1.0  0.63707  0.38678  0.53491  1.0000
  H   H1661     1.0  0.62926  0.43254  0.04384  1.0000
  C   C2085     1.0  0.51383  0.40450  0.32925  1.0000
  C   C2086     1.0  0.51370  0.39887  0.29798  1.0000
  C   C2087     1.0  0.51250  0.40566  0.26132  1.0000
  C   C2088     1.0  0.51133  0.41809  0.25587  1.0000
  C   C2089     1.0  0.51099  0.42350  0.28763  1.0000
  C   C2090     1.0  0.51244  0.41685  0.32389  1.0000
  H   H1662     1.0  0.51462  0.38926  0.30203  1.0000
  H   H1663     1.0  0.51246  0.40128  0.23735  1.0000
  H   H1664     1.0  0.50973  0.43295  0.28403  1.0000
  H   H1665     1.0  0.51230  0.42121  0.34787  1.0000
  C   C2091     1.0  0.58334  0.45449  0.38585  1.0000
  C   C2092     1.0  0.57787  0.46390  0.39625  1.0000
  C   C2093     1.0  0.56505  0.46260  0.40209  1.0000
  C   C2094     1.0  0.55753  0.45157  0.39981  1.0000
  C   C2095     1.0  0.56296  0.44203  0.39029  1.0000
  C   C2096     1.0  0.57588  0.44359  0.38277  1.0000
  C   C2097     1.0  0.54023  0.32642  0.70141  1.0000
  H   H1666     1.0  0.56098  0.47009  0.40912  1.0000
  H   H1667     1.0  0.55728  0.43356  0.38809  1.0000
  H   H1668     1.0  0.58016  0.43628  0.37541  1.0000
  C   C2098     1.0  0.59821  0.29878  0.52541  1.0000
  C   C2099     1.0  0.60489  0.28953  0.52144  1.0000
  C   C2100     1.0  0.60353  0.28242  0.49416  1.0000
  C   C2101     1.0  0.59531  0.28435  0.47085  1.0000
  C   C2102     1.0  0.58860  0.29358  0.47489  1.0000
  C   C2103     1.0  0.59011  0.30084  0.50176  1.0000
  H   H1669     1.0  0.61123  0.28791  0.53940  1.0000
  H   H1670     1.0  0.60878  0.27539  0.49144  1.0000
  H   H1671     1.0  0.58222  0.29514  0.45704  1.0000
  H   H1672     1.0  0.58496  0.30794  0.50446  1.0000
  C   C2104     1.0  0.57988  0.33925  0.73265  1.0000
  C   C2105     1.0  0.57414  0.33590  0.77385  1.0000
  C   C2106     1.0  0.57937  0.34207  0.79856  1.0000
  C   C2107     1.0  0.59054  0.35144  0.78233  1.0000
  C   C2108     1.0  0.59625  0.35487  0.74101  1.0000
  C   C2109     1.0  0.59087  0.34887  0.71616  1.0000
  H   H1673     1.0  0.56561  0.32849  0.78679  1.0000
  H   H1674     1.0  0.57482  0.33944  0.83022  1.0000
  H   H1675     1.0  0.60488  0.36214  0.72823  1.0000
  H   H1676     1.0  0.59529  0.35157  0.68438  1.0000
  C   C2110     1.0  0.55656  0.36147  0.52409  1.0000
  C   C2111     1.0  0.55132  0.36685  0.49441  1.0000
  C   C2112     1.0  0.54618  0.37727  0.49681  1.0000
  C   C2113     1.0  0.54620  0.38232  0.52912  1.0000
  C   C2114     1.0  0.55149  0.37697  0.55865  1.0000
  C   C2115     1.0  0.55661  0.36658  0.55623  1.0000
  H   H1677     1.0  0.55113  0.36285  0.46969  1.0000
  H   H1678     1.0  0.54196  0.38119  0.47424  1.0000
  H   H1679     1.0  0.55143  0.38076  0.58389  1.0000
  H   H1680     1.0  0.56042  0.36240  0.57957  1.0000
  H   H1681     1.0  0.48844  0.34030  0.03883  1.0000
  C   C2116     1.0  0.62372  0.37271  0.59790  1.0000
  C   C2117     1.0  0.58757  0.40621  0.84342  1.0000
  H   H1682     1.0  0.60544  0.32877  0.80813  1.0000
  C   C2118     1.0  0.57449  0.40700  0.90583  1.0000
  H   H1683     1.0  0.61550  0.36518  0.61431  1.0000
  C   C2119     1.0  0.62797  0.32893  0.74846  1.0000
  H   H1684     1.0  0.57907  0.44948  0.88371  1.0000
  H   H1685     1.0  0.64829  0.47065  0.39208  1.0000
  C   C2120     1.0  0.63184  0.34890  0.69870  1.0000
  H   H1686     1.0  0.52199  0.32722  0.02402  1.0000
  H   H1687     1.0  0.59666  0.30557  0.20783  1.0000
  H   H1688     1.0  0.55245  0.46557  0.11097  1.0000
  C   C2121     1.0  0.52053  0.35823  0.56669  1.0000
  S   S313      1.0  0.62417  0.25091  0.97851  1.0000
  C   C2122     1.0  0.54343  0.46742  0.11087  1.0000
  H   H1689     1.0  0.60853  0.34300  0.12767  1.0000
  C   C2123     1.0  0.59283  0.42404  0.86947  1.0000
  C   C2124     1.0  0.60208  0.32475  0.17127  1.0000
  C   C2125     1.0  0.54736  0.33339  0.66285  1.0000
  H   H1690     1.0  0.62575  0.40011  0.66378  1.0000
  H   H1691     1.0  0.50893  0.46853  0.05154  1.0000
  C   C2126     1.0  0.59544  0.41782  0.83993  1.0000
  H   H1692     1.0  0.63233  0.34962  0.59573  1.0000
  H   H1693     1.0  0.51523  0.31073  0.67982  1.0000
  C   C2127     1.0  0.62192  0.36313  0.43893  1.0000
  H   H1694     1.0  0.62297  0.25327  0.14665  1.0000
  H   H1695     1.0  0.55637  0.33965  0.65829  1.0000
  C   C2128     1.0  0.53899  0.49010  0.99123  1.0000
  C   C2129     1.0  0.61750  0.25221  0.24562  1.0000
  C   C2130     1.0  0.60902  0.30749  0.14979  1.0000
  H   H1696     1.0  0.53582  0.33011  0.50412  1.0000
  H   H1697     1.0  0.49983  0.32071  0.62738  1.0000
  C   C2131     1.0  0.50598  0.47693  0.04005  1.0000
  C   C2132     1.0  0.60739  0.46380  0.62308  1.0000
  C   C2133     1.0  0.54302  0.33213  0.63012  1.0000
  H   H1698     1.0  0.62023  0.31256  0.08874  1.0000
  H   H1699     1.0  0.60037  0.30022  0.04572  1.0000
  H   H1700     1.0  0.54874  0.33746  0.60045  1.0000
  C   C2134     1.0  0.58299  0.30298  0.69900  1.0000
  C   C2135     1.0  0.58938  0.29773  0.67136  1.0000
  C   C2136     1.0  0.60078  0.29516  0.67402  1.0000
  C   C2137     1.0  0.60583  0.29786  0.70427  1.0000
  C   C2138     1.0  0.59949  0.30318  0.73219  1.0000
  C   C2139     1.0  0.58804  0.30578  0.72909  1.0000
  C   C2140     1.0  0.61692  0.32445  0.73920  1.0000
  C   C2141     1.0  0.62088  0.34448  0.68932  1.0000
  C   C2142     1.0  0.61339  0.33235  0.70957  1.0000
  H   H1701     1.0  0.57431  0.30529  0.69631  1.0000
  H   H1702     1.0  0.58565  0.29592  0.64728  1.0000
  H   H1703     1.0  0.60583  0.29136  0.65185  1.0000
  H   H1704     1.0  0.61480  0.29607  0.70498  1.0000
  H   H1705     1.0  0.58322  0.31048  0.74878  1.0000
  C   C2143     1.0  0.63848  0.38050  0.87624  1.0000
  H   H1706     1.0  0.60478  0.32929  0.70234  1.0000
  H   H1707     1.0  0.55767  0.46682  0.32094  1.0000
  C   C2144     1.0  0.50243  0.28764  0.61581  1.0000
  C   C2145     1.0  0.51207  0.40537  0.98028  1.0000
  H   H1708     1.0  0.63019  0.33117  0.83151  1.0000
  H   H1709     1.0  0.64950  0.47056  0.89217  1.0000
  C   C2146     1.0  0.49849  0.34233  0.03287  1.0000
  H   H1710     1.0  0.62249  0.45206  0.04792  1.0000
  H   H1711     1.0  0.64295  0.46686  0.01739  1.0000
  H   H1712     1.0  0.51204  0.37839  0.07771  1.0000
  H   H1713     1.0  0.62316  0.44299  0.93283  1.0000
  S   S314      1.0  0.60155  0.24703  0.39288  1.0000
  C   C2147     1.0  0.63297  0.32566  0.85547  1.0000
  H   H1714     1.0  0.63351  0.26028  0.19439  1.0000
  H   H1715     1.0  0.56150  0.49155  0.48473  1.0000
  H   H1716     1.0  0.60146  0.45366  0.04353  1.0000
  H   H1717     1.0  0.51469  0.45258  0.41106  1.0000
  H   H1718     1.0  0.50735  0.43467  0.55605  1.0000
  C   C2148     1.0  0.56568  0.41140  0.17279  1.0000
  C   C2149     1.0  0.55355  0.40478  0.17698  1.0000
  C   C2150     1.0  0.54358  0.40590  0.20583  1.0000
  C   C2151     1.0  0.54570  0.41362  0.23049  1.0000
  C   C2152     1.0  0.55786  0.42008  0.22722  1.0000
  C   C2153     1.0  0.56786  0.41894  0.19801  1.0000
  P   P71       1.0  0.56051  0.42870  0.26285  1.0000
  C   C2154     1.0  0.55997  0.41742  0.30866  1.0000
  C   C2155     1.0  0.57543  0.44024  0.24261  1.0000
  C   C2156     1.0  0.58656  0.43640  0.24212  1.0000
  C   C2157     1.0  0.59810  0.44526  0.22653  1.0000
  C   C2158     1.0  0.59865  0.45801  0.21090  1.0000
  C   C2159     1.0  0.58767  0.46191  0.21096  1.0000
  C   C2160     1.0  0.57611  0.45310  0.22668  1.0000
  C   C2161     1.0  0.56827  0.42027  0.33094  1.0000
  C   C2162     1.0  0.56783  0.41151  0.36624  1.0000
  C   C2163     1.0  0.55902  0.39989  0.37991  1.0000
  C   C2164     1.0  0.55046  0.39713  0.35866  1.0000
  C   C2165     1.0  0.55087  0.40586  0.32335  1.0000
  C   C2166     1.0  0.54834  0.43686  0.27282  1.0000
  C   C2167     1.0  0.54383  0.44261  0.24170  1.0000
  H   H1719     1.0  0.63749  0.35840  0.68331  1.0000
  C   C2168     1.0  0.53035  0.45066  0.28733  1.0000
  C   C2169     1.0  0.53463  0.44479  0.31850  1.0000
  C   C2170     1.0  0.54364  0.43797  0.31132  1.0000
  H   H1720     1.0  0.57340  0.41077  0.14981  1.0000
  H   H1721     1.0  0.55177  0.39888  0.15768  1.0000
  H   H1722     1.0  0.53417  0.40086  0.20875  1.0000
  H   H1723     1.0  0.53785  0.41445  0.25249  1.0000
  H   H1724     1.0  0.57733  0.42397  0.19411  1.0000
  H   H1725     1.0  0.58631  0.42653  0.25355  1.0000
  H   H1726     1.0  0.60665  0.44225  0.22604  1.0000
  H   H1727     1.0  0.60760  0.46486  0.19802  1.0000
  H   H1728     1.0  0.58815  0.47176  0.19785  1.0000
  H   H1729     1.0  0.56780  0.45640  0.22578  1.0000
  H   H1730     1.0  0.57491  0.42935  0.32159  1.0000
  H   H1731     1.0  0.58493  0.25930  0.28778  1.0000
  H   H1732     1.0  0.55851  0.39323  0.40771  1.0000
  H   H1733     1.0  0.54320  0.38839  0.37014  1.0000
  H   H1734     1.0  0.54386  0.40360  0.30833  1.0000
  H   H1735     1.0  0.54725  0.44179  0.21180  1.0000
  H   H1736     1.0  0.57981  0.38375  0.36703  1.0000
  C   C2171     1.0  0.49060  0.48607  0.01481  1.0000
  H   H1737     1.0  0.53084  0.44537  0.34840  1.0000
  H   H1738     1.0  0.54686  0.43356  0.33593  1.0000
  C   C2172     1.0  0.57416  0.39515  0.03390  1.0000
  C   C2173     1.0  0.56700  0.39798  0.06638  1.0000
  C   C2174     1.0  0.56343  0.40938  0.06098  1.0000
  C   C2175     1.0  0.56697  0.41798  0.02310  1.0000
  C   C2176     1.0  0.57386  0.41505  0.99008  1.0000
  C   C2177     1.0  0.57767  0.40369  0.99591  1.0000
  P   P72       1.0  0.57874  0.42635  0.94148  1.0000
  C   C2178     1.0  0.56646  0.43363  0.93106  1.0000
  C   C2179     1.0  0.59192  0.43810  0.94183  1.0000
  C   C2180     1.0  0.59023  0.44947  0.94984  1.0000
  C   C2181     1.0  0.60043  0.45863  0.94957  1.0000
  C   C2182     1.0  0.61231  0.45635  0.94289  1.0000
  C   C2183     1.0  0.61399  0.44484  0.93673  1.0000
  C   C2184     1.0  0.60382  0.43570  0.93633  1.0000
  C   C2185     1.0  0.56948  0.44510  0.90103  1.0000
  C   C2186     1.0  0.56019  0.45121  0.89395  1.0000
  C   C2187     1.0  0.54778  0.44581  0.91631  1.0000
  C   C2188     1.0  0.54464  0.43417  0.94511  1.0000
  C   C2189     1.0  0.55389  0.42799  0.95223  1.0000
  H   H1739     1.0  0.57673  0.38620  0.03798  1.0000
  H   H1740     1.0  0.56379  0.39114  0.09550  1.0000
  H   H1741     1.0  0.55758  0.41137  0.08599  1.0000
  H   H1742     1.0  0.56417  0.42681  0.01954  1.0000
  H   H1743     1.0  0.58326  0.40131  0.97126  1.0000
  H   H1744     1.0  0.58104  0.45128  0.95679  1.0000
  H   H1745     1.0  0.59906  0.46745  0.95511  1.0000
  H   H1746     1.0  0.60520  0.42676  0.93213  1.0000
  C   C2190     1.0  0.53271  0.45938  0.13919  1.0000
  H   H1747     1.0  0.52213  0.49072  0.82930  1.0000
  H   H1748     1.0  0.53502  0.43008  0.96255  1.0000
  H   H1749     1.0  0.55121  0.41897  0.97470  1.0000
  C   C2191     1.0  0.63216  0.41969  0.91484  1.0000
  C   C2192     1.0  0.62397  0.41212  0.90083  1.0000
  C   C2193     1.0  0.61328  0.40349  0.92753  1.0000
  C   C2194     1.0  0.61087  0.40228  0.96843  1.0000
  C   C2195     1.0  0.61927  0.40957  0.98290  1.0000
  C   C2196     1.0  0.62971  0.41858  0.95564  1.0000
  P   P73       1.0  0.61628  0.40841  0.03544  1.0000
  C   C2197     1.0  0.60437  0.39440  0.06594  1.0000
  C   C2198     1.0  0.62992  0.40735  0.05273  1.0000
  C   C2199     1.0  0.62976  0.40830  0.09124  1.0000
  C   C2200     1.0  0.64013  0.40729  0.10554  1.0000
  H   H1750     1.0  0.54392  0.44672  0.49467  1.0000
  C   C2201     1.0  0.54244  0.47739  0.08115  1.0000
  C   C2202     1.0  0.64052  0.40514  0.02902  1.0000
  C   C2203     1.0  0.59490  0.39490  0.09803  1.0000
  C   C2204     1.0  0.58561  0.38398  0.12073  1.0000
  C   C2205     1.0  0.58578  0.37250  0.11173  1.0000
  C   C2206     1.0  0.59543  0.37186  0.08077  1.0000
  C   C2207     1.0  0.60481  0.38272  0.05852  1.0000
  C   C2208     1.0  0.61146  0.42254  0.04043  1.0000
  C   C2209     1.0  0.59950  0.42356  0.03819  1.0000
  C   C2210     1.0  0.59583  0.43468  0.04002  1.0000
  C   C2211     1.0  0.60418  0.44493  0.04328  1.0000
  C   C2212     1.0  0.61611  0.44404  0.04534  1.0000
  C   C2213     1.0  0.61983  0.43291  0.04353  1.0000
  C   C2214     1.0  0.51736  0.33482  0.02514  1.0000
  H   H1751     1.0  0.62599  0.41284  0.86940  1.0000
  H   H1752     1.0  0.60699  0.39751  0.91672  1.0000
  H   H1753     1.0  0.60255  0.39550  0.98844  1.0000
  H   H1754     1.0  0.63610  0.42461  0.96600  1.0000
  H   H1755     1.0  0.62162  0.40987  0.11011  1.0000
  H   H1756     1.0  0.59541  0.41354  0.63148  1.0000
  H   H1757     1.0  0.59042  0.32958  0.86796  1.0000
  C   C2215     1.0  0.54098  0.32386  0.51658  1.0000
  H   H1758     1.0  0.64095  0.40423  0.99940  1.0000
  H   H1759     1.0  0.59462  0.40368  0.10561  1.0000
  H   H1760     1.0  0.57821  0.38443  0.14510  1.0000
  H   H1761     1.0  0.57845  0.36410  0.12878  1.0000
  H   H1762     1.0  0.59563  0.36300  0.07355  1.0000
  H   H1763     1.0  0.51170  0.36659  0.52386  1.0000
  P   P74       1.0  0.60702  0.30894  0.76636  1.0000
  H   H1764     1.0  0.62015  0.46343  0.94343  1.0000
  H   H1765     1.0  0.63111  0.43060  0.34935  1.0000
  C   C2216     1.0  0.49833  0.44205  0.00947  1.0000
  H   H1766     1.0  0.50713  0.44196  0.01623  1.0000
  H   H1767     1.0  0.60288  0.26709  0.13757  1.0000
  C   C2217     1.0  0.52108  0.46183  0.13959  1.0000
  C   C2218     1.0  0.57644  0.30075  0.86262  1.0000
  C   C2219     1.0  0.58489  0.30022  0.82827  1.0000
  H   H1768     1.0  0.56629  0.40268  0.93102  1.0000
  C   C2220     1.0  0.58895  0.32132  0.85715  1.0000
  C   C2221     1.0  0.63539  0.34109  0.72820  1.0000
  H   H1769     1.0  0.49413  0.45617  0.88786  1.0000
  H   H1770     1.0  0.56590  0.44207  0.57366  1.0000
  H   H1771     1.0  0.58327  0.29191  0.81769  1.0000
  H   H1772     1.0  0.60364  0.29056  0.84465  1.0000
  H   H1773     1.0  0.55250  0.32494  0.45857  1.0000
  C   C2222     1.0  0.57743  0.27281  0.10906  1.0000
  H   H1774     1.0  0.61848  0.48305  0.60419  1.0000
  C   C2223     1.0  0.50011  0.37227  0.13774  1.0000
  C   C2224     1.0  0.61629  0.29862  0.78466  1.0000
  S   S315      1.0  0.65321  0.27193  0.40499  1.0000
  H   H1775     1.0  0.63081  0.32312  0.77150  1.0000
  C   C2225     1.0  0.58244  0.41854  0.90303  1.0000
  P   P75       1.0  0.60874  0.43649  0.56445  1.0000
  H   H1776     1.0  0.50419  0.46168  0.97573  1.0000
  C   C2226     1.0  0.51910  0.48629  0.36534  1.0000
  C   C2227     1.0  0.48942  0.42242  0.71618  1.0000
  S   S316      1.0  0.49051  0.41695  0.05298  1.0000
  C   C2228     1.0  0.62789  0.29880  0.75991  1.0000
  C   C2229     1.0  0.57763  0.46656  0.06308  1.0000
  H   H1777     1.0  0.62737  0.46093  0.52383  1.0000
  H   H1778     1.0  0.59884  0.43315  0.86585  1.0000
  C   C2230     1.0  0.58658  0.26659  0.11665  1.0000
  C   C2231     1.0  0.63760  0.30930  0.40833  1.0000
  H   H1779     1.0  0.55368  0.47001  0.95168  1.0000
  C   C2232     1.0  0.64657  0.35347  0.97075  1.0000
  C   C2233     1.0  0.62283  0.39981  0.43572  1.0000
  H   H1780     1.0  0.56526  0.31127  0.48526  1.0000
  C   C2234     1.0  0.51517  0.48309  0.82716  1.0000
  C   C2235     1.0  0.62882  0.42203  0.37360  1.0000
  C   C2236     1.0  0.50767  0.38245  0.99833  1.0000
  H   H1781     1.0  0.54438  0.30766  0.60472  1.0000
  C   C2237     1.0  0.65331  0.46756  0.48340  1.0000
  S   S317      1.0  0.62546  0.25828  0.27736  1.0000
  H   H1782     1.0  0.50341  0.48665  0.61277  1.0000
  H   H1783     1.0  0.58295  0.47619  0.05634  1.0000
  C   C2238     1.0  0.54765  0.45649  0.49309  1.0000
  H   H1784     1.0  0.56124  0.30278  0.55830  1.0000
  C   C2239     1.0  0.63498  0.40447  0.41047  1.0000
  H   H1785     1.0  0.50712  0.34735  0.50114  1.0000
  C   C2240     1.0  0.58301  0.38134  0.39341  1.0000
  H   H1786     1.0  0.57141  0.40594  0.56379  1.0000
  H   H1787     1.0  0.62537  0.45232  0.65236  1.0000
  C   C2241     1.0  0.51838  0.35677  0.02227  1.0000
  C   C2242     1.0  0.62668  0.42700  0.59502  1.0000
  H   H1788     1.0  0.57858  0.36132  0.39957  1.0000
  C   C2243     1.0  0.60535  0.41487  0.62729  1.0000
  C   C2244     1.0  0.50658  0.43990  0.57819  1.0000
  C   C2245     1.0  0.57712  0.40081  0.87637  1.0000
  H   H1789     1.0  0.63972  0.29504  0.50222  1.0000
  C   C2246     1.0  0.63705  0.32432  0.53951  1.0000
  H   H1790     1.0  0.63707  0.29629  0.89010  1.0000
  C   C2247     1.0  0.54595  0.31140  0.57288  1.0000
  C   C2248     1.0  0.54611  0.47830  0.47834  1.0000
  C   C2249     1.0  0.63397  0.31337  0.85636  1.0000
  H   H1791     1.0  0.57808  0.38522  0.53322  1.0000
  S   S318      1.0  0.64039  0.48402  0.94708  1.0000
  C   C2250     1.0  0.55548  0.30855  0.54669  1.0000
  C   C2251     1.0  0.48841  0.36542  0.16330  1.0000
  H   H1792     1.0  0.53025  0.39561  0.90975  1.0000
  H   H1793     1.0  0.63880  0.32351  0.04389  1.0000
  H   H1794     1.0  0.61802  0.35051  0.66680  1.0000
  H   H1795     1.0  0.59678  0.32814  0.19405  1.0000
  H   H1796     1.0  0.53992  0.47074  0.01411  1.0000
  H   H1797     1.0  0.63814  0.28813  0.03813  1.0000
  H   H1798     1.0  0.53215  0.46253  0.47691  1.0000
  C   C2252     1.0  0.52193  0.33663  0.57022  1.0000
  C   C2253     1.0  0.55052  0.32099  0.49048  1.0000
  H   H1799     1.0  0.60297  0.38461  0.81445  1.0000
  H   H1800     1.0  0.64037  0.35611  0.52246  1.0000
  C   C2254     1.0  0.62529  0.28954  0.09063  1.0000
  C   C2255     1.0  0.53861  0.31909  0.55806  1.0000
  H   H1801     1.0  0.63383  0.34003  0.88622  1.0000
  H   H1802     1.0  0.51333  0.32821  0.53108  1.0000
  P   P76       1.0  0.52616  0.32244  0.59250  1.0000
  H   H1803     1.0  0.52580  0.45026  0.55676  1.0000
  H   H1804     1.0  0.50010  0.47337  0.76303  1.0000
  C   C2256     1.0  0.60214  0.31196  0.17910  1.0000
  C   C2257     1.0  0.51189  0.34737  0.52415  1.0000
  C   C2258     1.0  0.51551  0.33659  0.54095  1.0000
  H   H1805     1.0  0.53130  0.45377  0.22517  1.0000
  C   C2259     1.0  0.63642  0.28759  0.06961  1.0000
  C   C2260     1.0  0.50066  0.31153  0.62387  1.0000
  C   C2261     1.0  0.61094  0.39262  0.79964  1.0000
  C   C2262     1.0  0.52864  0.31830  0.70727  1.0000
  C   C2263     1.0  0.52419  0.31712  0.67453  1.0000
  C   C2264     1.0  0.51238  0.30956  0.60767  1.0000
  C   C2265     1.0  0.63370  0.44911  0.65391  1.0000
  C   C2266     1.0  0.52439  0.34757  0.58299  1.0000
  H   H1806     1.0  0.50222  0.44039  0.37743  1.0000
  C   C2267     1.0  0.51441  0.35819  0.53699  1.0000
  H   H1807     1.0  0.52315  0.31287  0.73722  1.0000
  H   H1808     1.0  0.52328  0.45581  0.29312  1.0000
  H   H1809     1.0  0.61842  0.29146  0.07507  1.0000
  H   H1810     1.0  0.62886  0.43036  0.80671  1.0000
  C   C2268     1.0  0.63162  0.41328  0.76137  1.0000
  H   H1811     1.0  0.55852  0.48943  0.30480  1.0000
  C   C2269     1.0  0.64441  0.39286  0.55503  1.0000
  C   C2270     1.0  0.63059  0.40549  0.79923  1.0000
  C   C2271     1.0  0.51320  0.29753  0.60382  1.0000
  C   C2272     1.0  0.65254  0.32679  0.41395  1.0000
  H   H1812     1.0  0.62221  0.34816  0.48781  1.0000
  H   H1813     1.0  0.63716  0.25261  0.50067  1.0000
  H   H1814     1.0  0.63254  0.44480  0.84812  1.0000
  C   C2273     1.0  0.62016  0.39536  0.81858  1.0000
  H   H1815     1.0  0.52209  0.29572  0.59158  1.0000
  H   H1816     1.0  0.52248  0.36665  0.57657  1.0000
  H   H1817     1.0  0.64428  0.29147  0.75504  1.0000
  H   H1818     1.0  0.61930  0.38944  0.84796  1.0000
  C   C2274     1.0  0.50551  0.35466  0.02671  1.0000
  H   H1819     1.0  0.63796  0.40716  0.81359  1.0000
  S   S319      1.0  0.62896  0.48318  0.35262  1.0000
  S   S320      1.0  0.65131  0.39584  0.62183  1.0000
  H   H1820     1.0  0.58847  0.40058  0.39464  1.0000
  C   C2275     1.0  0.65070  0.40526  0.08154  1.0000
  C   C2276     1.0  0.63804  0.43652  0.80005  1.0000
  H   H1821     1.0  0.62020  0.33512  0.07508  1.0000
  Fe  Fe158     1.0  0.60544  0.47750  0.07191  1.0000
  C   C2277     1.0  0.61794  0.25091  0.17792  1.0000
  H   H1822     1.0  0.59421  0.37247  0.48850  1.0000
  C   C2278     1.0  0.61542  0.31592  0.11221  1.0000
  H   H1823     1.0  0.57030  0.26858  0.09700  1.0000
  C   C2279     1.0  0.64517  0.28447  0.08935  1.0000
  C   C2280     1.0  0.63857  0.32357  0.91780  1.0000
  C   C2281     1.0  0.64005  0.44476  0.82338  1.0000
  H   H1824     1.0  0.60349  0.42201  0.81419  1.0000
  H   H1825     1.0  0.57136  0.39795  0.46970  1.0000
  C   C2282     1.0  0.61214  0.40000  0.76130  1.0000
  H   H1826     1.0  0.52618  0.41524  0.92501  1.0000
  C   C2283     1.0  0.64941  0.32250  0.98703  1.0000
  C   C2284     1.0  0.57956  0.45698  0.09200  1.0000
  C   C2285     1.0  0.63101  0.32138  0.45378  1.0000
  Fe  Fe159     1.0  0.63362  0.26326  0.40419  1.0000
  C   C2286     1.0  0.62735  0.35427  0.45834  1.0000
  H   H1827     1.0  0.57102  0.39177  0.87926  1.0000
  C   C2287     1.0  0.55051  0.47850  0.95289  1.0000
  C   C2288     1.0  0.52106  0.40611  0.94546  1.0000
  H   H1828     1.0  0.56773  0.43516  0.47171  1.0000
  C   C2289     1.0  0.61170  0.28947  0.23386  1.0000
  P   P77       1.0  0.53751  0.48990  0.46561  1.0000
  C   C2290     1.0  0.64169  0.38869  0.59656  1.0000
  C   C2291     1.0  0.64680  0.32093  0.02829  1.0000
  H   H1829     1.0  0.58944  0.40141  0.82052  1.0000
  C   C2292     1.0  0.58904  0.47831  0.28298  1.0000
  C   C2293     1.0  0.62245  0.41030  0.74216  1.0000
  C   C2294     1.0  0.60869  0.33312  0.13391  1.0000
  C   C2295     1.0  0.60812  0.39807  0.52851  1.0000
  H   H1830     1.0  0.65342  0.45918  0.83334  1.0000
  P   P78       1.0  0.49790  0.36733  0.02974  1.0000
  H   H1831     1.0  0.60512  0.39760  0.74635  1.0000
  C   C2296     1.0  0.61669  0.41748  0.39917  1.0000
  H   H1832     1.0  0.58347  0.47218  0.39990  1.0000
  C   C2297     1.0  0.61532  0.32869  0.10435  1.0000
  H   H1833     1.0  0.63118  0.38659  0.98022  1.0000
  C   C2298     1.0  0.61776  0.31328  0.00973  1.0000
  H   H1834     1.0  0.62243  0.30582  0.00655  1.0000
  C   C2299     1.0  0.60526  0.31007  0.03202  1.0000
  H   H1835     1.0  0.58904  0.31695  0.05088  1.0000
  C   C2300     1.0  0.59886  0.31949  0.03481  1.0000
  C   C2301     1.0  0.62290  0.28860  0.13160  1.0000
  C   C2302     1.0  0.52656  0.48908  0.51169  1.0000
  H   H1836     1.0  0.60347  0.42678  0.46135  1.0000
  C   C2303     1.0  0.58776  0.39083  0.40940  1.0000
  C   C2304     1.0  0.62822  0.31167  0.43624  1.0000
  H   H1837     1.0  0.65253  0.41246  0.67890  1.0000
  C   C2305     1.0  0.50543  0.39360  0.00675  1.0000
  C   C2306     1.0  0.57350  0.42851  0.46991  1.0000
  C   C2307     1.0  0.55932  0.46018  0.49933  1.0000
  H   H1838     1.0  0.49104  0.35570  0.96936  1.0000
  P   P79       1.0  0.60825  0.29081  0.15845  1.0000
  C   C2308     1.0  0.64295  0.28361  0.12998  1.0000
  H   H1839     1.0  0.62638  0.42359  0.52407  1.0000
  H   H1840     1.0  0.50312  0.27838  0.61270  1.0000
  H   H1841     1.0  0.62172  0.34513  0.97553  1.0000
  C   C2309     1.0  0.64561  0.36126  0.40127  1.0000
  C   C2310     1.0  0.59111  0.37509  0.46197  1.0000
  H   H1842     1.0  0.58668  0.29905  0.13757  1.0000
  H   H1843     1.0  0.62921  0.35693  0.83414  1.0000
  C   C2311     1.0  0.59586  0.27205  0.13181  1.0000
  H   H1844     1.0  0.57663  0.37876  0.60509  1.0000
  H   H1845     1.0  0.54715  0.48454  0.61330  1.0000
  Fe  Fe160     1.0  0.62769  0.48850  0.99816  1.0000
  C   C2312     1.0  0.64706  0.35946  0.79206  1.0000
  C   C2313     1.0  0.58679  0.28999  0.13197  1.0000
  H   H1846     1.0  0.56262  0.46024  0.87158  1.0000
  H   H1847     1.0  0.61922  0.29789  0.21929  1.0000
  H   H1848     1.0  0.64601  0.27685  0.95842  1.0000
  H   H1849     1.0  0.61877  0.30590  0.44455  1.0000
  C   C2314     1.0  0.56720  0.42345  0.56981  1.0000
  C   C2315     1.0  0.62165  0.46154  0.55158  1.0000
  C   C2316     1.0  0.59605  0.28379  0.13953  1.0000
  C   C2317     1.0  0.63089  0.41796  0.61882  1.0000
  H   H1850     1.0  0.63217  0.30937  0.83283  1.0000
  H   H1851     1.0  0.58995  0.26799  0.21505  1.0000
  C   C2318     1.0  0.64749  0.29243  0.48510  1.0000
  H   H1852     1.0  0.53268  0.47601  0.34734  1.0000
  S   S321      1.0  0.59944  0.45624  0.37637  1.0000
  H   H1853     1.0  0.64419  0.46032  0.59420  1.0000
  C   C2319     1.0  0.56424  0.47284  0.49627  1.0000
  C   C2320     1.0  0.63532  0.36180  0.80446  1.0000
  H   H1854     1.0  0.62246  0.37256  0.78863  1.0000
  C   C2321     1.0  0.63818  0.34619  0.53849  1.0000
  H   H1855     1.0  0.64996  0.35282  0.81271  1.0000
  C   C2322     1.0  0.61743  0.33537  0.99230  1.0000
  C   C2323     1.0  0.64469  0.43631  0.69089  1.0000
  C   C2324     1.0  0.60886  0.28435  0.27518  1.0000
  C   C2325     1.0  0.63146  0.37065  0.77885  1.0000
  C   C2326     1.0  0.63187  0.28564  0.15108  1.0000
  C   C2327     1.0  0.59524  0.27277  0.23133  1.0000
  H   H1856     1.0  0.63546  0.30152  0.39569  1.0000
  C   C2328     1.0  0.61370  0.40650  0.43110  1.0000
  C   C2329     1.0  0.60493  0.28370  0.21155  1.0000
  C   C2330     1.0  0.50993  0.48700  0.58514  1.0000
  C   C2331     1.0  0.63801  0.41563  0.37957  1.0000
  C   C2332     1.0  0.58622  0.43233  0.46632  1.0000
  H   H1857     1.0  0.50708  0.37691  0.14952  1.0000
  C   C2333     1.0  0.57504  0.41529  0.56624  1.0000
  H   H1858     1.0  0.55751  0.42034  0.57042  1.0000
  H   H1859     1.0  0.54059  0.45066  0.91160  1.0000
  H   H1860     1.0  0.57708  0.45953  0.30685  1.0000
  H   H1861     1.0  0.59030  0.44197  0.46527  1.0000
  C   C2334     1.0  0.64695  0.38958  0.88451  1.0000
  C   C2335     1.0  0.62681  0.37660  0.55621  1.0000
  H   H1862     1.0  0.63346  0.43514  0.57340  1.0000
  H   H1863     1.0  0.63024  0.28448  0.18276  1.0000
  H   H1864     1.0  0.62581  0.43761  0.71450  1.0000
  H   H1865     1.0  0.59548  0.38395  0.62808  1.0000
  H   H1866     1.0  0.51484  0.48562  0.34147  1.0000
  H   H1867     1.0  0.61677  0.27750  0.86934  1.0000
  H   H1868     1.0  0.51011  0.41391  0.98678  1.0000
  C   C2336     1.0  0.52970  0.48751  0.42841  1.0000
  H   H1869     1.0  0.62334  0.41571  0.71221  1.0000
  C   C2337     1.0  0.62922  0.44240  0.43240  1.0000
  H   H1870     1.0  0.59752  0.47506  0.27709  1.0000
  C   C2338     1.0  0.54106  0.46552  0.48254  1.0000
  S   S322      1.0  0.59174  0.46007  0.11373  1.0000
  P   P80       1.0  0.63982  0.32964  0.95955  1.0000
  C   C2339     1.0  0.63912  0.31108  0.91920  1.0000
  C   C2340     1.0  0.52757  0.47989  0.70566  1.0000
  C   C2341     1.0  0.58629  0.38770  0.54303  1.0000
  C   C2342     1.0  0.59158  0.38773  0.44426  1.0000
  H   H1871     1.0  0.59362  0.41301  0.56102  1.0000
  H   H1872     1.0  0.59705  0.26955  0.32664  1.0000
  C   C2343     1.0  0.64424  0.39191  0.92185  1.0000
  C   C2344     1.0  0.63367  0.34255  0.58013  1.0000
  C   C2345     1.0  0.58661  0.36566  0.44532  1.0000
  C   C2346     1.0  0.58760  0.41930  0.56475  1.0000
  C   C2347     1.0  0.63513  0.33070  0.88633  1.0000
  C   C2348     1.0  0.59916  0.27355  0.29465  1.0000
  C   C2349     1.0  0.57195  0.43568  0.57148  1.0000
  H   H1873     1.0  0.60878  0.45385  0.49064  1.0000
  H   H1874     1.0  0.57412  0.41389  0.38358  1.0000
  C   C2350     1.0  0.59232  0.26780  0.27275  1.0000
  C   C2351     1.0  0.63536  0.29130  0.77437  1.0000
  H   H1875     1.0  0.61426  0.28867  0.29220  1.0000
  H   H1876     1.0  0.65263  0.31505  0.08136  1.0000
  H   H1877     1.0  0.61976  0.45714  0.41996  1.0000
  C   C2352     1.0  0.63925  0.37711  0.74073  1.0000
  H   H1878     1.0  0.64061  0.37876  0.84731  1.0000
  C   C2353     1.0  0.58856  0.41144  0.46343  1.0000
  C   C2354     1.0  0.58453  0.43973  0.56985  1.0000
  H   H1879     1.0  0.63116  0.48097  0.54081  1.0000
  H   H1880     1.0  0.55843  0.41328  0.47293  1.0000
  C   C2355     1.0  0.59767  0.39451  0.51505  1.0000
  C   C2356     1.0  0.57572  0.40760  0.46772  1.0000
  H   H1881     1.0  0.63859  0.31713  0.52453  1.0000
  H   H1882     1.0  0.57053  0.28940  0.11015  1.0000
  C   C2357     1.0  0.59239  0.43143  0.56748  1.0000
  H   H1883     1.0  0.52196  0.47222  0.73130  1.0000
  C   C2358     1.0  0.61494  0.44793  0.48299  1.0000
  C   C2359     1.0  0.56660  0.47369  0.30767  1.0000
  C   C2360     1.0  0.64432  0.45367  0.62121  1.0000
  C   C2361     1.0  0.61390  0.42528  0.59798  1.0000
  C   C2362     1.0  0.60732  0.39428  0.56916  1.0000
  C   C2363     1.0  0.65180  0.45294  0.81494  1.0000
  Fe  Fe161     1.0  0.63232  0.25345  0.02844  1.0000
  S   S323      1.0  0.60278  0.49298  0.35581  1.0000
  C   C2364     1.0  0.52431  0.34695  0.02072  1.0000
  H   H1884     1.0  0.63427  0.44416  0.40141  1.0000
  C   C2365     1.0  0.59370  0.42380  0.46337  1.0000
  C   C2366     1.0  0.63932  0.35345  0.43995  1.0000
  C   C2367     1.0  0.63134  0.28359  0.81369  1.0000
  H   H1885     1.0  0.62409  0.37798  0.38614  1.0000
  C   C2368     1.0  0.60495  0.33213  0.01498  1.0000
  S   S324      1.0  0.65273  0.26127  0.02333  1.0000
  C   C2369     1.0  0.64786  0.34613  0.94377  1.0000
  C   C2370     1.0  0.60509  0.45234  0.61334  1.0000
  H   H1886     1.0  0.62360  0.32297  0.47575  1.0000
  C   C2371     1.0  0.63690  0.30604  0.88840  1.0000
  C   C2372     1.0  0.51597  0.45529  0.60737  1.0000
  C   C2373     1.0  0.63119  0.37871  0.61809  1.0000
  C   C2374     1.0  0.64324  0.32894  0.44312  1.0000
  C   C2375     1.0  0.61685  0.43861  0.51293  1.0000
  H   H1887     1.0  0.63627  0.38402  0.72088  1.0000
  H   H1888     1.0  0.58807  0.44937  0.56984  1.0000
  C   C2376     1.0  0.63073  0.32980  0.60143  1.0000
  S   S325      1.0  0.64105  0.48429  0.45051  1.0000
  C   C2377     1.0  0.58544  0.38416  0.58374  1.0000
  C   C2378     1.0  0.53491  0.44953  0.24900  1.0000
  C   C2379     1.0  0.50614  0.48026  0.55972  1.0000
  S   S326      1.0  0.60821  0.47903  0.43855  1.0000
  C   C2380     1.0  0.58238  0.36874  0.41151  1.0000
  H   H1889     1.0  0.60970  0.42254  0.39382  1.0000
  H   H1890     1.0  0.62705  0.32694  0.63361  1.0000
  H   H1891     1.0  0.63600  0.28123  0.45859  1.0000
  H   H1892     1.0  0.49080  0.44622  0.20757  1.0000
  H   H1893     1.0  0.61693  0.40367  0.50796  1.0000
  H   H1894     1.0  0.63126  0.30485  0.72952  1.0000
  C   C2381     1.0  0.65090  0.40422  0.04329  1.0000
  C   C2382     1.0  0.65088  0.37466  0.72801  1.0000
  H   H1895     1.0  0.64078  0.41908  0.61550  1.0000
  C   C2383     1.0  0.59602  0.38719  0.59674  1.0000
  H   H1896     1.0  0.49847  0.42755  0.69595  1.0000
  C   C2384     1.0  0.57755  0.28452  0.11658  1.0000
  H   H1897     1.0  0.56469  0.45331  0.50549  1.0000
  P   P81       1.0  0.59801  0.40016  0.46345  1.0000
  C   C2385     1.0  0.63395  0.44066  0.68890  1.0000
  C   C2386     1.0  0.62239  0.40727  0.64626  1.0000
  H   H1898     1.0  0.58606  0.35587  0.45926  1.0000
  C   C2387     1.0  0.64567  0.47003  0.95427  1.0000
  C   C2388     1.0  0.62833  0.37110  0.40087  1.0000
  H   H1899     1.0  0.59780  0.44441  0.63376  1.0000
  Fe  Fe162     1.0  0.60839  0.47531  0.37988  1.0000
  C   C2389     1.0  0.50288  0.37310  0.09702  1.0000
  H   H1900     1.0  0.63998  0.40812  0.13518  1.0000
  H   H1901     1.0  0.51143  0.47573  0.50431  1.0000
  H   H1902     1.0  0.64094  0.30509  0.94447  1.0000
  C   C2390     1.0  0.57752  0.46954  0.29977  1.0000
  C   C2391     1.0  0.51448  0.48115  0.52336  1.0000
  H   H1903     1.0  0.62058  0.39100  0.45908  1.0000
  H   H1904     1.0  0.61278  0.36387  0.45382  1.0000
  C   C2392     1.0  0.62483  0.43101  0.50201  1.0000
  C   C2393     1.0  0.51395  0.48902  0.03050  1.0000
  H   H1905     1.0  0.51280  0.45553  0.16165  1.0000
  H   H1906     1.0  0.63014  0.31080  0.59739  1.0000
  H   H1907     1.0  0.60301  0.39765  0.67290  1.0000
  C   C2394     1.0  0.64781  0.43640  0.76821  1.0000
  C   C2395     1.0  0.62400  0.32597  0.99034  1.0000
  C   C2396     1.0  0.53444  0.48155  0.39993  1.0000
  C   C2397     1.0  0.62392  0.47296  0.56137  1.0000
  H   H1908     1.0  0.50413  0.45796  0.65889  1.0000
  H   H1909     1.0  0.59987  0.33938  0.01608  1.0000
  C   C2398     1.0  0.51697  0.44868  0.57856  1.0000
  H   H1910     1.0  0.57337  0.47582  0.50056  1.0000
  C   C2399     1.0  0.63241  0.32070  0.58110  1.0000
  C   C2400     1.0  0.63108  0.43300  0.46189  1.0000
  H   H1911     1.0  0.61555  0.39668  0.57912  1.0000
  H   H1912     1.0  0.54235  0.47753  0.40155  1.0000
  C   C2401     1.0  0.48992  0.30162  0.63580  1.0000
  H   H1913     1.0  0.51818  0.37482  0.95496  1.0000
  H   H1914     1.0  0.51058  0.47356  0.89005  1.0000
  C   C2402     1.0  0.64017  0.37013  0.38192  1.0000
  H   H1915     1.0  0.60186  0.46472  0.65072  1.0000
  C   C2403     1.0  0.49665  0.45321  0.98643  1.0000
  C   C2404     1.0  0.60960  0.40587  0.65117  1.0000
  P   P82       1.0  0.64531  0.42615  0.73701  1.0000
  C   C2405     1.0  0.52331  0.39506  0.93679  1.0000
  C   C2406     1.0  0.63977  0.33708  0.51785  1.0000
  H   H1916     1.0  0.63758  0.42742  0.45370  1.0000
  C   C2407     1.0  0.48856  0.41157  0.74611  1.0000
  C   C2408     1.0  0.50460  0.45298  0.63621  1.0000
  C   C2409     1.0  0.51654  0.38326  0.96284  1.0000
  C   C2410     1.0  0.49644  0.46345  0.82482  1.0000
  C   C2411     1.0  0.64536  0.28459  0.46037  1.0000
  H   H1917     1.0  0.52403  0.46217  0.60737  1.0000
  S   S327      1.0  0.60731  0.48152  0.00665  1.0000
  H   H1918     1.0  0.64054  0.42629  0.89426  1.0000
  C   C2412     1.0  0.61677  0.47412  0.59699  1.0000
  H   H1919     1.0  0.63935  0.38999  0.50270  1.0000
  C   C2413     1.0  0.51443  0.49239  0.39332  1.0000
  C   C2414     1.0  0.49935  0.46352  0.86063  1.0000
  P   P83       1.0  0.52937  0.49103  0.03763  1.0000
  H   H1920     1.0  0.51095  0.47366  0.11136  1.0000
  H   H1921     1.0  0.64510  0.37620  0.35224  1.0000
  C   C2415     1.0  0.61202  0.45123  0.57705  1.0000
  C   C2416     1.0  0.50278  0.47328  0.79020  1.0000
  C   C2417     1.0  0.65146  0.46715  0.41778  1.0000
  C   C2418     1.0  0.49828  0.44669  0.39255  1.0000
  H   H1922     1.0  0.52384  0.36600  0.02007  1.0000
  C   C2419     1.0  0.56718  0.48662  0.29897  1.0000
  C   C2420     1.0  0.64906  0.47215  0.45031  1.0000
  C   C2421     1.0  0.52815  0.49253  0.70544  1.0000
  C   C2422     1.0  0.55757  0.48183  0.48651  1.0000
  C   C2423     1.0  0.61986  0.28338  0.83861  1.0000
  H   H1923     1.0  0.65141  0.44779  0.02534  1.0000
  C   C2424     1.0  0.53067  0.47938  0.07967  1.0000
  H   H1924     1.0  0.63711  0.27776  0.82497  1.0000
  C   C2425     1.0  0.49515  0.43770  0.60657  1.0000
  C   C2426     1.0  0.51225  0.48316  0.79100  1.0000
  C   C2427     1.0  0.55413  0.48890  0.91911  1.0000
  C   C2428     1.0  0.50870  0.47333  0.86180  1.0000
  H   H1925     1.0  0.55081  0.48316  0.05827  1.0000
  H   H1926     1.0  0.65071  0.39896  0.92832  1.0000
  H   H1927     1.0  0.53432  0.34877  0.01620  1.0000
  H   H1928     1.0  0.48731  0.43078  0.60560  1.0000
  C   C2429     1.0  0.49405  0.44423  0.63586  1.0000
  C   C2430     1.0  0.50024  0.46146  0.43203  1.0000
  C   C2431     1.0  0.64976  0.31685  0.39722  1.0000
  C   C2432     1.0  0.49593  0.45075  0.25807  1.0000
  Fe  Fe163     1.0  0.62853  0.48828  0.41003  1.0000
  C   C2433     1.0  0.50443  0.33247  0.03163  1.0000
  H   H1929     1.0  0.53388  0.46726  0.67279  1.0000
  P   P84       1.0  0.64636  0.34194  0.46440  1.0000
  C   C2434     1.0  0.53438  0.47703  0.67247  1.0000
  C   C2435     1.0  0.49080  0.28968  0.63175  1.0000
  C   C2436     1.0  0.58965  0.49124  0.27335  1.0000
  H   H1930     1.0  0.56019  0.48855  0.89151  1.0000
  H   H1931     1.0  0.64745  0.41928  0.36019  1.0000
  H   H1932     1.0  0.64008  0.34960  0.00023  1.0000
  H   H1933     1.0  0.64967  0.28102  0.14545  1.0000
  H   H1934     1.0  0.65161  0.47146  0.50852  1.0000
  C   C2437     1.0  0.49419  0.47554  0.03343  1.0000
  H   H1935     1.0  0.49901  0.32300  0.03594  1.0000
  C   C2438     1.0  0.64995  0.46563  0.92122  1.0000
  H   H1936     1.0  0.49195  0.44223  0.52096  1.0000
  H   H1937     1.0  0.49688  0.40841  0.74862  1.0000
  C   C2439     1.0  0.54188  0.48674  0.63902  1.0000
  H   H1938     1.0  0.50556  0.46647  0.44774  1.0000
  C   C2440     1.0  0.49396  0.36700  0.08164  1.0000
  C   C2441     1.0  0.50535  0.45358  0.41146  1.0000
  C   C2442     1.0  0.51975  0.49307  0.42460  1.0000
  C   C2443     1.0  0.65093  0.45271  0.99624  1.0000
  H   H1939     1.0  0.50520  0.45627  0.24054  1.0000
  C   C2444     1.0  0.52205  0.49461  0.57424  1.0000
  C   C2445     1.0  0.49230  0.44874  0.29948  1.0000
  H   H1940     1.0  0.65359  0.28256  0.07314  1.0000
  H   H1941     1.0  0.49885  0.45290  0.31341  1.0000
  C   C2446     1.0  0.65389  0.36584  0.96010  1.0000
  C   C2447     1.0  0.64173  0.24496  0.50610  1.0000
  C   C2448     1.0  0.60515  0.24496  0.25924  1.0000
  C   C2449     1.0  0.48864  0.43107  0.02367  1.0000
  H   H1942     1.0  0.64842  0.24545  0.97249  1.0000
  H   H1943     1.0  0.48897  0.45598  0.82435  1.0000
  S   S328      1.0  0.48853  0.41468  0.53941  1.0000
  H   H1944     1.0  0.48804  0.46620  0.04083  1.0000
  C   C2450     1.0  0.48823  0.46281  0.43251  1.0000
  C   C2451     1.0  0.48781  0.44511  0.23939  1.0000
  Fe  Fe164     1.0  0.53756  0.57029  0.52575  1.0000
  S   S329      1.0  0.53114  0.55690  0.58765  1.0000
  S   S330      1.0  0.52538  0.58447  0.52615  1.0000
  Fe  Fe165     1.0  0.55691  0.55563  0.49862  1.0000
  S   S331      1.0  0.55146  0.54143  0.55834  1.0000
  S   S332      1.0  0.57267  0.55428  0.44859  1.0000
  Fe  Fe166     1.0  0.53197  0.54169  0.55721  1.0000
  S   S333      1.0  0.51661  0.52405  0.58412  1.0000
  Fe  Fe167     1.0  0.55114  0.55790  0.58385  1.0000
  S   S334      1.0  0.55926  0.55597  0.63644  1.0000
  S   S335      1.0  0.53710  0.55472  0.49541  1.0000
  S   S336      1.0  0.55794  0.57243  0.52390  1.0000
  C   C2452     1.0  0.53811  0.67281  0.98735  1.0000
  C   C2453     1.0  0.49350  0.56878  0.58875  1.0000
  H   H1945     1.0  0.49672  0.66180  0.05006  1.0000
  C   C2454     1.0  0.51548  0.53791  0.67926  1.0000
  S   S337      1.0  0.50685  0.61889  0.39413  1.0000
  H   H1946     1.0  0.51816  0.56201  0.74103  1.0000
  C   C2455     1.0  0.62499  0.50336  0.17448  1.0000
  C   C2456     1.0  0.50404  0.56254  0.46576  1.0000
  S   S338      1.0  0.58895  0.50253  0.45486  1.0000
  C   C2457     1.0  0.50225  0.55211  0.97557  1.0000
  H   H1947     1.0  0.49892  0.56929  0.55909  1.0000
  Fe  Fe168     1.0  0.62341  0.50128  0.33229  1.0000
  C   C2458     1.0  0.58815  0.52234  0.28688  1.0000
  C   C2459     1.0  0.54779  0.52251  0.24737  1.0000
  S   S339      1.0  0.62491  0.50741  0.38760  1.0000
  C   C2460     1.0  0.59085  0.57682  0.48957  1.0000
  C   C2461     1.0  0.54228  0.50033  0.95677  1.0000
  H   H1948     1.0  0.64325  0.53274  0.19567  1.0000
  H   H1949     1.0  0.49626  0.50612  0.98686  1.0000
  C   C2462     1.0  0.54033  0.51971  0.28663  1.0000
  S   S340      1.0  0.50114  0.62008  0.95313  1.0000
  C   C2463     1.0  0.52577  0.51130  0.06814  1.0000
  Fe  Fe169     1.0  0.54613  0.56912  0.84102  1.0000
  S   S341      1.0  0.55584  0.57789  0.88039  1.0000
  S   S342      1.0  0.54476  0.57953  0.78055  1.0000
  Fe  Fe170     1.0  0.53536  0.54410  0.90381  1.0000
  S   S343      1.0  0.54407  0.55047  0.94834  1.0000
  S   S344      1.0  0.52395  0.52420  0.91929  1.0000
  Fe  Fe171     1.0  0.53803  0.56838  0.92932  1.0000
  S   S345      1.0  0.52822  0.57538  0.97971  1.0000
  Fe  Fe172     1.0  0.56112  0.55930  0.89658  1.0000
  S   S346      1.0  0.58032  0.55865  0.90424  1.0000
  S   S347      1.0  0.52792  0.56117  0.88898  1.0000
  S   S348      1.0  0.55287  0.55138  0.85322  1.0000
  C   C2464     1.0  0.50439  0.66332  0.13525  1.0000
  H   H1950     1.0  0.48881  0.63271  0.26780  1.0000
  C   C2465     1.0  0.54989  0.49976  0.92094  1.0000
  P   P85       1.0  0.57961  0.51227  0.26366  1.0000
  S   S349      1.0  0.58959  0.50580  0.98429  1.0000
  H   H1951     1.0  0.58923  0.55677  0.50307  1.0000
  C   C2466     1.0  0.51642  0.56424  0.44432  1.0000
  H   H1952     1.0  0.49798  0.71450  0.35758  1.0000
  H   H1953     1.0  0.56084  0.58470  0.59592  1.0000
  C   C2467     1.0  0.55922  0.50740  0.41611  1.0000
  C   C2468     1.0  0.58301  0.54392  0.92569  1.0000
  C   C2469     1.0  0.57426  0.53260  0.93215  1.0000
  C   C2470     1.0  0.57665  0.52102  0.94915  1.0000
  C   C2471     1.0  0.58763  0.52065  0.96069  1.0000
  C   C2472     1.0  0.59640  0.53196  0.95425  1.0000
  C   C2473     1.0  0.59410  0.54356  0.93664  1.0000
  H   H1954     1.0  0.56573  0.53274  0.92359  1.0000
  H   H1955     1.0  0.56999  0.51227  0.95322  1.0000
  H   H1956     1.0  0.60493  0.53176  0.96266  1.0000
  H   H1957     1.0  0.60094  0.55229  0.93144  1.0000
  C   C2474     1.0  0.51243  0.52238  0.89421  1.0000
  C   C2475     1.0  0.51036  0.53282  0.86900  1.0000
  C   C2476     1.0  0.50108  0.53115  0.84932  1.0000
  H   H1958     1.0  0.56300  0.49944  0.41204  1.0000
  C   C2477     1.0  0.52181  0.59795  0.71346  1.0000
  C   C2478     1.0  0.50528  0.51026  0.89924  1.0000
  H   H1959     1.0  0.51609  0.54213  0.86381  1.0000
  C   C2479     1.0  0.49567  0.50934  0.68449  1.0000
  C   C2480     1.0  0.52422  0.53839  0.70103  1.0000
  H   H1960     1.0  0.50702  0.50210  0.91785  1.0000
  C   C2481     1.0  0.50792  0.60707  0.96025  1.0000
  C   C2482     1.0  0.50449  0.59788  0.99704  1.0000
  C   C2483     1.0  0.51063  0.58807  0.00240  1.0000
  C   C2484     1.0  0.52008  0.58724  0.97086  1.0000
  C   C2485     1.0  0.52327  0.59621  0.93376  1.0000
  C   C2486     1.0  0.51725  0.60612  0.92857  1.0000
  C   C2487     1.0  0.51552  0.66382  0.05615  1.0000
  H   H1961     1.0  0.50813  0.58116  0.03118  1.0000
  H   H1962     1.0  0.53060  0.59569  0.90939  1.0000
  H   H1963     1.0  0.51996  0.61321  0.90006  1.0000
  H   H1964     1.0  0.53752  0.62879  0.95767  1.0000
  C   C2488     1.0  0.49499  0.73191  0.27076  1.0000
  C   C2489     1.0  0.60995  0.63397  0.53623  1.0000
  P   P86       1.0  0.52247  0.66271  0.00668  1.0000
  C   C2490     1.0  0.50316  0.66333  0.92241  1.0000
  C   C2491     1.0  0.54045  0.68508  0.96216  1.0000
  C   C2492     1.0  0.49328  0.56572  0.90153  1.0000
  H   H1965     1.0  0.50802  0.56365  0.80995  1.0000
  C   C2493     1.0  0.50877  0.55525  0.70066  1.0000
  H   H1966     1.0  0.49730  0.59848  0.02157  1.0000
  H   H1967     1.0  0.54643  0.50422  0.73322  1.0000
  C   C2494     1.0  0.55641  0.51413  0.13517  1.0000
  C   C2495     1.0  0.49583  0.50194  0.76418  1.0000
  H   H1968     1.0  0.49107  0.55154  0.86976  1.0000
  C   C2496     1.0  0.55492  0.56258  0.67609  1.0000
  C   C2497     1.0  0.55927  0.55915  0.70965  1.0000
  C   C2498     1.0  0.55600  0.56410  0.74214  1.0000
  C   C2499     1.0  0.54857  0.57274  0.74092  1.0000
  C   C2500     1.0  0.54443  0.57637  0.70699  1.0000
  C   C2501     1.0  0.54736  0.57112  0.67498  1.0000
  H   H1969     1.0  0.56518  0.55260  0.71058  1.0000
  H   H1970     1.0  0.55954  0.56148  0.76756  1.0000
  H   H1971     1.0  0.53879  0.58313  0.70567  1.0000
  H   H1972     1.0  0.54364  0.57355  0.64983  1.0000
  C   C2502     1.0  0.57795  0.54018  0.45280  1.0000
  C   C2503     1.0  0.57130  0.52906  0.48267  1.0000
  C   C2504     1.0  0.57508  0.51776  0.48351  1.0000
  C   C2505     1.0  0.58548  0.51736  0.45430  1.0000
  C   C2506     1.0  0.59237  0.52853  0.42498  1.0000
  C   C2507     1.0  0.58860  0.53989  0.42420  1.0000
  H   H1973     1.0  0.56300  0.52904  0.50441  1.0000
  H   H1974     1.0  0.56974  0.50924  0.50655  1.0000
  H   H1975     1.0  0.60048  0.52834  0.40271  1.0000
  H   H1976     1.0  0.59383  0.54843  0.40101  1.0000
  C   C2508     1.0  0.52011  0.59356  0.48871  1.0000
  C   C2509     1.0  0.52600  0.59620  0.44797  1.0000
  C   C2510     1.0  0.52171  0.60383  0.41952  1.0000
  C   C2511     1.0  0.51154  0.60897  0.43137  1.0000
  C   C2512     1.0  0.50568  0.60636  0.47215  1.0000
  C   C2513     1.0  0.50994  0.59870  0.50059  1.0000
  H   H1977     1.0  0.53405  0.59264  0.43835  1.0000
  H   H1978     1.0  0.52642  0.60593  0.38810  1.0000
  H   H1979     1.0  0.49802  0.61046  0.48182  1.0000
  H   H1980     1.0  0.50541  0.59688  0.53203  1.0000
  H   H1981     1.0  0.51634  0.50568  0.08322  1.0000
  C   C2514     1.0  0.50864  0.51964  0.48238  1.0000
  C   C2515     1.0  0.51474  0.52389  0.50876  1.0000
  C   C2516     1.0  0.50920  0.51935  0.55002  1.0000
  C   C2517     1.0  0.49759  0.51069  0.56474  1.0000
  C   C2518     1.0  0.50758  0.54611  0.67969  1.0000
  H   H1982     1.0  0.51297  0.52300  0.45055  1.0000
  H   H1983     1.0  0.52381  0.53043  0.49723  1.0000
  C   C2519     1.0  0.62030  0.55630  0.98543  1.0000
  C   C2520     1.0  0.59442  0.59018  0.63336  1.0000
  C   C2521     1.0  0.58711  0.56318  0.55601  1.0000
  C   C2522     1.0  0.55937  0.50613  0.11163  1.0000
  H   H1984     1.0  0.56538  0.52263  0.20945  1.0000
  C   C2523     1.0  0.61525  0.54477  0.01486  1.0000
  H   H1985     1.0  0.56713  0.59646  0.70727  1.0000
  C   C2524     1.0  0.59963  0.62357  0.55301  1.0000
  H   H1986     1.0  0.49963  0.53918  0.82935  1.0000
  C   C2525     1.0  0.50885  0.54478  0.99555  1.0000
  H   H1987     1.0  0.58444  0.57180  0.60367  1.0000
  C   C2526     1.0  0.49869  0.49805  0.00354  1.0000
  C   C2527     1.0  0.61085  0.61113  0.51789  1.0000
  C   C2528     1.0  0.58841  0.58561  0.54629  1.0000
  C   C2529     1.0  0.54263  0.49933  0.63874  1.0000
  C   C2530     1.0  0.57478  0.59475  0.68651  1.0000
  S   S350      1.0  0.63168  0.51516  0.27065  1.0000
  C   C2531     1.0  0.54133  0.53110  0.05102  1.0000
  C   C2532     1.0  0.51336  0.58637  0.72040  1.0000
  C   C2533     1.0  0.60141  0.56296  0.00754  1.0000
  C   C2534     1.0  0.55415  0.56755  0.05741  1.0000
  Fe  Fe173     1.0  0.48894  0.62584  0.40035  1.0000
  C   C2535     1.0  0.48822  0.63052  0.20974  1.0000
  H   H1988     1.0  0.60048  0.58323  0.68524  1.0000
  H   H1989     1.0  0.58533  0.55380  0.57599  1.0000
  H   H1990     1.0  0.53974  0.50161  0.52966  1.0000
  C   C2536     1.0  0.58524  0.59503  0.61901  1.0000
  H   H1991     1.0  0.58287  0.58708  0.73246  1.0000
  H   H1992     1.0  0.57578  0.52089  0.37677  1.0000
  H   H1993     1.0  0.50900  0.58068  0.75081  1.0000
  H   H1994     1.0  0.60964  0.64279  0.54360  1.0000
  H   H1995     1.0  0.56043  0.53301  0.14095  1.0000
  C   C2537     1.0  0.56876  0.51088  0.07554  1.0000
  H   H1996     1.0  0.58168  0.62038  0.51164  1.0000
  C   C2538     1.0  0.51029  0.49954  0.01150  1.0000
  H   H1997     1.0  0.61152  0.60231  0.51108  1.0000
  H   H1998     1.0  0.59140  0.62442  0.57348  1.0000
  H   H1999     1.0  0.59012  0.58150  0.13701  1.0000
  C   C2539     1.0  0.52928  0.52361  0.07118  1.0000
  H   H2000     1.0  0.55020  0.57633  0.00312  1.0000
  H   H2001     1.0  0.57611  0.53535  0.28632  1.0000
  C   C2540     1.0  0.58667  0.57350  0.57164  1.0000
  C   C2541     1.0  0.57551  0.59750  0.64586  1.0000
  H   H2002     1.0  0.58802  0.54388  0.20409  1.0000
  C   C2542     1.0  0.56195  0.61576  0.51950  1.0000
  H   H2003     1.0  0.49033  0.49922  0.88463  1.0000
  C   C2543     1.0  0.63190  0.51401  0.14254  1.0000
  C   C2544     1.0  0.59994  0.61214  0.54346  1.0000
  C   C2545     1.0  0.58391  0.55390  0.11172  1.0000
  H   H2004     1.0  0.50295  0.59566  0.31587  1.0000
  C   C2546     1.0  0.49902  0.56760  0.62003  1.0000
  C   C2547     1.0  0.52411  0.51622  0.78237  1.0000
  H   H2005     1.0  0.55988  0.50818  0.33601  1.0000
  C   C2548     1.0  0.58434  0.53313  0.29360  1.0000
  C   C2549     1.0  0.56640  0.51960  0.39509  1.0000
  H   H2006     1.0  0.54211  0.60837  0.53160  1.0000
  H   H2007     1.0  0.54395  0.54077  0.05220  1.0000
  H   H2008     1.0  0.51533  0.58688  0.62352  1.0000
  C   C2550     1.0  0.59356  0.58727  0.67415  1.0000
  C   C2551     1.0  0.52482  0.54683  0.72420  1.0000
  H   H2009     1.0  0.55930  0.53196  0.01295  1.0000
  C   C2552     1.0  0.58912  0.56315  0.17436  1.0000
  C   C2553     1.0  0.52535  0.60130  0.64235  1.0000
  H   H2010     1.0  0.54441  0.52665  0.22276  1.0000
  H   H2011     1.0  0.59119  0.56672  0.19849  1.0000
  C   C2554     1.0  0.60592  0.52829  0.31194  1.0000
  H   H2012     1.0  0.54141  0.58873  0.58139  1.0000
  H   H2013     1.0  0.53638  0.51207  0.67071  1.0000
  C   C2555     1.0  0.50597  0.50562  0.69401  1.0000
  C   C2556     1.0  0.54484  0.52689  0.78138  1.0000
  H   H2014     1.0  0.56000  0.52062  0.75058  1.0000
  H   H2015     1.0  0.55082  0.53402  0.78943  1.0000
  H   H2016     1.0  0.52805  0.53109  0.81015  1.0000
  C   C2557     1.0  0.55259  0.69283  0.94750  1.0000
  C   C2558     1.0  0.50322  0.53220  0.01684  1.0000
  C   C2559     1.0  0.49795  0.67362  0.92401  1.0000
  C   C2560     1.0  0.58731  0.55025  0.17753  1.0000
  C   C2561     1.0  0.62483  0.50329  0.21435  1.0000
  H   H2017     1.0  0.54843  0.50690  0.61281  1.0000
  H   H2018     1.0  0.62061  0.53770  0.01784  1.0000
  C   C2562     1.0  0.58923  0.56484  0.51502  1.0000
  C   C2563     1.0  0.58369  0.58949  0.70075  1.0000
  C   C2564     1.0  0.63846  0.52447  0.15085  1.0000
  S   S351      1.0  0.62603  0.50839  0.99587  1.0000
  C   C2565     1.0  0.51315  0.66715  0.97340  1.0000
  H   H2019     1.0  0.61734  0.57437  0.95909  1.0000
  C   C2566     1.0  0.57526  0.52360  0.06305  1.0000
  C   C2567     1.0  0.53427  0.50647  0.04450  1.0000
  H   H2020     1.0  0.49041  0.53965  0.42944  1.0000
  C   C2568     1.0  0.56172  0.53006  0.39917  1.0000
  C   C2569     1.0  0.54990  0.52833  0.42484  1.0000
  C   C2570     1.0  0.54271  0.51614  0.44604  1.0000
  H   H2021     1.0  0.49608  0.73189  0.23993  1.0000
  C   C2571     1.0  0.63813  0.52448  0.19012  1.0000
  H   H2022     1.0  0.59115  0.59629  0.48521  1.0000
  C   C2572     1.0  0.57294  0.61357  0.52800  1.0000
  H   H2023     1.0  0.60215  0.58846  0.61306  1.0000
  H   H2024     1.0  0.53904  0.50880  0.95752  1.0000
  H   H2025     1.0  0.58809  0.54944  0.31562  1.0000
  C   C2573     1.0  0.52921  0.50870  0.75983  1.0000
  C   C2574     1.0  0.51718  0.55526  0.72394  1.0000
  H   H2026     1.0  0.54894  0.51049  0.16271  1.0000
  H   H2027     1.0  0.51519  0.53156  0.66062  1.0000
  C   C2575     1.0  0.56298  0.52685  0.12286  1.0000
  C   C2576     1.0  0.49074  0.74155  0.28432  1.0000
  C   C2577     1.0  0.48856  0.66272  0.81202  1.0000
  H   H2028     1.0  0.49563  0.51231  0.65365  1.0000
  H   H2029     1.0  0.53071  0.53243  0.69936  1.0000
  H   H2030     1.0  0.53675  0.65097  0.95283  1.0000
  C   C2578     1.0  0.57077  0.55661  0.04954  1.0000
  H   H2031     1.0  0.56745  0.53953  0.38384  1.0000
  H   H2032     1.0  0.54645  0.53648  0.42898  1.0000
  H   H2033     1.0  0.53350  0.51494  0.46531  1.0000
  C   C2579     1.0  0.62115  0.62155  0.50113  1.0000
  P   P87       1.0  0.58659  0.59882  0.56615  1.0000
  H   H2034     1.0  0.56226  0.62422  0.49715  1.0000
  H   H2035     1.0  0.59633  0.57023  0.00467  1.0000
  C   C2580     1.0  0.53580  0.50222  0.67171  1.0000
  C   C2581     1.0  0.50055  0.68088  0.94948  1.0000
  C   C2582     1.0  0.49611  0.72213  0.33693  1.0000
  H   H2036     1.0  0.53166  0.54732  0.74084  1.0000
  C   C2583     1.0  0.48940  0.74170  0.32420  1.0000
  H   H2037     1.0  0.49647  0.68884  0.95078  1.0000
  H   H2038     1.0  0.59201  0.57795  0.45798  1.0000
  H   H2039     1.0  0.51659  0.50886  0.00117  1.0000
  C   C2584     1.0  0.56462  0.56651  0.99190  1.0000
  H   H2040     1.0  0.52377  0.57083  0.44919  1.0000
  P   P88       1.0  0.49985  0.56703  0.69788  1.0000
  C   C2585     1.0  0.56159  0.56049  0.07410  1.0000
  C   C2586     1.0  0.51937  0.55722  0.41750  1.0000
  H   H2041     1.0  0.49863  0.58168  0.92436  1.0000
  C   C2587     1.0  0.58259  0.50920  0.18766  1.0000
  C   C2588     1.0  0.51690  0.58974  0.64916  1.0000
  H   H2042     1.0  0.56581  0.56891  0.95999  1.0000
  H   H2043     1.0  0.53117  0.52163  0.29245  1.0000
  C   C2589     1.0  0.49715  0.66265  0.10871  1.0000
  C   C2590     1.0  0.59971  0.52399  0.19553  1.0000
  H   H2044     1.0  0.50104  0.65759  0.90307  1.0000
  H   H2045     1.0  0.52482  0.61171  0.01791  1.0000
  C   C2591     1.0  0.51082  0.66017  0.94665  1.0000
  C   C2592     1.0  0.49694  0.51102  0.49738  1.0000
  C   C2593     1.0  0.51074  0.58215  0.68836  1.0000
  C   C2594     1.0  0.54653  0.51380  0.02623  1.0000
  H   H2046     1.0  0.51364  0.50574  0.66973  1.0000
  H   H2047     1.0  0.61582  0.53153  0.14432  1.0000
  C   C2595     1.0  0.60323  0.54227  0.04025  1.0000
  Fe  Fe174     1.0  0.60528  0.50082  0.00950  1.0000
  H   H2048     1.0  0.64382  0.53273  0.12663  1.0000
  H   H2049     1.0  0.48882  0.54400  0.76612  1.0000
  H   H2050     1.0  0.57864  0.55605  0.98914  1.0000
  C   C2596     1.0  0.57272  0.53160  0.08723  1.0000
  C   C2597     1.0  0.58599  0.56688  0.10843  1.0000
  C   C2598     1.0  0.50812  0.67768  0.97407  1.0000
  H   H2051     1.0  0.51842  0.54882  0.99398  1.0000
  C   C2599     1.0  0.57195  0.55932  0.00851  1.0000
  C   C2600     1.0  0.50965  0.58476  0.86445  1.0000
  C   C2601     1.0  0.49145  0.50665  0.53855  1.0000
  H   H2052     1.0  0.50002  0.66274  0.16607  1.0000
  H   H2053     1.0  0.53298  0.68873  0.95369  1.0000
  H   H2054     1.0  0.62956  0.55817  0.96541  1.0000
  H   H2055     1.0  0.58574  0.57349  0.08153  1.0000
  C   C2602     1.0  0.50561  0.56775  0.83436  1.0000
  C   C2603     1.0  0.63140  0.51396  0.22218  1.0000
  H   H2056     1.0  0.53905  0.51253  0.34898  1.0000
  H   H2057     1.0  0.52901  0.55844  0.40146  1.0000
  H   H2058     1.0  0.49038  0.58556  0.12437  1.0000
  C   C2604     1.0  0.56407  0.51481  0.27179  1.0000
  C   C2605     1.0  0.51720  0.66437  0.12233  1.0000
  C   C2606     1.0  0.58769  0.51585  0.21149  1.0000
  C   C2607     1.0  0.53125  0.64361  0.97960  1.0000
  S   S352      1.0  0.63271  0.51534  0.09155  1.0000
  C   C2608     1.0  0.49192  0.73177  0.35054  1.0000
  S   S353      1.0  0.48856  0.64037  0.02190  1.0000
  C   C2609     1.0  0.59610  0.55122  0.03635  1.0000
  C   C2610     1.0  0.58485  0.54565  0.14613  1.0000
  H   H2059     1.0  0.49309  0.53260  0.60532  1.0000
  C   C2611     1.0  0.58938  0.51071  0.14847  1.0000
  C   C2612     1.0  0.60644  0.52548  0.15631  1.0000
  H   H2060     1.0  0.62953  0.62073  0.48128  1.0000
  H   H2061     1.0  0.51413  0.51514  0.79189  1.0000
  C   C2613     1.0  0.49290  0.59215  0.32694  1.0000
  C   C2614     1.0  0.49441  0.55391  0.46007  1.0000
  H   H2062     1.0  0.52391  0.60103  0.73835  1.0000
  H   H2063     1.0  0.58215  0.52715  0.03425  1.0000
  C   C2615     1.0  0.57256  0.60247  0.55643  1.0000
  H   H2064     1.0  0.51216  0.54280  0.39198  1.0000
  C   C2616     1.0  0.53176  0.63108  0.98226  1.0000
  C   C2617     1.0  0.52454  0.62142  0.01620  1.0000
  C   C2618     1.0  0.51675  0.62426  0.04742  1.0000
  C   C2619     1.0  0.51621  0.63676  0.04483  1.0000
  H   H2065     1.0  0.54653  0.65907  0.01728  1.0000
  H   H2066     1.0  0.56788  0.67282  0.99112  1.0000
  C   C2620     1.0  0.54738  0.50560  0.44217  1.0000
  H   H2067     1.0  0.55339  0.51010  0.00929  1.0000
  H   H2068     1.0  0.51095  0.61676  0.07344  1.0000
  H   H2069     1.0  0.51001  0.63869  0.06920  1.0000
  H   H2070     1.0  0.50687  0.56181  0.95893  1.0000
  H   H2071     1.0  0.51510  0.59393  0.86305  1.0000
  H   H2072     1.0  0.52016  0.58487  0.80624  1.0000
  H   H2073     1.0  0.49180  0.67584  0.90586  1.0000
  H   H2074     1.0  0.53447  0.61431  0.66908  1.0000
  H   H2075     1.0  0.53003  0.60706  0.61204  1.0000
  H   H2076     1.0  0.60415  0.52894  0.21331  1.0000
  C   C2621     1.0  0.51244  0.57970  0.83226  1.0000
  C   C2622     1.0  0.62069  0.63297  0.51018  1.0000
  H   H2077     1.0  0.52259  0.52747  0.08836  1.0000
  H   H2078     1.0  0.54717  0.57069  0.07617  1.0000
  H   H2079     1.0  0.49054  0.73124  0.38179  1.0000
  H   H2080     1.0  0.55433  0.70229  0.92807  1.0000
  H   H2081     1.0  0.56026  0.55821  0.10602  1.0000
  C   C2623     1.0  0.54997  0.52616  0.02880  1.0000
  P   P89       1.0  0.58083  0.54815  0.07082  1.0000
  C   C2624     1.0  0.55656  0.51215  0.31108  1.0000
  C   C2625     1.0  0.54474  0.51457  0.31847  1.0000
  H   H2082     1.0  0.58386  0.53573  0.14843  1.0000
  C   C2626     1.0  0.56113  0.59357  0.57552  1.0000
  C   C2627     1.0  0.50020  0.57778  0.89911  1.0000
  H   H2083     1.0  0.62869  0.64103  0.49723  1.0000
  C   C2628     1.0  0.60140  0.51867  0.13310  1.0000
  H   H2084     1.0  0.57353  0.50254  0.19979  1.0000
  H   H2085     1.0  0.50985  0.68328  0.99415  1.0000
  H   H2086     1.0  0.48818  0.72799  0.87547  1.0000
  H   H2087     1.0  0.48790  0.70601  0.90826  1.0000
  C   C2629     1.0  0.56022  0.67624  0.98300  1.0000
  H   H2088     1.0  0.59947  0.53332  0.06273  1.0000
  C   C2630     1.0  0.54998  0.51935  0.75948  1.0000
  C   C2631     1.0  0.53193  0.52522  0.79311  1.0000
  C   C2632     1.0  0.59035  0.58716  0.50513  1.0000
  C   C2633     1.0  0.54810  0.66846  0.99771  1.0000
  C   C2634     1.0  0.61341  0.56541  0.98188  1.0000
  H   H2089     1.0  0.60700  0.51935  0.10352  1.0000
  C   C2635     1.0  0.55578  0.57068  0.01625  1.0000
  C   C2636     1.0  0.59117  0.54126  0.30988  1.0000
  H   H2090     1.0  0.51439  0.65192  0.94547  1.0000
  H   H2091     1.0  0.56843  0.60150  0.63581  1.0000
  C   C2637     1.0  0.52341  0.64654  0.01083  1.0000
  H   H2092     1.0  0.52276  0.66471  0.14316  1.0000
  C   C2638     1.0  0.59913  0.52016  0.29563  1.0000
  C   C2639     1.0  0.58852  0.57147  0.13975  1.0000
  C   C2640     1.0  0.50619  0.50195  0.73404  1.0000
  C   C2641     1.0  0.54221  0.51017  0.74922  1.0000
  H   H2093     1.0  0.57091  0.50476  0.05674  1.0000
  H   H2094     1.0  0.49563  0.49907  0.79537  1.0000
  C   C2642     1.0  0.55058  0.60687  0.53901  1.0000
  C   C2643     1.0  0.52275  0.66462  0.08297  1.0000
  C   C2644     1.0  0.55966  0.52014  0.23992  1.0000
  C   C2645     1.0  0.56247  0.68842  0.95789  1.0000
  H   H2095     1.0  0.53261  0.66510  0.07398  1.0000
  H   H2096     1.0  0.57186  0.69445  0.94652  1.0000
  C   C2646     1.0  0.50990  0.54847  0.41209  1.0000
  H   H2097     1.0  0.55253  0.50779  0.89472  1.0000
  C   C2647     1.0  0.55017  0.59580  0.56714  1.0000
  C   C2648     1.0  0.52782  0.60540  0.67444  1.0000
  H   H2098     1.0  0.60277  0.51242  0.28899  1.0000
  H   H2099     1.0  0.61440  0.52648  0.31861  1.0000
  C   C2649     1.0  0.50264  0.66281  0.06945  1.0000
  H   H2100     1.0  0.60723  0.54507  0.33191  1.0000
  C   C2650     1.0  0.60194  0.53882  0.31914  1.0000
  C   C2651     1.0  0.49082  0.52705  0.01933  1.0000
  C   C2652     1.0  0.49357  0.51910  0.85594  1.0000
  H   H2101     1.0  0.50852  0.52646  0.03112  1.0000
  H   H2102     1.0  0.52483  0.50011  0.59347  1.0000
  H   H2103     1.0  0.50089  0.71470  0.28667  1.0000
  H   H2104     1.0  0.50869  0.56713  0.61388  1.0000
  C   C2653     1.0  0.49769  0.72222  0.29704  1.0000
  C   C2654     1.0  0.49582  0.50863  0.88034  1.0000
  H   H2105     1.0  0.50208  0.56785  0.48723  1.0000
  H   H2106     1.0  0.49237  0.59381  0.38597  1.0000
  Fe  Fe175     1.0  0.62297  0.50199  0.06279  1.0000
  H   H2107     1.0  0.49592  0.62606  0.20666  1.0000
  H   H2108     1.0  0.58548  0.50541  0.13044  1.0000
  C   C2655     1.0  0.49602  0.56083  0.86869  1.0000
  H   H2109     1.0  0.65097  0.50350  0.03529  1.0000
  H   H2110     1.0  0.49000  0.71332  0.68341  1.0000
  H   H2111     1.0  0.59861  0.49780  0.25807  1.0000
  H   H2112     1.0  0.49071  0.59028  0.27057  1.0000
  C   C2656     1.0  0.48855  0.56372  0.74583  1.0000
  Fe  Fe176     1.0  0.60449  0.49772  0.41247  1.0000
  H   H2113     1.0  0.49602  0.66150  0.78945  1.0000
  H   H2114     1.0  0.49314  0.60414  0.15087  1.0000
  H   H2115     1.0  0.51613  0.49803  0.44560  1.0000
  C   C2657     1.0  0.49748  0.54675  0.43343  1.0000
  H   H2116     1.0  0.49574  0.54697  0.53988  1.0000
  C   C2658     1.0  0.48993  0.54688  0.97662  1.0000
  H   H2117     1.0  0.48969  0.57845  0.45196  1.0000
  H   H2118     1.0  0.49320  0.50707  0.59646  1.0000
  C   C2659     1.0  0.49228  0.56743  0.65833  1.0000
  H   H2119     1.0  0.50089  0.54546  0.66261  1.0000
  S   S354      1.0  0.48839  0.62843  0.13504  1.0000
  S   S355      1.0  0.48909  0.50548  0.46533  1.0000
  H   H2120     1.0  0.48867  0.64638  0.85724  1.0000
  H   H2121     1.0  0.48740  0.74410  0.47930  1.0000
  C   C2660     1.0  0.57876  0.49558  0.28186  1.0000
  S   S356      1.0  0.60217  0.49622  0.07581  1.0000
  H   H2122     1.0  0.55426  0.49629  0.12090  1.0000
  P   P90       1.0  0.51918  0.49659  0.74736  1.0000
  H   H2123     1.0  0.50659  0.49652  0.39120  1.0000
  H   H2124     1.0  0.61987  0.49522  0.16846  1.0000
  C   C2661     1.0  0.53039  0.49560  0.53777  1.0000
  H   H2125     1.0  0.61974  0.49504  0.23884  1.0000
  Fe  Fe177     1.0  0.53887  0.94391  0.54508  1.0000
  S   S357      1.0  0.54302  0.92539  0.56975  1.0000
  S   S358      1.0  0.52025  0.94850  0.55525  1.0000
  Fe  Fe178     1.0  0.56577  0.95671  0.49709  1.0000
  S   S359      1.0  0.57193  0.93887  0.51685  1.0000
  S   S360      1.0  0.57629  0.97579  0.45249  1.0000
  Fe  Fe179     1.0  0.55436  0.92827  0.50674  1.0000
  S   S361      1.0  0.55411  0.91229  0.47580  1.0000
  Fe  Fe180     1.0  0.55985  0.93754  0.57800  1.0000
  S   S362      1.0  0.56531  0.93173  0.63574  1.0000
  S   S363      1.0  0.54932  0.94627  0.48208  1.0000
  S   S364      1.0  0.55463  0.95582  0.55840  1.0000
  C   C2662     1.0  0.52621  0.88341  0.95326  1.0000
  H   H2126     1.0  0.55405  0.89194  0.43909  1.0000
  C   C2663     1.0  0.51247  0.94323  0.28657  1.0000
  Fe  Fe181     1.0  0.50387  0.85997  0.40866  1.0000
  H   H2127     1.0  0.52742  0.91149  0.48423  1.0000
  Fe  Fe182     1.0  0.54762  0.95663  0.89935  1.0000
  S   S365      1.0  0.55922  0.94948  0.93811  1.0000
  S   S366      1.0  0.52897  0.95982  0.92552  1.0000
  Fe  Fe183     1.0  0.56657  0.95886  0.82167  1.0000
  S   S367      1.0  0.57969  0.95165  0.85482  1.0000
  S   S368      1.0  0.56933  0.96611  0.75445  1.0000
  Fe  Fe184     1.0  0.56240  0.93716  0.89688  1.0000
  S   S369      1.0  0.56128  0.91620  0.92263  1.0000
  Fe  Fe185     1.0  0.57534  0.96463  0.89370  1.0000
  S   S370      1.0  0.59178  0.97666  0.90816  1.0000
  S   S371      1.0  0.54988  0.94356  0.86048  1.0000
  S   S372      1.0  0.56324  0.97262  0.85778  1.0000
  H   H2128     1.0  0.53744  0.96508  0.38825  1.0000
  C   C2664     1.0  0.54176  0.95871  0.22184  1.0000
  C   C2665     1.0  0.54565  0.97138  0.22087  1.0000
  H   H2129     1.0  0.57917  0.97040  0.55847  1.0000
  C   C2666     1.0  0.60001  0.95690  0.59614  1.0000
  C   C2667     1.0  0.49966  0.95740  0.30232  1.0000
  C   C2668     1.0  0.55150  0.95480  0.38434  1.0000
  H   H2130     1.0  0.50982  0.77988  0.40044  1.0000
  H   H2131     1.0  0.52230  0.97393  0.35823  1.0000
  C   C2669     1.0  0.50118  0.78362  0.24368  1.0000
  C   C2670     1.0  0.49784  0.83505  0.63903  1.0000
  C   C2671     1.0  0.53253  0.93378  0.39247  1.0000
  C   C2672     1.0  0.50262  0.86207  0.57128  1.0000
  C   C2673     1.0  0.57261  0.99144  0.33891  1.0000
  C   C2674     1.0  0.50221  0.83399  0.18146  1.0000
  C   C2675     1.0  0.51710  0.94754  0.92458  1.0000
  C   C2676     1.0  0.50511  0.94926  0.92626  1.0000
  H   H2132     1.0  0.50295  0.95796  0.93050  1.0000
  C   C2677     1.0  0.54989  0.99305  0.93252  1.0000
  H   H2133     1.0  0.51127  0.89811  0.46412  1.0000
  C   C2678     1.0  0.53701  0.90579  0.92242  1.0000
  C   C2679     1.0  0.54751  0.90383  0.93479  1.0000
  C   C2680     1.0  0.54718  0.89165  0.95707  1.0000
  C   C2681     1.0  0.53652  0.88154  0.96690  1.0000
  C   C2682     1.0  0.55421  0.94310  0.38534  1.0000
  H   H2134     1.0  0.53701  0.91509  0.90550  1.0000
  H   H2135     1.0  0.55526  0.89001  0.96660  1.0000
  C   C2683     1.0  0.49079  0.89390  0.80859  1.0000
  C   C2684     1.0  0.52334  0.88725  0.44053  1.0000
  H   H2136     1.0  0.58719  0.95116  0.56375  1.0000
  H   H2137     1.0  0.50262  0.95197  0.24763  1.0000
  C   C2685     1.0  0.49603  0.93988  0.92123  1.0000
  C   C2686     1.0  0.58619  0.96918  0.57407  1.0000
  C   C2687     1.0  0.56605  0.94132  0.66885  1.0000
  C   C2688     1.0  0.56856  0.93655  0.70524  1.0000
  C   C2689     1.0  0.56926  0.94388  0.73228  1.0000
  C   C2690     1.0  0.56773  0.95619  0.72274  1.0000
  C   C2691     1.0  0.56546  0.96103  0.68602  1.0000
  C   C2692     1.0  0.56433  0.95356  0.65965  1.0000
  H   H2138     1.0  0.56997  0.92713  0.71253  1.0000
  H   H2139     1.0  0.57120  0.94010  0.76017  1.0000
  H   H2140     1.0  0.56454  0.97062  0.67788  1.0000
  H   H2141     1.0  0.56236  0.95738  0.63187  1.0000
  C   C2693     1.0  0.58785  0.98811  0.45648  1.0000
  C   C2694     1.0  0.57675  0.99010  0.17991  1.0000
  C   C2695     1.0  0.49863  0.84536  0.17349  1.0000
  C   C2696     1.0  0.48745  0.78621  0.47774  1.0000
  C   C2697     1.0  0.49495  0.96069  0.73973  1.0000
  C   C2698     1.0  0.59782  0.98586  0.47171  1.0000
  H   H2142     1.0  0.54409  0.97863  0.19806  1.0000
  C   C2699     1.0  0.49830  0.91288  0.58998  1.0000
  H   H2143     1.0  0.56424  0.99372  0.39627  1.0000
  H   H2144     1.0  0.59817  0.97625  0.48421  1.0000
  C   C2700     1.0  0.50750  0.93550  0.56666  1.0000
  C   C2701     1.0  0.49264  0.87493  0.53060  1.0000
  H   H2145     1.0  0.51757  0.92150  0.58153  1.0000
  C   C2702     1.0  0.55076  0.88084  0.86804  1.0000
  C   C2703     1.0  0.60064  0.97116  0.70351  1.0000
  C   C2704     1.0  0.53551  0.88565  0.43352  1.0000
  C   C2705     1.0  0.54469  0.89329  0.44483  1.0000
  C   C2706     1.0  0.54193  0.90271  0.46322  1.0000
  C   C2707     1.0  0.52976  0.90432  0.47022  1.0000
  C   C2708     1.0  0.50236  0.95613  0.33901  1.0000
  H   H2146     1.0  0.53789  0.87857  0.41915  1.0000
  H   H2147     1.0  0.59479  0.96507  0.69182  1.0000
  H   H2148     1.0  0.50015  0.90931  0.51492  1.0000
  H   H2149     1.0  0.49924  0.90336  0.60022  1.0000
  C   C2709     1.0  0.52918  0.86515  0.56620  1.0000
  C   C2710     1.0  0.54052  0.88645  0.55995  1.0000
  H   H2150     1.0  0.53643  0.87221  0.98373  1.0000
  H   H2151     1.0  0.60352  0.94849  0.59818  1.0000
  C   C2711     1.0  0.53950  0.91947  0.79284  1.0000
  C   C2712     1.0  0.60077  0.96686  0.74320  1.0000
  C   C2713     1.0  0.51053  0.94873  0.34920  1.0000
  S   S373      1.0  0.49651  0.85593  0.27548  1.0000
  C   C2714     1.0  0.60753  0.98334  0.68015  1.0000
  H   H2152     1.0  0.52070  0.89096  0.85161  1.0000
  C   C2715     1.0  0.54474  0.93261  0.38932  1.0000
  H   H2153     1.0  0.51305  0.91831  0.91012  1.0000
  H   H2154     1.0  0.59515  0.95756  0.76126  1.0000
  P   P91       1.0  0.51469  0.85374  0.57432  1.0000
  C   C2716     1.0  0.59986  0.97695  0.61123  1.0000
  H   H2155     1.0  0.50126  0.92189  0.66497  1.0000
  C   C2717     1.0  0.50415  0.88603  0.21131  1.0000
  C   C2718     1.0  0.53735  0.86002  0.90390  1.0000
  H   H2156     1.0  0.51547  0.98627  0.49783  1.0000
  H   H2157     1.0  0.49811  0.86206  0.63344  1.0000
  C   C2719     1.0  0.52637  0.85822  0.08434  1.0000
  C   C2720     1.0  0.51531  0.90840  0.84239  1.0000
  C   C2721     1.0  0.54722  0.89938  0.68561  1.0000
  H   H2158     1.0  0.56358  0.94205  0.38425  1.0000
  H   H2159     1.0  0.49518  0.93116  0.79096  1.0000
  C   C2722     1.0  0.50820  0.91583  0.01657  1.0000
  S   S374      1.0  0.48997  0.86302  0.37381  1.0000
  H   H2160     1.0  0.53089  0.98809  0.27449  1.0000
  H   H2161     1.0  0.54139  0.85012  0.06269  1.0000
  H   H2162     1.0  0.51330  0.95559  0.63598  1.0000
  P   P92       1.0  0.51372  0.94678  0.39719  1.0000
  C   C2723     1.0  0.53928  0.95600  0.38785  1.0000
  C   C2724     1.0  0.49937  0.76215  0.44301  1.0000
  H   H2163     1.0  0.51762  0.99243  0.37929  1.0000
  H   H2164     1.0  0.49636  0.78420  0.95738  1.0000
  C   C2725     1.0  0.50281  0.93268  0.43168  1.0000
  C   C2726     1.0  0.54682  0.99345  0.63887  1.0000
  H   H2165     1.0  0.53730  0.93917  0.70998  1.0000
  C   C2727     1.0  0.49079  0.92892  0.42751  1.0000
  C   C2728     1.0  0.52060  0.89671  0.45873  1.0000
  H   H2166     1.0  0.55167  0.94505  0.30005  1.0000
  H   H2167     1.0  0.54700  0.98593  0.69985  1.0000
  C   C2729     1.0  0.50605  0.92568  0.46391  1.0000
  H   H2168     1.0  0.55884  0.96731  0.29804  1.0000
  Fe  Fe186     1.0  0.49645  0.83120  0.41662  1.0000
  C   C2730     1.0  0.50387  0.82914  0.21921  1.0000
  H   H2169     1.0  0.49727  0.84914  0.14476  1.0000
  C   C2731     1.0  0.52286  0.86927  0.08846  1.0000
  C   C2732     1.0  0.53114  0.92697  0.79989  1.0000
  H   H2170     1.0  0.58951  0.99265  0.74600  1.0000
  Fe  Fe187     1.0  0.49962  0.83163  0.08647  1.0000
  H   H2171     1.0  0.54989  0.86913  0.71197  1.0000
  H   H2172     1.0  0.55120  0.89023  0.04358  1.0000
  C   C2733     1.0  0.56299  0.99321  0.36748  1.0000
  C   C2734     1.0  0.49999  0.88724  0.80298  1.0000
  C   C2735     1.0  0.52512  0.98757  0.49807  1.0000
  H   H2173     1.0  0.51506  0.92866  0.46888  1.0000
  C   C2736     1.0  0.51374  0.98305  0.39969  1.0000
  S   S375      1.0  0.51302  0.87084  0.96085  1.0000
  C   C2737     1.0  0.50015  0.89301  0.18118  1.0000
  C   C2738     1.0  0.54318  0.88252  0.84222  1.0000
  C   C2739     1.0  0.51080  0.89101  0.03288  1.0000
  C   C2740     1.0  0.53272  0.87276  0.84745  1.0000
  H   H2174     1.0  0.50381  0.90132  0.11845  1.0000
  C   C2741     1.0  0.54375  0.99064  0.60546  1.0000
  S   S376      1.0  0.50426  0.82539  0.14556  1.0000
  C   C2742     1.0  0.51761  0.89983  0.04727  1.0000
  C   C2743     1.0  0.51631  0.91231  0.03868  1.0000
  P   P93       1.0  0.52696  0.89511  0.07994  1.0000
  C   C2744     1.0  0.53167  0.88098  0.07347  1.0000
  C   C2745     1.0  0.54061  0.90788  0.06895  1.0000
  C   C2746     1.0  0.54468  0.91174  0.09959  1.0000
  C   C2747     1.0  0.55549  0.92142  0.09032  1.0000
  C   C2748     1.0  0.56236  0.92721  0.05054  1.0000
  C   C2749     1.0  0.55838  0.92338  0.02003  1.0000
  C   C2750     1.0  0.54745  0.91390  0.02912  1.0000
  H   H2175     1.0  0.57082  0.98133  0.18026  1.0000
  C   C2751     1.0  0.59054  0.97832  0.59184  1.0000
  H   H2176     1.0  0.61204  0.96510  0.62696  1.0000
  C   C2752     1.0  0.52651  0.89562  0.93128  1.0000
  P   P94       1.0  0.54698  0.89686  0.80180  1.0000
  C   C2753     1.0  0.51790  0.89158  0.13121  1.0000
  C   C2754     1.0  0.50703  0.89584  0.14123  1.0000
  H   H2177     1.0  0.52532  0.92546  0.39611  1.0000
  H   H2178     1.0  0.54682  0.92347  0.39108  1.0000
  C   C2755     1.0  0.51498  0.88183  0.20152  1.0000
  C   C2756     1.0  0.52177  0.88449  0.16165  1.0000
  H   H2179     1.0  0.51951  0.84924  0.09559  1.0000
  H   H2180     1.0  0.55879  0.96285  0.38244  1.0000
  S   S377      1.0  0.51119  0.87781  0.42734  1.0000
  H   H2181     1.0  0.51325  0.86868  0.10326  1.0000
  H   H2182     1.0  0.52152  0.91934  0.04913  1.0000
  H   H2183     1.0  0.53958  0.90734  0.13058  1.0000
  H   H2184     1.0  0.55860  0.92441  0.11395  1.0000
  H   H2185     1.0  0.57078  0.93468  0.04321  1.0000
  H   H2186     1.0  0.56378  0.92770  0.98919  1.0000
  H   H2187     1.0  0.54444  0.91114  0.00504  1.0000
  H   H2188     1.0  0.50860  0.81717  0.51773  1.0000
  C   C2757     1.0  0.50317  0.77099  0.40554  1.0000
  C   C2758     1.0  0.59081  0.95840  0.57661  1.0000
  C   C2759     1.0  0.49421  0.94766  0.74755  1.0000
  C   C2760     1.0  0.49595  0.93753  0.56336  1.0000
  C   C2761     1.0  0.50133  0.90693  0.00295  1.0000
  C   C2762     1.0  0.50446  0.95752  0.63394  1.0000
  H   H2189     1.0  0.53716  0.95628  0.20019  1.0000
  H   H2190     1.0  0.51795  0.87624  0.22491  1.0000
  H   H2191     1.0  0.53006  0.88100  0.15463  1.0000
  C   C2763     1.0  0.50583  0.98143  0.43746  1.0000
  C   C2764     1.0  0.49707  0.96021  0.80579  1.0000
  C   C2765     1.0  0.54993  0.99073  0.50021  1.0000
  H   H2192     1.0  0.52068  0.91513  0.64845  1.0000
  H   H2193     1.0  0.51849  0.89723  0.92133  1.0000
  H   H2194     1.0  0.59263  0.91261  0.74038  1.0000
  C   C2766     1.0  0.51973  0.93616  0.92034  1.0000
  H   H2195     1.0  0.50514  0.86985  0.82343  1.0000
  H   H2196     1.0  0.61557  0.99419  0.47927  1.0000
  H   H2197     1.0  0.50649  0.82708  0.57299  1.0000
  Fe  Fe188     1.0  0.50505  0.85105  0.00468  1.0000
  C   C2767     1.0  0.53299  0.98188  0.47602  1.0000
  C   C2768     1.0  0.52976  0.86161  0.87839  1.0000
  H   H2198     1.0  0.59103  0.98546  0.81517  1.0000
  C   C2769     1.0  0.54413  0.88140  0.05526  1.0000
  H   H2199     1.0  0.52955  0.85281  0.43471  1.0000
  C   C2770     1.0  0.49906  0.92894  0.91365  1.0000
  S   S378      1.0  0.51233  0.83395  0.02527  1.0000
  C   C2771     1.0  0.54060  0.86195  0.55488  1.0000
  C   C2772     1.0  0.51135  0.96035  0.41430  1.0000
  H   H2200     1.0  0.53884  0.92405  0.66976  1.0000
  H   H2201     1.0  0.56053  0.89041  0.53976  1.0000
  C   C2773     1.0  0.50410  0.96627  0.59982  1.0000
  H   H2202     1.0  0.49808  0.96496  0.82859  1.0000
  C   C2774     1.0  0.53873  0.85873  0.06584  1.0000
  H   H2203     1.0  0.52013  0.82990  0.44882  1.0000
  C   C2775     1.0  0.49795  0.87497  0.82733  1.0000
  C   C2776     1.0  0.52373  0.90090  0.83594  1.0000
  C   C2777     1.0  0.50368  0.95883  0.45265  1.0000
  S   S379      1.0  0.51163  0.84765  0.37182  1.0000
  C   C2778     1.0  0.50870  0.92315  0.57937  1.0000
  H   H2204     1.0  0.49680  0.97692  0.76280  1.0000
  H   H2205     1.0  0.53434  0.95857  0.64177  1.0000
  H   H2206     1.0  0.51039  0.78708  0.22257  1.0000
  C   C2779     1.0  0.50270  0.89457  0.01075  1.0000
  C   C2780     1.0  0.53745  0.96832  0.64155  1.0000
  H   H2207     1.0  0.51182  0.88144  0.03784  1.0000
  H   H2208     1.0  0.52945  0.97606  0.45870  1.0000
  C   C2781     1.0  0.51901  0.84039  0.64392  1.0000
  C   C2782     1.0  0.54881  0.87830  0.71493  1.0000
  C   C2783     1.0  0.55025  0.99394  0.32151  1.0000
  H   H2209     1.0  0.50140  0.77550  0.34620  1.0000
  H   H2210     1.0  0.50666  0.82036  0.22569  1.0000
  C   C2784     1.0  0.49274  0.96853  0.59540  1.0000
  H   H2211     1.0  0.49962  0.94956  0.47368  1.0000
  C   C2785     1.0  0.55179  0.99435  0.35893  1.0000
  H   H2212     1.0  0.55141  0.97889  0.46048  1.0000
  C   C2786     1.0  0.50886  0.92554  0.67599  1.0000
  C   C2787     1.0  0.58633  0.92019  0.78932  1.0000
  H   H2213     1.0  0.49725  0.94222  0.84195  1.0000
  C   C2788     1.0  0.50784  0.93421  0.69863  1.0000
  H   H2214     1.0  0.51258  0.92723  0.83051  1.0000
  H   H2215     1.0  0.56859  0.99282  0.55469  1.0000
  H   H2216     1.0  0.60753  0.97140  0.79111  1.0000
  C   C2789     1.0  0.57608  0.92046  0.81891  1.0000
  H   H2217     1.0  0.53416  0.93713  0.78709  1.0000
  H   H2218     1.0  0.54108  0.93941  0.25076  1.0000
  C   C2790     1.0  0.49685  0.85190  0.20268  1.0000
  C   C2791     1.0  0.52346  0.85290  0.49609  1.0000
  H   H2219     1.0  0.54727  0.90659  0.65966  1.0000
  H   H2220     1.0  0.54270  0.98555  0.93051  1.0000
  C   C2792     1.0  0.52927  0.93527  0.70102  1.0000
  H   H2221     1.0  0.53696  0.97534  0.58153  1.0000
  H   H2222     1.0  0.53883  0.96375  0.70195  1.0000
  C   C2793     1.0  0.50089  0.96935  0.46403  1.0000
  H   H2223     1.0  0.50879  0.89168  0.78023  1.0000
  P   P95       1.0  0.60666  0.98942  0.62986  1.0000
  S   S380      1.0  0.49361  0.84940  0.06641  1.0000
  C   C2794     1.0  0.49755  0.91478  0.49045  1.0000
  C   C2795     1.0  0.51675  0.84585  0.53529  1.0000
  Fe  Fe189     1.0  0.49662  0.84976  0.34030  1.0000
  H   H2224     1.0  0.54885  0.92395  0.77395  1.0000
  C   C2796     1.0  0.54763  0.87031  0.05145  1.0000
  C   C2797     1.0  0.58877  0.99440  0.80502  1.0000
  H   H2225     1.0  0.50312  0.76414  0.46682  1.0000
  C   C2798     1.0  0.61063  0.99098  0.92760  1.0000
  C   C2799     1.0  0.55395  0.96507  0.27690  1.0000
  C   C2800     1.0  0.55183  0.88324  0.54820  1.0000
  H   H2226     1.0  0.52860  0.93434  0.92229  1.0000
  H   H2227     1.0  0.52131  0.93599  0.33063  1.0000
  C   C2801     1.0  0.55187  0.87098  0.54587  1.0000
  C   C2802     1.0  0.54656  0.90216  0.72211  1.0000
  C   C2803     1.0  0.51901  0.92141  0.82435  1.0000
  C   C2804     1.0  0.54398  0.94923  0.25026  1.0000
  H   H2228     1.0  0.49172  0.89620  0.18880  1.0000
  H   H2229     1.0  0.52751  0.86292  0.48937  1.0000
  H   H2230     1.0  0.50602  0.90418  0.86256  1.0000
  H   H2231     1.0  0.49094  0.83632  0.62292  1.0000
  C   C2805     1.0  0.60468  0.96624  0.61281  1.0000
  S   S381      1.0  0.48999  0.84328  0.45537  1.0000
  H   H2232     1.0  0.52861  0.84581  0.63197  1.0000
  H   H2233     1.0  0.54892  0.88541  0.65359  1.0000
  C   C2806     1.0  0.49046  0.75090  0.45012  1.0000
  C   C2807     1.0  0.55187  0.97467  0.24821  1.0000
  C   C2808     1.0  0.52965  0.94548  0.39201  1.0000
  C   C2809     1.0  0.51083  0.92698  0.91411  1.0000
  C   C2810     1.0  0.60765  0.97470  0.76008  1.0000
  H   H2234     1.0  0.51620  0.93806  0.26652  1.0000
  C   C2811     1.0  0.54476  0.98379  0.67386  1.0000
  H   H2235     1.0  0.50739  0.92553  0.00935  1.0000
  H   H2236     1.0  0.55722  0.87072  0.03695  1.0000
  C   C2812     1.0  0.59781  0.98830  0.93112  1.0000
  H   H2237     1.0  0.49474  0.96809  0.49334  1.0000
  S   S382      1.0  0.49653  0.80598  0.98693  1.0000
  C   C2813     1.0  0.49655  0.94734  0.81350  1.0000
  H   H2238     1.0  0.49879  0.88368  0.24231  1.0000
  C   C2814     1.0  0.50196  0.83562  0.24867  1.0000
  C   C2815     1.0  0.58467  0.91283  0.76331  1.0000
  H   H2239     1.0  0.48788  0.93440  0.40387  1.0000
  C   C2816     1.0  0.54827  0.88745  0.68207  1.0000
  S   S383      1.0  0.48851  0.91792  0.90160  1.0000
  H   H2240     1.0  0.54615  0.91159  0.72379  1.0000
  H   H2241     1.0  0.56066  0.86858  0.53609  1.0000
  H   H2242     1.0  0.54917  0.87400  0.77595  1.0000
  C   C2817     1.0  0.54826  0.88108  0.75137  1.0000
  C   C2818     1.0  0.51933  0.83431  0.47298  1.0000
  H   H2243     1.0  0.49775  0.88779  0.99876  1.0000
  C   C2819     1.0  0.51537  0.94210  0.32298  1.0000
  H   H2244     1.0  0.49499  0.94706  0.55317  1.0000
  C   C2820     1.0  0.57114  0.99107  0.30141  1.0000
  C   C2821     1.0  0.53590  0.90636  0.81079  1.0000
  C   C2822     1.0  0.49344  0.95105  0.66414  1.0000
  H   H2245     1.0  0.54078  0.85256  0.55205  1.0000
  C   C2823     1.0  0.52466  0.84719  0.46505  1.0000
  H   H2246     1.0  0.52678  0.87383  0.82785  1.0000
  C   C2824     1.0  0.50309  0.82419  0.69724  1.0000
  C   C2825     1.0  0.49521  0.94108  0.78456  1.0000
  C   C2826     1.0  0.54692  0.89297  0.75547  1.0000
  C   C2827     1.0  0.49838  0.77244  0.27447  1.0000
  H   H2247     1.0  0.54054  0.89609  0.56045  1.0000
  H   H2248     1.0  0.52143  0.85429  0.88331  1.0000
  C   C2828     1.0  0.51993  0.92172  0.66627  1.0000
  H   H2249     1.0  0.53486  0.85152  0.92853  1.0000
  C   C2829     1.0  0.54792  0.86957  0.89844  1.0000
  H   H2250     1.0  0.61939  0.99311  0.75083  1.0000
  C   C2830     1.0  0.51159  0.83285  0.54315  1.0000
  C   C2831     1.0  0.56238  0.90617  0.79611  1.0000
  H   H2251     1.0  0.50353  0.98954  0.44629  1.0000
  C   C2832     1.0  0.51645  0.97256  0.38803  1.0000
  C   C2833     1.0  0.51283  0.82714  0.51198  1.0000
  H   H2252     1.0  0.51261  0.97089  0.57609  1.0000
  H   H2253     1.0  0.58066  0.99291  0.95545  1.0000
  C   C2834     1.0  0.49855  0.84710  0.24035  1.0000
  H   H2254     1.0  0.55365  0.86845  0.91878  1.0000
  C   C2835     1.0  0.52924  0.87749  0.56877  1.0000
  H   H2255     1.0  0.55877  0.88822  0.86539  1.0000
  C   C2836     1.0  0.49636  0.86526  0.60481  1.0000
  H   H2256     1.0  0.51791  0.94606  0.72742  1.0000
  C   C2837     1.0  0.53015  0.92667  0.67846  1.0000
  H   H2257     1.0  0.50553  0.76735  0.27707  1.0000
  C   C2838     1.0  0.48816  0.87309  0.60113  1.0000
  H   H2258     1.0  0.52224  0.82991  0.69745  1.0000
  C   C2839     1.0  0.50476  0.95100  0.27601  1.0000
  C   C2840     1.0  0.51820  0.93909  0.71093  1.0000
  P   P96       1.0  0.49383  0.93987  0.70862  1.0000
  H   H2259     1.0  0.55631  0.91381  0.84550  1.0000
  C   C2841     1.0  0.54006  0.97124  0.67518  1.0000
  C   C2842     1.0  0.51023  0.84228  0.62259  1.0000
  C   C2843     1.0  0.51543  0.83138  0.68113  1.0000
  H   H2260     1.0  0.57172  0.90004  0.74663  1.0000
  H   H2261     1.0  0.57734  0.92597  0.83960  1.0000
  C   C2844     1.0  0.54538  0.98350  0.47702  1.0000
  C   C2845     1.0  0.49828  0.76847  0.37483  1.0000
  H   H2262     1.0  0.52067  0.88042  0.57632  1.0000
  S   S384      1.0  0.49859  0.81169  0.44551  1.0000
  C   C2846     1.0  0.54996  0.95240  0.27800  1.0000
  C   C2847     1.0  0.56415  0.91352  0.82226  1.0000
  C   C2848     1.0  0.57277  0.90573  0.76691  1.0000
  H   H2263     1.0  0.50333  0.83185  0.27752  1.0000
  H   H2264     1.0  0.59554  0.92564  0.78677  1.0000
  C   C2849     1.0  0.53910  0.97796  0.60701  1.0000
  C   C2850     1.0  0.50062  0.86693  0.53426  1.0000
  H   H2265     1.0  0.50545  0.86490  0.50780  1.0000
  H   H2266     1.0  0.58178  0.98667  0.67927  1.0000
  H   H2267     1.0  0.49638  0.78543  0.48249  1.0000
  H   H2268     1.0  0.49253  0.97516  0.56849  1.0000
  Fe  Fe190     1.0  0.49537  0.82231  0.01506  1.0000
  C   C2851     1.0  0.49745  0.99474  0.62634  1.0000
  H   H2269     1.0  0.61638  0.98597  0.91190  1.0000
  H   H2270     1.0  0.58667  0.98646  0.59007  1.0000
  H   H2271     1.0  0.49441  0.79917  0.21638  1.0000
  H   H2272     1.0  0.57871  0.98959  0.27985  1.0000
  C   C2852     1.0  0.48942  0.75709  0.38159  1.0000
  C   C2853     1.0  0.55016  0.99479  0.96976  1.0000
  P   P97       1.0  0.55792  0.99109  0.24435  1.0000
  H   H2273     1.0  0.49456  0.96611  0.71120  1.0000
  C   C2854     1.0  0.55996  0.99242  0.29220  1.0000
  C   C2855     1.0  0.49217  0.79046  0.24021  1.0000
  H   H2274     1.0  0.59115  0.98966  0.12962  1.0000
  S   S385      1.0  0.48921  0.83953  0.98967  1.0000
  H   H2275     1.0  0.49245  0.90351  0.79031  1.0000
  H   H2276     1.0  0.49795  0.96085  0.35945  1.0000
  H   H2277     1.0  0.48838  0.74877  0.26371  1.0000
  H   H2278     1.0  0.49596  0.98158  0.94914  1.0000
  H   H2279     1.0  0.49169  0.87912  0.50146  1.0000
  H   H2280     1.0  0.49418  0.86075  0.19597  1.0000
  C   C2856     1.0  0.61413  0.99130  0.69769  1.0000
  H   H2281     1.0  0.55951  0.99163  0.50076  1.0000
  H   H2282     1.0  0.49350  0.96327  0.29445  1.0000
  H   H2283     1.0  0.49017  0.87155  0.09304  1.0000
  H   H2284     1.0  0.49518  0.90975  0.98544  1.0000
  C   C2857     1.0  0.49637  0.96692  0.76877  1.0000
  H   H2285     1.0  0.54314  0.98873  0.99650  1.0000
  C   C2858     1.0  0.61432  0.98693  0.73734  1.0000
  C   C2859     1.0  0.49430  0.82603  0.67619  1.0000
  H   H2286     1.0  0.63255  0.99107  0.63558  1.0000
  H   H2287     1.0  0.50577  0.99195  0.63085  1.0000
  H   H2288     1.0  0.50036  0.81716  0.72599  1.0000
  H   H2289     1.0  0.58121  0.99037  0.34604  1.0000
  C   C2860     1.0  0.58831  0.99478  0.15101  1.0000
  C   C2861     1.0  0.52954  0.99462  0.52174  1.0000
  Fe  Fe191     1.0  0.66823  0.16023  0.54392  1.0000
  S   S386      1.0  0.68061  0.15716  0.49036  1.0000
  C   C2862     1.0  0.70368  0.23745  0.04457  1.0000
  Fe  Fe192     1.0  0.68136  0.14810  0.60145  1.0000
  S   S387      1.0  0.69464  0.14386  0.55186  1.0000
  S   S388      1.0  0.68005  0.14052  0.66749  1.0000
  Fe  Fe193     1.0  0.69616  0.16379  0.51640  1.0000
  S   S389      1.0  0.71435  0.17734  0.47381  1.0000
  Fe  Fe194     1.0  0.67790  0.13759  0.53004  1.0000
  S   S390      1.0  0.67525  0.11904  0.51148  1.0000
  S   S391      1.0  0.68379  0.16831  0.56722  1.0000
  S   S392      1.0  0.66462  0.14041  0.58242  1.0000
  H   H2290     1.0  0.69759  0.08853  0.36132  1.0000
  Fe  Fe195     1.0  0.69062  0.16747  0.84981  1.0000
  S   S393      1.0  0.70140  0.16181  0.89411  1.0000
  S   S394      1.0  0.69691  0.17238  0.78176  1.0000
  Fe  Fe196     1.0  0.66977  0.17085  0.91359  1.0000
  S   S395      1.0  0.67855  0.16535  0.96287  1.0000
  H   H2291     1.0  0.68653  0.05272  0.85115  1.0000
  Fe  Fe197     1.0  0.69679  0.17768  0.92007  1.0000
  S   S396      1.0  0.70961  0.19503  0.92884  1.0000
  Fe  Fe198     1.0  0.68238  0.14990  0.93399  1.0000
  S   S397      1.0  0.67766  0.12980  0.97495  1.0000
  S   S398      1.0  0.68743  0.18405  0.87244  1.0000
  S   S399      1.0  0.67217  0.15468  0.88798  1.0000
  C   C2863     1.0  0.71583  0.24231  0.96361  1.0000
  H   H2292     1.0  0.72396  0.19345  0.70475  1.0000
  Fe  Fe199     1.0  0.74805  0.23286  0.06008  1.0000
  C   C2864     1.0  0.69095  0.23740  0.35288  1.0000
  S   S400      1.0  0.73771  0.21438  0.05045  1.0000
  H   H2293     1.0  0.68610  0.23064  0.90495  1.0000
  S   S401      1.0  0.73762  0.24081  0.10613  1.0000
  C   C2865     1.0  0.66165  0.19420  0.33829  1.0000
  C   C2866     1.0  0.65421  0.09524  0.99587  1.0000
  C   C2867     1.0  0.65493  0.22876  0.13054  1.0000
  C   C2868     1.0  0.66054  0.20023  0.25890  1.0000
  C   C2869     1.0  0.65622  0.19434  0.59341  1.0000
  S   S402      1.0  0.74185  0.23098  0.48657  1.0000
  H   H2294     1.0  0.66745  0.21294  0.58521  1.0000
  H   H2295     1.0  0.67786  0.18761  0.31578  1.0000
  C   C2870     1.0  0.69234  0.10364  0.29194  1.0000
  C   C2871     1.0  0.70114  0.20082  0.62384  1.0000
  H   H2296     1.0  0.69219  0.12000  0.43526  1.0000
  H   H2297     1.0  0.66147  0.21655  0.37394  1.0000
  H   H2298     1.0  0.65462  0.21565  0.64730  1.0000
  C   C2872     1.0  0.66494  0.06580  0.41534  1.0000
  H   H2299     1.0  0.67484  0.12626  0.31902  1.0000
  H   H2300     1.0  0.66801  0.03925  0.11375  1.0000
  H   H2301     1.0  0.67354  0.09479  0.49645  1.0000
  H   H2302     1.0  0.65580  0.05950  0.43070  1.0000
  C   C2873     1.0  0.74885  0.20062  0.59980  1.0000
  H   H2303     1.0  0.74173  0.15602  0.72361  1.0000
  C   C2874     1.0  0.65476  0.11452  0.48001  1.0000
  C   C2875     1.0  0.69016  0.09037  0.98555  1.0000
  C   C2876     1.0  0.65817  0.09103  0.47106  1.0000
  C   C2877     1.0  0.67006  0.19498  0.26882  1.0000
  H   H2304     1.0  0.66266  0.20175  0.93139  1.0000
  H   H2305     1.0  0.74790  0.23173  0.28225  1.0000
  C   C2878     1.0  0.66096  0.10643  0.00062  1.0000
  C   C2879     1.0  0.67862  0.12477  0.34439  1.0000
  H   H2306     1.0  0.65808  0.21775  0.52598  1.0000
  C   C2880     1.0  0.72193  0.19888  0.62661  1.0000
  C   C2881     1.0  0.68738  0.07057  0.40272  1.0000
  C   C2882     1.0  0.71734  0.20009  0.96337  1.0000
  C   C2883     1.0  0.72333  0.21298  0.95499  1.0000
  C   C2884     1.0  0.72955  0.21752  0.98104  1.0000
  C   C2885     1.0  0.73004  0.20922  0.01596  1.0000
  C   C2886     1.0  0.72421  0.19629  0.02407  1.0000
  C   C2887     1.0  0.71779  0.19178  0.99838  1.0000
  H   H2307     1.0  0.72317  0.21955  0.92810  1.0000
  H   H2308     1.0  0.73406  0.22744  0.97395  1.0000
  H   H2309     1.0  0.72462  0.18968  0.05060  1.0000
  H   H2310     1.0  0.71333  0.18184  0.00546  1.0000
  C   C2888     1.0  0.66856  0.11631  0.96732  1.0000
  H   H2311     1.0  0.68293  0.04615  0.04681  1.0000
  H   H2312     1.0  0.69217  0.19691  0.62004  1.0000
  C   C2889     1.0  0.66255  0.23753  0.09516  1.0000
  C   C2890     1.0  0.66315  0.10335  0.92449  1.0000
  C   C2891     1.0  0.66943  0.11479  0.92911  1.0000
  S   S403      1.0  0.75046  0.23693  0.19819  1.0000
  H   H2313     1.0  0.66026  0.10746  0.03030  1.0000
  C   C2892     1.0  0.66202  0.10380  0.76155  1.0000
  H   H2314     1.0  0.67534  0.12223  0.90321  1.0000
  C   C2893     1.0  0.70208  0.20067  0.40205  1.0000
  H   H2315     1.0  0.69855  0.23413  0.33757  1.0000
  C   C2894     1.0  0.71240  0.10796  0.22410  1.0000
  H   H2316     1.0  0.70685  0.08793  0.23174  1.0000
  H   H2317     1.0  0.69374  0.10894  0.99467  1.0000
  C   C2895     1.0  0.77117  0.20687  0.59149  1.0000
  H   H2318     1.0  0.68002  0.19581  0.50568  1.0000
  C   C2896     1.0  0.72187  0.19229  0.47747  1.0000
  C   C2897     1.0  0.71834  0.19618  0.51185  1.0000
  C   C2898     1.0  0.72449  0.20807  0.51380  1.0000
  C   C2899     1.0  0.73440  0.21617  0.48171  1.0000
  C   C2900     1.0  0.73804  0.21224  0.44738  1.0000
  C   C2901     1.0  0.73180  0.20037  0.44532  1.0000
  H   H2319     1.0  0.71107  0.18985  0.53725  1.0000
  H   H2320     1.0  0.72165  0.21096  0.54055  1.0000
  H   H2321     1.0  0.74569  0.21831  0.42249  1.0000
  H   H2322     1.0  0.73473  0.19741  0.41871  1.0000
  C   C2902     1.0  0.68474  0.14947  0.69901  1.0000
  C   C2903     1.0  0.69056  0.16237  0.68432  1.0000
  C   C2904     1.0  0.69428  0.16916  0.71012  1.0000
  C   C2905     1.0  0.69196  0.16324  0.75101  1.0000
  C   C2906     1.0  0.68599  0.15036  0.76586  1.0000
  C   C2907     1.0  0.68250  0.14350  0.73987  1.0000
  H   H2323     1.0  0.69223  0.16704  0.65307  1.0000
  H   H2324     1.0  0.69888  0.17910  0.69861  1.0000
  H   H2325     1.0  0.68411  0.14568  0.79728  1.0000
  H   H2326     1.0  0.67793  0.13353  0.75161  1.0000
  C   C2908     1.0  0.66450  0.11014  0.49194  1.0000
  C   C2909     1.0  0.66368  0.16478  0.40945  1.0000
  H   H2327     1.0  0.66676  0.16550  0.72806  1.0000
  H   H2328     1.0  0.71024  0.03456  0.97551  1.0000
  C   C2910     1.0  0.78737  0.23401  0.15010  1.0000
  C   C2911     1.0  0.70983  0.11804  0.23864  1.0000
  C   C2912     1.0  0.73333  0.18155  0.67485  1.0000
  C   C2913     1.0  0.66540  0.05658  0.94685  1.0000
  C   C2914     1.0  0.75013  0.21113  0.56789  1.0000
  H   H2329     1.0  0.65755  0.07991  0.38406  1.0000
  H   H2330     1.0  0.78040  0.22554  0.15325  1.0000
  C   C2915     1.0  0.69493  0.09357  0.27693  1.0000
  H   H2331     1.0  0.69138  0.08488  0.89504  1.0000
  H   H2332     1.0  0.74211  0.21290  0.55817  1.0000
  C   C2916     1.0  0.72124  0.24388  0.84849  1.0000
  H   H2333     1.0  0.69566  0.06793  0.40828  1.0000
  H   H2334     1.0  0.65934  0.05779  0.97285  1.0000
  C   C2917     1.0  0.66751  0.21665  0.00158  1.0000
  C   C2918     1.0  0.67034  0.24339  0.87545  1.0000
  C   C2919     1.0  0.68064  0.05376  0.87796  1.0000
  C   C2920     1.0  0.72083  0.06473  0.97790  1.0000
  H   H2335     1.0  0.66432  0.10210  0.89496  1.0000
  C   C2921     1.0  0.67928  0.21523  0.48620  1.0000
  H   H2336     1.0  0.67809  0.14322  0.35200  1.0000
  H   H2337     1.0  0.67315  0.18218  0.45423  1.0000
  C   C2922     1.0  0.67840  0.06009  0.93936  1.0000
  H   H2338     1.0  0.72248  0.15431  0.53931  1.0000
  C   C2923     1.0  0.76181  0.21943  0.54798  1.0000
  P   P98       1.0  0.68532  0.06636  0.97388  1.0000
  H   H2339     1.0  0.66172  0.19300  0.56647  1.0000
  H   H2340     1.0  0.70693  0.21313  0.34262  1.0000
  C   C2924     1.0  0.66597  0.07743  0.38877  1.0000
  C   C2925     1.0  0.70326  0.22621  0.88128  1.0000
  C   C2926     1.0  0.65763  0.05305  0.10002  1.0000
  C   C2927     1.0  0.65507  0.21144  0.40296  1.0000
  H   H2341     1.0  0.68520  0.24386  0.30003  1.0000
  C   C2928     1.0  0.68649  0.11164  0.39158  1.0000
  H   H2342     1.0  0.72013  0.10963  0.19788  1.0000
  P   P99       1.0  0.67910  0.10081  0.33465  1.0000
  C   C2929     1.0  0.75948  0.19852  0.61144  1.0000
  H   H2343     1.0  0.72375  0.18189  0.77190  1.0000
  H   H2344     1.0  0.69906  0.17452  0.12685  1.0000
  H   H2345     1.0  0.68865  0.10286  0.40395  1.0000
  H   H2346     1.0  0.74236  0.16768  0.65562  1.0000
  C   C2930     1.0  0.69359  0.10358  0.97301  1.0000
  C   C2931     1.0  0.65487  0.10355  0.34094  1.0000
  H   H2347     1.0  0.69509  0.20024  0.54380  1.0000
  C   C2932     1.0  0.69624  0.18264  0.11225  1.0000
  C   C2933     1.0  0.67188  0.23410  0.07005  1.0000
  H   H2348     1.0  0.66816  0.09893  0.74665  1.0000
  H   H2349     1.0  0.71158  0.14954  0.61152  1.0000
  C   C2934     1.0  0.66089  0.16116  0.75832  1.0000
  H   H2350     1.0  0.74330  0.19002  0.54098  1.0000
  H   H2351     1.0  0.69928  0.21607  0.89180  1.0000
  H   H2352     1.0  0.65537  0.10652  0.36742  1.0000
  C   C2935     1.0  0.76328  0.24456  0.28981  1.0000
  C   C2936     1.0  0.68206  0.19145  0.07940  1.0000
  H   H2353     1.0  0.66639  0.17750  0.77838  1.0000
  C   C2937     1.0  0.67563  0.06236  0.42234  1.0000
  H   H2354     1.0  0.65887  0.11380  0.70728  1.0000
  P   P100      1.0  0.73367  0.18993  0.62501  1.0000
  C   C2938     1.0  0.69193  0.20789  0.52811  1.0000
  C   C2939     1.0  0.70342  0.21244  0.63242  1.0000
  C   C2940     1.0  0.65672  0.11212  0.73940  1.0000
  C   C2941     1.0  0.71038  0.19411  0.62064  1.0000
  C   C2942     1.0  0.68843  0.08222  0.37611  1.0000
  H   H2355     1.0  0.65660  0.14715  0.67124  1.0000
  C   C2943     1.0  0.66037  0.23708  0.49191  1.0000
  C   C2944     1.0  0.72456  0.23688  0.39518  1.0000
  H   H2356     1.0  0.79149  0.24024  0.08600  1.0000
  C   C2945     1.0  0.69208  0.08994  0.91711  1.0000
  C   C2946     1.0  0.68318  0.22756  0.48899  1.0000
  C   C2947     1.0  0.69187  0.23003  0.51038  1.0000
  C   C2948     1.0  0.69632  0.22022  0.52953  1.0000
  H   H2357     1.0  0.71024  0.07868  0.97748  1.0000
  H   H2358     1.0  0.69119  0.04207  0.97380  1.0000
  C   C2949     1.0  0.69254  0.19198  0.43331  1.0000
  C   C2950     1.0  0.66607  0.09832  0.48741  1.0000
  C   C2951     1.0  0.66477  0.06689  0.03261  1.0000
  C   C2952     1.0  0.68600  0.05874  0.90447  1.0000
  C   C2953     1.0  0.71021  0.04420  0.97576  1.0000
  C   C2954     1.0  0.65637  0.06294  0.07075  1.0000
  H   H2359     1.0  0.72614  0.22767  0.34836  1.0000
  C   C2955     1.0  0.65585  0.17312  0.40704  1.0000
  C   C2956     1.0  0.77233  0.21732  0.55977  1.0000
  H   H2360     1.0  0.68681  0.14008  0.41031  1.0000
  H   H2361     1.0  0.67735  0.24087  0.04209  1.0000
  H   H2362     1.0  0.66363  0.09548  0.82007  1.0000
  H   H2363     1.0  0.71664  0.16482  0.64877  1.0000
  C   C2957     1.0  0.68877  0.23625  0.39372  1.0000
  C   C2958     1.0  0.65861  0.15170  0.42180  1.0000
  C   C2959     1.0  0.68046  0.18891  0.42950  1.0000
  C   C2960     1.0  0.68151  0.11324  0.35881  1.0000
  C   C2961     1.0  0.72601  0.23651  0.35570  1.0000
  H   H2364     1.0  0.70318  0.22218  0.54545  1.0000
  C   C2962     1.0  0.68347  0.20541  0.50637  1.0000
  H   H2365     1.0  0.76268  0.22749  0.52323  1.0000
  H   H2366     1.0  0.65485  0.14353  0.74719  1.0000
  C   C2963     1.0  0.69581  0.23454  0.88832  1.0000
  H   H2367     1.0  0.73296  0.21439  0.64017  1.0000
  H   H2368     1.0  0.71147  0.20282  0.40513  1.0000
  C   C2964     1.0  0.70494  0.09573  0.24321  1.0000
  C   C2965     1.0  0.66721  0.04704  0.09107  1.0000
  P   P101      1.0  0.66229  0.19003  0.38936  1.0000
  H   H2369     1.0  0.68913  0.08406  0.29109  1.0000
  C   C2966     1.0  0.67771  0.08575  0.36901  1.0000
  H   H2370     1.0  0.67705  0.19329  0.24581  1.0000
  H   H2371     1.0  0.69484  0.23216  0.40931  1.0000
  C   C2967     1.0  0.72803  0.17896  0.74631  1.0000
  C   C2968     1.0  0.73288  0.16833  0.75197  1.0000
  C   C2969     1.0  0.68854  0.12138  0.40953  1.0000
  H   H2372     1.0  0.78500  0.23048  0.21332  1.0000
  H   H2373     1.0  0.72344  0.22835  0.41849  1.0000
  C   C2970     1.0  0.69945  0.04850  0.97467  1.0000
  H   H2374     1.0  0.69453  0.18753  0.46054  1.0000
  C   C2971     1.0  0.72815  0.18550  0.70799  1.0000
  C   C2972     1.0  0.72484  0.16093  0.55591  1.0000
  C   C2973     1.0  0.66195  0.21264  0.97397  1.0000
  H   H2375     1.0  0.71673  0.22634  0.64458  1.0000
  H   H2376     1.0  0.69625  0.21761  0.63502  1.0000
  C   C2974     1.0  0.66705  0.20497  0.95248  1.0000
  C   C2975     1.0  0.71494  0.21733  0.63792  1.0000
  H   H2377     1.0  0.71559  0.12753  0.22369  1.0000
  C   C2976     1.0  0.67563  0.05098  0.05293  1.0000
  H   H2378     1.0  0.75881  0.19050  0.63580  1.0000
  C   C2977     1.0  0.65547  0.09352  0.95778  1.0000
  C   C2978     1.0  0.68546  0.13272  0.39546  1.0000
  C   C2979     1.0  0.66505  0.10031  0.31873  1.0000
  H   H2379     1.0  0.67135  0.09292  0.26875  1.0000
  C   C2980     1.0  0.73833  0.17092  0.68073  1.0000
  C   C2981     1.0  0.68052  0.13443  0.36283  1.0000
  C   C2982     1.0  0.73806  0.16432  0.71917  1.0000
  H   H2380     1.0  0.73244  0.16312  0.78189  1.0000
  H   H2381     1.0  0.73825  0.17450  0.50465  1.0000
  H   H2382     1.0  0.69741  0.10816  0.87352  1.0000
  H   H2383     1.0  0.67478  0.05335  0.44305  1.0000
  H   H2384     1.0  0.67269  0.21314  0.46944  1.0000
  H   H2385     1.0  0.68558  0.20812  0.33582  1.0000
  H   H2386     1.0  0.69797  0.12388  0.28286  1.0000
  C   C2983     1.0  0.69981  0.11592  0.27233  1.0000
  H   H2387     1.0  0.78137  0.22378  0.54420  1.0000
  C   C2984     1.0  0.72414  0.21056  0.63528  1.0000
  H   H2388     1.0  0.77934  0.20522  0.60055  1.0000
  C   C2985     1.0  0.68742  0.20340  0.36298  1.0000
  C   C2986     1.0  0.69637  0.10996  0.93261  1.0000
  C   C2987     1.0  0.72159  0.16698  0.61745  1.0000
  C   C2988     1.0  0.70353  0.19481  0.10551  1.0000
  C   C2989     1.0  0.70022  0.20530  0.08522  1.0000
  C   C2990     1.0  0.68949  0.20371  0.07173  1.0000
  C   C2991     1.0  0.68937  0.08344  0.95766  1.0000
  P   P102      1.0  0.68502  0.21721  0.04571  1.0000
  C   C2992     1.0  0.67372  0.22187  0.08020  1.0000
  C   C2993     1.0  0.69877  0.23011  0.02201  1.0000
  C   C2994     1.0  0.79354  0.24231  0.11231  1.0000
  H   H2389     1.0  0.65413  0.23113  0.87015  1.0000
  C   C2995     1.0  0.68549  0.18097  0.09928  1.0000
  Fe  Fe200     1.0  0.75432  0.24269  0.13033  1.0000
  C   C2996     1.0  0.70498  0.23259  0.98143  1.0000
  C   C2997     1.0  0.65409  0.14857  0.76950  1.0000
  C   C2998     1.0  0.67790  0.19432  0.39387  1.0000
  H   H2390     1.0  0.69606  0.06158  0.89766  1.0000
  C   C2999     1.0  0.73661  0.18111  0.55717  1.0000
  H   H2391     1.0  0.69918  0.23558  0.07609  1.0000
  C   C3000     1.0  0.67816  0.21284  0.00825  1.0000
  H   H2392     1.0  0.67370  0.16828  0.40200  1.0000
  C   C3001     1.0  0.71871  0.15827  0.59645  1.0000
  S   S404      1.0  0.76424  0.23335  0.08760  1.0000
  C   C3002     1.0  0.67770  0.20126  0.95863  1.0000
  C   C3003     1.0  0.68326  0.20518  0.98631  1.0000
  H   H2393     1.0  0.70842  0.18518  0.61378  1.0000
  C   C3004     1.0  0.68347  0.24293  0.33171  1.0000
  H   H2394     1.0  0.71208  0.19615  0.11450  1.0000
  H   H2395     1.0  0.70634  0.21453  0.07929  1.0000
  C   C3005     1.0  0.72090  0.05232  0.97733  1.0000
  H   H2396     1.0  0.67993  0.17152  0.10396  1.0000
  H   H2397     1.0  0.66328  0.22251  0.01794  1.0000
  C   C3006     1.0  0.67904  0.24064  0.41380  1.0000
  C   C3007     1.0  0.67455  0.06105  0.02345  1.0000
  H   H2398     1.0  0.70169  0.22688  0.96355  1.0000
  C   C3008     1.0  0.69559  0.10315  0.90468  1.0000
  C   C3009     1.0  0.66005  0.05161  0.92038  1.0000
  H   H2399     1.0  0.66362  0.07445  0.01003  1.0000
  H   H2400     1.0  0.69867  0.12021  0.92325  1.0000
  C   C3010     1.0  0.69951  0.20644  0.36694  1.0000
  C   C3011     1.0  0.71593  0.23086  0.86118  1.0000
  H   H2401     1.0  0.72923  0.04898  0.97820  1.0000
  C   C3012     1.0  0.66382  0.09582  0.28587  1.0000
  H   H2402     1.0  0.68161  0.19522  0.94221  1.0000
  H   H2403     1.0  0.69148  0.20213  0.99078  1.0000
  C   C3013     1.0  0.67055  0.19186  0.30843  1.0000
  H   H2404     1.0  0.72164  0.22428  0.85623  1.0000
  C   C3014     1.0  0.69932  0.06097  0.97509  1.0000
  H   H2405     1.0  0.68804  0.08562  0.01703  1.0000
  C   C3015     1.0  0.65938  0.20550  0.60400  1.0000
  C   C3016     1.0  0.71008  0.06905  0.97686  1.0000
  C   C3017     1.0  0.66766  0.05016  0.88600  1.0000
  C   C3018     1.0  0.73380  0.17231  0.53638  1.0000
  H   H2406     1.0  0.72911  0.07101  0.97922  1.0000
  C   C3019     1.0  0.73054  0.17849  0.59793  1.0000
  P   P103      1.0  0.67675  0.23992  0.46601  1.0000
  C   C3020     1.0  0.66606  0.21311  0.11593  1.0000
  H   H2407     1.0  0.66710  0.20355  0.12412  1.0000
  H   H2408     1.0  0.66021  0.20267  0.22818  1.0000
  H   H2409     1.0  0.66347  0.04629  0.86558  1.0000
  C   C3021     1.0  0.66066  0.16794  0.78656  1.0000
  C   C3022     1.0  0.65776  0.23684  0.88765  1.0000
  H   H2410     1.0  0.67637  0.24270  0.84830  1.0000
  H   H2411     1.0  0.69525  0.23948  0.51246  1.0000
  H   H2412     1.0  0.65957  0.08198  0.46806  1.0000
  H   H2413     1.0  0.76080  0.24053  0.32181  1.0000
  C   C3023     1.0  0.75600  0.23954  0.26727  1.0000
  H   H2414     1.0  0.66460  0.14527  0.42501  1.0000
  C   C3024     1.0  0.65669  0.21656  0.14096  1.0000
  H   H2415     1.0  0.67373  0.18996  0.06938  1.0000
  C   C3025     1.0  0.65952  0.10192  0.80276  1.0000
  H   H2416     1.0  0.72065  0.24406  0.93243  1.0000
  C   C3026     1.0  0.75940  0.24420  0.22544  1.0000
  C   C3027     1.0  0.79000  0.23677  0.18392  1.0000
  H   H2417     1.0  0.65416  0.00998  0.51490  1.0000
  Fe  Fe201     1.0  0.66800  0.41144  0.58125  1.0000
  S   S405      1.0  0.67742  0.41240  0.51817  1.0000
  H   H2418     1.0  0.74775  0.32192  0.76074  1.0000
  Fe  Fe202     1.0  0.68523  0.43620  0.57748  1.0000
  S   S406      1.0  0.69595  0.43906  0.51365  1.0000
  S   S407      1.0  0.68960  0.45212  0.60520  1.0000
  Fe  Fe203     1.0  0.67704  0.43290  0.50434  1.0000
  C   C3028     1.0  0.71973  0.30032  0.65742  1.0000
  Fe  Fe204     1.0  0.69539  0.41843  0.53298  1.0000
  S   S408      1.0  0.71027  0.40781  0.51868  1.0000
  S   S409      1.0  0.66642  0.43149  0.56650  1.0000
  S   S410      1.0  0.68601  0.41604  0.59747  1.0000
  Fe  Fe205     1.0  0.68953  0.43857  0.83031  1.0000
  S   S411      1.0  0.69402  0.43977  0.88801  1.0000
  S   S412      1.0  0.69620  0.45505  0.77486  1.0000
  Fe  Fe206     1.0  0.67293  0.41244  0.86590  1.0000
  S   S413      1.0  0.67584  0.41112  0.92622  1.0000
  C   C3029     1.0  0.70823  0.29404  0.65490  1.0000
  Fe  Fe207     1.0  0.67350  0.43094  0.91619  1.0000
  H   H2419     1.0  0.67722  0.45291  0.32331  1.0000
  Fe  Fe208     1.0  0.69613  0.41991  0.89378  1.0000
  S   S414      1.0  0.70893  0.40957  0.92140  1.0000
  S   S415      1.0  0.66889  0.43148  0.85835  1.0000
  S   S416      1.0  0.69331  0.41949  0.83369  1.0000
  C   C3030     1.0  0.80301  0.25734  0.91583  1.0000
  Fe  Fe209     1.0  0.77020  0.41544  0.98472  1.0000
  S   S417      1.0  0.75757  0.40107  0.04006  1.0000
  S   S418      1.0  0.76254  0.42903  0.94502  1.0000
  Fe  Fe210     1.0  0.79342  0.40704  0.99898  1.0000
  S   S419      1.0  0.78210  0.39169  0.05488  1.0000
  H   H2420     1.0  0.75123  0.32393  0.68907  1.0000
  Fe  Fe211     1.0  0.76835  0.38772  0.01980  1.0000
  S   S420      1.0  0.75873  0.36781  0.02155  1.0000
  Fe  Fe212     1.0  0.77245  0.40649  0.06990  1.0000
  S   S421      1.0  0.76623  0.40979  0.13133  1.0000
  S   S422      1.0  0.78039  0.40183  0.96279  1.0000
  S   S423      1.0  0.78439  0.42206  0.01564  1.0000
  Fe  Fe213     1.0  0.70351  0.32052  0.87567  1.0000
  S   S424      1.0  0.71083  0.34081  0.83818  1.0000
  S   S425      1.0  0.68284  0.31186  0.88751  1.0000
  Fe  Fe214     1.0  0.72965  0.31727  0.87175  1.0000
  S   S426      1.0  0.73884  0.33700  0.83360  1.0000
  H   H2421     1.0  0.70928  0.28057  0.99477  1.0000
  Fe  Fe215     1.0  0.72426  0.34235  0.87570  1.0000
  S   S427      1.0  0.73040  0.36085  0.89015  1.0000
  Fe  Fe216     1.0  0.72477  0.33365  0.79996  1.0000
  S   S428      1.0  0.73104  0.33957  0.73259  1.0000
  S   S429      1.0  0.71577  0.32261  0.91674  1.0000
  S   S430      1.0  0.71670  0.31340  0.83464  1.0000
  H   H2422     1.0  0.72776  0.26838  0.38182  1.0000
  Fe  Fe217     1.0  0.78073  0.39546  0.40535  1.0000
  S   S431      1.0  0.79983  0.40106  0.36262  1.0000
  S   S432      1.0  0.77281  0.37519  0.44318  1.0000
  Fe  Fe218     1.0  0.77838  0.42225  0.38959  1.0000
  S   S433      1.0  0.79752  0.43015  0.34504  1.0000
  S   S434      1.0  0.76578  0.43440  0.41040  1.0000
  Fe  Fe219     1.0  0.79200  0.41355  0.32114  1.0000
  S   S435      1.0  0.79833  0.41349  0.25561  1.0000
  Fe  Fe220     1.0  0.80406  0.41714  0.38958  1.0000
  C   C3031     1.0  0.72244  0.28830  0.49260  1.0000
  S   S436      1.0  0.77245  0.40669  0.36237  1.0000
  S   S437      1.0  0.78531  0.41050  0.43526  1.0000
  Fe  Fe221     1.0  0.70430  0.30430  0.53679  1.0000
  H   H2423     1.0  0.75930  0.35018  0.18298  1.0000
  Fe  Fe222     1.0  0.70606  0.33191  0.50422  1.0000
  S   S438      1.0  0.68727  0.33054  0.54481  1.0000
  S   S439      1.0  0.71635  0.35070  0.45924  1.0000
  Fe  Fe223     1.0  0.69366  0.31878  0.59211  1.0000
  S   S440      1.0  0.68893  0.31955  0.65624  1.0000
  Fe  Fe224     1.0  0.68094  0.31257  0.52885  1.0000
  S   S441      1.0  0.66197  0.30694  0.51845  1.0000
  S   S442      1.0  0.71293  0.32142  0.55285  1.0000
  S   S443      1.0  0.69918  0.31492  0.48432  1.0000
  C   C3032     1.0  0.75689  0.36863  0.44971  1.0000
  C   C3033     1.0  0.74937  0.37599  0.43498  1.0000
  C   C3034     1.0  0.73686  0.37042  0.43894  1.0000
  C   C3035     1.0  0.73177  0.35749  0.45772  1.0000
  C   C3036     1.0  0.73919  0.35016  0.47323  1.0000
  C   C3037     1.0  0.75172  0.35574  0.46920  1.0000
  H   H2424     1.0  0.75317  0.38595  0.42044  1.0000
  H   H2425     1.0  0.73109  0.37615  0.42752  1.0000
  H   H2426     1.0  0.73539  0.34015  0.48719  1.0000
  H   H2427     1.0  0.75751  0.34997  0.48014  1.0000
  C   C3038     1.0  0.67476  0.41053  0.74656  1.0000
  H   H2428     1.0  0.73589  0.30859  0.53966  1.0000
  C   C3039     1.0  0.72813  0.25918  0.33459  1.0000
  H   H2429     1.0  0.80833  0.32085  0.86179  1.0000
  H   H2430     1.0  0.73720  0.35401  0.31204  1.0000
  C   C3040     1.0  0.65960  0.29697  0.48753  1.0000
  C   C3041     1.0  0.66956  0.29358  0.46510  1.0000
  C   C3042     1.0  0.66744  0.28579  0.44027  1.0000
  H   H2431     1.0  0.80649  0.25999  0.07891  1.0000
  C   C3043     1.0  0.65536  0.28137  0.43753  1.0000
  C   C3044     1.0  0.67390  0.24746  0.35130  1.0000
  H   H2432     1.0  0.67891  0.29699  0.46678  1.0000
  H   H2433     1.0  0.67518  0.28313  0.42329  1.0000
  H   H2434     1.0  0.66453  0.42121  0.77791  1.0000
  H   H2435     1.0  0.74467  0.26312  0.24022  1.0000
  C   C3045     1.0  0.71949  0.33382  0.71116  1.0000
  C   C3046     1.0  0.72221  0.33598  0.66964  1.0000
  C   C3047     1.0  0.71298  0.33148  0.65228  1.0000
  C   C3048     1.0  0.70098  0.32491  0.67648  1.0000
  C   C3049     1.0  0.69832  0.32282  0.71792  1.0000
  C   C3050     1.0  0.70753  0.32721  0.73526  1.0000
  H   H2436     1.0  0.73142  0.34123  0.65087  1.0000
  H   H2437     1.0  0.71504  0.33337  0.62024  1.0000
  P   P104      1.0  0.75978  0.36436  0.24254  1.0000
  H   H2438     1.0  0.70533  0.32555  0.76729  1.0000
  H   H2439     1.0  0.71804  0.26232  0.84576  1.0000
  H   H2440     1.0  0.69448  0.25951  0.01797  1.0000
  C   C3051     1.0  0.80202  0.38293  0.20735  1.0000
  H   H2441     1.0  0.73240  0.30963  0.95607  1.0000
  C   C3052     1.0  0.73550  0.30102  0.96197  1.0000
  C   C3053     1.0  0.77542  0.41106  0.16502  1.0000
  C   C3054     1.0  0.78755  0.40942  0.15704  1.0000
  C   C3055     1.0  0.79446  0.41039  0.18481  1.0000
  C   C3056     1.0  0.78929  0.41277  0.22119  1.0000
  C   C3057     1.0  0.77722  0.41461  0.22888  1.0000
  C   C3058     1.0  0.77035  0.41380  0.20085  1.0000
  H   H2442     1.0  0.79162  0.40744  0.12945  1.0000
  H   H2443     1.0  0.80383  0.40913  0.17819  1.0000
  H   H2444     1.0  0.77319  0.41664  0.25640  1.0000
  H   H2445     1.0  0.76101  0.41519  0.20716  1.0000
  C   C3059     1.0  0.75046  0.36593  0.98591  1.0000
  C   C3060     1.0  0.74989  0.37637  0.95703  1.0000
  C   C3061     1.0  0.74341  0.37464  0.92869  1.0000
  C   C3062     1.0  0.73769  0.36247  0.92824  1.0000
  C   C3063     1.0  0.73806  0.35202  0.95756  1.0000
  C   C3064     1.0  0.74435  0.35376  0.98644  1.0000
  H   H2446     1.0  0.75439  0.38580  0.95657  1.0000
  H   H2447     1.0  0.74295  0.38281  0.90672  1.0000
  H   H2448     1.0  0.73361  0.34260  0.95776  1.0000
  H   H2449     1.0  0.74469  0.34563  0.00875  1.0000
  C   C3065     1.0  0.77413  0.25426  0.27068  1.0000
  H   H2450     1.0  0.79100  0.32174  0.76382  1.0000
  H   H2451     1.0  0.66582  0.36826  0.59925  1.0000
  H   H2452     1.0  0.66955  0.38180  0.78103  1.0000
  H   H2453     1.0  0.72683  0.36352  0.36176  1.0000
  C   C3066     1.0  0.67487  0.29747  0.92435  1.0000
  C   C3067     1.0  0.68037  0.29172  0.95240  1.0000
  H   H2454     1.0  0.68441  0.47884  0.42690  1.0000
  H   H2455     1.0  0.68332  0.39986  0.71021  1.0000
  C   C3068     1.0  0.69631  0.26158  0.44017  1.0000
  C   C3069     1.0  0.66248  0.29201  0.92664  1.0000
  H   H2456     1.0  0.68987  0.29592  0.95112  1.0000
  S   S444      1.0  0.68560  0.30069  0.58005  1.0000
  H   H2457     1.0  0.81721  0.37644  0.45979  1.0000
  H   H2458     1.0  0.80760  0.41209  0.90105  1.0000
  C   C3070     1.0  0.72392  0.41541  0.92677  1.0000
  C   C3071     1.0  0.73012  0.42824  0.91310  1.0000
  C   C3072     1.0  0.74199  0.43231  0.91851  1.0000
  C   C3073     1.0  0.74765  0.42364  0.93825  1.0000
  C   C3074     1.0  0.74135  0.41086  0.95231  1.0000
  C   C3075     1.0  0.72964  0.40678  0.94617  1.0000
  H   H2459     1.0  0.72584  0.43499  0.89803  1.0000
  H   H2460     1.0  0.74680  0.44221  0.90745  1.0000
  H   H2461     1.0  0.74556  0.40407  0.96748  1.0000
  H   H2462     1.0  0.72503  0.39684  0.95626  1.0000
  C   C3076     1.0  0.74495  0.33873  0.57067  1.0000
  C   C3077     1.0  0.79884  0.32597  0.38828  1.0000
  H   H2463     1.0  0.78166  0.36477  0.67016  1.0000
  H   H2464     1.0  0.65695  0.48309  0.04817  1.0000
  C   C3078     1.0  0.72767  0.24757  0.32550  1.0000
  C   C3079     1.0  0.69006  0.28196  0.83883  1.0000
  S   S445      1.0  0.71204  0.28735  0.53792  1.0000
  S   S446      1.0  0.79320  0.26051  0.01150  1.0000
  C   C3080     1.0  0.72572  0.41541  0.48923  1.0000
  C   C3081     1.0  0.73362  0.40806  0.47578  1.0000
  C   C3082     1.0  0.74595  0.41376  0.45200  1.0000
  C   C3083     1.0  0.75048  0.42688  0.44143  1.0000
  C   C3084     1.0  0.74264  0.43422  0.45538  1.0000
  C   C3085     1.0  0.73029  0.42852  0.47915  1.0000
  H   H2465     1.0  0.73014  0.39791  0.48332  1.0000
  H   H2466     1.0  0.75190  0.40801  0.44139  1.0000
  H   H2467     1.0  0.74607  0.44438  0.44731  1.0000
  H   H2468     1.0  0.72430  0.43427  0.48943  1.0000
  C   C3086     1.0  0.69119  0.45192  0.65334  1.0000
  C   C3087     1.0  0.69338  0.46354  0.66208  1.0000
  C   C3088     1.0  0.69490  0.46425  0.69929  1.0000
  C   C3089     1.0  0.69416  0.45333  0.72865  1.0000
  C   C3090     1.0  0.69193  0.44160  0.72030  1.0000
  C   C3091     1.0  0.69045  0.44088  0.68254  1.0000
  H   H2469     1.0  0.69401  0.47212  0.63974  1.0000
  H   H2470     1.0  0.69669  0.47334  0.70529  1.0000
  H   H2471     1.0  0.69158  0.43318  0.74269  1.0000
  H   H2472     1.0  0.68887  0.43190  0.67587  1.0000
  H   H2473     1.0  0.67688  0.48011  0.49531  1.0000
  H   H2474     1.0  0.68189  0.27660  0.52146  1.0000
  H   H2475     1.0  0.73461  0.38619  0.35607  1.0000
  C   C3092     1.0  0.74324  0.30405  0.69734  1.0000
  H   H2476     1.0  0.81948  0.35421  0.93094  1.0000
  S   S447      1.0  0.75726  0.25201  0.01597  1.0000
  C   C3093     1.0  0.74436  0.30690  0.52307  1.0000
  H   H2477     1.0  0.71623  0.29218  0.92292  1.0000
  C   C3094     1.0  0.70706  0.36611  0.58885  1.0000
  C   C3095     1.0  0.69999  0.35664  0.62341  1.0000
  C   C3096     1.0  0.70235  0.35680  0.65991  1.0000
  C   C3097     1.0  0.71199  0.36621  0.66179  1.0000
  C   C3098     1.0  0.71949  0.37554  0.62693  1.0000
  C   C3099     1.0  0.71663  0.37560  0.59066  1.0000
  P   P105      1.0  0.73278  0.38725  0.62755  1.0000
  C   C3100     1.0  0.74622  0.38552  0.59243  1.0000
  C   C3101     1.0  0.72952  0.40254  0.61235  1.0000
  C   C3102     1.0  0.73835  0.41272  0.58301  1.0000
  C   C3103     1.0  0.73555  0.42443  0.57194  1.0000
  C   C3104     1.0  0.72408  0.42618  0.59095  1.0000
  C   C3105     1.0  0.71549  0.41628  0.62147  1.0000
  C   C3106     1.0  0.71818  0.40451  0.63206  1.0000
  C   C3107     1.0  0.75474  0.37919  0.60583  1.0000
  C   C3108     1.0  0.76462  0.37723  0.57856  1.0000
  C   C3109     1.0  0.76612  0.38156  0.53767  1.0000
  C   C3110     1.0  0.75777  0.38787  0.52392  1.0000
  C   C3111     1.0  0.74786  0.38982  0.55108  1.0000
  C   C3112     1.0  0.73494  0.38515  0.67726  1.0000
  C   C3113     1.0  0.73541  0.37330  0.69972  1.0000
  C   C3114     1.0  0.73651  0.37158  0.73862  1.0000
  C   C3115     1.0  0.73723  0.38167  0.75549  1.0000
  C   C3116     1.0  0.73706  0.39355  0.73320  1.0000
  C   C3117     1.0  0.73599  0.39532  0.69424  1.0000
  H   H2478     1.0  0.70510  0.36612  0.56056  1.0000
  H   H2479     1.0  0.69268  0.34917  0.62193  1.0000
  H   H2480     1.0  0.69684  0.34943  0.68664  1.0000
  H   H2481     1.0  0.71350  0.36602  0.69052  1.0000
  H   H2482     1.0  0.72169  0.38297  0.56356  1.0000
  H   H2483     1.0  0.74741  0.41174  0.56860  1.0000
  H   H2484     1.0  0.74222  0.43212  0.54831  1.0000
  H   H2485     1.0  0.72185  0.43522  0.58215  1.0000
  H   H2486     1.0  0.70672  0.41776  0.63673  1.0000
  H   H2487     1.0  0.71150  0.39696  0.65592  1.0000
  H   H2488     1.0  0.75377  0.37558  0.63716  1.0000
  H   H2489     1.0  0.77102  0.37219  0.58912  1.0000
  H   H2490     1.0  0.77369  0.37991  0.51658  1.0000
  H   H2491     1.0  0.75888  0.39110  0.49210  1.0000
  H   H2492     1.0  0.74151  0.39469  0.53952  1.0000
  H   H2493     1.0  0.73467  0.36530  0.68743  1.0000
  H   H2494     1.0  0.73656  0.36234  0.75603  1.0000
  H   H2495     1.0  0.73781  0.38023  0.78598  1.0000
  H   H2496     1.0  0.73760  0.40139  0.74634  1.0000
  H   H2497     1.0  0.73589  0.40465  0.67781  1.0000
  H   H2498     1.0  0.68599  0.47462  0.80282  1.0000
  H   H2499     1.0  0.66294  0.32173  0.93472  1.0000
  H   H2500     1.0  0.78399  0.28212  0.58689  1.0000
  H   H2501     1.0  0.76756  0.38861  0.87022  1.0000
  C   C3118     1.0  0.81038  0.37768  0.86572  1.0000
  P   P106      1.0  0.68699  0.49369  0.91417  1.0000
  H   H2502     1.0  0.78534  0.26698  0.21388  1.0000
  H   H2503     1.0  0.79639  0.29281  0.85476  1.0000
  H   H2504     1.0  0.73960  0.30913  0.40345  1.0000
  H   H2505     1.0  0.74915  0.28206  0.91374  1.0000
  S   S448      1.0  0.78457  0.25949  0.29733  1.0000
  C   C3119     1.0  0.72695  0.25950  0.37426  1.0000
  H   H2506     1.0  0.66834  0.38050  0.91448  1.0000
  H   H2507     1.0  0.67100  0.36750  0.86733  1.0000
  H   H2508     1.0  0.80035  0.42949  0.92348  1.0000
  C   C3120     1.0  0.66225  0.45304  0.45149  1.0000
  C   C3121     1.0  0.72865  0.27121  0.24970  1.0000
  H   H2509     1.0  0.80375  0.30180  0.03925  1.0000
  H   H2510     1.0  0.80032  0.24992  0.20687  1.0000
  C   C3122     1.0  0.80214  0.25349  0.10837  1.0000
  C   C3123     1.0  0.72653  0.46084  0.36567  1.0000
  C   C3124     1.0  0.65945  0.44492  0.75916  1.0000
  P   P107      1.0  0.73020  0.27374  0.29671  1.0000
  C   C3125     1.0  0.74590  0.28342  0.28354  1.0000
  H   H2511     1.0  0.66443  0.25021  0.40620  1.0000
  C   C3126     1.0  0.70805  0.47074  0.46312  1.0000
  H   H2512     1.0  0.68212  0.37737  0.44655  1.0000
  H   H2513     1.0  0.72921  0.25686  0.97246  1.0000
  H   H2514     1.0  0.80539  0.30046  0.42396  1.0000
  C   C3127     1.0  0.80413  0.28785  0.48043  1.0000
  C   C3128     1.0  0.74874  0.29613  0.26121  1.0000
  C   C3129     1.0  0.76099  0.30357  0.24941  1.0000
  C   C3130     1.0  0.77050  0.29832  0.25934  1.0000
  C   C3131     1.0  0.76780  0.28559  0.28040  1.0000
  C   C3132     1.0  0.75558  0.27811  0.29205  1.0000
  C   C3133     1.0  0.71876  0.28133  0.31867  1.0000
  C   C3134     1.0  0.70597  0.27596  0.32590  1.0000
  C   C3135     1.0  0.69704  0.28152  0.34411  1.0000
  C   C3136     1.0  0.70081  0.29233  0.35594  1.0000
  C   C3137     1.0  0.71348  0.29738  0.35055  1.0000
  C   C3138     1.0  0.72241  0.29179  0.33257  1.0000
  H   H2515     1.0  0.73032  0.29787  0.02590  1.0000
  C   C3139     1.0  0.79213  0.30142  0.13481  1.0000
  H   H2516     1.0  0.69862  0.27907  0.63600  1.0000
  H   H2517     1.0  0.66416  0.30914  0.78970  1.0000
  C   C3140     1.0  0.71926  0.27407  0.19461  1.0000
  C   C3141     1.0  0.69340  0.48104  0.93547  1.0000
  H   H2518     1.0  0.70054  0.25756  0.41738  1.0000
  C   C3142     1.0  0.81058  0.29456  0.14388  1.0000
  H   H2519     1.0  0.74148  0.30024  0.25286  1.0000
  H   H2520     1.0  0.76311  0.31341  0.23266  1.0000
  H   H2521     1.0  0.77999  0.30404  0.25045  1.0000
  H   H2522     1.0  0.77518  0.28145  0.28762  1.0000
  H   H2523     1.0  0.75377  0.26818  0.30707  1.0000
  H   H2524     1.0  0.70291  0.26742  0.31775  1.0000
  H   H2525     1.0  0.68717  0.27736  0.34971  1.0000
  H   H2526     1.0  0.69388  0.29654  0.37048  1.0000
  C   C3143     1.0  0.67175  0.24641  0.39205  1.0000
  H   H2527     1.0  0.73208  0.29538  0.33091  1.0000
  C   C3144     1.0  0.73687  0.26470  0.19069  1.0000
  C   C3145     1.0  0.68769  0.35994  0.44905  1.0000
  C   C3146     1.0  0.68374  0.34700  0.45370  1.0000
  C   C3147     1.0  0.76990  0.28230  0.63848  1.0000
  C   C3148     1.0  0.79100  0.25276  0.91332  1.0000
  C   C3149     1.0  0.81548  0.44232  0.10815  1.0000
  C   C3150     1.0  0.66595  0.32661  0.80585  1.0000
  H   H2528     1.0  0.66818  0.25196  0.33494  1.0000
  C   C3151     1.0  0.76048  0.28794  0.65295  1.0000
  H   H2529     1.0  0.65823  0.29635  0.90481  1.0000
  C   C3152     1.0  0.78746  0.25802  0.87963  1.0000
  C   C3153     1.0  0.69752  0.26451  0.98654  1.0000
  P   P108      1.0  0.81508  0.27138  0.13704  1.0000
  C   C3154     1.0  0.79263  0.34968  0.49967  1.0000
  C   C3155     1.0  0.77006  0.36955  0.80874  1.0000
  C   C3156     1.0  0.73739  0.26606  0.22817  1.0000
  C   C3157     1.0  0.76530  0.34342  0.28775  1.0000
  H   H2530     1.0  0.73253  0.46991  0.34751  1.0000
  C   C3158     1.0  0.77717  0.25933  0.22902  1.0000
  C   C3159     1.0  0.69138  0.48363  0.34667  1.0000
  C   C3160     1.0  0.65487  0.45493  0.92548  1.0000
  H   H2531     1.0  0.77944  0.29961  0.54126  1.0000
  C   C3161     1.0  0.74503  0.31363  0.75087  1.0000
  Fe  Fe225     1.0  0.77256  0.25326  0.04688  1.0000
  C   C3162     1.0  0.76985  0.25435  0.20651  1.0000
  C   C3163     1.0  0.77420  0.36092  0.36913  1.0000
  H   H2532     1.0  0.69735  0.36410  0.44650  1.0000
  H   H2533     1.0  0.69034  0.34116  0.45480  1.0000
  S   S449      1.0  0.66184  0.43524  0.96951  1.0000
  H   H2534     1.0  0.68511  0.38555  0.56845  1.0000
  C   C3164     1.0  0.66624  0.32496  0.73952  1.0000
  C   C3165     1.0  0.81544  0.27886  0.98230  1.0000
  H   H2535     1.0  0.71634  0.30537  0.36161  1.0000
  H   H2536     1.0  0.80363  0.31548  0.94566  1.0000
  C   C3166     1.0  0.80847  0.43162  0.89815  1.0000
  H   H2537     1.0  0.71900  0.47562  0.96469  1.0000
  H   H2538     1.0  0.80719  0.31245  0.14938  1.0000
  C   C3167     1.0  0.79458  0.28104  0.12698  1.0000
  C   C3168     1.0  0.69323  0.25906  0.95905  1.0000
  H   H2539     1.0  0.71329  0.28008  0.24675  1.0000
  C   C3169     1.0  0.80477  0.25639  0.14223  1.0000
  C   C3170     1.0  0.77415  0.29640  0.57246  1.0000
  Fe  Fe226     1.0  0.78162  0.26799  0.43598  1.0000
  C   C3171     1.0  0.80040  0.34269  0.51450  1.0000
  H   H2540     1.0  0.79386  0.31743  0.47848  1.0000
  C   C3172     1.0  0.69220  0.29164  0.80390  1.0000
  H   H2541     1.0  0.77816  0.25437  0.87768  1.0000
  C   C3173     1.0  0.65541  0.44847  0.96304  1.0000
  C   C3174     1.0  0.80379  0.38681  0.47780  1.0000
  H   H2542     1.0  0.80196  0.37590  0.96499  1.0000
  S   S450      1.0  0.78186  0.27854  0.37422  1.0000
  P   P109      1.0  0.66992  0.36244  0.73665  1.0000
  C   C3175     1.0  0.67542  0.36895  0.68277  1.0000
  H   H2543     1.0  0.73021  0.28248  0.78865  1.0000
  C   C3176     1.0  0.69182  0.36569  0.75984  1.0000
  C   C3177     1.0  0.70029  0.37108  0.77791  1.0000
  H   H2544     1.0  0.81233  0.33048  0.04983  1.0000
  C   C3178     1.0  0.76471  0.30204  0.58675  1.0000
  C   C3179     1.0  0.80845  0.29944  0.45071  1.0000
  C   C3180     1.0  0.66812  0.36517  0.65860  1.0000
  C   C3181     1.0  0.67161  0.37108  0.61757  1.0000
  C   C3182     1.0  0.68240  0.38087  0.60024  1.0000
  C   C3183     1.0  0.68970  0.38475  0.62391  1.0000
  C   C3184     1.0  0.68622  0.37888  0.66502  1.0000
  H   H2545     1.0  0.71235  0.27731  0.18117  1.0000
  C   C3185     1.0  0.78914  0.28710  0.93900  1.0000
  C   C3186     1.0  0.72700  0.29966  0.46203  1.0000
  C   C3187     1.0  0.69178  0.45854  0.95903  1.0000
  S   S451      1.0  0.67075  0.44131  0.45046  1.0000
  H   H2546     1.0  0.66193  0.33272  0.40397  1.0000
  C   C3188     1.0  0.67999  0.26027  0.49888  1.0000
  H   H2547     1.0  0.80983  0.32025  0.71542  1.0000
  C   C3189     1.0  0.66795  0.33805  0.72594  1.0000
  H   H2548     1.0  0.73798  0.26978  0.44820  1.0000
  C   C3190     1.0  0.69776  0.38038  0.79649  1.0000
  H   H2549     1.0  0.69382  0.35833  0.74617  1.0000
  H   H2550     1.0  0.70875  0.36791  0.77803  1.0000
  C   C3191     1.0  0.69912  0.26917  0.79971  1.0000
  C   C3192     1.0  0.75836  0.29688  0.09019  1.0000
  C   C3193     1.0  0.67815  0.37880  0.77941  1.0000
  C   C3194     1.0  0.66412  0.36359  0.89602  1.0000
  Fe  Fe227     1.0  0.75780  0.24730  0.44294  1.0000
  H   H2551     1.0  0.80674  0.32559  0.51856  1.0000
  H   H2552     1.0  0.69804  0.39237  0.60994  1.0000
  H   H2553     1.0  0.69191  0.38217  0.68280  1.0000
  C   C3195     1.0  0.78352  0.30804  0.96310  1.0000
  C   C3196     1.0  0.73504  0.27815  0.45211  1.0000
  H   H2554     1.0  0.68911  0.31769  0.73680  1.0000
  H   H2555     1.0  0.66700  0.44524  0.73400  1.0000
  C   C3197     1.0  0.73061  0.29659  0.64279  1.0000
  H   H2556     1.0  0.78021  0.40946  0.62202  1.0000
  C   C3198     1.0  0.72589  0.37880  0.03662  1.0000
  C   C3199     1.0  0.71712  0.37348  0.01945  1.0000
  C   C3200     1.0  0.70631  0.37780  0.02006  1.0000
  C   C3201     1.0  0.70435  0.38754  0.03736  1.0000
  C   C3202     1.0  0.71341  0.39330  0.05312  1.0000
  C   C3203     1.0  0.72403  0.38862  0.05347  1.0000
  P   P110      1.0  0.71112  0.40575  0.07642  1.0000
  C   C3204     1.0  0.70629  0.39901  0.12997  1.0000
  C   C3205     1.0  0.72591  0.41735  0.06169  1.0000
  C   C3206     1.0  0.73442  0.41625  0.08461  1.0000
  C   C3207     1.0  0.74589  0.42515  0.07305  1.0000
  C   C3208     1.0  0.74908  0.43508  0.03823  1.0000
  C   C3209     1.0  0.74074  0.43620  0.01514  1.0000
  C   C3210     1.0  0.72925  0.42736  0.02658  1.0000
  C   C3211     1.0  0.70087  0.38601  0.14685  1.0000
  C   C3212     1.0  0.69744  0.38080  0.18827  1.0000
  C   C3213     1.0  0.69935  0.38852  0.21311  1.0000
  C   C3214     1.0  0.70461  0.40148  0.19656  1.0000
  C   C3215     1.0  0.70804  0.40673  0.15517  1.0000
  C   C3216     1.0  0.69964  0.41344  0.06083  1.0000
  C   C3217     1.0  0.69114  0.41720  0.08815  1.0000
  C   C3218     1.0  0.68246  0.42335  0.07571  1.0000
  C   C3219     1.0  0.69932  0.41604  0.02089  1.0000
  H   H2557     1.0  0.73425  0.37544  0.03636  1.0000
  H   H2558     1.0  0.71880  0.36614  0.00522  1.0000
  H   H2559     1.0  0.69958  0.37377  0.00630  1.0000
  H   H2560     1.0  0.69586  0.39062  0.03777  1.0000
  H   H2561     1.0  0.73091  0.39258  0.06666  1.0000
  H   H2562     1.0  0.73239  0.40841  0.11098  1.0000
  H   H2563     1.0  0.75247  0.42417  0.09051  1.0000
  H   H2564     1.0  0.75817  0.44167  0.02839  1.0000
  H   H2565     1.0  0.74345  0.44362  0.98728  1.0000
  H   H2566     1.0  0.72325  0.42821  0.00716  1.0000
  H   H2567     1.0  0.69935  0.37985  0.12815  1.0000
  H   H2568     1.0  0.69337  0.37074  0.20110  1.0000
  C   C3220     1.0  0.72500  0.24837  0.40447  1.0000
  H   H2569     1.0  0.72264  0.26869  0.51074  1.0000
  H   H2570     1.0  0.71214  0.41679  0.14277  1.0000
  H   H2571     1.0  0.69120  0.41548  0.11902  1.0000
  H   H2572     1.0  0.70588  0.41341  0.99913  1.0000
  C   C3221     1.0  0.78056  0.39969  0.63199  1.0000
  C   C3222     1.0  0.81272  0.41580  0.61476  1.0000
  H   H2573     1.0  0.81346  0.27052  0.27670  1.0000
  C   C3223     1.0  0.79900  0.28369  0.02777  1.0000
  C   C3224     1.0  0.81814  0.34041  0.84616  1.0000
  H   H2574     1.0  0.65846  0.34556  0.88601  1.0000
  C   C3225     1.0  0.80613  0.39596  0.53198  1.0000
  C   C3226     1.0  0.79986  0.39385  0.50362  1.0000
  P   P111      1.0  0.80097  0.40526  0.56479  1.0000
  C   C3227     1.0  0.79410  0.41672  0.53864  1.0000
  C   C3228     1.0  0.78967  0.39502  0.61007  1.0000
  C   C3229     1.0  0.79009  0.38241  0.62435  1.0000
  C   C3230     1.0  0.80146  0.42874  0.51537  1.0000
  C   C3231     1.0  0.79633  0.43719  0.49288  1.0000
  C   C3232     1.0  0.78386  0.43369  0.49300  1.0000
  C   C3233     1.0  0.77644  0.42181  0.51619  1.0000
  C   C3234     1.0  0.78150  0.41337  0.53906  1.0000
  H   H2575     1.0  0.81572  0.32465  0.34914  1.0000
  C   C3235     1.0  0.68607  0.48260  0.85215  1.0000
  H   H2576     1.0  0.79939  0.34262  0.92634  1.0000
  C   C3236     1.0  0.81414  0.41359  0.57707  1.0000
  C   C3237     1.0  0.74703  0.31472  0.71012  1.0000
  H   H2577     1.0  0.81187  0.38749  0.19906  1.0000
  H   H2578     1.0  0.79207  0.39783  0.50084  1.0000
  H   H2579     1.0  0.79713  0.37864  0.60839  1.0000
  H   H2580     1.0  0.81125  0.43155  0.51361  1.0000
  H   H2581     1.0  0.80214  0.44636  0.47443  1.0000
  H   H2582     1.0  0.78002  0.44007  0.47433  1.0000
  H   H2583     1.0  0.76691  0.41901  0.51502  1.0000
  H   H2584     1.0  0.77568  0.40410  0.55592  1.0000
  C   C3238     1.0  0.74399  0.32631  0.28790  1.0000
  S   S452      1.0  0.77854  0.24897  0.42172  1.0000
  C   C3239     1.0  0.75128  0.37128  0.27760  1.0000
  C   C3240     1.0  0.75710  0.34773  0.26694  1.0000
  C   C3241     1.0  0.74640  0.33907  0.26725  1.0000
  C   C3242     1.0  0.79660  0.37923  0.17910  1.0000
  C   C3243     1.0  0.78183  0.37568  0.25648  1.0000
  C   C3244     1.0  0.73151  0.45024  0.36903  1.0000
  C   C3245     1.0  0.80923  0.33340  0.02353  1.0000
  C   C3246     1.0  0.75549  0.38412  0.27463  1.0000
  C   C3247     1.0  0.74949  0.38947  0.30276  1.0000
  C   C3248     1.0  0.73915  0.38206  0.33401  1.0000
  C   C3249     1.0  0.73475  0.36929  0.33701  1.0000
  C   C3250     1.0  0.74072  0.36392  0.30877  1.0000
  H   H2585     1.0  0.73979  0.34223  0.25218  1.0000
  C   C3251     1.0  0.66042  0.32006  0.96684  1.0000
  C   C3252     1.0  0.79006  0.44154  0.11877  1.0000
  P   P112      1.0  0.69151  0.25865  0.88271  1.0000
  C   C3253     1.0  0.67912  0.36741  0.44892  1.0000
  H   H2586     1.0  0.67596  0.42629  0.09679  1.0000
  C   C3254     1.0  0.66828  0.34551  0.75257  1.0000
  H   H2587     1.0  0.79204  0.31905  0.04641  1.0000
  C   C3255     1.0  0.69057  0.42209  0.00860  1.0000
  C   C3256     1.0  0.78136  0.37453  0.65950  1.0000
  H   H2588     1.0  0.69037  0.42395  0.97772  1.0000
  H   H2589     1.0  0.77452  0.34708  0.57769  1.0000
  C   C3257     1.0  0.80071  0.33103  0.50703  1.0000
  C   C3258     1.0  0.71815  0.27956  0.62638  1.0000
  H   H2590     1.0  0.78015  0.44075  0.12342  1.0000
  C   C3259     1.0  0.70983  0.28292  0.93305  1.0000
  C   C3260     1.0  0.68212  0.42573  0.03602  1.0000
  H   H2591     1.0  0.69995  0.29731  0.66451  1.0000
  H   H2592     1.0  0.79002  0.44412  0.17655  1.0000
  C   C3261     1.0  0.65682  0.35122  0.90651  1.0000
  H   H2593     1.0  0.77250  0.25808  0.17441  1.0000
  C   C3262     1.0  0.77222  0.37919  0.68080  1.0000
  C   C3263     1.0  0.77185  0.39178  0.66710  1.0000
  H   H2594     1.0  0.79873  0.38458  0.26740  1.0000
  H   H2595     1.0  0.80380  0.41243  0.63715  1.0000
  C   C3264     1.0  0.79596  0.30788  0.94722  1.0000
  C   C3265     1.0  0.81401  0.38079  0.77909  1.0000
  C   C3266     1.0  0.68562  0.47757  0.48625  1.0000
  H   H2596     1.0  0.72436  0.24871  0.43489  1.0000
  H   H2597     1.0  0.76477  0.39539  0.68366  1.0000
  H   H2598     1.0  0.76539  0.37304  0.70783  1.0000
  H   H2599     1.0  0.66822  0.33137  0.46388  1.0000
  C   C3267     1.0  0.79725  0.44050  0.08302  1.0000
  H   H2600     1.0  0.81377  0.45193  0.71179  1.0000
  S   S453      1.0  0.75196  0.29058  0.38057  1.0000
  H   H2601     1.0  0.67532  0.43040  0.02652  1.0000
  H   H2602     1.0  0.74118  0.45120  0.35374  1.0000
  H   H2603     1.0  0.66867  0.40066  0.66849  1.0000
  H   H2604     1.0  0.69329  0.45304  0.35896  1.0000
  H   H2605     1.0  0.76917  0.32740  0.32449  1.0000
  S   S454      1.0  0.66108  0.39753  0.84828  1.0000
  C   C3268     1.0  0.68160  0.48007  0.82072  1.0000
  C   C3269     1.0  0.76583  0.30221  0.47898  1.0000
  H   H2606     1.0  0.77349  0.34987  0.28881  1.0000
  H   H2607     1.0  0.78765  0.32541  0.86544  1.0000
  C   C3270     1.0  0.66793  0.40543  0.69169  1.0000
  C   C3271     1.0  0.69692  0.26571  0.91841  1.0000
  C   C3272     1.0  0.80301  0.37420  0.90550  1.0000
  C   C3273     1.0  0.74561  0.29453  0.52772  1.0000
  H   H2608     1.0  0.79295  0.43920  0.05973  1.0000
  H   H2609     1.0  0.79088  0.27241  0.12034  1.0000
  H   H2610     1.0  0.72742  0.26754  0.14491  1.0000
  C   C3274     1.0  0.68073  0.36957  0.76018  1.0000
  H   H2611     1.0  0.67152  0.25522  0.52226  1.0000
  H   H2612     1.0  0.73808  0.28669  0.54730  1.0000
  C   C3275     1.0  0.73915  0.30198  0.77902  1.0000
  S   S455      1.0  0.76097  0.26545  0.46077  1.0000
  H   H2613     1.0  0.65836  0.45176  0.89972  1.0000
  H   H2614     1.0  0.70163  0.26046  0.79739  1.0000
  C   C3276     1.0  0.66102  0.27530  0.98528  1.0000
  H   H2615     1.0  0.66005  0.36785  0.45385  1.0000
  C   C3277     1.0  0.70233  0.27354  0.44090  1.0000
  C   C3278     1.0  0.72630  0.27752  0.48735  1.0000
  H   H2616     1.0  0.75530  0.37764  0.83336  1.0000
  H   H2617     1.0  0.71123  0.27853  0.41955  1.0000
  C   C3279     1.0  0.81398  0.38167  0.48036  1.0000
  H   H2618     1.0  0.81622  0.43410  0.97909  1.0000
  H   H2619     1.0  0.70532  0.27760  0.73599  1.0000
  H   H2620     1.0  0.75297  0.39935  0.30057  1.0000
  C   C3280     1.0  0.65486  0.36570  0.75336  1.0000
  P   P113      1.0  0.70755  0.47326  0.38440  1.0000
  C   C3281     1.0  0.78633  0.31062  0.35054  1.0000
  C   C3282     1.0  0.66849  0.31576  0.98795  1.0000
  C   C3283     1.0  0.80561  0.32190  0.35790  1.0000
  H   H2621     1.0  0.68883  0.47495  0.54432  1.0000
  H   H2622     1.0  0.75279  0.32652  0.49309  1.0000
  H   H2623     1.0  0.69726  0.44664  0.42718  1.0000
  S   S456      1.0  0.74245  0.30449  0.88076  1.0000
  H   H2624     1.0  0.70613  0.40747  0.21581  1.0000
  Fe  Fe228     1.0  0.77695  0.25968  0.36177  1.0000
  C   C3284     1.0  0.66663  0.36198  0.45278  1.0000
  H   H2625     1.0  0.72405  0.30802  0.46615  1.0000
  H   H2626     1.0  0.77927  0.35062  0.46623  1.0000
  S   S457      1.0  0.75631  0.25687  0.38278  1.0000
  H   H2627     1.0  0.76821  0.32526  0.62193  1.0000
  H   H2628     1.0  0.68667  0.44887  0.96463  1.0000
  C   C3285     1.0  0.68128  0.46154  0.32936  1.0000
  C   C3286     1.0  0.75385  0.31698  0.49624  1.0000
  C   C3287     1.0  0.72412  0.43840  0.39288  1.0000
  C   C3288     1.0  0.75027  0.37745  0.18488  1.0000
  C   C3289     1.0  0.67161  0.48467  0.81213  1.0000
  C   C3290     1.0  0.67122  0.34151  0.45828  1.0000
  H   H2629     1.0  0.66363  0.45376  0.59892  1.0000
  C   C3291     1.0  0.76149  0.34547  0.90211  1.0000
  C   C3292     1.0  0.66552  0.41712  0.75308  1.0000
  H   H2630     1.0  0.70725  0.45339  0.97818  1.0000
  C   C3293     1.0  0.67343  0.28071  0.98288  1.0000
  H   H2631     1.0  0.67710  0.31413  0.97211  1.0000
  H   H2632     1.0  0.78568  0.34729  0.85182  1.0000
  H   H2633     1.0  0.69398  0.47912  0.85775  1.0000
  H   H2634     1.0  0.67219  0.47850  0.99591  1.0000
  H   H2635     1.0  0.76471  0.36487  0.79231  1.0000
  P   P114      1.0  0.77981  0.32096  0.98202  1.0000
  C   C3294     1.0  0.79774  0.32691  0.02139  1.0000
  C   C3295     1.0  0.66598  0.49168  0.83528  1.0000
  H   H2636     1.0  0.77192  0.27461  0.65841  1.0000
  H   H2637     1.0  0.68956  0.30036  0.80566  1.0000
  H   H2638     1.0  0.80622  0.34629  0.53166  1.0000
  H   H2639     1.0  0.66616  0.31930  0.71863  1.0000
  C   C3296     1.0  0.70337  0.46111  0.96663  1.0000
  H   H2640     1.0  0.67787  0.46630  0.93746  1.0000
  C   C3297     1.0  0.71468  0.24704  0.02679  1.0000
  C   C3298     1.0  0.77956  0.31446  0.38137  1.0000
  C   C3299     1.0  0.79562  0.44338  0.14873  1.0000
  H   H2641     1.0  0.79361  0.36830  0.91422  1.0000
  H   H2642     1.0  0.65704  0.31489  0.37590  1.0000
  C   C3300     1.0  0.71408  0.45964  0.38630  1.0000
  H   H2643     1.0  0.69678  0.38445  0.24518  1.0000
  C   C3301     1.0  0.68681  0.46845  0.94354  1.0000
  C   C3302     1.0  0.81253  0.42182  0.88532  1.0000
  H   H2644     1.0  0.70427  0.38447  0.81091  1.0000
  H   H2645     1.0  0.74452  0.34413  0.38457  1.0000
  H   H2646     1.0  0.77891  0.34759  0.96692  1.0000
  H   H2647     1.0  0.80571  0.25326  0.94211  1.0000
  C   C3303     1.0  0.69236  0.47472  0.51379  1.0000
  C   C3304     1.0  0.79871  0.24788  0.18007  1.0000
  H   H2648     1.0  0.75249  0.32734  0.42040  1.0000
  H   H2649     1.0  0.65921  0.25599  0.46532  1.0000
  C   C3305     1.0  0.78760  0.29009  0.12680  1.0000
  C   C3306     1.0  0.75413  0.34613  0.38558  1.0000
  C   C3307     1.0  0.69782  0.29011  0.76690  1.0000
  H   H2650     1.0  0.74354  0.26056  0.17456  1.0000
  C   C3308     1.0  0.75222  0.32211  0.30846  1.0000
  C   C3309     1.0  0.81675  0.29707  0.51965  1.0000
  C   C3310     1.0  0.78213  0.36818  0.80761  1.0000
  C   C3311     1.0  0.79871  0.29744  0.93530  1.0000
  H   H2651     1.0  0.75037  0.31225  0.32465  1.0000
  C   C3312     1.0  0.77672  0.28652  0.59825  1.0000
  H   H2652     1.0  0.66302  0.45454  0.50974  1.0000
  C   C3313     1.0  0.75862  0.33670  0.40660  1.0000
  H   H2653     1.0  0.77869  0.28827  0.12037  1.0000
  C   C3314     1.0  0.76450  0.31466  0.47320  1.0000
  H   H2654     1.0  0.76946  0.31150  0.39016  1.0000
  C   C3315     1.0  0.80755  0.33053  0.85545  1.0000
  H   H2655     1.0  0.75733  0.28260  0.51007  1.0000
  H   H2656     1.0  0.74676  0.27029  0.98321  1.0000
  C   C3316     1.0  0.65544  0.44126  0.65836  1.0000
  H   H2657     1.0  0.67025  0.25752  0.95034  1.0000
  C   C3317     1.0  0.73434  0.29438  0.00142  1.0000
  H   H2658     1.0  0.78141  0.30469  0.33602  1.0000
  H   H2659     1.0  0.76460  0.31550  0.92792  1.0000
  C   C3318     1.0  0.67707  0.47239  0.31808  1.0000
  C   C3319     1.0  0.75638  0.29220  0.50611  1.0000
  C   C3320     1.0  0.80772  0.37839  0.93440  1.0000
  H   H2660     1.0  0.71672  0.46800  0.45478  1.0000
  C   C3321     1.0  0.80189  0.34012  0.95391  1.0000
  C   C3322     1.0  0.65555  0.28098  0.95699  1.0000
  C   C3323     1.0  0.79633  0.31511  0.77314  1.0000
  H   H2661     1.0  0.73845  0.34254  0.55643  1.0000
  C   C3324     1.0  0.79257  0.30729  0.81227  1.0000
  C   C3325     1.0  0.74971  0.30351  0.10301  1.0000
  H   H2662     1.0  0.80385  0.33210  0.40195  1.0000
  H   H2663     1.0  0.67767  0.27641  0.00484  1.0000
  C   C3326     1.0  0.76287  0.33065  0.30828  1.0000
  C   C3327     1.0  0.78367  0.38149  0.85187  1.0000
  C   C3328     1.0  0.78379  0.37370  0.18952  1.0000
  H   H2664     1.0  0.76938  0.27911  0.95769  1.0000
  H   H2665     1.0  0.76026  0.33050  0.02663  1.0000
  C   C3329     1.0  0.79346  0.32647  0.48410  1.0000
  H   H2666     1.0  0.81762  0.41892  0.09551  1.0000
  C   C3330     1.0  0.67607  0.40483  0.71554  1.0000
  C   C3331     1.0  0.80705  0.29545  0.02310  1.0000
  C   C3332     1.0  0.78576  0.32201  0.40081  1.0000
  C   C3333     1.0  0.74087  0.29657  0.93035  1.0000
  C   C3334     1.0  0.77675  0.28726  0.95406  1.0000
  H   H2667     1.0  0.79298  0.27195  0.82272  1.0000
  H   H2668     1.0  0.81241  0.44567  0.16663  1.0000
  H   H2669     1.0  0.78957  0.28114  0.04695  1.0000
  H   H2670     1.0  0.66976  0.47221  0.30315  1.0000
  C   C3335     1.0  0.72971  0.28597  0.62818  1.0000
  H   H2671     1.0  0.68465  0.39130  0.81230  1.0000
  C   C3336     1.0  0.79462  0.38124  0.24594  1.0000
  C   C3337     1.0  0.74000  0.28959  0.42224  1.0000
  C   C3338     1.0  0.73578  0.30029  0.42665  1.0000
  H   H2672     1.0  0.81210  0.26311  0.78634  1.0000
  H   H2673     1.0  0.77411  0.30014  0.46264  1.0000
  C   C3339     1.0  0.66269  0.37088  0.92281  1.0000
  C   C3340     1.0  0.77630  0.37182  0.22842  1.0000
  H   H2674     1.0  0.73757  0.30117  0.81051  1.0000
  C   C3341     1.0  0.76185  0.35829  0.36754  1.0000
  C   C3342     1.0  0.75440  0.36662  0.19821  1.0000
  C   C3343     1.0  0.66748  0.33967  0.79252  1.0000
  H   H2675     1.0  0.68085  0.40985  0.76583  1.0000
  H   H2676     1.0  0.74382  0.32083  0.08995  1.0000
  C   C3344     1.0  0.75993  0.32115  0.04411  1.0000
  H   H2677     1.0  0.75970  0.35568  0.54430  1.0000
  C   C3345     1.0  0.77393  0.29767  0.96614  1.0000
  C   C3346     1.0  0.75057  0.31569  0.08019  1.0000
  C   C3347     1.0  0.70117  0.27884  0.76477  1.0000
  H   H2678     1.0  0.70861  0.46884  0.52401  1.0000
  H   H2679     1.0  0.76428  0.29744  0.97919  1.0000
  H   H2680     1.0  0.80514  0.27797  0.53822  1.0000
  P   P115      1.0  0.77670  0.32760  0.43826  1.0000
  C   C3348     1.0  0.71380  0.25226  0.85532  1.0000
  H   H2681     1.0  0.77437  0.29697  0.04489  1.0000
  H   H2682     1.0  0.70615  0.42801  0.43312  1.0000
  H   H2683     1.0  0.70123  0.28856  0.46889  1.0000
  C   C3349     1.0  0.75690  0.34618  0.56421  1.0000
  H   H2684     1.0  0.75746  0.28731  0.10741  1.0000
  H   H2685     1.0  0.74991  0.38443  0.20139  1.0000
  H   H2686     1.0  0.79133  0.27873  0.93175  1.0000
  H   H2687     1.0  0.69949  0.29761  0.73985  1.0000
  C   C3350     1.0  0.77081  0.33950  0.41032  1.0000
  C   C3351     1.0  0.77871  0.35153  0.39008  1.0000
  C   C3352     1.0  0.76783  0.30236  0.05438  1.0000
  C   C3353     1.0  0.73701  0.29245  0.72601  1.0000
  C   C3354     1.0  0.75558  0.35827  0.17437  1.0000
  C   C3355     1.0  0.75235  0.36058  0.13838  1.0000
  C   C3356     1.0  0.69559  0.47273  0.35848  1.0000
  H   H2688     1.0  0.77981  0.37106  0.16695  1.0000
  H   H2689     1.0  0.78426  0.30778  0.83328  1.0000
  C   C3357     1.0  0.70502  0.48358  0.94348  1.0000
  C   C3358     1.0  0.73847  0.28328  0.00914  1.0000
  C   C3359     1.0  0.65976  0.45795  0.48419  1.0000
  C   C3360     1.0  0.79936  0.31418  0.33914  1.0000
  H   H2690     1.0  0.79228  0.35868  0.50559  1.0000
  H   H2691     1.0  0.78881  0.38652  0.86797  1.0000
  H   H2692     1.0  0.79910  0.38557  0.45519  1.0000
  Fe  Fe229     1.0  0.74768  0.25983  0.06388  1.0000
  C   C3361     1.0  0.79941  0.29870  0.82426  1.0000
  C   C3362     1.0  0.72778  0.26863  0.17399  1.0000
  C   C3363     1.0  0.68587  0.27236  0.49878  1.0000
  C   C3364     1.0  0.75778  0.29788  0.62717  1.0000
  H   H2693     1.0  0.66554  0.32220  0.83657  1.0000
  S   S458      1.0  0.79369  0.27431  0.47610  1.0000
  H   H2694     1.0  0.78010  0.37042  0.35588  1.0000
  C   C3365     1.0  0.68671  0.38424  0.79718  1.0000
  C   C3366     1.0  0.73504  0.29142  0.76665  1.0000
  C   C3367     1.0  0.74136  0.32633  0.59530  1.0000
  C   C3368     1.0  0.65803  0.45765  0.41843  1.0000
  C   C3369     1.0  0.67037  0.49414  0.86695  1.0000
  C   C3370     1.0  0.66980  0.48750  0.98964  1.0000
  H   H2695     1.0  0.67186  0.31034  0.04542  1.0000
  C   C3371     1.0  0.80784  0.27288  0.85151  1.0000
  C   C3372     1.0  0.69686  0.27910  0.46924  1.0000
  C   C3373     1.0  0.76852  0.31444  0.03056  1.0000
  H   H2696     1.0  0.75350  0.35430  0.11953  1.0000
  H   H2697     1.0  0.80227  0.38085  0.14885  1.0000
  P   P116      1.0  0.74542  0.30514  0.64505  1.0000
  S   S459      1.0  0.81410  0.40767  0.97847  1.0000
  C   C3374     1.0  0.76161  0.32897  0.60799  1.0000
  C   C3375     1.0  0.74700  0.37968  0.14900  1.0000
  C   C3376     1.0  0.81332  0.34666  0.95626  1.0000
  H   H2698     1.0  0.75463  0.32854  0.88688  1.0000
  H   H2699     1.0  0.73569  0.31969  0.28829  1.0000
  H   H2700     1.0  0.81176  0.39878  0.78811  1.0000
  C   C3377     1.0  0.74802  0.37125  0.12579  1.0000
  H   H2701     1.0  0.74578  0.37314  0.09750  1.0000
  C   C3378     1.0  0.76599  0.32536  0.92695  1.0000
  C   C3379     1.0  0.77163  0.38287  0.85280  1.0000
  Fe  Fe230     1.0  0.76120  0.27496  0.39838  1.0000
  C   C3380     1.0  0.66519  0.31924  0.77946  1.0000
  C   C3381     1.0  0.80612  0.28317  0.13564  1.0000
  C   C3382     1.0  0.76476  0.37678  0.83168  1.0000
  H   H2702     1.0  0.73789  0.28269  0.61760  1.0000
  C   C3383     1.0  0.71178  0.43715  0.41376  1.0000
  H   H2703     1.0  0.74412  0.38823  0.13848  1.0000
  H   H2704     1.0  0.76284  0.30961  0.56603  1.0000
  C   C3384     1.0  0.66267  0.34903  0.45628  1.0000
  H   H2705     1.0  0.72805  0.43023  0.39600  1.0000
  C   C3385     1.0  0.74961  0.32136  0.61451  1.0000
  C   C3386     1.0  0.79586  0.26798  0.84867  1.0000
  H   H2706     1.0  0.80460  0.31090  0.31598  1.0000
  H   H2707     1.0  0.66921  0.34216  0.69459  1.0000
  C   C3387     1.0  0.70356  0.47131  0.50224  1.0000
  C   C3388     1.0  0.78887  0.37377  0.83032  1.0000
  C   C3389     1.0  0.69387  0.27081  0.83709  1.0000
  C   C3390     1.0  0.70551  0.27757  0.90552  1.0000
  C   C3391     1.0  0.79590  0.33311  0.85722  1.0000
  C   C3392     1.0  0.66113  0.49006  0.01947  1.0000
  C   C3393     1.0  0.80688  0.31426  0.74591  1.0000
  C   C3394     1.0  0.74374  0.27888  0.97746  1.0000
  H   H2708     1.0  0.70900  0.28276  0.87427  1.0000
  C   C3395     1.0  0.76522  0.34132  0.58291  1.0000
  H   H2709     1.0  0.66410  0.43869  0.65981  1.0000
  C   C3396     1.0  0.76027  0.33276  0.90340  1.0000
  H   H2710     1.0  0.73217  0.32074  0.59884  1.0000
  H   H2711     1.0  0.82019  0.44720  0.77359  1.0000
  H   H2712     1.0  0.77626  0.37455  0.28640  1.0000
  H   H2713     1.0  0.73361  0.28418  0.71696  1.0000
  C   C3397     1.0  0.80312  0.27533  0.00730  1.0000
  C   C3398     1.0  0.77304  0.33065  0.94944  1.0000
  C   C3399     1.0  0.65423  0.24681  0.48550  1.0000
  H   H2714     1.0  0.75536  0.28447  0.68415  1.0000
  H   H2715     1.0  0.66821  0.34520  0.81344  1.0000
  C   C3400     1.0  0.76846  0.35081  0.92437  1.0000
  S   S460      1.0  0.73719  0.27508  0.05829  1.0000
  C   C3401     1.0  0.74504  0.28555  0.93813  1.0000
  H   H2716     1.0  0.67061  0.45935  0.77611  1.0000
  C   C3402     1.0  0.70746  0.28370  0.63916  1.0000
  S   S461      1.0  0.76354  0.26242  0.09139  1.0000
  H   H2717     1.0  0.81770  0.36457  0.75915  1.0000
  H   H2718     1.0  0.74223  0.29911  0.13032  1.0000
  H   H2719     1.0  0.78615  0.36264  0.78940  1.0000
  H   H2720     1.0  0.73113  0.24743  0.83363  1.0000
  C   C3403     1.0  0.78531  0.34511  0.47691  1.0000
  H   H2721     1.0  0.72018  0.30827  0.66998  1.0000
  H   H2722     1.0  0.80829  0.29698  0.92575  1.0000
  H   H2723     1.0  0.78672  0.30843  0.13446  1.0000
  C   C3404     1.0  0.70132  0.47358  0.43520  1.0000
  C   C3405     1.0  0.66561  0.31378  0.02923  1.0000
  C   C3406     1.0  0.68051  0.48969  0.87553  1.0000
  H   H2724     1.0  0.68565  0.28329  0.86730  1.0000
  C   C3407     1.0  0.80994  0.29764  0.79694  1.0000
  C   C3408     1.0  0.77409  0.34342  0.94833  1.0000
  C   C3409     1.0  0.78593  0.33362  0.46805  1.0000
  H   H2725     1.0  0.71752  0.27167  0.61351  1.0000
  C   C3410     1.0  0.70679  0.44772  0.41052  1.0000
  H   H2726     1.0  0.76901  0.36055  0.92449  1.0000
  H   H2727     1.0  0.76356  0.38993  0.25081  1.0000
  C   C3411     1.0  0.70998  0.47363  0.95896  1.0000
  C   C3412     1.0  0.79484  0.34560  0.84915  1.0000
  C   C3413     1.0  0.79396  0.33024  0.98657  1.0000
  C   C3414     1.0  0.67514  0.25062  0.89848  1.0000
  C   C3415     1.0  0.71973  0.27546  0.23217  1.0000
  C   C3416     1.0  0.69001  0.47691  0.44719  1.0000
  H   H2728     1.0  0.75667  0.35105  0.88494  1.0000
  C   C3417     1.0  0.70585  0.27641  0.97354  1.0000
  H   H2729     1.0  0.81195  0.45172  0.88913  1.0000
  H   H2730     1.0  0.78825  0.35380  0.39157  1.0000
  H   H2731     1.0  0.80523  0.27293  0.21849  1.0000
  C   C3418     1.0  0.80548  0.35563  0.83883  1.0000
  P   P117      1.0  0.80446  0.37189  0.82874  1.0000
  H   H2732     1.0  0.75820  0.36581  0.35339  1.0000
  C   C3419     1.0  0.81505  0.44415  0.87882  1.0000
  C   C3420     1.0  0.81363  0.30554  0.75765  1.0000
  C   C3421     1.0  0.80833  0.28683  0.51497  1.0000
  C   C3422     1.0  0.80363  0.30366  0.14327  1.0000
  H   H2733     1.0  0.65973  0.45375  0.39336  1.0000
  C   C3423     1.0  0.69043  0.46165  0.34978  1.0000
  C   C3424     1.0  0.80832  0.44400  0.14322  1.0000
  C   C3425     1.0  0.80994  0.44099  0.07753  1.0000
  H   H2734     1.0  0.66821  0.48278  0.78758  1.0000
  C   C3426     1.0  0.70098  0.24767  0.87453  1.0000
  H   H2735     1.0  0.71034  0.49318  0.93755  1.0000
  C   C3427     1.0  0.68493  0.25499  0.46861  1.0000
  C   C3428     1.0  0.66147  0.45305  0.78272  1.0000
  C   C3429     1.0  0.81577  0.39397  0.76726  1.0000
  C   C3430     1.0  0.65877  0.41212  0.69774  1.0000
  C   C3431     1.0  0.81700  0.34326  0.99101  1.0000
  C   C3432     1.0  0.65766  0.41823  0.72803  1.0000
  C   C3433     1.0  0.81613  0.39042  0.53521  1.0000
  C   C3434     1.0  0.81910  0.37473  0.75128  1.0000
  C   C3435     1.0  0.81713  0.35292  0.83799  1.0000
  C   C3436     1.0  0.68209  0.48342  0.32683  1.0000
  C   C3437     1.0  0.81446  0.27136  0.21541  1.0000
  C   C3438     1.0  0.82041  0.26945  0.76481  1.0000
  C   C3439     1.0  0.81141  0.26735  0.88513  1.0000
  C   C3440     1.0  0.81698  0.30964  0.45521  1.0000
  H   H2736     1.0  0.81880  0.27242  0.96665  1.0000
  C   C3441     1.0  0.66704  0.25159  0.93294  1.0000
  H   H2737     1.0  0.81998  0.44288  0.42453  1.0000
  H   H2738     1.0  0.81538  0.44020  0.04953  1.0000
  C   C3442     1.0  0.81915  0.27005  0.24857  1.0000
  H   H2739     1.0  0.78446  0.24516  0.93768  1.0000
  H   H2740     1.0  0.68705  0.24968  0.96943  1.0000
  C   C3443     1.0  0.72071  0.24948  0.98628  1.0000
  H   H2741     1.0  0.81961  0.42590  0.18043  1.0000
  H   H2742     1.0  0.65952  0.35790  0.67153  1.0000
  C   C3444     1.0  0.82009  0.38341  0.50918  1.0000
  H   H2743     1.0  0.65917  0.40286  0.02436  1.0000
  H   H2744     1.0  0.65875  0.40451  0.09248  1.0000
  C   C3445     1.0  0.65479  0.31643  0.04941  1.0000
  C   C3446     1.0  0.71961  0.48748  0.35702  1.0000
  H   H2745     1.0  0.71950  0.48460  0.29932  1.0000
  H   H2746     1.0  0.71860  0.25255  0.04437  1.0000
  H   H2747     1.0  0.72875  0.24696  0.29529  1.0000
  P   P118      1.0  0.81848  0.28614  0.81228  1.0000
  H   H2748     1.0  0.67867  0.49178  0.31867  1.0000
  H   H2749     1.0  0.66101  0.24691  0.08664  1.0000
  H   H2750     1.0  0.81907  0.30453  0.85851  1.0000
  H   H2751     1.0  0.65662  0.37979  0.69822  1.0000
  C   C3447     1.0  0.81923  0.29916  0.99726  1.0000
  H   H2752     1.0  0.81946  0.29641  0.15060  1.0000
  H   H2753     1.0  0.82059  0.27079  0.88819  1.0000
  C   C3448     1.0  0.65523  0.44990  0.62370  1.0000
  C   C3449     1.0  0.72359  0.49065  0.31516  1.0000
  H   H2754     1.0  0.69514  0.49225  0.35338  1.0000
  H   H2755     1.0  0.72217  0.49333  0.40903  1.0000
  C   C3450     1.0  0.81993  0.38577  0.92399  1.0000
  H   H2756     1.0  0.81988  0.29597  0.54630  1.0000
  C   C3451     1.0  0.65452  0.24491  0.94529  1.0000
  H   H2757     1.0  0.65473  0.36049  0.38615  1.0000
  H   H2758     1.0  0.82032  0.31844  0.43170  1.0000
  C   C3452     1.0  0.66287  0.51043  0.97495  1.0000
  C   C3453     1.0  0.73292  0.50162  0.29346  1.0000
  C   C3454     1.0  0.69922  0.50810  0.89202  1.0000
  C   C3455     1.0  0.71228  0.52676  0.89915  1.0000
  C   C3456     1.0  0.67515  0.49646  0.95224  1.0000
  C   C3457     1.0  0.67159  0.50794  0.94513  1.0000
  H   H2759     1.0  0.72617  0.53867  0.84567  1.0000
  H   H2760     1.0  0.71481  0.53266  0.91766  1.0000
  H   H2761     1.0  0.72051  0.52504  0.80345  1.0000
  C   C3458     1.0  0.71869  0.53013  0.85862  1.0000
  C   C3459     1.0  0.71549  0.52247  0.83483  1.0000
  H   H2762     1.0  0.69785  0.51319  0.94745  1.0000
  H   H2763     1.0  0.73857  0.51257  0.37050  1.0000
  C   C3460     1.0  0.73833  0.50951  0.31340  1.0000
  C   C3461     1.0  0.70263  0.51575  0.91588  1.0000
  C   C3462     1.0  0.73440  0.50644  0.35504  1.0000
  H   H2764     1.0  0.74555  0.51801  0.29658  1.0000
  H   H2765     1.0  0.73596  0.50400  0.26117  1.0000
  C   C3463     1.0  0.70583  0.51146  0.85145  1.0000
  H   H2766     1.0  0.70359  0.50563  0.83249  1.0000
  H   H2767     1.0  0.66002  0.51922  0.96921  1.0000
  C   C3464     1.0  0.65771  0.50153  0.01219  1.0000
  H   H2768     1.0  0.67551  0.51497  0.91647  1.0000
  H   H2769     1.0  0.66570  0.49940  0.88477  1.0000
  H   H2770     1.0  0.65809  0.49508  0.82917  1.0000
  C   C3465     1.0  0.72507  0.49547  0.37685  1.0000
  Fe  Fe231     1.0  0.88245  0.45219  0.57472  1.0000
  S   S462      1.0  0.90015  0.44831  0.54281  1.0000
  S   S463      1.0  0.87623  0.44899  0.64226  1.0000
  Fe  Fe232     1.0  0.87204  0.45450  0.50106  1.0000
  S   S464      1.0  0.88935  0.45148  0.46394  1.0000
  S   S465      1.0  0.85490  0.45654  0.47855  1.0000
  Fe  Fe233     1.0  0.88795  0.43605  0.51768  1.0000
  S   S466      1.0  0.89124  0.41758  0.50841  1.0000
  Fe  Fe234     1.0  0.90033  0.46422  0.49147  1.0000
  S   S467      1.0  0.91879  0.47642  0.44754  1.0000
  S   S468      1.0  0.87019  0.43844  0.55388  1.0000
  S   S469      1.0  0.88300  0.46884  0.52439  1.0000
  Fe  Fe235     1.0  0.84350  0.32996  0.53293  1.0000
  S   S470      1.0  0.83503  0.33528  0.58837  1.0000
  S   S471      1.0  0.83222  0.32189  0.49322  1.0000
  Fe  Fe236     1.0  0.87040  0.34465  0.52976  1.0000
  S   S472      1.0  0.86351  0.35030  0.58540  1.0000
  S   S473      1.0  0.88954  0.35455  0.48494  1.0000
  Fe  Fe237     1.0  0.85123  0.33065  0.61042  1.0000
  S   S474      1.0  0.84595  0.32093  0.67741  1.0000
  Fe  Fe238     1.0  0.84801  0.35450  0.55985  1.0000
  S   S475      1.0  0.84270  0.37281  0.56106  1.0000
  S   S476      1.0  0.85925  0.32417  0.55624  1.0000
  S   S477      1.0  0.85530  0.34992  0.50303  1.0000
  C   C3466     1.0  0.85167  0.48350  0.01961  1.0000
  C   C3467     1.0  0.92470  0.39071  0.83775  1.0000
  C   C3468     1.0  0.92825  0.38240  0.81572  1.0000
  C   C3469     1.0  0.95514  0.32181  0.35881  1.0000
  C   C3470     1.0  0.95780  0.44299  0.07361  1.0000
  H   H2771     1.0  0.85554  0.47482  0.97168  1.0000
  Fe  Fe239     1.0  0.88092  0.45353  0.90330  1.0000
  S   S478      1.0  0.89727  0.47034  0.86871  1.0000
  S   S479      1.0  0.86116  0.45471  0.93149  1.0000
  Fe  Fe240     1.0  0.89644  0.43493  0.89204  1.0000
  S   S480      1.0  0.91379  0.44982  0.85595  1.0000
  S   S481      1.0  0.89723  0.41462  0.90799  1.0000
  Fe  Fe241     1.0  0.90906  0.46026  0.90210  1.0000
  S   S482      1.0  0.92427  0.46522  0.93384  1.0000
  Fe  Fe242     1.0  0.90102  0.45872  0.82514  1.0000
  S   S483      1.0  0.90704  0.46670  0.75721  1.0000
  S   S484      1.0  0.89219  0.44451  0.94006  1.0000
  S   S485      1.0  0.88410  0.44282  0.85758  1.0000
  H   H2772     1.0  0.84640  0.26203  0.03448  1.0000
  C   C3471     1.0  0.96127  0.38889  0.22106  1.0000
  C   C3472     1.0  0.82760  0.27559  0.09140  1.0000
  H   H2773     1.0  0.82367  0.38887  0.94646  1.0000
  H   H2774     1.0  0.90522  0.35581  0.86796  1.0000
  H   H2775     1.0  0.97275  0.44830  0.53285  1.0000
  H   H2776     1.0  0.83906  0.26725  0.14907  1.0000
  C   C3473     1.0  0.90249  0.33462  0.43105  1.0000
  Fe  Fe243     1.0  0.84718  0.32733  0.94927  1.0000
  S   S486      1.0  0.84649  0.34011  0.89174  1.0000
  S   S487      1.0  0.82873  0.31432  0.99203  1.0000
  Fe  Fe244     1.0  0.87454  0.34146  0.94008  1.0000
  S   S488      1.0  0.87557  0.35464  0.88141  1.0000
  S   S489      1.0  0.89147  0.34250  0.96619  1.0000
  Fe  Fe245     1.0  0.85641  0.35568  0.91145  1.0000
  S   S490      1.0  0.85126  0.37431  0.90382  1.0000
  Fe  Fe246     1.0  0.86567  0.33798  0.86575  1.0000
  S   S491      1.0  0.87338  0.33861  0.80034  1.0000
  S   S492      1.0  0.85569  0.34340  0.97103  1.0000
  S   S493      1.0  0.86606  0.32424  0.92245  1.0000
  C   C3474     1.0  0.90103  0.35312  0.98478  1.0000
  C   C3475     1.0  0.89897  0.36489  0.98763  1.0000
  C   C3476     1.0  0.90682  0.37282  0.00266  1.0000
  C   C3477     1.0  0.91687  0.36916  0.01518  1.0000
  C   C3478     1.0  0.91896  0.35744  0.01207  1.0000
  C   C3479     1.0  0.91111  0.34953  0.99713  1.0000
  H   H2777     1.0  0.89137  0.36792  0.97810  1.0000
  H   H2778     1.0  0.90513  0.38190  0.00426  1.0000
  C   C3480     1.0  0.95890  0.31049  0.36393  1.0000
  H   H2779     1.0  0.91290  0.34052  0.99508  1.0000
  H   H2780     1.0  0.97005  0.48171  0.84674  1.0000
  C   C3481     1.0  0.96035  0.45573  0.05245  1.0000
  C   C3482     1.0  0.97061  0.46447  0.05452  1.0000
  H   H2781     1.0  0.95451  0.45876  0.03408  1.0000
  H   H2782     1.0  0.97262  0.47428  0.03788  1.0000
  C   C3483     1.0  0.93570  0.47732  0.94089  1.0000
  C   C3484     1.0  0.82584  0.41830  0.54853  1.0000
  H   H2783     1.0  0.92730  0.34904  0.21215  1.0000
  C   C3485     1.0  0.97570  0.45732  0.69020  1.0000
  C   C3486     1.0  0.95194  0.48301  0.97388  1.0000
  C   C3487     1.0  0.94291  0.47384  0.96697  1.0000
  H   H2784     1.0  0.82878  0.38723  0.82587  1.0000
  H   H2785     1.0  0.93527  0.41971  0.96940  1.0000
  C   C3488     1.0  0.85231  0.42343  0.03920  1.0000
  H   H2786     1.0  0.94147  0.46396  0.98212  1.0000
  C   C3489     1.0  0.88376  0.40353  0.91091  1.0000
  C   C3490     1.0  0.88370  0.39074  0.92027  1.0000
  C   C3491     1.0  0.87363  0.38175  0.91875  1.0000
  C   C3492     1.0  0.86342  0.38549  0.90861  1.0000
  C   C3493     1.0  0.86309  0.39820  0.90183  1.0000
  C   C3494     1.0  0.87328  0.40723  0.90288  1.0000
  H   H2787     1.0  0.89140  0.38775  0.92913  1.0000
  H   H2788     1.0  0.87369  0.37190  0.92636  1.0000
  H   H2789     1.0  0.85507  0.40114  0.89527  1.0000
  H   H2790     1.0  0.87306  0.41702  0.89709  1.0000
  H   H2791     1.0  0.93304  0.44533  0.72561  1.0000
  H   H2792     1.0  0.94448  0.40685  0.74267  1.0000
  C   C3495     1.0  0.84163  0.44583  0.67443  1.0000
  C   C3496     1.0  0.96145  0.36222  0.39224  1.0000
  H   H2793     1.0  0.84499  0.41861  0.43092  1.0000
  C   C3497     1.0  0.82314  0.42450  0.85319  1.0000
  H   H2794     1.0  0.95408  0.47681  0.15258  1.0000
  C   C3498     1.0  0.85122  0.47329  0.00324  1.0000
  H   H2795     1.0  0.96311  0.46344  0.43690  1.0000
  C   C3499     1.0  0.85344  0.32677  0.71062  1.0000
  C   C3500     1.0  0.84693  0.32380  0.75128  1.0000
  C   C3501     1.0  0.85274  0.32786  0.77869  1.0000
  C   C3502     1.0  0.86529  0.33444  0.76620  1.0000
  C   C3503     1.0  0.87178  0.33749  0.72552  1.0000
  C   C3504     1.0  0.86586  0.33379  0.69781  1.0000
  H   H2796     1.0  0.83732  0.31847  0.76162  1.0000
  H   H2797     1.0  0.84761  0.32578  0.80956  1.0000
  H   H2798     1.0  0.88150  0.34259  0.71548  1.0000
  H   H2799     1.0  0.87104  0.33598  0.66678  1.0000
  C   C3505     1.0  0.90413  0.36085  0.49247  1.0000
  C   C3506     1.0  0.91003  0.35305  0.51410  1.0000
  C   C3507     1.0  0.92279  0.35723  0.51119  1.0000
  C   C3508     1.0  0.92979  0.36935  0.48738  1.0000
  C   C3509     1.0  0.92366  0.37754  0.46835  1.0000
  C   C3510     1.0  0.91097  0.37321  0.47023  1.0000
  H   H2800     1.0  0.90498  0.34351  0.53115  1.0000
  H   H2801     1.0  0.92737  0.35085  0.52648  1.0000
  H   H2802     1.0  0.92885  0.38695  0.45031  1.0000
  H   H2803     1.0  0.90655  0.37930  0.45312  1.0000
  C   C3511     1.0  0.88556  0.45348  0.67289  1.0000
  C   C3512     1.0  0.88153  0.44740  0.71408  1.0000
  C   C3513     1.0  0.88809  0.45122  0.74008  1.0000
  C   C3514     1.0  0.89876  0.46126  0.72522  1.0000
  C   C3515     1.0  0.90304  0.46708  0.68383  1.0000
  C   C3516     1.0  0.89651  0.46319  0.65773  1.0000
  H   H2804     1.0  0.87317  0.43982  0.72616  1.0000
  H   H2805     1.0  0.88475  0.44662  0.77172  1.0000
  H   H2806     1.0  0.91134  0.47480  0.67196  1.0000
  H   H2807     1.0  0.89975  0.46796  0.62609  1.0000
  C   C3517     1.0  0.93216  0.48589  0.45395  1.0000
  H   H2808     1.0  0.85603  0.44052  0.05650  1.0000
  C   C3518     1.0  0.98582  0.44744  0.43260  1.0000
  C   C3519     1.0  0.92508  0.48883  0.24671  1.0000
  C   C3520     1.0  0.83026  0.29329  0.83252  1.0000
  C   C3521     1.0  0.94401  0.48518  0.43351  1.0000
  H   H2809     1.0  0.95670  0.43363  0.95441  1.0000
  H   H2810     1.0  0.94434  0.34838  0.42315  1.0000
  H   H2811     1.0  0.93242  0.49310  0.90136  1.0000
  H   H2812     1.0  0.94471  0.47779  0.41904  1.0000
  C   C3522     1.0  0.87759  0.40552  0.51905  1.0000
  C   C3523     1.0  0.86574  0.40781  0.52919  1.0000
  C   C3524     1.0  0.85499  0.39781  0.54112  1.0000
  C   C3525     1.0  0.85607  0.38550  0.54225  1.0000
  C   C3526     1.0  0.86789  0.38337  0.52945  1.0000
  C   C3527     1.0  0.87861  0.39334  0.51797  1.0000
  H   H2813     1.0  0.86482  0.41725  0.52801  1.0000
  H   H2814     1.0  0.84587  0.39959  0.54990  1.0000
  H   H2815     1.0  0.86885  0.37404  0.52854  1.0000
  H   H2816     1.0  0.88770  0.39154  0.50867  1.0000
  C   C3528     1.0  0.83598  0.44318  0.95682  1.0000
  H   H2817     1.0  0.83556  0.46777  0.11589  1.0000
  S   S494      1.0  0.94620  0.37342  0.48117  1.0000
  C   C3529     1.0  0.83900  0.41975  0.94823  1.0000
  C   C3530     1.0  0.83078  0.41141  0.06076  1.0000
  H   H2818     1.0  0.84789  0.44605  0.64637  1.0000
  C   C3531     1.0  0.84615  0.44603  0.45805  1.0000
  C   C3532     1.0  0.84957  0.43513  0.45144  1.0000
  H   H2819     1.0  0.88114  0.36511  0.41353  1.0000
  H   H2820     1.0  0.85781  0.43291  0.45865  1.0000
  H   H2821     1.0  0.88630  0.41847  0.29903  1.0000
  C   C3533     1.0  0.94956  0.40867  0.79623  1.0000
  H   H2822     1.0  0.83473  0.45228  0.95993  1.0000
  H   H2823     1.0  0.96226  0.36514  0.41865  1.0000
  C   C3534     1.0  0.84227  0.42702  0.43563  1.0000
  C   C3535     1.0  0.84808  0.44174  0.94243  1.0000
  H   H2824     1.0  0.95347  0.41203  0.59101  1.0000
  C   C3536     1.0  0.84952  0.42999  0.93778  1.0000
  H   H2825     1.0  0.97151  0.41731  0.61657  1.0000
  H   H2826     1.0  0.85875  0.42874  0.92678  1.0000
  C   C3537     1.0  0.92623  0.41739  0.79811  1.0000
  C   C3538     1.0  0.84190  0.28548  0.70788  1.0000
  C   C3539     1.0  0.91461  0.43483  0.76116  1.0000
  H   H2827     1.0  0.83417  0.31254  0.89255  1.0000
  C   C3540     1.0  0.88209  0.35991  0.39133  1.0000
  Fe  Fe247     1.0  0.97718  0.40692  0.36179  1.0000
  H   H2828     1.0  0.88190  0.48181  0.78385  1.0000
  H   H2829     1.0  0.82691  0.34098  0.71099  1.0000
  C   C3541     1.0  0.85747  0.40949  0.62956  1.0000
  P   P119      1.0  0.93372  0.40690  0.82511  1.0000
  C   C3542     1.0  0.84798  0.28203  0.02303  1.0000
  C   C3543     1.0  0.83099  0.26786  0.24572  1.0000
  H   H2830     1.0  0.96386  0.49354  0.41421  1.0000
  H   H2831     1.0  0.84572  0.43486  0.24561  1.0000
  H   H2832     1.0  0.82715  0.33837  0.84550  1.0000
  H   H2833     1.0  0.83754  0.41726  0.76670  1.0000
  H   H2834     1.0  0.84580  0.40628  0.02442  1.0000
  C   C3544     1.0  0.95124  0.35266  0.39463  1.0000
  H   H2835     1.0  0.82603  0.34809  0.99235  1.0000
  H   H2836     1.0  0.84624  0.48940  0.07282  1.0000
  C   C3545     1.0  0.82621  0.44661  0.74631  1.0000
  H   H2837     1.0  0.91125  0.39236  0.88852  1.0000
  C   C3546     1.0  0.82151  0.27033  0.17915  1.0000
  C   C3547     1.0  0.93352  0.30994  0.38525  1.0000
  H   H2838     1.0  0.82170  0.30505  0.73578  1.0000
  C   C3548     1.0  0.84795  0.44715  0.14737  1.0000
  H   H2839     1.0  0.92920  0.36474  0.25038  1.0000
  C   C3549     1.0  0.89066  0.36535  0.35341  1.0000
  C   C3550     1.0  0.84889  0.43240  0.05815  1.0000
  C   C3551     1.0  0.91463  0.38593  0.26234  1.0000
  H   H2840     1.0  0.84731  0.26521  0.20749  1.0000
  H   H2841     1.0  0.82177  0.25690  0.72728  1.0000
  H   H2842     1.0  0.85636  0.49298  0.00072  1.0000
  S   S495      1.0  0.95795  0.40653  0.39697  1.0000
  C   C3552     1.0  0.87407  0.47440  0.78509  1.0000
  C   C3553     1.0  0.86010  0.42707  0.80935  1.0000
  C   C3554     1.0  0.89177  0.39030  0.36814  1.0000
  H   H2843     1.0  0.95736  0.48012  0.99392  1.0000
  C   C3555     1.0  0.93210  0.33085  0.29469  1.0000
  C   C3556     1.0  0.83442  0.42731  0.59496  1.0000
  H   H2844     1.0  0.86377  0.43463  0.82082  1.0000
  C   C3557     1.0  0.87608  0.34046  0.37399  1.0000
  H   H2845     1.0  0.83287  0.29328  0.95798  1.0000
  H   H2846     1.0  0.93652  0.38536  0.79081  1.0000
  H   H2847     1.0  0.89397  0.45795  0.29241  1.0000
  H   H2848     1.0  0.90687  0.39761  0.39117  1.0000
  C   C3558     1.0  0.90860  0.42533  0.98598  1.0000
  C   C3559     1.0  0.91655  0.43171  0.00357  1.0000
  C   C3560     1.0  0.91506  0.42741  0.04447  1.0000
  C   C3561     1.0  0.90546  0.41687  0.06792  1.0000
  C   C3562     1.0  0.89720  0.41060  0.05059  1.0000
  C   C3563     1.0  0.89893  0.41483  0.00930  1.0000
  P   P120      1.0  0.88406  0.39790  0.08218  1.0000
  C   C3564     1.0  0.88967  0.38801  0.11791  1.0000
  C   C3565     1.0  0.87194  0.40419  0.10693  1.0000
  C   C3566     1.0  0.87434  0.41682  0.10820  1.0000
  C   C3567     1.0  0.86477  0.42151  0.12712  1.0000
  C   C3568     1.0  0.85274  0.41367  0.14458  1.0000
  C   C3569     1.0  0.85024  0.40116  0.14305  1.0000
  C   C3570     1.0  0.85980  0.39642  0.12435  1.0000
  C   C3571     1.0  0.88308  0.38364  0.15861  1.0000
  C   C3572     1.0  0.88758  0.37586  0.18557  1.0000
  C   C3573     1.0  0.89866  0.37240  0.17207  1.0000
  C   C3574     1.0  0.90526  0.37676  0.13168  1.0000
  C   C3575     1.0  0.90083  0.38458  0.10475  1.0000
  C   C3576     1.0  0.87700  0.38865  0.05397  1.0000
  C   C3577     1.0  0.87767  0.37605  0.05785  1.0000
  C   C3578     1.0  0.87106  0.36866  0.03901  1.0000
  C   C3579     1.0  0.86380  0.37378  0.01609  1.0000
  C   C3580     1.0  0.86324  0.38635  0.01159  1.0000
  C   C3581     1.0  0.86979  0.39375  0.03044  1.0000
  H   H2849     1.0  0.90989  0.42855  0.95412  1.0000
  H   H2850     1.0  0.92393  0.43997  0.98546  1.0000
  H   H2851     1.0  0.92136  0.43230  0.05788  1.0000
  H   H2852     1.0  0.90440  0.41373  0.09964  1.0000
  H   H2853     1.0  0.89292  0.41011  0.99478  1.0000
  H   H2854     1.0  0.88352  0.42313  0.09431  1.0000
  H   H2855     1.0  0.86665  0.43127  0.12780  1.0000
  H   H2856     1.0  0.84532  0.41732  0.15898  1.0000
  H   H2857     1.0  0.84087  0.39516  0.15613  1.0000
  H   H2858     1.0  0.85770  0.38669  0.12327  1.0000
  H   H2859     1.0  0.87448  0.38616  0.16964  1.0000
  H   H2860     1.0  0.88248  0.37249  0.21692  1.0000
  H   H2861     1.0  0.90216  0.36636  0.19280  1.0000
  H   H2862     1.0  0.91381  0.37404  0.12091  1.0000
  H   H2863     1.0  0.90605  0.38785  0.07346  1.0000
  H   H2864     1.0  0.88325  0.37184  0.07525  1.0000
  H   H2865     1.0  0.87176  0.35901  0.04157  1.0000
  H   H2866     1.0  0.85884  0.36811  0.00101  1.0000
  H   H2867     1.0  0.85788  0.39039  0.99284  1.0000
  H   H2868     1.0  0.86925  0.40348  0.02665  1.0000
  C   C3582     1.0  0.94508  0.41355  0.22567  1.0000
  C   C3583     1.0  0.94180  0.41466  0.19002  1.0000
  C   C3584     1.0  0.93455  0.42298  0.17969  1.0000
  C   C3585     1.0  0.93082  0.43037  0.20460  1.0000
  C   C3586     1.0  0.93459  0.42969  0.23963  1.0000
  C   C3587     1.0  0.94159  0.42106  0.25028  1.0000
  P   P121      1.0  0.93076  0.44009  0.26978  1.0000
  C   C3588     1.0  0.93350  0.43433  0.31773  1.0000
  C   C3589     1.0  0.94020  0.45613  0.24526  1.0000
  C   C3590     1.0  0.94411  0.46397  0.26798  1.0000
  C   C3591     1.0  0.95175  0.47617  0.24932  1.0000
  C   C3592     1.0  0.95541  0.48076  0.20776  1.0000
  C   C3593     1.0  0.95124  0.47322  0.18489  1.0000
  C   C3594     1.0  0.94369  0.46097  0.20346  1.0000
  C   C3595     1.0  0.92366  0.42692  0.35121  1.0000
  C   C3596     1.0  0.92594  0.42261  0.38808  1.0000
  C   C3597     1.0  0.93799  0.42571  0.39187  1.0000
  C   C3598     1.0  0.94787  0.43277  0.35853  1.0000
  C   C3599     1.0  0.94568  0.43700  0.32156  1.0000
  C   C3600     1.0  0.91439  0.43952  0.27775  1.0000
  C   C3601     1.0  0.90575  0.42805  0.28383  1.0000
  C   C3602     1.0  0.89296  0.42738  0.29336  1.0000
  C   C3603     1.0  0.91007  0.45030  0.28062  1.0000
  H   H2869     1.0  0.95068  0.40716  0.23372  1.0000
  H   H2870     1.0  0.94491  0.40908  0.17043  1.0000
  H   H2871     1.0  0.93198  0.42382  0.15203  1.0000
  H   H2872     1.0  0.92522  0.43678  0.19601  1.0000
  H   H2873     1.0  0.94467  0.42020  0.27697  1.0000
  H   H2874     1.0  0.94140  0.46065  0.30014  1.0000
  H   H2875     1.0  0.95487  0.48207  0.26704  1.0000
  H   H2876     1.0  0.98479  0.43872  0.26808  1.0000
  H   H2877     1.0  0.94086  0.45533  0.18477  1.0000
  H   H2878     1.0  0.91419  0.42457  0.34941  1.0000
  H   H2879     1.0  0.91834  0.41706  0.41407  1.0000
  H   H2880     1.0  0.93972  0.42257  0.42064  1.0000
  H   H2881     1.0  0.95726  0.43487  0.36144  1.0000
  H   H2882     1.0  0.95350  0.44233  0.29597  1.0000
  H   H2883     1.0  0.90890  0.41957  0.28235  1.0000
  H   H2884     1.0  0.86193  0.42480  0.02263  1.0000
  H   H2885     1.0  0.96857  0.46043  0.70855  1.0000
  H   H2886     1.0  0.82876  0.25630  0.09522  1.0000
  C   C3604     1.0  0.86452  0.41513  0.68344  1.0000
  H   H2887     1.0  0.85011  0.29185  0.68559  1.0000
  C   C3605     1.0  0.93578  0.40536  0.93861  1.0000
  Fe  Fe248     1.0  0.96784  0.42057  0.42293  1.0000
  S   S496      1.0  0.94546  0.43184  0.06974  1.0000
  H   H2888     1.0  0.86495  0.39872  0.80052  1.0000
  H   H2889     1.0  0.97577  0.45228  0.32402  1.0000
  C   C3606     1.0  0.97165  0.45471  0.18428  1.0000
  C   C3607     1.0  0.92939  0.49102  0.20534  1.0000
  H   H2890     1.0  0.90775  0.36157  0.39311  1.0000
  C   C3608     1.0  0.97950  0.46971  0.55404  1.0000
  H   H2891     1.0  0.86021  0.45041  0.18402  1.0000
  C   C3609     1.0  0.93506  0.41739  0.94172  1.0000
  C   C3610     1.0  0.93525  0.40215  0.90346  1.0000
  C   C3611     1.0  0.88475  0.34570  0.33645  1.0000
  H   H2892     1.0  0.84025  0.41066  0.94500  1.0000
  H   H2893     1.0  0.95325  0.44009  0.68014  1.0000
  H   H2894     1.0  0.97146  0.43119  0.66140  1.0000
  H   H2895     1.0  0.89415  0.40531  0.21465  1.0000
  C   C3612     1.0  0.97844  0.49204  0.88181  1.0000
  H   H2896     1.0  0.91216  0.34070  0.36887  1.0000
  C   C3613     1.0  0.97573  0.44767  0.09853  1.0000
  C   C3614     1.0  0.88872  0.43816  0.29639  1.0000
  C   C3615     1.0  0.84130  0.35602  0.66698  1.0000
  C   C3616     1.0  0.83501  0.34860  0.70579  1.0000
  C   C3617     1.0  0.83956  0.35060  0.73753  1.0000
  C   C3618     1.0  0.85048  0.35991  0.73052  1.0000
  C   C3619     1.0  0.85682  0.36753  0.69157  1.0000
  C   C3620     1.0  0.85214  0.36543  0.65986  1.0000
  P   P122      1.0  0.87057  0.38021  0.68162  1.0000
  C   C3621     1.0  0.86595  0.39494  0.67091  1.0000
  C   C3622     1.0  0.87757  0.37857  0.72277  1.0000
  C   C3623     1.0  0.87104  0.37927  0.76026  1.0000
  C   C3624     1.0  0.87655  0.37825  0.79169  1.0000
  C   C3625     1.0  0.88866  0.37661  0.78593  1.0000
  C   C3626     1.0  0.89521  0.37582  0.74894  1.0000
  C   C3627     1.0  0.88971  0.37677  0.71749  1.0000
  C   C3628     1.0  0.86794  0.40369  0.69275  1.0000
  H   H2897     1.0  0.94346  0.43025  0.75857  1.0000
  H   H2898     1.0  0.97280  0.45298  0.94304  1.0000
  C   C3629     1.0  0.85003  0.42741  0.79292  1.0000
  C   C3630     1.0  0.86082  0.39804  0.63886  1.0000
  C   C3631     1.0  0.88178  0.37986  0.63746  1.0000
  C   C3632     1.0  0.88932  0.39113  0.60958  1.0000
  C   C3633     1.0  0.89795  0.39071  0.57553  1.0000
  C   C3634     1.0  0.89916  0.37911  0.56916  1.0000
  C   C3635     1.0  0.89183  0.36787  0.59701  1.0000
  C   C3636     1.0  0.88319  0.36823  0.63116  1.0000
  C   C3637     1.0  0.97519  0.48708  0.50921  1.0000
  C   C3638     1.0  0.83653  0.28901  0.74149  1.0000
  H   H2899     1.0  0.83497  0.34450  0.76738  1.0000
  H   H2900     1.0  0.85408  0.36069  0.75550  1.0000
  H   H2901     1.0  0.85700  0.37079  0.62928  1.0000
  H   H2902     1.0  0.86165  0.38055  0.76528  1.0000
  H   H2903     1.0  0.87137  0.37850  0.82086  1.0000
  H   H2904     1.0  0.89287  0.37568  0.81044  1.0000
  H   H2905     1.0  0.90445  0.37416  0.74496  1.0000
  H   H2906     1.0  0.89495  0.37595  0.68937  1.0000
  H   H2907     1.0  0.87240  0.40195  0.71627  1.0000
  C   C3639     1.0  0.96659  0.46489  0.57187  1.0000
  C   C3640     1.0  0.89204  0.35809  0.32617  1.0000
  H   H2908     1.0  0.92403  0.39991  0.31917  1.0000
  H   H2909     1.0  0.85973  0.39183  0.62012  1.0000
  H   H2910     1.0  0.88847  0.40025  0.61363  1.0000
  H   H2911     1.0  0.90350  0.39938  0.55342  1.0000
  H   H2912     1.0  0.90578  0.37885  0.54257  1.0000
  H   H2913     1.0  0.89271  0.35888  0.59176  1.0000
  H   H2914     1.0  0.87753  0.35945  0.65242  1.0000
  C   C3641     1.0  0.94070  0.45168  0.51092  1.0000
  C   C3642     1.0  0.93270  0.44929  0.48760  1.0000
  C   C3643     1.0  0.92388  0.43774  0.49898  1.0000
  C   C3644     1.0  0.92287  0.42865  0.53416  1.0000
  C   C3645     1.0  0.93083  0.43097  0.55793  1.0000
  C   C3646     1.0  0.93983  0.44253  0.54591  1.0000
  P   P123      1.0  0.92934  0.41909  0.60343  1.0000
  C   C3647     1.0  0.91571  0.41833  0.64236  1.0000
  C   C3648     1.0  0.92881  0.40417  0.59190  1.0000
  C   C3649     1.0  0.92208  0.39270  0.62047  1.0000
  C   C3650     1.0  0.92231  0.38121  0.61151  1.0000
  C   C3651     1.0  0.92914  0.38111  0.57394  1.0000
  C   C3652     1.0  0.93569  0.39248  0.54526  1.0000
  C   C3653     1.0  0.93559  0.40395  0.55415  1.0000
  C   C3654     1.0  0.91438  0.41182  0.68215  1.0000
  C   C3655     1.0  0.90439  0.41201  0.71290  1.0000
  C   C3656     1.0  0.89583  0.41894  0.70431  1.0000
  C   C3657     1.0  0.89701  0.42530  0.66481  1.0000
  C   C3658     1.0  0.90686  0.42498  0.63394  1.0000
  C   C3659     1.0  0.94278  0.42295  0.62145  1.0000
  C   C3660     1.0  0.94292  0.43101  0.64634  1.0000
  C   C3661     1.0  0.95321  0.43391  0.66087  1.0000
  C   C3662     1.0  0.96348  0.42896  0.65021  1.0000
  C   C3663     1.0  0.96347  0.42105  0.62521  1.0000
  C   C3664     1.0  0.95318  0.41807  0.61072  1.0000
  H   H2915     1.0  0.94758  0.46064  0.50171  1.0000
  H   H2916     1.0  0.93321  0.45646  0.46099  1.0000
  H   H2917     1.0  0.91756  0.43595  0.48114  1.0000
  H   H2918     1.0  0.91576  0.41988  0.54298  1.0000
  H   H2919     1.0  0.94619  0.44454  0.56325  1.0000
  H   H2920     1.0  0.91665  0.39252  0.64958  1.0000
  H   H2921     1.0  0.91709  0.37237  0.63349  1.0000
  H   H2922     1.0  0.92936  0.37222  0.56690  1.0000
  H   H2923     1.0  0.94094  0.39243  0.51608  1.0000
  H   H2924     1.0  0.94097  0.41263  0.53156  1.0000
  H   H2925     1.0  0.92119  0.40678  0.68950  1.0000
  H   H2926     1.0  0.90343  0.40698  0.74350  1.0000
  H   H2927     1.0  0.88831  0.41947  0.72819  1.0000
  H   H2928     1.0  0.89038  0.43065  0.65795  1.0000
  H   H2929     1.0  0.90764  0.43019  0.60380  1.0000
  H   H2930     1.0  0.93509  0.43508  0.65445  1.0000
  S   S497      1.0  0.92662  0.37948  0.03404  1.0000
  S   S498      1.0  0.93769  0.39493  0.11147  1.0000
  C   C3665     1.0  0.97225  0.46168  0.43477  1.0000
  H   H2931     1.0  0.91658  0.45912  0.27667  1.0000
  C   C3666     1.0  0.83342  0.26813  0.17650  1.0000
  C   C3667     1.0  0.89728  0.44963  0.28977  1.0000
  H   H2932     1.0  0.83797  0.35429  0.64213  1.0000
  C   C3668     1.0  0.96703  0.46561  0.34651  1.0000
  H   H2933     1.0  0.91773  0.48055  0.26393  1.0000
  H   H2934     1.0  0.87879  0.43760  0.30423  1.0000
  H   H2935     1.0  0.89877  0.37031  0.90638  1.0000
  H   H2936     1.0  0.98484  0.48193  0.70211  1.0000
  C   C3669     1.0  0.93781  0.49019  0.92150  1.0000
  H   H2937     1.0  0.96094  0.45854  0.37304  1.0000
  C   C3670     1.0  0.97438  0.40081  0.26708  1.0000
  H   H2938     1.0  0.87764  0.47880  0.72130  1.0000
  H   H2939     1.0  0.92051  0.38055  0.27489  1.0000
  C   C3671     1.0  0.97461  0.48737  0.30662  1.0000
  C   C3672     1.0  0.82739  0.38906  0.88468  1.0000
  H   H2940     1.0  0.97310  0.46731  0.63566  1.0000
  C   C3673     1.0  0.82545  0.43291  0.96756  1.0000
  H   H2941     1.0  0.93580  0.39272  0.90186  1.0000
  H   H2942     1.0  0.84372  0.28305  0.81213  1.0000
  H   H2943     1.0  0.98516  0.49052  0.63144  1.0000
  H   H2944     1.0  0.92905  0.32731  0.24044  1.0000
  H   H2945     1.0  0.98099  0.47240  0.18945  1.0000
  C   C3674     1.0  0.98447  0.45660  0.22937  1.0000
  P   P124      1.0  0.93733  0.33613  0.36297  1.0000
  S   S499      1.0  0.82275  0.41911  0.40568  1.0000
  H   H2946     1.0  0.85693  0.42701  0.64426  1.0000
  H   H2947     1.0  0.91723  0.44272  0.40341  1.0000
  C   C3675     1.0  0.97687  0.48235  0.86350  1.0000
  S   S500      1.0  0.97998  0.39165  0.40961  1.0000
  H   H2948     1.0  0.83457  0.26676  0.27159  1.0000
  H   H2949     1.0  0.85150  0.44995  0.85238  1.0000
  H   H2950     1.0  0.90074  0.44959  0.37573  1.0000
  H   H2951     1.0  0.88353  0.48992  0.41147  1.0000
  C   C3676     1.0  0.84160  0.28972  0.82870  1.0000
  H   H2952     1.0  0.90451  0.48615  0.39391  1.0000
  H   H2953     1.0  0.83267  0.40029  0.67048  1.0000
  C   C3677     1.0  0.82252  0.44931  0.71122  1.0000
  C   C3678     1.0  0.97160  0.41083  0.79166  1.0000
  H   H2954     1.0  0.82943  0.29583  0.07863  1.0000
  H   H2955     1.0  0.82548  0.42264  0.24334  1.0000
  C   C3679     1.0  0.82693  0.42110  0.96359  1.0000
  C   C3680     1.0  0.91900  0.45228  0.38489  1.0000
  C   C3681     1.0  0.82812  0.44060  0.43231  1.0000
  C   C3682     1.0  0.87807  0.40305  0.41421  1.0000
  C   C3683     1.0  0.98134  0.44337  0.24433  1.0000
  C   C3684     1.0  0.90965  0.45621  0.36964  1.0000
  H   H2956     1.0  0.84074  0.27122  0.67653  1.0000
  C   C3685     1.0  0.84002  0.46920  0.08455  1.0000
  C   C3686     1.0  0.97851  0.43171  0.52598  1.0000
  C   C3687     1.0  0.84522  0.44290  0.70956  1.0000
  C   C3688     1.0  0.97875  0.40432  0.22518  1.0000
  H   H2957     1.0  0.88871  0.39686  0.28787  1.0000
  H   H2958     1.0  0.98322  0.41013  0.73602  1.0000
  H   H2959     1.0  0.93770  0.45770  0.38925  1.0000
  H   H2960     1.0  0.82760  0.45151  0.64780  1.0000
  C   C3689     1.0  0.91322  0.41549  0.81037  1.0000
  C   C3690     1.0  0.84601  0.48146  0.06023  1.0000
  H   H2961     1.0  0.92664  0.35445  0.02124  1.0000
  H   H2962     1.0  0.97917  0.41179  0.80544  1.0000
  C   C3691     1.0  0.86087  0.40675  0.79779  1.0000
  C   C3692     1.0  0.93046  0.46080  0.37738  1.0000
  H   H2963     1.0  0.84725  0.30131  0.01918  1.0000
  H   H2964     1.0  0.93671  0.39847  0.96360  1.0000
  C   C3693     1.0  0.84521  0.46105  0.02744  1.0000
  H   H2965     1.0  0.96222  0.33063  0.34648  1.0000
  C   C3694     1.0  0.92756  0.43683  0.74872  1.0000
  C   C3695     1.0  0.83182  0.42943  0.21647  1.0000
  C   C3696     1.0  0.97540  0.46209  0.31857  1.0000
  C   C3697     1.0  0.87164  0.47272  0.74988  1.0000
  H   H2966     1.0  0.93316  0.32143  0.30592  1.0000
  S   S501      1.0  0.96150  0.43752  0.43574  1.0000
  C   C3698     1.0  0.93339  0.33980  0.31627  1.0000
  C   C3699     1.0  0.85134  0.44510  0.18309  1.0000
  H   H2967     1.0  0.94819  0.46770  0.57353  1.0000
  C   C3700     1.0  0.93339  0.42822  0.76731  1.0000
  C   C3701     1.0  0.91156  0.46882  0.34833  1.0000
  C   C3702     1.0  0.83766  0.44346  0.74568  1.0000
  C   C3703     1.0  0.82343  0.29074  0.97710  1.0000
  H   H2968     1.0  0.89747  0.42295  0.80296  1.0000
  C   C3704     1.0  0.83262  0.26615  0.07865  1.0000
  Fe  Fe249     1.0  0.96092  0.39188  0.44565  1.0000
  C   C3705     1.0  0.95001  0.29892  0.37970  1.0000
  C   C3706     1.0  0.86189  0.46284  0.75133  1.0000
  C   C3707     1.0  0.93237  0.47344  0.35625  1.0000
  P   P125      1.0  0.84297  0.44065  0.79014  1.0000
  H   H2969     1.0  0.90403  0.47175  0.33786  1.0000
  C   C3708     1.0  0.95949  0.41012  0.81355  1.0000
  C   C3709     1.0  0.96896  0.44158  0.19813  1.0000
  C   C3710     1.0  0.84268  0.26936  0.04440  1.0000
  C   C3711     1.0  0.90155  0.49212  0.37132  1.0000
  C   C3712     1.0  0.93194  0.35194  0.30061  1.0000
  H   H2970     1.0  0.96815  0.45910  0.16032  1.0000
  H   H2971     1.0  0.83264  0.45708  0.45310  1.0000
  C   C3713     1.0  0.96243  0.48246  0.52810  1.0000
  C   C3714     1.0  0.95812  0.47135  0.55938  1.0000
  Fe  Fe250     1.0  0.95080  0.41335  0.07441  1.0000
  H   H2972     1.0  0.90750  0.40755  0.83509  1.0000
  C   C3715     1.0  0.92431  0.32853  0.44366  1.0000
  H   H2973     1.0  0.98448  0.41649  0.90128  1.0000
  C   C3716     1.0  0.96407  0.40844  0.73511  1.0000
  H   H2974     1.0  0.93042  0.28967  0.40250  1.0000
  H   H2975     1.0  0.88582  0.34013  0.31537  1.0000
  C   C3717     1.0  0.92280  0.47765  0.34262  1.0000
  H   H2976     1.0  0.86822  0.34340  0.43078  1.0000
  C   C3718     1.0  0.87242  0.39613  0.39226  1.0000
  C   C3719     1.0  0.92866  0.34634  0.24162  1.0000
  H   H2977     1.0  0.87041  0.33086  0.38207  1.0000
  C   C3720     1.0  0.83626  0.30625  0.87439  1.0000
  C   C3721     1.0  0.83593  0.42506  0.55762  1.0000
  C   C3722     1.0  0.97819  0.46105  0.64860  1.0000
  C   C3723     1.0  0.87479  0.34755  0.40140  1.0000
  H   H2978     1.0  0.95866  0.35223  0.29717  1.0000
  H   H2979     1.0  0.89406  0.33716  0.42655  1.0000
  H   H2980     1.0  0.82371  0.40348  0.06064  1.0000
  H   H2981     1.0  0.85440  0.30664  0.88374  1.0000
  C   C3724     1.0  0.83658  0.27391  0.70274  1.0000
  H   H2982     1.0  0.92406  0.36345  0.80980  1.0000
  C   C3725     1.0  0.98366  0.47317  0.86839  1.0000
  C   C3726     1.0  0.86660  0.46632  0.82186  1.0000
  C   C3727     1.0  0.86562  0.41689  0.81109  1.0000
  H   H2983     1.0  0.82390  0.41115  0.71930  1.0000
  H   H2984     1.0  0.91015  0.44167  0.74747  1.0000
  Fe  Fe251     1.0  0.94290  0.38773  0.05757  1.0000
  C   C3728     1.0  0.97401  0.44964  0.43457  1.0000
  H   H2985     1.0  0.96308  0.45608  0.59528  1.0000
  S   S502      1.0  0.95934  0.38156  0.07527  1.0000
  H   H2986     1.0  0.87271  0.40767  0.43294  1.0000
  C   C3729     1.0  0.82975  0.43707  0.83336  1.0000
  S   S503      1.0  0.95223  0.38177  0.19355  1.0000
  P   P126      1.0  0.90019  0.38129  0.34062  1.0000
  C   C3730     1.0  0.89054  0.40366  0.41313  1.0000
  C   C3731     1.0  0.94241  0.32162  0.36957  1.0000
  C   C3732     1.0  0.96691  0.47830  0.34111  1.0000
  H   H2987     1.0  0.94106  0.47998  0.35232  1.0000
  C   C3733     1.0  0.93401  0.41103  0.87090  1.0000
  H   H2988     1.0  0.86265  0.39543  0.39398  1.0000
  H   H2989     1.0  0.96580  0.40737  0.70521  1.0000
  C   C3734     1.0  0.96625  0.43431  0.93874  1.0000
  S   S504      1.0  0.96928  0.40594  0.47453  1.0000
  H   H2990     1.0  0.86632  0.42198  0.69974  1.0000
  H   H2991     1.0  0.92556  0.48433  0.19097  1.0000
  H   H2992     1.0  0.97119  0.42879  0.51266  1.0000
  H   H2993     1.0  0.96032  0.38816  0.31794  1.0000
  C   C3735     1.0  0.90745  0.42422  0.79217  1.0000
  H   H2994     1.0  0.96337  0.43584  0.18479  1.0000
  C   C3736     1.0  0.90302  0.32951  0.46978  1.0000
  H   H2995     1.0  0.83692  0.39456  0.87694  1.0000
  S   S505      1.0  0.95502  0.40678  0.01978  1.0000
  H   H2996     1.0  0.87455  0.38408  0.35372  1.0000
  C   C3737     1.0  0.87922  0.38976  0.36938  1.0000
  Fe  Fe252     1.0  0.95478  0.39017  0.12685  1.0000
  C   C3738     1.0  0.82762  0.39490  0.70087  1.0000
  H   H2997     1.0  0.92747  0.36092  0.40981  1.0000
  H   H2998     1.0  0.93291  0.35897  0.31679  1.0000
  C   C3739     1.0  0.89738  0.39732  0.39026  1.0000
  H   H2999     1.0  0.91436  0.32264  0.50624  1.0000
  H   H3000     1.0  0.89473  0.40874  0.43122  1.0000
  C   C3740     1.0  0.91016  0.39756  0.20373  1.0000
  C   C3741     1.0  0.92682  0.36926  0.38894  1.0000
  C   C3742     1.0  0.89683  0.39512  0.26967  1.0000
  H   H3001     1.0  0.96140  0.49020  0.19318  1.0000
  C   C3743     1.0  0.96531  0.43909  0.09742  1.0000
  C   C3744     1.0  0.82567  0.28111  0.77006  1.0000
  H   H3002     1.0  0.82803  0.37947  0.51089  1.0000
  H   H3003     1.0  0.89875  0.36191  0.29709  1.0000
  C   C3745     1.0  0.95199  0.40802  0.75658  1.0000
  C   C3746     1.0  0.90423  0.38812  0.28715  1.0000
  C   C3747     1.0  0.89985  0.39989  0.22810  1.0000
  C   C3748     1.0  0.91402  0.38623  0.87056  1.0000
  C   C3749     1.0  0.97362  0.43591  0.22861  1.0000
  H   H3004     1.0  0.84080  0.29804  0.74479  1.0000
  C   C3750     1.0  0.92471  0.39131  0.33867  1.0000
  C   C3751     1.0  0.95709  0.38513  0.26306  1.0000
  C   C3752     1.0  0.84763  0.30286  0.86974  1.0000
  C   C3753     1.0  0.91452  0.38068  0.35393  1.0000
  C   C3754     1.0  0.92120  0.36989  0.82639  1.0000
  H   H3005     1.0  0.85370  0.41185  0.60441  1.0000
  C   C3755     1.0  0.91058  0.36557  0.85906  1.0000
  H   H3006     1.0  0.93234  0.43022  0.84970  1.0000
  H   H3007     1.0  0.92553  0.38872  0.20207  1.0000
  S   S506      1.0  0.96751  0.40922  0.09320  1.0000
  C   C3756     1.0  0.83537  0.44868  0.44835  1.0000
  C   C3757     1.0  0.84322  0.43632  0.21772  1.0000
  H   H3008     1.0  0.94870  0.37772  0.27805  1.0000
  C   C3758     1.0  0.85924  0.41800  0.65201  1.0000
  H   H3009     1.0  0.98064  0.44692  0.74037  1.0000
  C   C3759     1.0  0.93339  0.42319  0.87408  1.0000
  C   C3760     1.0  0.93395  0.42635  0.90937  1.0000
  H   H3010     1.0  0.89502  0.32814  0.49492  1.0000
  C   C3761     1.0  0.83633  0.43111  0.07770  1.0000
  H   H3011     1.0  0.85413  0.44064  0.70826  1.0000
  C   C3762     1.0  0.83148  0.42967  0.42599  1.0000
  H   H3012     1.0  0.93331  0.43568  0.91187  1.0000
  C   C3763     1.0  0.97388  0.40991  0.75255  1.0000
  H   H3013     1.0  0.85440  0.45392  0.12079  1.0000
  C   C3764     1.0  0.98272  0.48386  0.27789  1.0000
  C   C3765     1.0  0.90696  0.37376  0.88092  1.0000
  H   H3014     1.0  0.85917  0.29209  0.84311  1.0000
  C   C3766     1.0  0.82588  0.26588  0.73129  1.0000
  C   C3767     1.0  0.82733  0.42035  0.07985  1.0000
  C   C3768     1.0  0.96950  0.36439  0.32188  1.0000
  C   C3769     1.0  0.96356  0.39113  0.28583  1.0000
  H   H3015     1.0  0.94359  0.39923  0.33783  1.0000
  C   C3770     1.0  0.93581  0.39095  0.34906  1.0000
  H   H3016     1.0  0.95797  0.41059  0.84408  1.0000
  C   C3771     1.0  0.91562  0.36968  0.37939  1.0000
  H   H3017     1.0  0.98103  0.48090  0.43032  1.0000
  C   C3772     1.0  0.91750  0.39053  0.22089  1.0000
  C   C3773     1.0  0.93732  0.29865  0.39032  1.0000
  H   H3018     1.0  0.91248  0.40116  0.17149  1.0000
  H   H3019     1.0  0.86056  0.46157  0.72343  1.0000
  C   C3774     1.0  0.85444  0.45451  0.78818  1.0000
  C   C3775     1.0  0.84538  0.41725  0.77909  1.0000
  C   C3776     1.0  0.85078  0.40694  0.78160  1.0000
  C   C3777     1.0  0.93686  0.37991  0.37416  1.0000
  H   H3020     1.0  0.84484  0.45336  0.01385  1.0000
  C   C3778     1.0  0.91393  0.32647  0.47610  1.0000
  C   C3779     1.0  0.97217  0.39854  0.20225  1.0000
  C   C3780     1.0  0.82128  0.30857  0.48960  1.0000
  H   H3021     1.0  0.82988  0.37711  0.69098  1.0000
  C   C3781     1.0  0.92968  0.35520  0.26331  1.0000
  Fe  Fe253     1.0  0.97110  0.40143  0.04065  1.0000
  H   H3022     1.0  0.92364  0.30955  0.39343  1.0000
  C   C3782     1.0  0.91286  0.33674  0.39849  1.0000
  C   C3783     1.0  0.92975  0.33414  0.25747  1.0000
  H   H3023     1.0  0.97560  0.40151  0.17003  1.0000
  C   C3784     1.0  0.97058  0.36807  0.35591  1.0000
  C   C3785     1.0  0.95929  0.35489  0.32405  1.0000
  C   C3786     1.0  0.95488  0.49412  0.43071  1.0000
  C   C3787     1.0  0.96945  0.42410  0.92626  1.0000
  C   C3788     1.0  0.92391  0.33381  0.40460  1.0000
  C   C3789     1.0  0.82563  0.44689  0.84644  1.0000
  H   H3024     1.0  0.96295  0.42951  0.11578  1.0000
  H   H3025     1.0  0.97137  0.42573  0.23981  1.0000
  C   C3790     1.0  0.85032  0.29465  0.84677  1.0000
  C   C3791     1.0  0.95009  0.34888  0.36052  1.0000
  H   H3026     1.0  0.87348  0.41678  0.82347  1.0000
  H   H3027     1.0  0.95295  0.29016  0.38366  1.0000
  H   H3028     1.0  0.93268  0.32605  0.44908  1.0000
  C   C3792     1.0  0.97915  0.46221  0.20038  1.0000
  H   H3029     1.0  0.84489  0.42882  0.53528  1.0000
  H   H3030     1.0  0.94533  0.37971  0.38320  1.0000
  C   C3793     1.0  0.83304  0.28830  0.06984  1.0000
  H   H3031     1.0  0.84222  0.43285  0.60125  1.0000
  C   C3794     1.0  0.83027  0.44902  0.67522  1.0000
  C   C3795     1.0  0.84324  0.41299  0.04030  1.0000
  H   H3032     1.0  0.98676  0.41613  0.51999  1.0000
  H   H3033     1.0  0.96237  0.41549  0.93187  1.0000
  H   H3034     1.0  0.82103  0.39163  0.55729  1.0000
  H   H3035     1.0  0.96875  0.31070  0.35564  1.0000
  C   C3796     1.0  0.84321  0.29148  0.03591  1.0000
  C   C3797     1.0  0.83634  0.44050  0.14618  1.0000
  H   H3036     1.0  0.85577  0.28455  0.99645  1.0000
  P   P127      1.0  0.83193  0.44314  0.10015  1.0000
  C   C3798     1.0  0.97545  0.44527  0.93237  1.0000
  C   C3799     1.0  0.85687  0.45637  0.82352  1.0000
  C   C3800     1.0  0.83978  0.45888  0.06844  1.0000
  H   H3037     1.0  0.82164  0.42452  0.65239  1.0000
  H   H3038     1.0  0.86857  0.46761  0.84909  1.0000
  C   C3801     1.0  0.82845  0.43140  0.18077  1.0000
  C   C3802     1.0  0.97944  0.44285  0.53770  1.0000
  H   H3039     1.0  0.97844  0.37556  0.35388  1.0000
  H   H3040     1.0  0.82543  0.36047  0.83119  1.0000
  H   H3041     1.0  0.97648  0.36909  0.29355  1.0000
  C   C3803     1.0  0.97832  0.46041  0.07760  1.0000
  C   C3804     1.0  0.98242  0.47161  0.43072  1.0000
  C   C3805     1.0  0.83814  0.26695  0.20965  1.0000
  H   H3042     1.0  0.84719  0.39913  0.77086  1.0000
  H   H3043     1.0  0.96102  0.48115  0.36383  1.0000
  H   H3044     1.0  0.82713  0.41699  0.51893  1.0000
  C   C3806     1.0  0.98374  0.48075  0.52194  1.0000
  C   C3807     1.0  0.98348  0.47123  0.28445  1.0000
  C   C3808     1.0  0.82771  0.30166  0.85524  1.0000
  C   C3809     1.0  0.98251  0.44975  0.70815  1.0000
  S   S507      1.0  0.98257  0.40900  0.29448  1.0000
  C   C3810     1.0  0.82260  0.40099  0.72832  1.0000
  C   C3811     1.0  0.82596  0.38180  0.71240  1.0000
  H   H3045     1.0  0.98158  0.44440  0.11641  1.0000
  H   H3046     1.0  0.82615  0.41672  0.84426  1.0000
  C   C3812     1.0  0.82269  0.38495  0.85571  1.0000
  C   C3813     1.0  0.98190  0.42471  0.90849  1.0000
  H   H3047     1.0  0.83054  0.45667  0.83157  1.0000
  H   H3048     1.0  0.98206  0.46549  0.85502  1.0000
  C   C3814     1.0  0.82284  0.42264  0.62360  1.0000
  H   H3049     1.0  0.95588  0.48745  0.51812  1.0000
  S   S508      1.0  0.98683  0.42247  0.38323  1.0000
  H   H3050     1.0  0.98724  0.41163  0.21034  1.0000
  C   C3815     1.0  0.98683  0.49260  0.90482  1.0000
  H   H3051     1.0  0.98720  0.43809  0.43422  1.0000
  C   C3816     1.0  0.98724  0.45687  0.62451  1.0000
  P   P128      1.0  0.92466  0.49424  0.31917  1.0000
  C   C3817     1.0  0.88967  0.49430  0.38146  1.0000
  C   C3818     1.0  0.98726  0.42460  0.53002  1.0000
  C   C3819     1.0  0.98580  0.54933  0.18020  1.0000
  C   C3820     1.0  0.95667  0.51349  0.33544  1.0000
  C   C3821     1.0  0.95217  0.51998  0.36228  1.0000
  C   C3822     1.0  0.90951  0.49757  0.33239  1.0000
  H   H3052     1.0  0.94297  0.51552  0.25523  1.0000
  C   C3823     1.0  0.95404  0.50406  0.44798  1.0000
  H   H3053     1.0  0.94234  0.50341  0.15045  1.0000
  H   H3054     1.0  0.95862  0.52607  0.37229  1.0000
  C   C3824     1.0  0.94685  0.49934  0.92841  1.0000
  S   S509      1.0  0.96732  0.51648  0.44084  1.0000
  C   C3825     1.0  0.93099  0.51020  0.36540  1.0000
  H   H3055     1.0  0.97625  0.54505  0.18194  1.0000
  H   H3056     1.0  0.96662  0.51462  0.32483  1.0000
  H   H3057     1.0  0.93589  0.52288  0.39968  1.0000
  H   H3058     1.0  0.97047  0.51575  0.22113  1.0000
  H   H3059     1.0  0.92112  0.50892  0.37826  1.0000
  H   H3060     1.0  0.87647  0.50372  0.36099  1.0000
  H   H3061     1.0  0.92229  0.49623  0.48843  1.0000
  C   C3826     1.0  0.95395  0.49587  0.95485  1.0000
  H   H3062     1.0  0.94146  0.51204  0.48378  1.0000
  Fe  Fe254     1.0  0.97823  0.50730  0.00380  1.0000
  Fe  Fe255     1.0  0.98692  0.51754  0.40404  1.0000
  H   H3063     1.0  0.94829  0.50922  0.91333  1.0000
  C   C3827     1.0  0.94224  0.50444  0.47013  1.0000
  S   S510      1.0  0.97233  0.49691  0.06921  1.0000
  H   H3064     1.0  0.95095  0.51888  0.18283  1.0000
  S   S511      1.0  0.97686  0.51864  0.13635  1.0000
  C   C3828     1.0  0.93541  0.50392  0.33740  1.0000
  C   C3829     1.0  0.94367  0.51051  0.20076  1.0000
  H   H3065     1.0  0.91153  0.50993  0.27405  1.0000
  S   S512      1.0  0.96540  0.50793  0.96191  1.0000
  C   C3830     1.0  0.98051  0.51771  0.21041  1.0000
  C   C3831     1.0  0.93926  0.50843  0.24204  1.0000
  C   C3832     1.0  0.93935  0.51823  0.37758  1.0000
  C   C3833     1.0  0.94835  0.50549  0.32298  1.0000
  H   H3066     1.0  0.97444  0.49716  0.30250  1.0000
  C   C3834     1.0  0.90551  0.50547  0.30406  1.0000
  H   H3067     1.0  0.95201  0.50061  0.30189  1.0000
  H   H3068     1.0  0.97836  0.49554  0.48433  1.0000
  C   C3835     1.0  0.93879  0.50180  0.18243  1.0000
  H   H3069     1.0  0.98270  0.54450  0.24393  1.0000
  H   H3070     1.0  0.98348  0.51822  0.26778  1.0000
  C   C3836     1.0  0.93018  0.49736  0.26554  1.0000
  Fe  Fe256     1.0  0.98435  0.51372  0.07851  1.0000
  H   H3071     1.0  0.89056  0.51377  0.29245  1.0000
  C   C3837     1.0  0.89363  0.50769  0.31440  1.0000
  C   C3838     1.0  0.88570  0.50206  0.35301  1.0000
  H   H3072     1.0  0.97288  0.49892  0.87926  1.0000
  C   C3839     1.0  0.98618  0.51927  0.16980  1.0000
  C   C3840     1.0  0.93135  0.49541  0.47313  1.0000
