data_image0
_chemical_formula_structural       SCFeSFeSCFeS2FeSFeS3FeS2FeS2FeSFeCS2C5H3C3H2C2HC3HC9HCH2C2SC6H4C2H5CPCH2PC4HCHC11H2CHCH2CFeCH10CH2C4SHC2HCHCH3CHCHCH2CH2C2H2CHCHCH2C2H2SH2CHC5HCHCHC5HPC3H2CHC2H2C3H2CH2C2H2CH7CHCHCH4C4H3CHCPC3HCHSC7PCH4C2HCH2C2HC9HC4H2C2H3CH2CH2C2HSH3C2H4CHCH2CSFeC2H3CH3CPH3CFeSC2SFeS2FeS2FeHFeS3FeSHFeS2FeSFeS3C6H2CHC6H5C5HC6HCHC2H2C2HC3HC3HSC7H7PH3CH2C2H2C3HC2H3C4H2CHC5HCHCSH2C5H2C2H2FeC4HC2H2CSH3CHCHCHC3H4C4SCHC3H3PCHCH2C2HC3FeSHC3H3CSC2HCH2CHC5HC4PH2C3HCHC3HCH3C2H2CH3C3H2C2H6CH2FeH2CH5CH3CHC3H3FeS2FeS2FeSFeCS2FeS2FeS2FeSFeCS3HFeSC7H4C6H2CHC3HC3HC6H2C3HCHCH6C3H3CH4CHC2HCH3C2HSCH3C3H4C3H3FeC2PHC2H2C2H3CPC2H2C2HC2HC3HC5H3C3H3C2HC2HC6PC18H22C4PC14HPCH2CH6CH5C4HSHC2HC2HC2H2C3S2PCHC3SC3HCHCHSHFeH2C2HFeSC5H2FeHC2HC3SH3SCHCFeSCFeS2FeSFeS3FeS2FeSFeSFeS3H2FeSCHS2H2CHC6H2C4HC3FeHC6H4C6H3C6HC5H3C6H3CPC12H5PHCFeC2H3S2H5CHCSHC3H4C2H2C2H4C5HCH4CHCH7CHC2HPHC6PC11H8CH4CHC4HCH5CHCHC4H3CH3CHCH2CHC3H3C4HCHCHSCPCH2C2HC4H2CHCH3C2HC2HCH3CHCFeCHC2FeC3HSH2CH2CHC2H3CSFeSFeS2FeS2FeSFeS3FeS2FeS2FeSFeS3C6HCHC2H3C6H2CHCH5C5H3C7H4C7H3C2H2C7H2C2HCH3CH2C5HSHCH2C3HCHC3HC3HCPC2HC2HC2HPHCHCH3CHCH2C2SC2HCHC5H2C2H3CH2PH3CSCH2C4HCHCHCHC5HC3H3SH2C2H4C2H3PHC3HC4HC4H2CHC3HC3H3CHCHCHC2HCH2CH5C3H3C4HCH2PC5HPHC5SH2PHC4HCHC2H2CHC2HC2HCH2FeC2HC2HCHC2HC3HCH2CH2CHCPH2CHC3HCHC3HCHC5HCH2C4H2CHCHC2H3C4FeHCHC3H4C2SFe2SFeS2FeS2FeSFeS3FeS2FeS2FeSFeS3HC5HC7H4C6H2CHC6H4C7H5C7H4SC2H2C2H6CHC2H3CHC5H3C3HCHC5PCH2C2H2CHC3H3CHCHC2SHC4HC2H2CH2CHC6H2C2H3C6H2C2FeCH3CPC3H3C7HCH2CH4CHC2H3CH3C3HCH2CHCHC2HC2HC2HPH2CHC2HC3H2C2H2CH2CHCHCSC4H5CSC2HCH2CH4C10H11C2H2PCHC2HCHCHPC6HC2PHC2H2C2HC2HC2HCH3SCPHC3HC10H2CH2CHSHCH4C2HCFeS3HC3H2CH2CHCHCH3CHC3HC2HC2H3C2H3C3H2C2H2C5HC2H5CHCHCHC2H2CHCSH3CHC3HCHCHC2HCHCHPHC3HC2SCHCHPHC2H2C4HCHC3H3CFeCHCH3C4HFeSCHFeHC4H2C4HSHC3H4CHSHC2HC3H4CH2PC2HCH2C6H2C3HC2S2FeC4SH4C2H3CHC2HCHC2H2C2HCFeC2HCHSC4PHFeH2C2H2C3HC2HC2HCH3CHC3HSCSFeSH3SH2FeS2FeS2FeSFeS3FeS2FeS2FeSFeS3CHC7H4C6H3C6H5CHC7H4C6H2C8H3C4H2CH4C3H3C6PC16H18C7H2CHCH3C4H5C3HCH3CHCH2CHCH2C7H2CHCH4CHCH5C2HCH2CHCHCHP2C3H2C2H2C8H2CHSCH2C3PH3C3HCH4C3HC2H5C3HCHC2HCHC3PCHCHCHC2H2C2PHC5HSH3C2H4C3HC3HCFeH2C6S2H3C4H2CHCH2CH2CSH2CHC4H3C4HFeS2FeS2FeSFeS3FeS2FeS2FeSFeS3CH3C3HC8H4C6H2CHC7H3C7H3C7H4C6H3CHCFeCSC2HCHC3H2CHC2HCH3C2SHCH2C3H4CHC2HCH2CH3C2HCSC4HC2H2C2HCH2CH3SHC3PC4HC3H2C2HPCH4CH2CHC2HCH5CH6C6PC2H2C12H6CH3C3H2CHC6HC8H2FeH3C5H2CPHCHCH3C3PC2PHCHCHC2HC2HCH2CH2CHC4HC3HCPCPHCHCHCH2C2HSH3CHCH2C3H3C4HCHC2H2CH2C8H4CH3C6HCHCHCH2CHC2HSCH2C3H5CSHCH2C2S2CHCFeSFeSHFeS2FeSFeS3FeS2FeS2FeSFeHS2HCH3C4HC3HC7HCH2C6H5CHC2H2C6H5C2H3CH4CHCH4SHC2HC4HPC2H2FeHSCH3C2HC2H2CH2C2H5CHC3HCH2C5HPH14CFeCH3C5H2C2HC2HCH2C2SH2C3H3CHSHCH5CHC8PC18FeC3SC5HC3H2SCHCFeC4H2CHCH3CHCH3CH2C2HCHCFeSHCSH3CFeS2FeS2FeSFePS2FeS2FeS2FeSFeS3HC6H4C6H5CH2C6H8C4HC4SHC9H6CHCH3CH2CH2C2HC6H3CHCH3C2PHCH2CH5CHCHCHCHC3HCHCH2C3PC13HCH2CH2C3H5CHCHCHCHC8H5CHCPH2C2H2CHCFePHCH3C3H2C5PC18H20CHC3H3C3H2SH2C2HC5SCHSCH2SCHFeCHC2HC2FeSCFeS2FeSFeS3FeS2FeS2FeCFeS3H3S2HFeSCSH2C2HCHCHC2H3C8H4CH2C6HC6H4C3HC4HCHC2HCHCH2C5H3CHCHC5HPCH3C2PCH2C2H2C4H2CFeCH3PCH2CH2C2H3C3HCH3C3H2SHC5HCH2C8PC11HC2HC3H5C2H3C2HC2H6CHC5PC21H17C4HC2H2C2HCH3C3SH2CH3CHCH3SH2C2H3CHC2HC2SHC3HFeCPFeCHCHCHCHCHC2FeS2FeSCFeSFeS3FeS2FeS2FeSFeHS2CHCHFeSCSH2CHC2HCHC5H3C6HC4H2C6H4C6HCH3C3HCH3CH3CHC7H3C2HC2HPH3CHC3HC7H7CHCH2CH3C2PC2HCPCHC5HC2SCHSC4HCHCH2C3H3C3H3SH4C2PC2SH4CH3C2HC6HC2H3C2HC2H3CHCH3CSC2FeH5C2H2CH2SC2HSCHCH3C
_chemical_formula_sum              "S288 C2160 Fe144 H1728 P72"
_cell_length_a       57.3304
_cell_length_b       57.0543
_cell_length_c       68.2819
_cell_angle_alpha    91.1156
_cell_angle_beta     90.9488
_cell_angle_gamma    117.461

_space_group_name_H-M_alt    "P 1"
_space_group_IT_number       1

loop_
  _space_group_symop_operation_xyz
  'x, y, z'

loop_
  _atom_site_type_symbol
  _atom_site_label
  _atom_site_symmetry_multiplicity
  _atom_site_fract_x
  _atom_site_fract_y
  _atom_site_fract_z
  _atom_site_occupancy
  S   S1        1.0  0.20848  0.22896  0.01336  1.0000
  C   C1        1.0  0.19433  0.33913  0.16621  1.0000
  Fe  Fe1       1.0  0.24716  0.26360  0.00636  1.0000
  S   S2        1.0  0.27390  0.30057  0.02555  1.0000
  Fe  Fe2       1.0  0.09690  0.44444  0.13964  1.0000
  S   S3        1.0  0.05742  0.41551  0.15055  1.0000
  C   C2        1.0  0.38087  0.26384  0.08259  1.0000
  Fe  Fe3       1.0  0.11563  0.40148  0.13709  1.0000
  S   S4        1.0  0.07745  0.37010  0.14797  1.0000
  S   S5        1.0  0.14556  0.38720  0.12985  1.0000
  Fe  Fe4       1.0  0.05863  0.38693  0.12703  1.0000
  S   S6        1.0  0.02627  0.36477  0.10310  1.0000
  Fe  Fe5       1.0  0.07986  0.40098  0.17042  1.0000
  S   S7        1.0  0.08728  0.40000  0.20354  1.0000
  S   S8        1.0  0.09709  0.41717  0.11527  1.0000
  S   S9        1.0  0.11917  0.43115  0.16020  1.0000
  Fe  Fe6       1.0  0.30147  0.38918  0.12870  1.0000
  S   S10       1.0  0.30829  0.42779  0.11596  1.0000
  S   S11       1.0  0.27678  0.34897  0.11221  1.0000
  Fe  Fe7       1.0  0.32595  0.41666  0.16918  1.0000
  S   S12       1.0  0.33400  0.45652  0.15843  1.0000
  S   S13       1.0  0.34274  0.41932  0.20022  1.0000
  Fe  Fe8       1.0  0.29370  0.43570  0.14438  1.0000
  S   S14       1.0  0.26781  0.45581  0.14757  1.0000
  Fe  Fe9       1.0  0.34821  0.44563  0.13123  1.0000
  C   C3        1.0  0.20060  0.30500  0.01093  1.0000
  S   S15       1.0  0.28456  0.39646  0.15672  1.0000
  S   S16       1.0  0.34252  0.40638  0.14240  1.0000
  C   C4        1.0  0.24077  0.40337  0.22897  1.0000
  C   C5        1.0  0.28404  0.45992  0.04539  1.0000
  C   C6        1.0  0.15306  0.15024  0.99698  1.0000
  C   C7        1.0  0.32648  0.40974  0.22279  1.0000
  C   C8        1.0  0.29956  0.39260  0.22362  1.0000
  H   H1        1.0  0.16844  0.16639  0.00546  1.0000
  H   H2        1.0  0.28802  0.38544  0.21018  1.0000
  H   H3        1.0  0.41113  0.43646  0.17841  1.0000
  C   C9        1.0  0.07247  0.39921  0.22644  1.0000
  C   C10       1.0  0.15044  0.32345  0.07603  1.0000
  C   C11       1.0  0.20068  0.32859  0.14967  1.0000
  H   H4        1.0  0.29756  0.45923  0.22126  1.0000
  H   H5        1.0  0.03275  0.38500  0.21537  1.0000
  C   C12       1.0  0.01732  0.33631  0.08711  1.0000
  C   C13       1.0  0.00298  0.33388  0.06952  1.0000
  H   H6        1.0  0.36592  0.47552  0.23028  1.0000
  C   C14       1.0  0.00074  0.29093  0.06127  1.0000
  C   C15       1.0  0.25253  0.44995  0.01824  1.0000
  C   C16       1.0  0.02334  0.31584  0.09161  1.0000
  H   H7        1.0  0.37690  0.26646  0.02509  1.0000
  C   C17       1.0  0.23278  0.39476  0.20943  1.0000
  C   C18       1.0  0.40929  0.45325  0.18437  1.0000
  C   C19       1.0  0.31383  0.47700  0.08348  1.0000
  C   C20       1.0  0.17907  0.40631  0.13644  1.0000
  C   C21       1.0  0.18990  0.43347  0.14055  1.0000
  C   C22       1.0  0.21713  0.44842  0.14429  1.0000
  C   C23       1.0  0.23360  0.43629  0.14396  1.0000
  C   C24       1.0  0.22261  0.40901  0.14044  1.0000
  C   C25       1.0  0.19542  0.39409  0.13673  1.0000
  H   H8        1.0  0.17741  0.44304  0.14032  1.0000
  C   C26       1.0  0.15144  0.12506  0.99740  1.0000
  H   H9        1.0  0.23510  0.39946  0.14018  1.0000
  H   H10       1.0  0.18710  0.37307  0.13376  1.0000
  C   C27       1.0  0.06678  0.45412  0.20646  1.0000
  C   C28       1.0  0.22334  0.40957  0.09141  1.0000
  S   S17       1.0  0.22169  0.16560  0.00883  1.0000
  C   C29       1.0  0.27359  0.31381  0.04954  1.0000
  C   C30       1.0  0.29436  0.33859  0.05545  1.0000
  C   C31       1.0  0.29547  0.34987  0.07431  1.0000
  C   C32       1.0  0.27591  0.33636  0.08777  1.0000
  C   C33       1.0  0.25492  0.31170  0.08179  1.0000
  C   C34       1.0  0.25364  0.30058  0.06281  1.0000
  H   H11       1.0  0.30993  0.34905  0.04540  1.0000
  H   H12       1.0  0.31176  0.36878  0.07858  1.0000
  H   H13       1.0  0.23957  0.30104  0.09196  1.0000
  H   H14       1.0  0.23734  0.28172  0.05850  1.0000
  C   C35       1.0  0.21896  0.09227  0.00804  1.0000
  C   C36       1.0  0.22217  0.11764  0.01375  1.0000
  H   H15       1.0  0.14951  0.38942  0.23040  1.0000
  H   H16       1.0  0.04939  0.43510  0.20531  1.0000
  H   H17       1.0  0.14206  0.33318  0.12418  1.0000
  H   H18       1.0  0.00906  0.13214  0.00928  1.0000
  H   H19       1.0  0.07026  0.18555  0.00585  1.0000
  C   C37       1.0  0.17908  0.39130  0.18900  1.0000
  P   P1        1.0  0.20438  0.36333  0.20376  1.0000
  C   C38       1.0  0.15063  0.34684  0.19920  1.0000
  H   H20       1.0  0.32002  0.08192  0.99662  1.0000
  H   H21       1.0  0.39604  0.24257  0.10004  1.0000
  P   P2        1.0  0.10226  0.36299  0.04672  1.0000
  C   C39       1.0  0.09362  0.34120  0.06714  1.0000
  C   C40       1.0  0.13546  0.36978  0.04133  1.0000
  C   C41       1.0  0.15675  0.38899  0.05244  1.0000
  C   C42       1.0  0.18242  0.39364  0.04868  1.0000
  H   H22       1.0  0.20677  0.38166  0.03177  1.0000
  C   C43       1.0  0.41257  0.45904  0.20450  1.0000
  H   H23       1.0  0.33564  0.19571  0.05765  1.0000
  C   C44       1.0  0.09719  0.35142  0.08645  1.0000
  C   C45       1.0  0.09043  0.33444  0.10220  1.0000
  C   C46       1.0  0.08030  0.30723  0.09883  1.0000
  C   C47       1.0  0.07731  0.29699  0.07969  1.0000
  C   C48       1.0  0.08417  0.31392  0.06389  1.0000
  C   C49       1.0  0.09893  0.39215  0.05295  1.0000
  C   C50       1.0  0.07679  0.38955  0.06305  1.0000
  C   C51       1.0  0.07353  0.41178  0.06774  1.0000
  C   C52       1.0  0.09228  0.43680  0.06229  1.0000
  C   C53       1.0  0.11405  0.43950  0.05174  1.0000
  C   C54       1.0  0.11725  0.41722  0.04687  1.0000
  H   H24       1.0  0.19783  0.32470  0.06515  1.0000
  H   H25       1.0  0.35785  0.39992  0.04333  1.0000
  C   C55       1.0  0.15696  0.39380  0.18288  1.0000
  H   H26       1.0  0.04684  0.32363  0.04372  1.0000
  C   C56       1.0  0.06806  0.24809  0.03856  1.0000
  H   H27       1.0  0.15349  0.40027  0.06408  1.0000
  H   H28       1.0  0.19878  0.40897  0.05691  1.0000
  C   C57       1.0  0.04417  0.32586  0.99416  1.0000
  Fe  Fe10      1.0  0.22279  0.20354  0.99612  1.0000
  C   C58       1.0  0.08778  0.35600  0.00695  1.0000
  H   H29       1.0  0.10507  0.37245  0.08947  1.0000
  H   H30       1.0  0.09293  0.34244  0.11704  1.0000
  H   H31       1.0  0.07457  0.29410  0.11106  1.0000
  H   H32       1.0  0.06903  0.27587  0.07706  1.0000
  H   H33       1.0  0.08153  0.30563  0.04916  1.0000
  H   H34       1.0  0.06204  0.37033  0.06742  1.0000
  H   H35       1.0  0.05655  0.40953  0.07589  1.0000
  H   H36       1.0  0.08987  0.45403  0.06627  1.0000
  H   H37       1.0  0.34329  0.44944  0.08385  1.0000
  H   H38       1.0  0.13387  0.41961  0.03833  1.0000
  C   C59       1.0  0.18794  0.44217  0.23677  1.0000
  H   H39       1.0  0.23308  0.23614  0.07220  1.0000
  H   H40       1.0  0.11473  0.37529  0.18054  1.0000
  C   C60       1.0  0.26356  0.39806  0.07979  1.0000
  C   C61       1.0  0.34637  0.40981  0.04748  1.0000
  C   C62       1.0  0.35295  0.42547  0.06466  1.0000
  C   C63       1.0  0.20177  0.46086  0.19867  1.0000
  S   S18       1.0  0.99139  0.26212  0.04559  1.0000
  H   H41       1.0  0.24737  0.44858  0.08117  1.0000
  C   C64       1.0  0.13455  0.22765  0.04606  1.0000
  C   C65       1.0  0.29739  0.25201  0.06604  1.0000
  H   H42       1.0  0.19840  0.40736  0.18654  1.0000
  C   C66       1.0  0.19791  0.34350  0.22536  1.0000
  H   H43       1.0  0.24221  0.40419  0.17907  1.0000
  C   C67       1.0  0.17699  0.29246  0.02077  1.0000
  H   H44       1.0  0.25970  0.33447  0.16545  1.0000
  H   H45       1.0  0.16028  0.27621  0.01341  1.0000
  H   H46       1.0  0.36700  0.19916  0.08389  1.0000
  C   C68       1.0  0.24580  0.42909  0.08299  1.0000
  H   H47       1.0  0.15278  0.35680  0.09309  1.0000
  C   C69       1.0  0.40304  0.46878  0.17192  1.0000
  H   H48       1.0  0.36956  0.42786  0.07387  1.0000
  C   C70       1.0  0.13177  0.37314  0.18522  1.0000
  H   H49       1.0  0.27756  0.26638  0.08580  1.0000
  H   H50       1.0  0.24161  0.33336  0.01321  1.0000
  C   C71       1.0  0.27107  0.43359  0.19852  1.0000
  H   H51       1.0  0.99800  0.34940  0.06584  1.0000
  H   H52       1.0  0.24042  0.46614  0.20658  1.0000
  C   C72       1.0  0.26391  0.42668  0.23319  1.0000
  C   C73       1.0  0.32379  0.27768  0.01886  1.0000
  H   H53       1.0  0.13421  0.26284  0.09437  1.0000
  H   H54       1.0  0.24941  0.35427  0.19430  1.0000
  C   C74       1.0  0.21120  0.32852  0.22896  1.0000
  H   H55       1.0  0.23930  0.34652  0.04766  1.0000
  C   C75       1.0  0.14015  0.35452  0.02705  1.0000
  H   H56       1.0  0.01581  0.30397  0.01573  1.0000
  C   C76       1.0  0.31938  0.18640  0.99292  1.0000
  H   H57       1.0  0.01940  0.27752  0.08281  1.0000
  H   H58       1.0  0.06666  0.46148  0.17562  1.0000
  C   C77       1.0  0.12859  0.34955  0.19319  1.0000
  C   C78       1.0  0.21850  0.13417  0.00026  1.0000
  H   H59       1.0  0.39350  0.28280  0.08971  1.0000
  H   H60       1.0  0.10627  0.34987  0.23031  1.0000
  S   S19       1.0  0.25365  0.02132  0.99773  1.0000
  H   H61       1.0  0.18719  0.22947  0.08337  1.0000
  H   H62       1.0  0.28302  0.44500  0.18669  1.0000
  C   C79       1.0  0.26552  0.47626  0.01269  1.0000
  H   H63       1.0  0.22490  0.32767  0.21869  1.0000
  C   C80       1.0  0.05373  0.32931  0.02907  1.0000
  C   C81       1.0  0.30970  0.41906  0.04138  1.0000
  C   C82       1.0  0.36309  0.26207  0.06766  1.0000
  C   C83       1.0  0.13901  0.28353  0.09393  1.0000
  C   C84       1.0  0.01493  0.29331  0.07891  1.0000
  H   H64       1.0  0.10899  0.33334  0.19449  1.0000
  C   C85       1.0  0.22083  0.38426  0.09375  1.0000
  H   H65       1.0  0.17626  0.34073  0.16575  1.0000
  C   C86       1.0  0.27917  0.44168  0.21797  1.0000
  H   H66       1.0  0.20172  0.29863  0.99606  1.0000
  C   C87       1.0  0.21379  0.45086  0.23045  1.0000
  C   C88       1.0  0.09142  0.28001  0.01410  1.0000
  C   C89       1.0  0.33791  0.43786  0.07026  1.0000
  C   C90       1.0  0.26174  0.44179  0.03450  1.0000
  C   C91       1.0  0.33553  0.30070  0.00814  1.0000
  H   H67       1.0  0.29279  0.41589  0.03234  1.0000
  P   P3        1.0  0.29539  0.44918  0.06663  1.0000
  C   C92       1.0  0.24794  0.41030  0.19425  1.0000
  C   C93       1.0  0.24120  0.33533  0.16584  1.0000
  C   C94       1.0  0.14568  0.29701  0.07627  1.0000
  H   H68       1.0  0.20370  0.36928  0.10060  1.0000
  H   H69       1.0  0.39756  0.30745  0.00639  1.0000
  C   C95       1.0  0.17536  0.29988  0.04021  1.0000
  H   H70       1.0  0.16931  0.34695  0.01260  1.0000
  C   C96       1.0  0.31619  0.43490  0.05863  1.0000
  C   C97       1.0  0.99497  0.31156  0.05663  1.0000
  H   H71       1.0  0.15468  0.33389  0.06245  1.0000
  H   H72       1.0  0.31658  0.26562  0.07206  1.0000
  C   C98       1.0  0.26940  0.21836  0.04221  1.0000
  C   C99       1.0  0.22299  0.32466  0.02055  1.0000
  C   C100      1.0  0.25018  0.23559  0.06620  1.0000
  H   H73       1.0  0.09177  0.24358  0.06135  1.0000
  H   H74       1.0  0.27908  0.39317  0.07596  1.0000
  C   C101      1.0  0.14334  0.32311  0.11090  1.0000
  H   H75       1.0  0.18071  0.26904  0.07954  1.0000
  H   H76       1.0  0.16077  0.18889  0.06297  1.0000
  C   C102      1.0  0.03600  0.31830  0.01320  1.0000
  C   C103      1.0  0.23521  0.34642  0.18223  1.0000
  H   H77       1.0  0.36224  0.27986  0.06340  1.0000
  H   H78       1.0  0.16116  0.45212  0.19473  1.0000
  C   C104      1.0  0.29463  0.23471  0.05022  1.0000
  H   H79       1.0  0.12838  0.45890  0.04735  1.0000
  H   H80       1.0  0.03387  0.31703  0.10517  1.0000
  H   H81       1.0  0.22731  0.12442  0.02885  1.0000
  H   H82       1.0  0.04776  0.12958  0.02381  1.0000
  H   H83       1.0  0.22932  0.31898  0.13656  1.0000
  H   H84       1.0  0.13268  0.28613  0.12478  1.0000
  H   H85       1.0  0.14783  0.32814  0.20484  1.0000
  C   C105      1.0  0.22408  0.32665  0.14950  1.0000
  H   H86       1.0  0.18768  0.32230  0.13684  1.0000
  C   C106      1.0  0.16841  0.25117  0.07103  1.0000
  H   H87       1.0  0.22166  0.07992  0.01873  1.0000
  C   C107      1.0  0.17234  0.22889  0.07308  1.0000
  H   H88       1.0  0.12745  0.18795  0.03885  1.0000
  H   H89       1.0  0.20801  0.41417  0.09641  1.0000
  H   H90       1.0  0.28806  0.17883  0.04384  1.0000
  H   H91       1.0  0.26664  0.20583  0.02941  1.0000
  C   C108      1.0  0.36594  0.21674  0.07932  1.0000
  C   C109      1.0  0.32473  0.40658  0.03586  1.0000
  C   C110      1.0  0.06780  0.26122  0.02160  1.0000
  C   C111      1.0  0.22058  0.45999  0.21147  1.0000
  H   H92       1.0  0.23909  0.35900  0.09007  1.0000
  H   H93       1.0  0.25149  0.42132  0.03855  1.0000
  H   H94       1.0  0.32393  0.31032  0.00353  1.0000
  C   C112      1.0  0.33849  0.26505  0.02509  1.0000
  H   H95       1.0  0.16542  0.12173  0.00629  1.0000
  C   C113      1.0  0.17605  0.36796  0.19759  1.0000
  P   P4        1.0  0.14626  0.28026  0.05372  1.0000
  C   C114      1.0  0.26636  0.42367  0.07745  1.0000
  C   C115      1.0  0.07654  0.46884  0.18974  1.0000
  C   C116      1.0  0.19797  0.31967  0.04982  1.0000
  H   H96       1.0  0.13337  0.30001  0.01733  1.0000
  C   C117      1.0  0.14917  0.25056  0.05773  1.0000
  H   H97       1.0  0.12396  0.33903  0.01877  1.0000
  S   S20       1.0  0.38675  0.47314  0.11689  1.0000
  C   C118      1.0  0.15747  0.20603  0.06159  1.0000
  C   C119      1.0  0.16581  0.35888  0.02359  1.0000
  C   C120      1.0  0.09194  0.25382  0.04812  1.0000
  C   C121      1.0  0.11537  0.28561  0.02351  1.0000
  C   C122      1.0  0.24727  0.21842  0.05043  1.0000
  C   C123      1.0  0.07994  0.34766  0.02604  1.0000
  C   C124      1.0  0.27524  0.25252  0.07392  1.0000
  P   P5        1.0  0.32346  0.23546  0.03921  1.0000
  C   C125      1.0  0.38230  0.24119  0.08843  1.0000
  H   H98       1.0  0.04961  0.23335  0.04416  1.0000
  H   H99       1.0  0.12045  0.22704  0.03505  1.0000
  H   H100      1.0  0.22789  0.20536  0.04428  1.0000
  H   H101      1.0  0.11779  0.19988  0.00119  1.0000
  C   C126      1.0  0.24083  0.37849  0.08785  1.0000
  C   C127      1.0  0.13800  0.29662  0.11120  1.0000
  H   H102      1.0  0.15925  0.41151  0.17582  1.0000
  C   C128      1.0  0.14943  0.33647  0.09331  1.0000
  H   H103      1.0  0.09104  0.28976  0.00072  1.0000
  H   H104      1.0  0.27690  0.08235  0.99578  1.0000
  C   C129      1.0  0.04553  0.39093  0.22831  1.0000
  C   C130      1.0  0.34811  0.21489  0.06438  1.0000
  H   H105      1.0  0.04924  0.25644  0.01410  1.0000
  C   C131      1.0  0.21155  0.34809  0.18272  1.0000
  C   C132      1.0  0.34654  0.23756  0.05840  1.0000
  C   C133      1.0  0.13863  0.20545  0.04806  1.0000
  C   C134      1.0  0.11582  0.27248  0.04057  1.0000
  C   C135      1.0  0.22164  0.33209  0.03996  1.0000
  C   C136      1.0  0.36517  0.27587  0.02043  1.0000
  C   C137      1.0  0.10856  0.21064  0.99455  1.0000
  C   C138      1.0  0.17606  0.45231  0.20478  1.0000
  C   C139      1.0  0.16912  0.44281  0.22362  1.0000
  H   H106      1.0  0.27639  0.13956  0.02233  1.0000
  C   C140      1.0  0.31484  0.20647  0.02347  1.0000
  C   C141      1.0  0.32636  0.20874  0.00515  1.0000
  C   C142      1.0  0.37692  0.29903  0.00981  1.0000
  C   C143      1.0  0.36207  0.31139  0.00359  1.0000
  H   H107      1.0  0.22555  0.46953  0.14701  1.0000
  H   H108      1.0  0.98406  0.31021  0.04322  1.0000
  C   C144      1.0  0.04647  0.13170  0.00816  1.0000
  C   C145      1.0  0.30123  0.16148  0.99907  1.0000
  H   H109      1.0  0.14881  0.43528  0.22755  1.0000
  H   H110      1.0  0.31940  0.39406  0.02271  1.0000
  H   H111      1.0  0.10751  0.37122  0.00436  1.0000
  C   C146      1.0  0.07993  0.46357  0.22455  1.0000
  H   H112      1.0  0.41693  0.44666  0.21415  1.0000
  H   H113      1.0  0.08397  0.13354  0.00298  1.0000
  C   C147      1.0  0.18695  0.37845  0.03439  1.0000
  H   H114      1.0  0.23531  0.43587  0.00991  1.0000
  H   H115      1.0  0.30326  0.26998  0.02234  1.0000
  C   C148      1.0  0.29704  0.18124  0.02969  1.0000
  C   C149      1.0  0.29034  0.15890  0.01753  1.0000
  H   H116      1.0  0.06048  0.48030  0.13345  1.0000
  S   S21       1.0  0.03356  0.20240  0.99080  1.0000
  H   H117      1.0  0.28331  0.46650  0.10499  1.0000
  H   H118      1.0  0.34063  0.22771  0.00019  1.0000
  H   H119      1.0  0.25839  0.48261  0.00009  1.0000
  C   C150      1.0  0.40938  0.48024  0.21221  1.0000
  C   C151      1.0  0.30285  0.48046  0.10088  1.0000
  H   H120      1.0  0.32339  0.00965  0.00699  1.0000
  H   H121      1.0  0.40044  0.46426  0.15630  1.0000
  H   H122      1.0  0.20697  0.46763  0.18389  1.0000
  H   H123      1.0  0.07270  0.45170  0.23738  1.0000
  C   C152      1.0  0.06705  0.13411  0.99624  1.0000
  H   H124      1.0  0.37113  0.32931  0.99533  1.0000
  C   C153      1.0  0.08144  0.20237  0.99704  1.0000
  H   H125      1.0  0.17146  0.48286  0.16320  1.0000
  H   H126      1.0  0.17119  0.35675  0.23759  1.0000
  C   C154      1.0  0.32459  0.99920  0.99393  1.0000
  S   S22       1.0  0.26267  0.23798  0.99125  1.0000
  Fe  Fe11      1.0  0.97562  0.24099  0.01523  1.0000
  C   C155      1.0  0.02455  0.13293  1.00000  1.0000
  C   C156      1.0  0.18096  0.34462  0.23958  1.0000
  H   H127      1.0  0.41188  0.48425  0.22786  1.0000
  H   H128      1.0  0.36228  0.43181  0.23994  1.0000
  H   H129      1.0  0.22878  0.45034  0.23994  1.0000
  C   C157      1.0  0.07003  0.34482  0.99104  1.0000
  H   H130      1.0  0.09881  0.36371  0.29141  1.0000
  H   H131      1.0  0.25964  0.41193  0.29669  1.0000
  H   H132      1.0  0.00514  0.15731  0.47473  1.0000
  C   C158      1.0  0.24440  0.41549  0.28990  1.0000
  P   P6        1.0  0.21667  0.36917  0.40531  1.0000
  H   H133      1.0  0.21977  0.46753  0.35162  1.0000
  H   H134      1.0  0.18214  0.37020  0.43693  1.0000
  H   H135      1.0  0.46353  0.48237  0.24591  1.0000
  C   C159      1.0  0.41746  0.45335  0.28016  1.0000
  Fe  Fe12      1.0  0.23900  0.25151  0.46052  1.0000
  S   S23       1.0  0.24711  0.26904  0.42940  1.0000
  C   C160      1.0  0.14693  0.38867  0.40619  1.0000
  C   C161      1.0  0.14101  0.13718  0.48411  1.0000
  S   S24       1.0  0.19942  0.21605  0.46548  1.0000
  Fe  Fe13      1.0  0.06158  0.40418  0.31634  1.0000
  S   S25       1.0  0.10439  0.43251  0.31516  1.0000
  S   S26       1.0  0.03717  0.39368  0.28765  1.0000
  Fe  Fe14      1.0  0.06391  0.39883  0.36166  1.0000
  S   S27       1.0  0.10723  0.42811  0.36273  1.0000
  S   S28       1.0  0.04775  0.38361  0.39243  1.0000
  Fe  Fe15      1.0  0.09732  0.45247  0.34150  1.0000
  H   H136      1.0  0.22882  0.42215  0.39032  1.0000
  Fe  Fe16      1.0  0.11018  0.40587  0.33624  1.0000
  S   S29       1.0  0.13813  0.38835  0.33173  1.0000
  S   S30       1.0  0.05391  0.42512  0.34213  1.0000
  S   S31       1.0  0.06752  0.37564  0.33579  1.0000
  Fe  Fe17      1.0  0.34756  0.45275  0.33335  1.0000
  S   S32       1.0  0.33952  0.40993  0.32995  1.0000
  H   H137      1.0  0.25297  0.36689  0.37601  1.0000
  Fe  Fe18      1.0  0.28870  0.43591  0.34007  1.0000
  S   S33       1.0  0.27671  0.39271  0.33695  1.0000
  S   S34       1.0  0.26164  0.45426  0.34564  1.0000
  Fe  Fe19      1.0  0.31240  0.40128  0.35600  1.0000
  S   S35       1.0  0.31051  0.37926  0.38490  1.0000
  Fe  Fe20      1.0  0.30404  0.40412  0.31142  1.0000
  S   S36       1.0  0.28721  0.38215  0.28216  1.0000
  S   S37       1.0  0.32319  0.44475  0.36032  1.0000
  S   S38       1.0  0.31330  0.44662  0.31348  1.0000
  C   C162      1.0  0.17237  0.40697  0.33576  1.0000
  C   C163      1.0  0.18855  0.39513  0.33178  1.0000
  C   C164      1.0  0.21592  0.40931  0.33496  1.0000
  C   C165      1.0  0.22731  0.43553  0.34196  1.0000
  C   C166      1.0  0.21107  0.44729  0.34608  1.0000
  C   C167      1.0  0.18365  0.43302  0.34309  1.0000
  H   H138      1.0  0.17990  0.37492  0.32620  1.0000
  H   H139      1.0  0.22822  0.40003  0.33184  1.0000
  C   C168      1.0  0.01410  0.22293  0.42688  1.0000
  H   H140      1.0  0.17125  0.44214  0.34642  1.0000
  C   C169      1.0  0.26430  0.30026  0.41759  1.0000
  C   C170      1.0  0.26113  0.30121  0.39712  1.0000
  C   C171      1.0  0.27469  0.32502  0.38696  1.0000
  C   C172      1.0  0.29183  0.34853  0.39704  1.0000
  C   C173      1.0  0.29488  0.34762  0.41754  1.0000
  C   C174      1.0  0.28116  0.32383  0.42775  1.0000
  H   H141      1.0  0.24831  0.28326  0.38896  1.0000
  H   H142      1.0  0.27243  0.32500  0.37123  1.0000
  H   H143      1.0  0.30812  0.36549  0.42561  1.0000
  H   H144      1.0  0.28396  0.32368  0.44343  1.0000
  H   H145      1.0  0.08157  0.08747  0.39250  1.0000
  C   C175      1.0  0.07115  0.35705  0.47598  1.0000
  C   C176      1.0  0.08319  0.20519  0.49008  1.0000
  C   C177      1.0  0.08425  0.36777  0.45878  1.0000
  C   C178      1.0  0.29369  0.44720  0.40202  1.0000
  C   C179      1.0  0.24112  0.18803  0.43608  1.0000
  H   H146      1.0  0.10897  0.10270  0.42289  1.0000
  C   C180      1.0  0.03116  0.35306  0.40509  1.0000
  C   C181      1.0  0.03141  0.35374  0.42577  1.0000
  C   C182      1.0  0.01904  0.33031  0.43654  1.0000
  C   C183      1.0  0.00571  0.30562  0.42683  1.0000
  C   C184      1.0  0.00520  0.30493  0.40613  1.0000
  C   C185      1.0  0.01792  0.32833  0.39535  1.0000
  H   H147      1.0  0.04137  0.37261  0.43357  1.0000
  C   C186      1.0  0.10280  0.09656  0.39173  1.0000
  H   H148      1.0  0.01729  0.32724  0.37951  1.0000
  C   C187      1.0  0.24140  0.20625  0.42262  1.0000
  C   C188      1.0  0.18711  0.32686  0.37973  1.0000
  H   H149      1.0  0.09922  0.36071  0.43214  1.0000
  H   H150      1.0  0.07365  0.34913  0.37496  1.0000
  C   C189      1.0  0.06760  0.31445  0.46616  1.0000
  C   C190      1.0  0.22065  0.39416  0.28370  1.0000
  H   H151      1.0  0.41536  0.47175  0.30743  1.0000
  C   C191      1.0  0.30262  0.39373  0.25952  1.0000
  C   C192      1.0  0.32944  0.41131  0.25869  1.0000
  C   C193      1.0  0.45268  0.48075  0.25904  1.0000
  H   H152      1.0  0.34115  0.41842  0.27213  1.0000
  C   C194      1.0  0.07812  0.40531  0.26218  1.0000
  C   C195      1.0  0.05117  0.39645  0.26417  1.0000
  C   C196      1.0  0.06297  0.33046  0.47970  1.0000
  H   H153      1.0  0.09091  0.41070  0.27505  1.0000
  S   S39       1.0  0.26630  0.01095  0.48828  1.0000
  C   C197      1.0  0.01766  0.24218  0.41332  1.0000
  C   C198      1.0  0.04004  0.26675  0.41469  1.0000
  C   C199      1.0  0.11524  0.30071  0.44163  1.0000
  C   C200      1.0  0.15361  0.31582  0.46354  1.0000
  C   C201      1.0  0.15608  0.29318  0.45869  1.0000
  C   C202      1.0  0.13863  0.27461  0.44502  1.0000
  C   C203      1.0  0.11838  0.27840  0.43639  1.0000
  H   H154      1.0  0.00266  0.23852  0.40215  1.0000
  H   H155      1.0  0.04183  0.28147  0.40431  1.0000
  H   H156      1.0  0.27144  0.38362  0.41532  1.0000
  H   H157      1.0  0.17123  0.28973  0.46579  1.0000
  H   H158      1.0  0.14052  0.25697  0.44149  1.0000
  H   H159      1.0  0.10482  0.26363  0.42600  1.0000
  H   H160      1.0  0.12535  0.30670  0.40189  1.0000
  P   P7        1.0  0.17893  0.43032  0.26140  1.0000
  H   H161      1.0  0.15105  0.11233  0.35855  1.0000
  H   H162      1.0  0.99489  0.28611  0.39833  1.0000
  H   H163      1.0  0.31473  0.99732  0.28444  1.0000
  C   C204      1.0  0.04979  0.46245  0.27068  1.0000
  H   H164      1.0  0.01954  0.33139  0.45237  1.0000
  H   H165      1.0  0.99633  0.20429  0.42626  1.0000
  C   C205      1.0  0.24825  0.44130  0.28774  1.0000
  C   C206      1.0  0.22687  0.33106  0.46173  1.0000
  H   H166      1.0  0.15254  0.39398  0.37519  1.0000
  H   H167      1.0  0.42522  0.43988  0.25258  1.0000
  C   C207      1.0  0.28779  0.38429  0.24189  1.0000
  C   C208      1.0  0.19578  0.15814  0.42654  1.0000
  C   C209      1.0  0.15543  0.38199  0.42353  1.0000
  H   H168      1.0  0.21778  0.37421  0.28566  1.0000
  C   C210      1.0  0.98862  0.15291  0.46473  1.0000
  C   C211      1.0  0.15907  0.05793  0.45071  1.0000
  H   H169      1.0  0.31253  0.42507  0.41348  1.0000
  H   H170      1.0  0.26709  0.37055  0.24239  1.0000
  H   H171      1.0  0.18933  0.38292  0.37466  1.0000
  C   C212      1.0  0.22849  0.44583  0.27904  1.0000
  C   C213      1.0  0.22709  0.36836  0.44524  1.0000
  C   C214      1.0  0.13325  0.31960  0.45507  1.0000
  C   C215      1.0  0.21830  0.16426  0.43820  1.0000
  H   H172      1.0  0.27670  0.03977  0.30501  1.0000
  H   H173      1.0  0.21152  0.31608  0.41337  1.0000
  C   C216      1.0  0.21986  0.31646  0.44404  1.0000
  H   H174      1.0  0.25839  0.19258  0.44523  1.0000
  C   C217      1.0  0.19032  0.31581  0.26026  1.0000
  C   C218      1.0  0.08859  0.40657  0.24351  1.0000
  C   C219      1.0  0.10370  0.33730  0.36951  1.0000
  C   C220      1.0  0.23120  0.08590  0.48076  1.0000
  C   C221      1.0  0.14967  0.47974  0.28076  1.0000
  H   H175      1.0  0.07141  0.48272  0.36977  1.0000
  C   C222      1.0  0.17291  0.10082  0.43627  1.0000
  H   H176      1.0  0.19338  0.45074  0.30240  1.0000
  C   C223      1.0  0.15004  0.13606  0.44956  1.0000
  S   S40       1.0  0.98895  0.27516  0.43958  1.0000
  H   H177      1.0  0.18768  0.30539  0.27381  1.0000
  H   H178      1.0  0.06709  0.36925  0.48633  1.0000
  C   C224      1.0  0.42564  0.47435  0.29382  1.0000
  C   C225      1.0  0.24559  0.00863  0.28784  1.0000
  C   C226      1.0  0.27003  0.44606  0.39534  1.0000
  C   C227      1.0  0.15402  0.07891  0.44589  1.0000
  C   C228      1.0  0.26758  0.01904  0.30059  1.0000
  H   H179      1.0  0.07362  0.45184  0.28953  1.0000
  H   H180      1.0  0.06911  0.25667  0.45547  1.0000
  C   C229      1.0  0.08057  0.32499  0.44875  1.0000
  C   C230      1.0  0.17992  0.38241  0.38841  1.0000
  H   H181      1.0  0.23765  0.02128  0.28238  1.0000
  H   H182      1.0  0.30956  0.14116  0.47429  1.0000
  Fe  Fe21      1.0  0.22961  0.01557  0.48238  1.0000
  C   C231      1.0  0.13410  0.39209  0.27817  1.0000
  C   C232      1.0  0.27064  0.40105  0.41012  1.0000
  C   C233      1.0  0.18210  0.45951  0.29579  1.0000
  C   C234      1.0  0.43118  0.45644  0.26289  1.0000
  H   H183      1.0  0.27052  0.43254  0.24830  1.0000
  C   C235      1.0  0.17614  0.37547  0.42335  1.0000
  C   C236      1.0  0.13877  0.38405  0.24383  1.0000
  H   H184      1.0  0.06099  0.29388  0.46933  1.0000
  H   H185      1.0  0.25892  0.22499  0.42127  1.0000
  C   C237      1.0  0.07175  0.46791  0.28268  1.0000
  S   S41       1.0  0.97624  0.21278  0.46837  1.0000
  H   H186      1.0  0.21885  0.21549  0.40154  1.0000
  H   H187      1.0  0.06536  0.33160  0.40820  1.0000
  H   H188      1.0  0.21942  0.07968  0.43122  1.0000
  C   C238      1.0  0.14193  0.11054  0.37260  1.0000
  H   H189      1.0  0.21759  0.29649  0.44350  1.0000
  C   C239      1.0  0.21957  0.35365  0.42745  1.0000
  H   H190      1.0  0.26645  0.45775  0.29315  1.0000
  C   C240      1.0  0.24675  0.11064  0.47250  1.0000
  H   H191      1.0  0.26996  0.46327  0.38893  1.0000
  C   C241      1.0  0.19607  0.10045  0.43025  1.0000
  C   C242      1.0  0.20440  0.31363  0.35191  1.0000
  C   C243      1.0  0.22942  0.33418  0.35650  1.0000
  H   H192      1.0  0.20153  0.30052  0.33940  1.0000
  H   H193      1.0  0.24591  0.33686  0.34761  1.0000
  H   H194      1.0  0.34977  0.46815  0.26394  1.0000
  H   H195      1.0  0.17068  0.32361  0.38882  1.0000
  C   C244      1.0  0.21215  0.34776  0.38427  1.0000
  C   C245      1.0  0.29402  0.42462  0.40923  1.0000
  C   C246      1.0  0.11456  0.09923  0.37357  1.0000
  C   C247      1.0  0.15210  0.12928  0.46892  1.0000
  S   S42       1.0  0.23811  0.05869  0.47514  1.0000
  C   C248      1.0  0.34191  0.98477  0.27315  1.0000
  H   H196      1.0  0.18247  0.48001  0.32273  1.0000
  C   C249      1.0  0.08044  0.33012  0.39978  1.0000
  C   C250      1.0  0.21877  0.20077  0.41139  1.0000
  C   C251      1.0  0.20449  0.42447  0.27274  1.0000
  H   H197      1.0  0.23060  0.38872  0.44580  1.0000
  H   H198      1.0  0.22971  0.32229  0.47491  1.0000
  H   H199      1.0  0.21830  0.30385  0.24921  1.0000
  P   P8        1.0  0.16614  0.12782  0.43008  1.0000
  C   C252      1.0  0.05918  0.27225  0.42962  1.0000
  H   H200      1.0  0.13082  0.39367  0.40622  1.0000
  C   C253      1.0  0.13722  0.15141  0.44570  1.0000
  H   H201      1.0  0.16714  0.33009  0.47422  1.0000
  H   H202      1.0  0.16309  0.11872  0.47251  1.0000
  C   C254      1.0  0.18883  0.37601  0.40583  1.0000
  C   C255      1.0  0.03295  0.22817  0.44180  1.0000
  H   H203      1.0  0.35178  0.00201  0.26430  1.0000
  C   C256      1.0  0.14848  0.39993  0.26099  1.0000
  C   C257      1.0  0.15649  0.46379  0.26884  1.0000
  C   C258      1.0  0.03497  0.38957  0.24709  1.0000
  Fe  Fe22      1.0  0.22121  0.20019  0.48511  1.0000
  S   S43       1.0  0.26062  0.23354  0.47782  1.0000
  H   H204      1.0  0.21805  0.15076  0.44913  1.0000
  C   C259      1.0  0.18322  0.30994  0.36355  1.0000
  C   C260      1.0  0.05524  0.25281  0.44336  1.0000
  C   C261      1.0  0.05656  0.47177  0.39863  1.0000
  H   H205      1.0  0.04368  0.46671  0.42833  1.0000
  H   H206      1.0  0.13133  0.33698  0.45931  1.0000
  H   H207      1.0  0.25420  0.15127  0.46941  1.0000
  C   C262      1.0  0.24180  0.13254  0.47585  1.0000
  S   S44       1.0  0.23653  0.27465  0.48660  1.0000
  C   C263      1.0  0.14591  0.11722  0.40799  1.0000
  C   C264      1.0  0.17693  0.33056  0.25682  1.0000
  H   H208      1.0  0.16385  0.29390  0.36007  1.0000
  C   C265      1.0  0.19596  0.17682  0.41336  1.0000
  H   H209      1.0  0.10701  0.34466  0.35477  1.0000
  H   H210      1.0  0.17844  0.17322  0.40490  1.0000
  C   C266      1.0  0.11398  0.31593  0.39626  1.0000
  H   H211      1.0  0.13296  0.32381  0.36832  1.0000
  C   C267      1.0  0.08491  0.33980  0.38085  1.0000
  C   C268      1.0  0.23046  0.35700  0.46234  1.0000
  C   C269      1.0  0.24662  0.42247  0.39607  1.0000
  C   C270      1.0  0.23335  0.35122  0.37263  1.0000
  C   C271      1.0  0.24667  0.39984  0.40381  1.0000
  H   H212      1.0  0.40072  0.43458  0.28316  1.0000
  C   C272      1.0  0.08911  0.35189  0.44530  1.0000
  C   C273      1.0  0.12600  0.15919  0.46092  1.0000
  C   C274      1.0  0.10998  0.36921  0.27811  1.0000
  C   C275      1.0  0.20067  0.39859  0.27531  1.0000
  P   P9        1.0  0.08767  0.30442  0.43184  1.0000
  H   H213      1.0  0.01106  0.15779  0.43884  1.0000
  H   H214      1.0  0.26268  0.11280  0.46323  1.0000
  C   C276      1.0  0.09495  0.31821  0.40771  1.0000
  C   C277      1.0  0.21624  0.32765  0.42694  1.0000
  C   C278      1.0  0.11827  0.32543  0.37720  1.0000
  H   H215      1.0  0.14130  0.40383  0.29164  1.0000
  C   C279      1.0  0.12785  0.15201  0.48013  1.0000
  H   H216      1.0  0.31190  0.46529  0.40086  1.0000
  C   C280      1.0  0.05280  0.48074  0.41691  1.0000
  C   C281      1.0  0.15918  0.38886  0.38865  1.0000
  C   C282      1.0  0.20105  0.07943  0.43509  1.0000
  H   H217      1.0  0.16380  0.33150  0.26769  1.0000
  C   C283      1.0  0.15757  0.11934  0.38976  1.0000
  H   H218      1.0  0.13637  0.15782  0.43100  1.0000
  H   H219      1.0  0.23616  0.36841  0.47601  1.0000
  H   H220      1.0  0.01406  0.38270  0.24842  1.0000
  C   C284      1.0  0.20749  0.31486  0.24636  1.0000
  C   C285      1.0  0.04684  0.48311  0.26224  1.0000
  H   H221      1.0  0.09025  0.38830  0.45572  1.0000
  H   H222      1.0  0.14614  0.38209  0.43717  1.0000
  C   C286      1.0  0.17300  0.45369  0.27615  1.0000
  H   H223      1.0  0.11641  0.17130  0.45793  1.0000
  H   H224      1.0  0.10246  0.09231  0.36027  1.0000
  H   H225      1.0  0.17874  0.12768  0.38883  1.0000
  C   C287      1.0  0.11840  0.10537  0.40892  1.0000
  C   C288      1.0  0.27792  0.00276  0.30755  1.0000
  C   C289      1.0  0.09997  0.35401  0.26085  1.0000
  H   H226      1.0  0.21049  0.11646  0.42206  1.0000
  H   H227      1.0  0.18224  0.38180  0.27104  1.0000
  C   C290      1.0  0.17563  0.47589  0.30755  1.0000
  C   C291      1.0  0.18269  0.05832  0.44547  1.0000
  H   H228      1.0  0.13554  0.07820  0.44996  1.0000
  H   H229      1.0  0.29515  0.01120  0.31727  1.0000
  H   H230      1.0  0.03482  0.44211  0.26828  1.0000
  H   H231      1.0  0.08081  0.33682  0.26066  1.0000
  H   H232      1.0  0.02989  0.21341  0.45255  1.0000
  H   H233      1.0  0.23180  0.46597  0.27746  1.0000
  C   C292      1.0  0.99193  0.15321  0.44449  1.0000
  H   H234      1.0  0.06967  0.18459  0.48707  1.0000
  H   H235      1.0  0.05052  0.45090  0.39590  1.0000
  Fe  Fe23      1.0  0.98218  0.25487  0.46971  1.0000
  H   H236      1.0  0.18699  0.04242  0.44966  1.0000
  H   H237      1.0  0.11788  0.19923  0.48826  1.0000
  C   C293      1.0  0.11441  0.36135  0.24376  1.0000
  H   H238      1.0  0.29588  0.35846  0.48424  1.0000
  H   H239      1.0  0.10933  0.41299  0.24235  1.0000
  H   H240      1.0  0.14800  0.45873  0.25420  1.0000
  H   H241      1.0  0.32616  0.26278  0.48963  1.0000
  H   H242      1.0  0.14486  0.04146  0.45871  1.0000
  C   C294      1.0  0.22054  0.13000  0.48710  1.0000
  H   H243      1.0  0.46479  0.39539  0.48706  1.0000
  H   H244      1.0  0.37496  0.28620  0.48983  1.0000
  H   H245      1.0  0.02916  0.47855  0.25360  1.0000
  C   C295      1.0  0.31119  0.14171  0.49013  1.0000
  H   H246      1.0  0.22980  0.39182  0.24105  1.0000
  C   C296      1.0  0.34135  0.41892  0.24042  1.0000
  C   C297      1.0  0.35726  0.22049  0.58951  1.0000
  C   C298      1.0  0.21044  0.08357  0.49252  1.0000
  H   H247      1.0  0.37007  0.01792  0.60861  1.0000
  H   H248      1.0  0.46735  0.34542  0.57865  1.0000
  H   H249      1.0  0.21888  0.18373  0.54647  1.0000
  Fe  Fe24      1.0  0.40480  0.32398  0.66994  1.0000
  S   S45       1.0  0.43296  0.30951  0.65928  1.0000
  S   S46       1.0  0.41388  0.34094  0.70145  1.0000
  Fe  Fe25      1.0  0.37769  0.31538  0.62826  1.0000
  S   S47       1.0  0.40521  0.30167  0.61558  1.0000
  S   S48       1.0  0.34230  0.31376  0.61039  1.0000
  Fe  Fe26      1.0  0.39801  0.27796  0.64276  1.0000
  S   S49       1.0  0.38080  0.23331  0.64156  1.0000
  Fe  Fe27      1.0  0.43774  0.33521  0.63343  1.0000
  C   C299      1.0  0.42823  0.06074  0.58267  1.0000
  S   S50       1.0  0.36940  0.29061  0.65514  1.0000
  S   S51       1.0  0.41059  0.35075  0.64439  1.0000
  Fe  Fe28      1.0  0.39170  0.07765  0.62348  1.0000
  S   S52       1.0  0.43524  0.10609  0.62233  1.0000
  S   S53       1.0  0.36909  0.06802  0.59348  1.0000
  Fe  Fe29      1.0  0.39560  0.07634  0.66881  1.0000
  S   S54       1.0  0.43860  0.10462  0.67054  1.0000
  S   S55       1.0  0.37199  0.05690  0.69563  1.0000
  Fe  Fe30      1.0  0.42841  0.12707  0.64811  1.0000
  S   S56       1.0  0.44809  0.17173  0.65077  1.0000
  Fe  Fe31      1.0  0.44215  0.08143  0.64481  1.0000
  C   C300      1.0  0.33742  0.25544  0.49814  1.0000
  S   S57       1.0  0.38495  0.10053  0.64819  1.0000
  S   S58       1.0  0.39918  0.05130  0.64421  1.0000
  S   S59       1.0  0.21657  0.22143  0.51203  1.0000
  H   H250      1.0  0.05278  0.32216  0.49304  1.0000
  Fe  Fe32      1.0  0.25578  0.25487  0.50449  1.0000
  S   S60       1.0  0.29453  0.27397  0.52321  1.0000
  C   C301      1.0  0.45347  0.36168  0.52951  1.0000
  C   C302      1.0  0.32836  0.29911  0.58681  1.0000
  C   C303      1.0  0.30204  0.29292  0.58221  1.0000
  C   C304      1.0  0.29101  0.28417  0.56313  1.0000
  C   C305      1.0  0.30625  0.28178  0.54820  1.0000
  C   C306      1.0  0.33223  0.28686  0.55299  1.0000
  C   C307      1.0  0.34320  0.29539  0.57212  1.0000
  H   H251      1.0  0.29024  0.29549  0.59344  1.0000
  H   H252      1.0  0.27094  0.27991  0.55987  1.0000
  H   H253      1.0  0.34413  0.28463  0.54171  1.0000
  H   H254      1.0  0.36342  0.30002  0.57534  1.0000
  C   C308      1.0  0.39995  0.21686  0.64501  1.0000
  C   C309      1.0  0.38718  0.18920  0.64571  1.0000
  C   C310      1.0  0.40172  0.17521  0.64793  1.0000
  C   C311      1.0  0.42918  0.18877  0.64910  1.0000
  C   C312      1.0  0.44194  0.21649  0.64876  1.0000
  C   C313      1.0  0.42737  0.23055  0.64672  1.0000
  H   H255      1.0  0.41134  0.25496  0.68126  1.0000
  H   H256      1.0  0.39170  0.15395  0.64858  1.0000
  C   C314      1.0  0.45001  0.30363  0.58244  1.0000
  H   H257      1.0  0.43734  0.25189  0.64622  1.0000
  C   C315      1.0  0.09106  0.24975  0.49741  1.0000
  C   C316      1.0  0.11854  0.25790  0.49831  1.0000
  C   C317      1.0  0.37753  0.19611  0.57431  1.0000
  H   H258      1.0  0.13204  0.27841  0.50166  1.0000
  C   C318      1.0  0.35415  0.11350  0.68859  1.0000
  C   C319      1.0  0.20508  0.10531  0.49550  1.0000
  C   C320      1.0  0.19827  0.33358  0.55709  1.0000
  H   H259      1.0  0.40055  0.26950  0.50970  1.0000
  C   C321      1.0  0.29197  0.01323  0.55824  1.0000
  C   C322      1.0  0.31350  0.03317  0.54909  1.0000
  C   C323      1.0  0.33685  0.04950  0.56005  1.0000
  C   C324      1.0  0.33906  0.04649  0.58036  1.0000
  C   C325      1.0  0.31744  0.02673  0.58946  1.0000
  C   C326      1.0  0.29423  0.01022  0.57851  1.0000
  H   H260      1.0  0.31852  0.02417  0.60497  1.0000
  H   H261      1.0  0.42801  0.26135  0.58413  1.0000
  C   C327      1.0  0.40654  0.09283  0.72354  1.0000
  C   C328      1.0  0.38373  0.06900  0.71991  1.0000
  C   C329      1.0  0.40978  0.26527  0.71152  1.0000
  H   H262      1.0  0.41757  0.10425  0.71142  1.0000
  C   C330      1.0  0.18188  0.34548  0.55935  1.0000
  H   H263      1.0  0.22758  0.40704  0.57462  1.0000
  C   C331      1.0  0.40239  0.32616  0.72435  1.0000
  H   H264      1.0  0.31227  0.03580  0.53353  1.0000
  H   H265      1.0  0.36527  0.29530  0.71342  1.0000
  H   H266      1.0  0.35312  0.36637  0.55557  1.0000
  H   H267      1.0  0.39457  0.01030  0.53864  1.0000
  H   H268      1.0  0.43103  0.08031  0.57922  1.0000
  H   H269      1.0  0.44446  0.39450  0.61729  1.0000
  C   C332      1.0  0.36615  0.23668  0.52060  1.0000
  C   C333      1.0  0.35162  0.34327  0.52988  1.0000
  C   C334      1.0  0.40514  0.03853  0.57639  1.0000
  H   H270      1.0  0.35520  0.32036  0.50586  1.0000
  H   H271      1.0  0.43738  0.35439  0.73987  1.0000
  H   H272      1.0  0.30296  0.22289  0.50858  1.0000
  C   C335      1.0  0.36325  0.35779  0.54715  1.0000
  H   H273      1.0  0.46319  0.22710  0.64979  1.0000
  H   H274      1.0  0.35338  0.06454  0.55270  1.0000
  H   H275      1.0  0.33226  0.34012  0.52514  1.0000
  H   H276      1.0  0.34066  0.00909  0.63632  1.0000
  C   C336      1.0  0.36968  0.05449  0.73594  1.0000
  H   H277      1.0  0.42733  0.04434  0.68205  1.0000
  C   C337      1.0  0.28902  0.19031  0.54015  1.0000
  C   C338      1.0  0.46029  0.06159  0.70249  1.0000
  H   H278      1.0  0.47412  0.07182  0.69122  1.0000
  C   C339      1.0  0.35475  0.16251  0.69359  1.0000
  H   H279      1.0  0.38897  0.21553  0.60279  1.0000
  H   H280      1.0  0.39512  0.02098  0.70752  1.0000
  H   H281      1.0  0.37763  0.22959  0.52901  1.0000
  C   C340      1.0  0.43079  0.32478  0.56171  1.0000
  C   C341      1.0  0.33843  0.14446  0.67909  1.0000
  H   H282      1.0  0.39212  0.18903  0.57476  1.0000
  S   S61       1.0  0.47170  0.06488  0.64633  1.0000
  C   C342      1.0  0.36334  0.00524  0.51850  1.0000
  H   H283      1.0  0.35631  0.23253  0.60170  1.0000
  H   H284      1.0  0.25914  0.37745  0.53189  1.0000
  H   H285      1.0  0.31427  0.14230  0.54691  1.0000
  C   C343      1.0  0.12869  0.23983  0.49509  1.0000
  C   C344      1.0  0.37763  0.30444  0.72632  1.0000
  C   C345      1.0  0.40081  0.01310  0.58136  1.0000
  H   H286      1.0  0.30237  0.34331  0.56020  1.0000
  H   H287      1.0  0.39393  0.29785  0.54701  1.0000
  H   H288      1.0  0.47429  0.34000  0.53862  1.0000
  H   H289      1.0  0.14337  0.13243  0.49907  1.0000
  C   C346      1.0  0.40982  0.29984  0.55675  1.0000
  C   C347      1.0  0.38776  0.36093  0.55377  1.0000
  C   C348      1.0  0.40103  0.34981  0.54294  1.0000
  H   H290      1.0  0.22422  0.14579  0.53334  1.0000
  H   H291      1.0  0.26816  0.14974  0.52880  1.0000
  H   H292      1.0  0.25825  0.22629  0.55480  1.0000
  Fe  Fe33      1.0  0.00517  0.22484  0.49423  1.0000
  C   C349      1.0  0.28571  0.21182  0.54726  1.0000
  C   C350      1.0  0.24142  0.16398  0.53781  1.0000
  P   P10       1.0  0.32162  0.19442  0.53514  1.0000
  H   H293      1.0  0.35202  0.03602  0.73330  1.0000
  C   C351      1.0  0.26657  0.16638  0.53526  1.0000
  C   C352      1.0  0.37582  0.21108  0.59010  1.0000
  H   H294      1.0  0.32559  0.10600  0.66530  1.0000
  H   H295      1.0  0.36596  0.17856  0.64452  1.0000
  C   C353      1.0  0.37157  0.15648  0.70528  1.0000
  C   C354      1.0  0.36462  0.33212  0.51901  1.0000
  H   H296      1.0  0.30253  0.23088  0.55004  1.0000
  H   H297      1.0  0.16093  0.33411  0.55622  1.0000
  H   H298      1.0  0.98035  0.31041  0.57570  1.0000
  C   C355      1.0  0.23840  0.18542  0.54509  1.0000
  P   P11       1.0  0.36983  0.98470  0.57478  1.0000
  C   C356      1.0  0.43908  0.37741  0.58811  1.0000
  C   C357      1.0  0.34013  0.21467  0.57324  1.0000
  H   H299      1.0  0.32604  0.14953  0.66981  1.0000
  H   H300      1.0  0.18859  0.10284  0.50424  1.0000
  C   C358      1.0  0.40843  0.24814  0.69616  1.0000
  C   C359      1.0  0.46870  0.06397  0.72212  1.0000
  H   H301      1.0  0.45749  0.03049  0.60829  1.0000
  C   C360      1.0  0.34167  0.19961  0.55722  1.0000
  C   C361      1.0  0.30861  0.11936  0.52037  1.0000
  H   H302      1.0  0.36311  0.17971  0.54556  1.0000
  C   C362      1.0  0.40890  0.27705  0.56475  1.0000
  C   C363      1.0  0.43519  0.17735  0.70519  1.0000
  C   C364      1.0  0.33853  0.22341  0.52063  1.0000
  H   H303      1.0  0.43745  0.38559  0.51630  1.0000
  C   C365      1.0  0.36074  0.19059  0.55787  1.0000
  C   C366      1.0  0.44300  0.03259  0.59907  1.0000
  C   C367      1.0  0.26562  0.36417  0.52530  1.0000
  C   C368      1.0  0.31829  0.16563  0.52132  1.0000
  C   C369      1.0  0.37350  0.00261  0.53664  1.0000
  H   H304      1.0  0.39906  0.32657  0.51692  1.0000
  H   H305      1.0  0.27782  0.99501  0.58587  1.0000
  H   H306      1.0  0.08386  0.26398  0.50009  1.0000
  C   C370      1.0  0.26054  0.20935  0.54980  1.0000
  C   C371      1.0  0.37924  0.25931  0.50959  1.0000
  C   C372      1.0  0.33820  0.12000  0.67653  1.0000
  H   H307      1.0  0.42343  0.17283  0.69173  1.0000
  H   H308      1.0  0.32821  0.99687  0.50139  1.0000
  H   H309      1.0  0.28050  0.38822  0.50000  1.0000
  C   C373      1.0  0.31400  0.14255  0.53106  1.0000
  C   C374      1.0  0.40339  0.22227  0.69997  1.0000
  H   H310      1.0  0.40304  0.20952  0.68787  1.0000
  C   C375      1.0  0.42536  0.18102  0.72306  1.0000
  C   C376      1.0  0.28345  0.33099  0.50770  1.0000
  H   H311      1.0  0.42360  0.35849  0.59239  1.0000
  C   C377      1.0  0.25513  0.10076  0.55570  1.0000
  C   C378      1.0  0.25035  0.07779  0.54494  1.0000
  C   C379      1.0  0.26264  0.06271  0.55065  1.0000
  C   C380      1.0  0.27980  0.07067  0.56701  1.0000
  C   C381      1.0  0.28478  0.09372  0.57788  1.0000
  C   C382      1.0  0.27241  0.10884  0.57206  1.0000
  P   P12       1.0  0.30720  0.10358  0.59892  1.0000
  C   C383      1.0  0.29973  0.07482  0.61339  1.0000
  C   C384      1.0  0.34102  0.11804  0.59131  1.0000
  C   C385      1.0  0.34714  0.11375  0.57216  1.0000
  C   C386      1.0  0.37338  0.12403  0.56671  1.0000
  C   C387      1.0  0.39370  0.13859  0.58032  1.0000
  C   C388      1.0  0.38783  0.14332  0.59929  1.0000
  C   C389      1.0  0.36164  0.13322  0.60475  1.0000
  C   C390      1.0  0.31925  0.07365  0.62537  1.0000
  C   C391      1.0  0.31321  0.05215  0.63740  1.0000
  C   C392      1.0  0.28766  0.03135  0.63730  1.0000
  C   C393      1.0  0.26809  0.03216  0.62528  1.0000
  C   C394      1.0  0.27401  0.05387  0.61349  1.0000
  C   C395      1.0  0.30263  0.12723  0.61430  1.0000
  C   C396      1.0  0.31801  0.15448  0.61184  1.0000
  C   C397      1.0  0.31539  0.17275  0.62439  1.0000
  C   C398      1.0  0.29695  0.16401  0.63914  1.0000
  C   C399      1.0  0.28106  0.13695  0.64137  1.0000
  C   C400      1.0  0.28389  0.11860  0.62903  1.0000
  H   H312      1.0  0.24534  0.11222  0.55134  1.0000
  H   H313      1.0  0.23717  0.07164  0.53214  1.0000
  H   H314      1.0  0.25887  0.04476  0.54241  1.0000
  H   H315      1.0  0.28915  0.05878  0.57128  1.0000
  H   H316      1.0  0.27597  0.12677  0.58011  1.0000
  H   H317      1.0  0.33189  0.10178  0.56154  1.0000
  H   H318      1.0  0.37795  0.11982  0.55215  1.0000
  H   H319      1.0  0.41402  0.14574  0.57632  1.0000
  H   H320      1.0  0.40366  0.15429  0.60991  1.0000
  H   H321      1.0  0.35752  0.13672  0.61964  1.0000
  H   H322      1.0  0.33922  0.08913  0.62530  1.0000
  H   H323      1.0  0.32851  0.05141  0.64653  1.0000
  H   H324      1.0  0.28311  0.01453  0.64641  1.0000
  H   H325      1.0  0.24833  0.01591  0.62503  1.0000
  H   H326      1.0  0.25845  0.05424  0.60451  1.0000
  H   H327      1.0  0.33230  0.16168  0.60043  1.0000
  H   H328      1.0  0.32792  0.19375  0.62292  1.0000
  H   H329      1.0  0.29512  0.17829  0.64887  1.0000
  H   H330      1.0  0.26670  0.13020  0.65278  1.0000
  H   H331      1.0  0.27151  0.09775  0.63110  1.0000
  H   H332      1.0  0.25678  0.38638  0.57056  1.0000
  H   H333      1.0  0.39610  0.37197  0.56733  1.0000
  C   C401      1.0  0.43385  0.04590  0.69724  1.0000
  C   C402      1.0  0.27119  0.32462  0.52576  1.0000
  C   C403      1.0  0.26196  0.34103  0.53464  1.0000
  C   C404      1.0  0.21941  0.38653  0.56971  1.0000
  P   P13       1.0  0.24702  0.33311  0.55835  1.0000
  C   C405      1.0  0.22823  0.29761  0.55995  1.0000
  C   C406      1.0  0.27210  0.34540  0.57767  1.0000
  C   C407      1.0  0.26584  0.35038  0.59661  1.0000
  C   C408      1.0  0.28449  0.35783  0.61202  1.0000
  C   C409      1.0  0.30943  0.36017  0.60868  1.0000
  C   C410      1.0  0.31585  0.35540  0.58990  1.0000
  C   C411      1.0  0.29729  0.34801  0.57442  1.0000
  C   C412      1.0  0.21229  0.28239  0.54400  1.0000
  C   C413      1.0  0.19717  0.25507  0.54543  1.0000
  C   C414      1.0  0.19840  0.24257  0.56251  1.0000
  C   C415      1.0  0.21447  0.25746  0.57834  1.0000
  C   C416      1.0  0.22917  0.28489  0.57717  1.0000
  C   C417      1.0  0.22543  0.34808  0.56121  1.0000
  C   C418      1.0  0.32427  0.23280  0.50909  1.0000
  H   H334      1.0  0.33488  0.35621  0.58767  1.0000
  P   P14       1.0  0.39334  0.17972  0.72376  1.0000
  C   C419      1.0  0.23587  0.37471  0.56745  1.0000
  H   H335      1.0  0.39238  0.25797  0.56128  1.0000
  H   H336      1.0  0.35420  0.18112  0.69551  1.0000
  C   C420      1.0  0.35297  0.99880  0.60927  1.0000
  H   H337      1.0  0.26894  0.30686  0.53274  1.0000
  H   H338      1.0  0.41377  0.28536  0.70849  1.0000
  H   H339      1.0  0.24630  0.34774  0.59964  1.0000
  H   H340      1.0  0.27945  0.36115  0.62668  1.0000
  H   H341      1.0  0.32365  0.36498  0.62072  1.0000
  H   H342      1.0  0.45890  0.23738  0.70851  1.0000
  C   C421      1.0  0.44781  0.38126  0.56878  1.0000
  H   H343      1.0  0.21117  0.29160  0.53051  1.0000
  H   H344      1.0  0.18445  0.24351  0.53325  1.0000
  H   H345      1.0  0.18684  0.22134  0.56343  1.0000
  H   H346      1.0  0.21554  0.24777  0.59157  1.0000
  H   H347      1.0  0.24143  0.29589  0.58967  1.0000
  C   C422      1.0  0.45095  0.32644  0.57453  1.0000
  C   C423      1.0  0.45074  0.39782  0.60227  1.0000
  C   C424      1.0  0.42899  0.27892  0.57758  1.0000
  C   C425      1.0  0.45080  0.04993  0.73658  1.0000
  H   H348      1.0  0.32621  0.22248  0.57323  1.0000
  S   S62       1.0  0.01143  0.26687  0.49511  1.0000
  H   H349      1.0  0.29043  0.31809  0.50096  1.0000
  C   C426      1.0  0.28658  0.35375  0.49833  1.0000
  C   C427      1.0  0.44713  0.05779  0.59405  1.0000
  H   H350      1.0  0.31877  0.18209  0.49289  1.0000
  C   C428      1.0  0.46880  0.25658  0.71592  1.0000
  C   C429      1.0  0.45118  0.37753  0.51488  1.0000
  H   H351      1.0  0.38312  0.12627  0.71202  1.0000
  C   C430      1.0  0.38928  0.33544  0.52545  1.0000
  C   C431      1.0  0.33620  0.99491  0.51542  1.0000
  H   H352      1.0  0.41702  0.99111  0.59726  1.0000
  H   H353      1.0  0.18951  0.31310  0.55218  1.0000
  C   C432      1.0  0.35658  0.98997  0.55198  1.0000
  C   C433      1.0  0.47181  0.35194  0.52747  1.0000
  C   C434      1.0  0.41995  0.01031  0.59278  1.0000
  S   S63       1.0  0.20815  0.99189  0.50835  1.0000
  S   S64       1.0  0.03773  0.21101  0.49310  1.0000
  P   P15       1.0  0.43320  0.35439  0.55077  1.0000
  C   C435      1.0  0.46064  0.17997  0.70446  1.0000
  H   H354      1.0  0.44347  0.40672  0.73042  1.0000
  C   C436      1.0  0.37083  0.13166  0.70287  1.0000
  C   C437      1.0  0.39886  0.21300  0.71916  1.0000
  C   C438      1.0  0.41577  0.03254  0.71158  1.0000
  S   S65       1.0  0.16382  0.25122  0.49711  1.0000
  C   C439      1.0  0.19242  0.37191  0.56568  1.0000
  C   C440      1.0  0.33621  0.99389  0.62503  1.0000
  C   C441      1.0  0.30697  0.11886  0.49992  1.0000
  H   H355      1.0  0.35370  0.09439  0.68685  1.0000
  C   C442      1.0  0.42412  0.03453  0.73117  1.0000
  H   H356      1.0  0.39031  0.04133  0.56821  1.0000
  C   C443      1.0  0.27778  0.37040  0.50718  1.0000
  H   H357      1.0  0.46475  0.07502  0.59939  1.0000
  S   S66       1.0  0.26185  0.99159  0.54537  1.0000
  H   H358      1.0  0.37648  0.01517  0.50678  1.0000
  Fe  Fe34      1.0  0.19719  0.23923  0.49188  1.0000
  H   H359      1.0  0.30508  0.10152  0.52789  1.0000
  H   H360      1.0  0.17964  0.38104  0.56748  1.0000
  C   C444      1.0  0.31659  0.16495  0.50076  1.0000
  C   C445      1.0  0.36488  0.26871  0.49839  1.0000
  H   H361      1.0  0.19808  0.06479  0.49893  1.0000
  Fe  Fe35      1.0  0.24473  0.98683  0.51372  1.0000
  S   S67       1.0  0.97667  0.27731  0.54218  1.0000
  C   C446      1.0  0.40625  0.25658  0.73075  1.0000
  C   C447      1.0  0.47148  0.42203  0.59739  1.0000
  C   C448      1.0  0.40120  0.23066  0.73463  1.0000
  C   C449      1.0  0.07300  0.22316  0.49352  1.0000
  C   C450      1.0  0.46755  0.25884  0.73627  1.0000
  H   H362      1.0  0.30189  0.10061  0.49165  1.0000
  H   H363      1.0  0.46811  0.17726  0.69056  1.0000
  Fe  Fe36      1.0  0.97599  0.25246  0.51479  1.0000
  H   H364      1.0  0.46529  0.30531  0.59282  1.0000
  C   C451      1.0  0.46671  0.38322  0.49833  1.0000
  C   C452      1.0  0.46845  0.40581  0.56389  1.0000
  H   H365      1.0  0.98286  0.33319  0.54032  1.0000
  C   C453      1.0  0.46687  0.19016  0.73931  1.0000
  C   C454      1.0  0.11065  0.21342  0.49075  1.0000
  C   C455      1.0  0.44145  0.18762  0.74009  1.0000
  S   S68       1.0  0.21188  0.15647  0.49071  1.0000
  H   H366      1.0  0.11960  0.15837  0.49201  1.0000
  H   H367      1.0  0.23150  0.09998  0.90774  1.0000
  H   H368      1.0  0.26855  0.99020  0.91338  1.0000
  S   S69       1.0  0.28850  0.01420  0.95299  1.0000
  C   C456      1.0  0.19863  0.02991  0.92944  1.0000
  H   H369      1.0  0.07421  0.24848  0.97067  1.0000
  C   C457      1.0  0.36501  0.15862  0.94489  1.0000
  Fe  Fe37      1.0  0.44073  0.35659  0.83703  1.0000
  S   S70       1.0  0.39689  0.34334  0.83559  1.0000
  C   C458      1.0  0.24369  0.05868  0.92047  1.0000
  Fe  Fe38      1.0  0.43118  0.29928  0.83962  1.0000
  S   S71       1.0  0.38723  0.28222  0.83817  1.0000
  S   S72       1.0  0.45333  0.27518  0.83960  1.0000
  Fe  Fe39      1.0  0.39451  0.31145  0.81429  1.0000
  S   S73       1.0  0.37062  0.29668  0.78555  1.0000
  Fe  Fe40      1.0  0.39307  0.31503  0.85970  1.0000
  S   S74       1.0  0.37246  0.31014  0.88944  1.0000
  S   S75       1.0  0.43790  0.32613  0.81448  1.0000
  S   S76       1.0  0.43731  0.33076  0.86239  1.0000
  Fe  Fe41      1.0  0.40283  0.12368  0.85129  1.0000
  S   S77       1.0  0.37149  0.08992  0.83381  1.0000
  S   S78       1.0  0.39018  0.15447  0.86018  1.0000
  Fe  Fe42      1.0  0.43965  0.09761  0.85151  1.0000
  S   S79       1.0  0.40982  0.06170  0.83457  1.0000
  Fe  Fe43      1.0  0.40409  0.09078  0.81538  1.0000
  S   S80       1.0  0.41243  0.10104  0.78302  1.0000
  Fe  Fe44      1.0  0.37956  0.06426  0.85489  1.0000
  S   S81       1.0  0.34329  0.03041  0.86884  1.0000
  S   S82       1.0  0.43492  0.12643  0.83192  1.0000
  S   S83       1.0  0.41001  0.09829  0.87292  1.0000
  H   H370      1.0  0.21891  0.99911  0.89575  1.0000
  H   H371      1.0  0.29061  0.99675  0.88141  1.0000
  Fe  Fe45      1.0  0.24478  0.24341  0.96320  1.0000
  S   S84       1.0  0.26212  0.24675  0.93236  1.0000
  C   C459      1.0  0.33178  0.36490  0.90472  1.0000
  H   H372      1.0  0.38777  0.25688  0.79338  1.0000
  S   S85       1.0  0.20511  0.20792  0.96750  1.0000
  S   S86       1.0  0.23193  0.27117  0.97775  1.0000
  H   H373      1.0  0.38103  0.02198  0.79931  1.0000
  H   H374      1.0  0.32502  0.27915  0.83771  1.0000
  C   C460      1.0  0.34548  0.22694  0.87658  1.0000
  H   H375      1.0  0.36708  0.13520  0.89909  1.0000
  C   C461      1.0  0.31839  0.35368  0.92177  1.0000
  C   C462      1.0  0.23691  0.13666  0.92103  1.0000
  C   C463      1.0  0.11089  0.24655  0.97526  1.0000
  C   C464      1.0  0.36274  0.18119  0.93992  1.0000
  C   C465      1.0  0.33093  0.31693  0.84931  1.0000
  C   C466      1.0  0.43333  0.00304  0.77938  1.0000
  H   H376      1.0  0.32286  0.29051  0.80308  1.0000
  H   H377      1.0  0.32571  0.36373  0.93585  1.0000
  C   C467      1.0  0.40085  0.08774  0.75898  1.0000
  C   C468      1.0  0.29956  0.32749  0.88548  1.0000
  C   C469      1.0  0.37824  0.06372  0.75540  1.0000
  C   C470      1.0  0.32672  0.29831  0.83428  1.0000
  H   H378      1.0  0.36719  0.05242  0.76757  1.0000
  C   C471      1.0  0.38382  0.30753  0.76211  1.0000
  C   C472      1.0  0.27382  0.15812  0.94395  1.0000
  C   C473      1.0  0.40898  0.32852  0.76007  1.0000
  Fe  Fe46      1.0  0.19349  0.23556  0.98423  1.0000
  H   H379      1.0  0.42108  0.33811  0.77299  1.0000
  C   C474      1.0  0.34174  0.29159  0.90117  1.0000
  C   C475      1.0  0.33939  0.29774  0.92091  1.0000
  C   C476      1.0  0.31545  0.28420  0.93076  1.0000
  C   C477      1.0  0.29333  0.26418  0.92100  1.0000
  C   C478      1.0  0.29579  0.25781  0.90133  1.0000
  C   C479      1.0  0.31974  0.27131  0.89151  1.0000
  H   H380      1.0  0.35619  0.31332  0.92862  1.0000
  H   H381      1.0  0.31406  0.28944  0.94584  1.0000
  H   H382      1.0  0.27896  0.24234  0.89357  1.0000
  H   H383      1.0  0.32109  0.26612  0.87642  1.0000
  C   C480      1.0  0.43497  0.24110  0.84360  1.0000
  C   C481      1.0  0.40897  0.23044  0.84958  1.0000
  C   C482      1.0  0.39522  0.20364  0.85404  1.0000
  C   C483      1.0  0.40732  0.18723  0.85248  1.0000
  C   C484      1.0  0.43305  0.19761  0.84591  1.0000
  C   C485      1.0  0.44690  0.22455  0.84159  1.0000
  H   H384      1.0  0.39977  0.24303  0.85155  1.0000
  H   H385      1.0  0.37530  0.19575  0.85905  1.0000
  H   H386      1.0  0.44255  0.18509  0.84477  1.0000
  C   C486      1.0  0.28623  0.31633  0.90254  1.0000
  C   C487      1.0  0.21951  0.01455  0.90555  1.0000
  C   C488      1.0  0.40295  0.25100  0.79074  1.0000
  C   C489      1.0  0.99196  0.45127  0.89208  1.0000
  C   C490      1.0  0.30638  0.08081  0.89799  1.0000
  C   C491      1.0  0.44242  0.23618  0.78441  1.0000
  H   H387      1.0  0.45751  0.23009  0.78224  1.0000
  C   C492      1.0  0.30290  0.01893  0.92924  1.0000
  C   C493      1.0  0.32950  0.03764  0.92733  1.0000
  C   C494      1.0  0.34196  0.04191  0.90904  1.0000
  C   C495      1.0  0.32820  0.02707  0.89227  1.0000
  C   C496      1.0  0.30159  0.00838  0.89417  1.0000
  H   H388      1.0  0.47097  0.07162  0.80261  1.0000
  H   H389      1.0  0.34064  0.04889  0.94015  1.0000
  H   H390      1.0  0.36240  0.05630  0.90798  1.0000
  C   C497      1.0  0.44217  0.28025  0.89459  1.0000
  C   C498      1.0  0.39876  0.22560  0.79524  1.0000
  C   C499      1.0  0.08363  0.23798  0.97752  1.0000
  C   C500      1.0  0.21132  0.12467  0.98086  1.0000
  C   C501      1.0  0.20739  0.09899  0.97528  1.0000
  C   C502      1.0  0.35973  0.25622  0.96419  1.0000
  H   H391      1.0  0.37403  0.26932  0.97501  1.0000
  H   H392      1.0  0.30426  0.44046  0.84382  1.0000
  H   H393      1.0  0.39941  0.22468  0.74968  1.0000
  C   C503      1.0  0.32307  0.22338  0.93568  1.0000
  P   P16       1.0  0.09155  0.13937  0.96023  1.0000
  C   C504      1.0  0.10841  0.17101  0.94870  1.0000
  C   C505      1.0  0.07669  0.11387  0.94125  1.0000
  C   C506      1.0  0.08728  0.11736  0.92249  1.0000
  C   C507      1.0  0.07571  0.09739  0.90797  1.0000
  C   C508      1.0  0.05357  0.07379  0.91208  1.0000
  C   C509      1.0  0.04300  0.07009  0.93073  1.0000
  C   C510      1.0  0.05452  0.09000  0.94528  1.0000
  C   C511      1.0  0.13421  0.17964  0.94228  1.0000
  C   C512      1.0  0.14739  0.20381  0.93310  1.0000
  C   C513      1.0  0.13485  0.21944  0.93001  1.0000
  C   C514      1.0  0.10915  0.21093  0.93613  1.0000
  C   C515      1.0  0.09605  0.18698  0.94563  1.0000
  H   H394      1.0  0.03414  0.46777  0.89462  1.0000
  H   H395      1.0  0.40958  0.02415  0.74195  1.0000
  H   H396      1.0  0.35406  0.18759  0.74633  1.0000
  H   H397      1.0  0.34891  0.27896  0.74651  1.0000
  H   H398      1.0  0.35564  0.01040  0.95050  1.0000
  P   P17       1.0  0.46214  0.05166  0.76176  1.0000
  H   H399      1.0  0.34654  0.45555  0.86242  1.0000
  C   C516      1.0  0.37813  0.16742  0.74689  1.0000
  Fe  Fe47      1.0  0.25081  0.99518  0.97150  1.0000
  C   C517      1.0  0.44279  0.40126  0.76156  1.0000
  C   C518      1.0  0.41187  0.23436  0.89996  1.0000
  H   H400      1.0  0.10443  0.13541  0.91896  1.0000
  H   H401      1.0  0.08393  0.10024  0.89351  1.0000
  H   H402      1.0  0.35420  0.03410  0.98092  1.0000
  S   S87       1.0  0.46924  0.40047  0.83266  1.0000
  S   S88       1.0  0.15773  0.24354  0.97888  1.0000
  H   H403      1.0  0.14429  0.16782  0.94448  1.0000
  H   H404      1.0  0.16753  0.21070  0.92872  1.0000
  H   H405      1.0  0.14530  0.23847  0.92335  1.0000
  H   H406      1.0  0.09966  0.22336  0.93420  1.0000
  H   H407      1.0  0.07665  0.18160  0.95089  1.0000
  C   C519      1.0  0.39563  0.01664  0.79379  1.0000
  H   H408      1.0  0.46705  0.23267  0.83707  1.0000
  C   C520      1.0  0.29670  0.18166  0.87605  1.0000
  S   S89       1.0  0.20434  0.04951  0.98101  1.0000
  H   H409      1.0  0.41773  0.05391  0.78041  1.0000
  C   C521      1.0  0.28069  0.13786  0.94060  1.0000
  C   C522      1.0  0.04304  0.13751  0.96782  1.0000
  C   C523      1.0  0.30375  0.19847  0.86019  1.0000
  H   H410      1.0  0.07616  0.35102  0.97629  1.0000
  H   H411      1.0  0.24666  0.17330  0.93681  1.0000
  H   H412      1.0  0.20112  0.09178  0.96038  1.0000
  H   H413      1.0  0.29029  0.19411  0.84773  1.0000
  C   C524      1.0  0.45470  0.41284  0.74418  1.0000
  C   C525      1.0  0.32562  0.30476  0.81478  1.0000
  H   H414      1.0  0.38048  0.21187  0.80160  1.0000
  H   H415      1.0  0.26878  0.29730  0.90179  1.0000
  C   C526      1.0  0.39369  0.99181  0.79747  1.0000
  C   C527      1.0  0.34972  0.22985  0.93390  1.0000
  H   H416      1.0  0.46072  0.29499  0.88915  1.0000
  H   H417      1.0  0.42982  0.28881  0.78022  1.0000
  H   H418      1.0  0.45661  0.24124  0.74442  1.0000
  H   H419      1.0  0.39670  0.14214  0.75123  1.0000
  C   C528      1.0  0.35971  0.17476  0.75441  1.0000
  C   C529      1.0  0.34843  0.16559  0.77251  1.0000
  C   C530      1.0  0.35503  0.14859  0.78302  1.0000
  C   C531      1.0  0.37245  0.14027  0.77522  1.0000
  C   C532      1.0  0.32174  0.08601  0.88136  1.0000
  H   H420      1.0  0.27769  0.16431  0.87593  1.0000
  C   C533      1.0  0.32478  0.08585  0.96542  1.0000
  H   H421      1.0  0.36222  0.17426  0.89014  1.0000
  H   H422      1.0  0.28521  0.17414  0.95431  1.0000
  H   H423      1.0  0.45019  0.24774  0.88772  1.0000
  H   H424      1.0  0.29166  0.31717  0.87159  1.0000
  C   C534      1.0  0.42700  0.26918  0.78334  1.0000
  H   H425      1.0  0.22188  0.06879  0.94170  1.0000
  C   C535      1.0  0.38369  0.14935  0.75713  1.0000
  H   H426      1.0  0.45167  0.41082  0.87223  1.0000
  H   H427      1.0  0.18198  0.02634  0.93846  1.0000
  H   H428      1.0  0.31564  0.13863  0.86473  1.0000
  H   H429      1.0  0.38511  0.27476  0.91258  1.0000
  H   H430      1.0  0.33455  0.17166  0.77840  1.0000
  H   H431      1.0  0.34647  0.14158  0.79711  1.0000
  H   H432      1.0  0.40752  0.27005  0.74263  1.0000
  C   C536      1.0  0.36542  0.14778  0.91053  1.0000
  H   H433      1.0  0.33265  0.31201  0.86427  1.0000
  C   C537      1.0  0.11385  0.10847  0.97483  1.0000
  C   C538      1.0  0.32814  0.22105  0.86045  1.0000
  H   H434      1.0  0.30846  0.17429  0.90437  1.0000
  P   P18       1.0  0.27352  0.08963  0.92409  1.0000
  H   H435      1.0  0.36939  0.12515  0.93396  1.0000
  C   C539      1.0  0.33503  0.43487  0.85816  1.0000
  C   C540      1.0  0.31118  0.42636  0.84772  1.0000
  C   C541      1.0  0.29615  0.39962  0.84249  1.0000
  C   C542      1.0  0.30508  0.38141  0.84750  1.0000
  C   C543      1.0  0.32937  0.38994  0.85747  1.0000
  C   C544      1.0  0.34400  0.41670  0.86320  1.0000
  P   P19       1.0  0.34021  0.36618  0.86453  1.0000
  C   C545      1.0  0.33360  0.34196  0.84501  1.0000
  C   C546      1.0  0.32915  0.32995  0.81029  1.0000
  C   C547      1.0  0.33325  0.34858  0.82533  1.0000
  C   C548      1.0  0.37552  0.38192  0.86805  1.0000
  C   C549      1.0  0.38727  0.37487  0.88348  1.0000
  C   C550      1.0  0.41463  0.38546  0.88510  1.0000
  C   C551      1.0  0.43048  0.40319  0.87134  1.0000
  C   C552      1.0  0.41897  0.41028  0.85589  1.0000
  C   C553      1.0  0.39159  0.39957  0.85415  1.0000
  C   C554      1.0  0.41492  0.10218  0.74294  1.0000
  C   C555      1.0  0.33319  0.24969  0.96582  1.0000
  H   H436      1.0  0.27751  0.39296  0.83460  1.0000
  H   H437      1.0  0.29306  0.36068  0.84359  1.0000
  H   H438      1.0  0.36230  0.42357  0.87157  1.0000
  H   H439      1.0  0.32935  0.33516  0.79509  1.0000
  H   H440      1.0  0.33670  0.36822  0.82154  1.0000
  H   H441      1.0  0.34923  0.38386  0.90578  1.0000
  H   H442      1.0  0.37541  0.36046  0.89391  1.0000
  H   H443      1.0  0.42349  0.37921  0.89667  1.0000
  C   C556      1.0  0.45742  0.40835  0.77918  1.0000
  H   H444      1.0  0.43136  0.42328  0.84485  1.0000
  H   H445      1.0  0.38299  0.40444  0.84164  1.0000
  H   H446      1.0  0.12213  0.26367  0.96665  1.0000
  H   H447      1.0  0.42820  0.30836  0.90217  1.0000
  C   C557      1.0  0.29417  0.09649  0.90288  1.0000
  H   H448      1.0  0.28559  0.32026  0.93389  1.0000
  C   C558      1.0  0.24347  0.11613  0.91786  1.0000
  C   C559      1.0  0.31286  0.12239  0.87400  1.0000
  C   C560      1.0  0.29571  0.32932  0.92068  1.0000
  C   C561      1.0  0.32287  0.35154  0.88651  1.0000
  H   H449      1.0  0.37721  0.12664  0.78316  1.0000
  C   C562      1.0  0.28888  0.08723  0.94684  1.0000
  H   H450      1.0  0.33706  0.11082  0.85661  1.0000
  H   H451      1.0  0.28775  0.12918  0.89350  1.0000
  H   H452      1.0  0.29787  0.13881  0.94816  1.0000
  H   H453      1.0  0.25901  0.04117  0.89891  1.0000
  H   H454      1.0  0.41519  0.19847  0.79563  1.0000
  C   C563      1.0  0.41250  0.98500  0.79023  1.0000
  H   H455      1.0  0.03404  0.45359  0.92877  1.0000
  C   C564      1.0  0.19762  0.01015  0.91655  1.0000
  H   H456      1.0  0.25694  0.08519  0.96452  1.0000
  C   C565      1.0  0.29736  0.11716  0.89055  1.0000
  C   C566      1.0  0.31414  0.18733  0.89210  1.0000
  C   C567      1.0  0.22150  0.05401  0.93138  1.0000
  C   C568      1.0  0.32498  0.10677  0.86940  1.0000
  H   H457      1.0  0.04462  0.05834  0.90081  1.0000
  H   H458      1.0  0.33120  0.07395  0.87766  1.0000
  H   H459      1.0  0.21992  0.13622  0.91350  1.0000
  C   C569      1.0  0.24244  0.03867  0.90746  1.0000
  H   H460      1.0  0.47444  0.05877  0.83986  1.0000
  H   H461      1.0  0.43451  0.19112  0.75395  1.0000
  H   H462      1.0  0.30377  0.06426  0.90681  1.0000
  C   C570      1.0  0.39318  0.24173  0.90695  1.0000
  H   H463      1.0  0.32414  0.08889  0.93439  1.0000
  C   C571      1.0  0.41838  0.21809  0.79188  1.0000
  H   H464      1.0  0.44834  0.39897  0.79262  1.0000
  H   H465      1.0  0.43237  0.12083  0.74553  1.0000
  C   C572      1.0  0.44715  0.26209  0.78046  1.0000
  H   H466      1.0  0.38857  0.25117  0.94752  1.0000
  C   C573      1.0  0.11544  0.13377  0.97423  1.0000
  C   C574      1.0  0.33868  0.20996  0.89247  1.0000
  C   C575      1.0  0.31354  0.08760  0.94751  1.0000
  H   H467      1.0  0.42232  0.38643  0.76130  1.0000
  H   H468      1.0  0.99247  0.45763  0.87720  1.0000
  H   H469      1.0  0.03031  0.31720  0.98188  1.0000
  C   C576      1.0  0.26523  0.11640  0.92783  1.0000
  C   C577      1.0  0.25198  0.15757  0.93415  1.0000
  C   C578      1.0  0.02283  0.13577  0.97984  1.0000
  C   C579      1.0  0.27596  0.08554  0.96448  1.0000
  H   H470      1.0  0.47233  0.36927  0.76709  1.0000
  C   C580      1.0  0.36271  0.17004  0.90550  1.0000
  H   H471      1.0  0.34333  0.08514  0.96573  1.0000
  C   C581      1.0  0.36673  0.14215  0.93019  1.0000
  H   H472      1.0  0.32675  0.25775  0.97785  1.0000
  S   S90       1.0  0.00260  0.25439  0.98956  1.0000
  C   C582      1.0  0.36182  0.18720  0.92015  1.0000
  P   P20       1.0  0.36073  0.21719  0.91349  1.0000
  C   C583      1.0  0.12353  0.23269  0.98342  1.0000
  H   H473      1.0  0.40761  0.21386  0.89860  1.0000
  H   H474      1.0  0.36600  0.15416  0.96014  1.0000
  C   C584      1.0  0.43624  0.25360  0.89381  1.0000
  C   C585      1.0  0.31168  0.08404  0.98282  1.0000
  H   H475      1.0  0.32795  0.18844  0.97865  1.0000
  C   C586      1.0  0.01569  0.45711  0.90194  1.0000
  C   C587      1.0  0.34196  0.01296  0.97927  1.0000
  C   C588      1.0  0.36837  0.29528  0.74512  1.0000
  C   C589      1.0  0.43559  0.02819  0.77591  1.0000
  H   H476      1.0  0.33362  0.23418  0.84821  1.0000
  H   H477      1.0  0.36222  0.19408  0.95152  1.0000
  C   C590      1.0  0.36794  0.24606  0.94847  1.0000
  H   H478      1.0  0.13090  0.08477  0.98660  1.0000
  C   C591      1.0  0.28896  0.00455  0.91238  1.0000
  H   H479      1.0  0.29428  0.22797  0.95299  1.0000
  H   H480      1.0  0.30854  0.21140  0.92462  1.0000
  H   H481      1.0  0.09877  0.09198  0.96649  1.0000
  C   C592      1.0  0.31485  0.23288  0.95178  1.0000
  C   C593      1.0  0.41651  0.03477  0.78311  1.0000
  H   H482      1.0  0.20809  0.13679  0.97027  1.0000
  C   C594      1.0  0.13192  0.10422  0.98630  1.0000
  C   C595      1.0  0.42385  0.28775  0.90178  1.0000
  H   H483      1.0  0.36407  0.24477  0.87649  1.0000
  C   C596      1.0  0.39941  0.26859  0.90779  1.0000
  H   H484      1.0  0.02586  0.05177  0.93394  1.0000
  H   H485      1.0  0.44754  0.99730  0.77374  1.0000
  H   H486      1.0  0.04110  0.13927  0.95219  1.0000
  C   C597      1.0  0.41812  0.33779  0.74131  1.0000
  H   H487      1.0  0.04614  0.08668  0.95970  1.0000
  C   C598      1.0  0.06564  0.13737  0.97597  1.0000
  Fe  Fe48      1.0  0.21313  0.01457  0.98851  1.0000
  C   C599      1.0  0.28740  0.08420  0.98236  1.0000
  H   H488      1.0  0.00602  0.13720  0.97362  1.0000
  C   C600      1.0  0.01565  0.44914  0.92117  1.0000
  C   C601      1.0  0.13508  0.15460  0.98551  1.0000
  Fe  Fe49      1.0  0.99931  0.21353  0.98877  1.0000
  C   C602      1.0  0.06854  0.21558  0.98832  1.0000
  C   C603      1.0  0.21114  0.08248  0.98878  1.0000
  C   C604      1.0  0.34282  0.99957  0.96215  1.0000
  H   H489      1.0  0.46376  0.32464  0.75601  1.0000
  S   S91       1.0  0.21015  0.98816  0.96221  1.0000
  H   H490      1.0  0.18006  0.99127  0.91541  1.0000
  H   H491      1.0  0.13664  0.17427  0.98534  1.0000
  C   C605      1.0  0.99186  0.43540  0.93061  1.0000
  H   H492      1.0  0.47138  0.06216  0.88815  1.0000
  H   H493      1.0  0.99180  0.42919  0.94553  1.0000
  C   C606      1.0  0.47207  0.08421  0.77269  1.0000
  H   H494      1.0  0.47235  0.10339  0.74544  1.0000
  C   C607      1.0  0.47537  0.33320  0.76936  1.0000
  C   C608      1.0  0.47497  0.08797  0.79317  1.0000
  H   H495      1.0  0.29554  0.14413  0.98958  1.0000
  H   H496      1.0  0.44409  0.92563  0.14044  1.0000
  H   H497      1.0  0.30230  0.88111  0.02896  1.0000
  C   C609      1.0  0.10412  0.78094  0.08245  1.0000
  S   S92       1.0  0.99070  0.75799  0.02204  1.0000
  Fe  Fe50      1.0  0.99496  0.72189  0.01307  1.0000
  S   S93       1.0  0.01063  0.69760  0.03104  1.0000
  Fe  Fe51      1.0  0.29807  0.89633  0.16451  1.0000
  S   S94       1.0  0.29202  0.85480  0.16335  1.0000
  S   S95       1.0  0.29553  0.91441  0.19401  1.0000
  Fe  Fe52      1.0  0.30051  0.90056  0.11931  1.0000
  S   S96       1.0  0.29553  0.85899  0.11575  1.0000
  S   S97       1.0  0.30322  0.92165  0.09025  1.0000
  Fe  Fe53      1.0  0.26415  0.84833  0.13802  1.0000
  S   S98       1.0  0.22110  0.81818  0.13465  1.0000
  Fe  Fe54      1.0  0.32449  0.86930  0.14146  1.0000
  S   S99       1.0  0.35368  0.85237  0.14605  1.0000
  S   S100      1.0  0.26789  0.88924  0.14051  1.0000
  S   S101      1.0  0.33185  0.91168  0.14365  1.0000
  Fe  Fe55      1.0  0.08856  0.64929  0.17244  1.0000
  S   S102      1.0  0.11483  0.63457  0.15873  1.0000
  S   S103      1.0  0.08397  0.63719  0.20461  1.0000
  Fe  Fe56      1.0  0.07350  0.66271  0.13104  1.0000
  S   S104      1.0  0.09783  0.64678  0.11547  1.0000
  S   S105      1.0  0.05237  0.68458  0.11667  1.0000
  Fe  Fe57      1.0  0.08227  0.61317  0.13671  1.0000
  S   S106      1.0  0.06380  0.56808  0.13256  1.0000
  Fe  Fe58      1.0  0.12816  0.66937  0.13929  1.0000
  S   S107      1.0  0.17186  0.69309  0.13441  1.0000
  S   S108      1.0  0.05536  0.62732  0.15044  1.0000
  S   S109      1.0  0.10462  0.68617  0.15458  1.0000
  C   C610      1.0  0.40755  0.50695  0.12367  1.0000
  C   C611      1.0  0.43402  0.51895  0.11819  1.0000
  C   C612      1.0  0.45081  0.54602  0.12247  1.0000
  C   C613      1.0  0.44108  0.56162  0.13182  1.0000
  C   C614      1.0  0.41460  0.54959  0.13730  1.0000
  C   C615      1.0  0.39806  0.52239  0.13356  1.0000
  H   H498      1.0  0.44161  0.50727  0.11050  1.0000
  C   C616      1.0  0.19869  0.87919  0.08130  1.0000
  H   H499      1.0  0.37783  0.51343  0.13800  1.0000
  C   C617      1.0  0.08902  0.65350  0.22794  1.0000
  C   C618      1.0  0.36638  0.94707  0.19383  1.0000
  H   H500      1.0  0.21098  0.89115  0.06977  1.0000
  H   H501      1.0  0.09185  0.69008  0.21754  1.0000
  H   H502      1.0  0.10761  0.79201  0.06919  1.0000
  C   C619      1.0  0.07847  0.54668  0.13525  1.0000
  C   C620      1.0  0.10551  0.55622  0.13870  1.0000
  C   C621      1.0  0.11630  0.53845  0.13991  1.0000
  C   C622      1.0  0.10025  0.51094  0.13782  1.0000
  C   C623      1.0  0.07311  0.50136  0.13505  1.0000
  C   C624      1.0  0.06236  0.51914  0.13368  1.0000
  H   H503      1.0  0.11818  0.57730  0.14001  1.0000
  H   H504      1.0  0.13730  0.54610  0.14220  1.0000
  C   C625      1.0  0.16326  0.52949  0.19003  1.0000
  H   H505      1.0  0.04142  0.51149  0.13102  1.0000
  C   C626      1.0  0.29876  0.90058  0.21634  1.0000
  H   H506      1.0  0.35490  0.53583  0.11988  1.0000
  H   H507      1.0  0.23746  0.72803  0.19160  1.0000
  H   H508      1.0  0.44485  0.82524  0.18448  1.0000
  H   H509      1.0  0.31545  0.87702  0.20373  1.0000
  H   H510      1.0  0.14744  0.48699  0.19160  1.0000
  C   C627      1.0  0.42886  0.86156  0.14777  1.0000
  C   C628      1.0  0.40120  0.85101  0.14837  1.0000
  C   C629      1.0  0.38878  0.86713  0.14581  1.0000
  C   C630      1.0  0.40453  0.89416  0.14317  1.0000
  C   C631      1.0  0.43219  0.90475  0.14270  1.0000
  H   H511      1.0  0.34528  0.48877  0.19821  1.0000
  H   H512      1.0  0.38929  0.83010  0.15048  1.0000
  H   H513      1.0  0.39539  0.90687  0.14123  1.0000
  C   C632      1.0  0.37837  0.86542  0.22187  1.0000
  C   C633      1.0  0.20819  0.78351  0.13450  1.0000
  C   C634      1.0  0.18078  0.76794  0.13311  1.0000
  C   C635      1.0  0.16948  0.74024  0.13310  1.0000
  C   C636      1.0  0.18555  0.72787  0.13427  1.0000
  C   C637      1.0  0.21301  0.74341  0.13544  1.0000
  C   C638      1.0  0.22433  0.77120  0.13571  1.0000
  H   H514      1.0  0.16820  0.77735  0.13211  1.0000
  H   H515      1.0  0.14836  0.72848  0.13200  1.0000
  H   H516      1.0  0.22553  0.73393  0.13629  1.0000
  H   H517      1.0  0.24547  0.78305  0.13676  1.0000
  C   C639      1.0  0.02294  0.69507  0.05492  1.0000
  C   C640      1.0  0.02379  0.71097  0.07110  1.0000
  C   C641      1.0  0.03315  0.70768  0.08967  1.0000
  C   C642      1.0  0.04210  0.68867  0.09247  1.0000
  C   C643      1.0  0.04183  0.67321  0.07618  1.0000
  C   C644      1.0  0.03227  0.67635  0.05764  1.0000
  C   C645      1.0  0.05334  0.53891  0.18935  1.0000
  H   H518      1.0  0.03322  0.71983  0.10205  1.0000
  H   H519      1.0  0.04847  0.65843  0.07797  1.0000
  H   H520      1.0  0.03181  0.66389  0.04535  1.0000
  C   C646      1.0  0.15526  0.60869  0.21252  1.0000
  C   C647      1.0  0.47320  0.58566  0.22257  1.0000
  H   H521      1.0  0.40319  0.80885  0.20242  1.0000
  H   H522      1.0  0.43799  0.84881  0.14939  1.0000
  C   C648      1.0  0.25830  0.96092  0.05874  1.0000
  C   C649      1.0  0.05689  0.56054  0.20127  1.0000
  C   C650      1.0  0.29085  0.94457  0.05916  1.0000
  C   C651      1.0  0.28524  0.93649  0.07864  1.0000
  C   C652      1.0  0.26606  0.94086  0.08815  1.0000
  C   C653      1.0  0.25286  0.95314  0.07831  1.0000
  C   C654      1.0  0.11227  0.76131  0.08426  1.0000
  H   H523      1.0  0.07503  0.80141  0.02277  1.0000
  H   H524      1.0  0.26185  0.93538  0.10325  1.0000
  C   C655      1.0  0.33986  0.49525  0.07941  1.0000
  C   C656      1.0  0.37611  0.52855  0.19428  1.0000
  H   H525      1.0  0.16881  0.62725  0.21970  1.0000
  C   C657      1.0  0.38868  0.91964  0.21429  1.0000
  H   H526      1.0  0.46663  0.52135  0.19580  1.0000
  H   H527      1.0  0.12306  0.82739  0.02717  1.0000
  H   H528      1.0  0.34119  0.82402  0.18446  1.0000
  C   C658      1.0  0.37178  0.84687  0.23673  1.0000
  H   H529      1.0  0.40191  0.56937  0.18743  1.0000
  H   H530      1.0  0.07404  0.70415  0.99413  1.0000
  C   C659      1.0  0.42343  0.69073  0.20488  1.0000
  C   C660      1.0  0.40851  0.66766  0.21516  1.0000
  C   C661      1.0  0.00578  0.63667  0.19424  1.0000
  C   C662      1.0  0.38259  0.55269  0.18534  1.0000
  C   C663      1.0  0.42951  0.65717  0.16841  1.0000
  H   H531      1.0  0.42198  0.86821  0.20505  1.0000
  S   S110      1.0  0.46053  0.59630  0.13622  1.0000
  H   H532      1.0  0.04945  0.49963  0.18845  1.0000
  C   C664      1.0  0.39284  0.92409  0.19415  1.0000
  H   H533      1.0  0.01683  0.72552  0.06940  1.0000
  H   H534      1.0  0.13108  0.93464  0.02918  1.0000
  C   C665      1.0  0.33211  0.51050  0.17957  1.0000
  C   C666      1.0  0.17749  0.92369  0.06569  1.0000
  C   C667      1.0  0.16230  0.95271  0.05101  1.0000
  H   H535      1.0  0.20705  0.84639  0.99340  1.0000
  C   C668      1.0  0.19075  0.52450  0.15788  1.0000
  H   H536      1.0  0.05840  0.57836  0.19473  1.0000
  C   C669      1.0  0.99266  0.63849  0.17721  1.0000
  C   C670      1.0  0.09189  0.67913  0.23027  1.0000
  C   C671      1.0  0.34217  0.81217  0.21416  1.0000
  H   H537      1.0  0.41615  0.65385  0.21812  1.0000
  C   C672      1.0  0.46914  0.57900  0.18738  1.0000
  C   C673      1.0  0.42822  0.64279  0.15123  1.0000
  C   C674      1.0  0.23813  0.82138  0.22483  1.0000
  H   H538      1.0  0.31263  0.49406  0.17711  1.0000
  C   C675      1.0  0.34935  0.83030  0.19917  1.0000
  P   P21       1.0  0.98965  0.60959  0.21062  1.0000
  C   C676      1.0  0.28527  0.76470  0.16029  1.0000
  C   C677      1.0  0.09085  0.78602  0.09764  1.0000
  H   H539      1.0  0.11190  0.86477  0.07927  1.0000
  C   C678      1.0  0.37337  0.92935  0.22407  1.0000
  C   C679      1.0  0.09471  0.75282  0.11696  1.0000
  H   H540      1.0  0.22171  0.78351  0.04753  1.0000
  C   C680      1.0  0.28976  0.88839  0.02217  1.0000
  C   C681      1.0  0.25500  0.77544  0.23364  1.0000
  H   H541      1.0  0.28253  0.81271  0.18888  1.0000
  P   P22       1.0  0.14412  0.53229  0.20987  1.0000
  H   H542      1.0  0.15072  0.71330  0.23596  1.0000
  C   C682      1.0  0.27759  0.79303  0.18336  1.0000
  H   H543      1.0  0.32792  0.79175  0.21116  1.0000
  C   C683      1.0  0.47151  0.74388  0.17586  1.0000
  H   H544      1.0  0.26604  0.88201  0.04763  1.0000
  H   H545      1.0  0.36936  0.57392  0.16612  1.0000
  H   H546      1.0  0.24649  0.91717  0.99943  1.0000
  C   C684      1.0  0.42187  0.81871  0.21042  1.0000
  H   H547      1.0  0.23574  0.87284  0.20207  1.0000
  C   C685      1.0  0.46910  0.69098  0.23483  1.0000
  H   H548      1.0  0.38452  0.94045  0.16840  1.0000
  H   H549      1.0  0.12772  0.89028  0.03203  1.0000
  C   C686      1.0  0.08611  0.77193  0.11488  1.0000
  C   C687      1.0  0.10120  0.67456  0.05732  1.0000
  S   S111      1.0  0.24202  0.97758  0.04729  1.0000
  C   C688      1.0  0.11827  0.66973  0.06946  1.0000
  C   C689      1.0  0.08333  0.81437  0.03557  1.0000
  H   H550      1.0  0.35691  0.95673  0.18582  1.0000
  C   C690      1.0  0.00714  0.56031  0.17648  1.0000
  H   H551      1.0  0.36913  0.92587  0.23937  1.0000
  C   C691      1.0  0.14007  0.56162  0.20643  1.0000
  C   C692      1.0  0.18007  0.55189  0.17977  1.0000
  C   C693      1.0  0.16796  0.84842  0.11138  1.0000
  C   C694      1.0  0.35064  0.50759  0.19149  1.0000
  C   C695      1.0  0.98973  0.53525  0.18284  1.0000
  H   H552      1.0  0.40684  0.56145  0.14449  1.0000
  H   H553      1.0  0.37973  0.71586  0.20437  1.0000
  C   C696      1.0  0.17435  0.50219  0.16815  1.0000
  C   C697      1.0  0.36244  0.94313  0.21387  1.0000
  H   H554      1.0  0.30566  0.80719  0.16029  1.0000
  H   H555      1.0  0.20607  0.56657  0.15554  1.0000
  H   H556      1.0  0.11368  0.73220  0.10365  1.0000
  C   C698      1.0  0.46939  0.84151  0.21046  1.0000
  H   H557      1.0  0.08393  0.80062  0.09594  1.0000
  H   H558      1.0  0.44845  0.94998  0.22214  1.0000
  P   P23       1.0  0.45574  0.69767  0.19667  1.0000
  H   H559      1.0  0.24007  0.85813  0.23528  1.0000
  H   H560      1.0  0.21022  0.82664  0.09523  1.0000
  H   H561      1.0  0.30587  0.94171  0.05168  1.0000
  C   C699      1.0  0.33888  0.53434  0.17037  1.0000
  S   S112      1.0  0.11519  0.48961  0.13861  1.0000
  C   C700      1.0  0.05462  0.51529  0.21817  1.0000
  H   H562      1.0  0.06590  0.68888  0.18701  1.0000
  H   H563      1.0  0.20068  0.52242  0.14510  1.0000
  C   C701      1.0  0.05788  0.53686  0.23027  1.0000
  C   C702      1.0  0.04534  0.67505  0.18442  1.0000
  C   C703      1.0  0.12098  0.56125  0.19311  1.0000
  C   C704      1.0  0.03228  0.65499  0.19761  1.0000
  H   H564      1.0  0.06378  0.83748  0.07490  1.0000
  C   C705      1.0  0.38779  0.70242  0.20743  1.0000
  H   H565      1.0  0.04239  0.69207  0.15719  1.0000
  C   C706      1.0  0.03212  0.67682  0.16762  1.0000
  H   H566      1.0  0.15123  0.68675  0.09004  1.0000
  C   C707      1.0  0.05212  0.51629  0.19780  1.0000
  H   H567      1.0  0.44922  0.63979  0.12618  1.0000
  C   C708      1.0  0.28773  0.49442  0.02340  1.0000
  C   C709      1.0  0.10775  0.74751  0.10175  1.0000
  C   C710      1.0  0.36407  0.55546  0.17331  1.0000
  C   C711      1.0  0.13843  0.69057  0.08014  1.0000
  C   C712      1.0  0.10437  0.70026  0.05567  1.0000
  H   H568      1.0  0.13362  0.62563  0.19735  1.0000
  C   C713      1.0  0.26922  0.88871  0.03268  1.0000
  C   C714      1.0  0.18116  0.84329  0.03833  1.0000
  C   C715      1.0  0.38615  0.51834  0.23368  1.0000
  H   H569      1.0  0.07038  0.87681  0.99872  1.0000
  H   H570      1.0  0.23007  0.84388  0.17304  1.0000
  H   H571      1.0  0.46276  0.88109  0.18696  1.0000
  S   S113      1.0  0.04395  0.81966  0.99423  1.0000
  H   H572      1.0  0.32197  0.86044  0.23559  1.0000
  H   H573      1.0  0.41257  0.65003  0.17757  1.0000
  C   C716      1.0  0.12049  0.77733  0.00907  1.0000
  C   C717      1.0  0.47113  0.68622  0.21483  1.0000
  H   H574      1.0  0.28338  0.92213  0.23352  1.0000
  H   H575      1.0  0.19106  0.92145  0.07568  1.0000
  H   H576      1.0  0.23856  0.95694  0.08601  1.0000
  H   H577      1.0  0.28546  0.81561  0.23050  1.0000
  C   C718      1.0  0.17262  0.86260  0.03636  1.0000
  C   C719      1.0  0.00584  0.65850  0.16397  1.0000
  H   H578      1.0  0.19413  0.96543  0.07238  1.0000
  H   H579      1.0  0.09058  0.70330  0.04646  1.0000
  H   H580      1.0  0.18225  0.57125  0.18377  1.0000
  P   P24       1.0  0.39977  0.52401  0.20941  1.0000
  H   H581      1.0  0.02838  0.67288  0.00234  1.0000
  C   C720      1.0  0.20444  0.74911  0.20867  1.0000
  C   C721      1.0  0.23224  0.83752  0.18750  1.0000
  C   C722      1.0  0.25247  0.74548  0.18504  1.0000
  H   H582      1.0  0.26157  0.72286  0.16364  1.0000
  C   C723      1.0  0.30933  0.88284  0.21707  1.0000
  C   C724      1.0  0.07691  0.83491  0.06485  1.0000
  C   C725      1.0  0.47011  0.84556  0.23074  1.0000
  C   C726      1.0  0.16421  0.77631  0.06673  1.0000
  H   H583      1.0  0.29549  0.76245  0.14775  1.0000
  C   C727      1.0  0.43239  0.55164  0.20763  1.0000
  C   C728      1.0  0.39968  0.48987  0.17961  1.0000
  C   C729      1.0  0.26620  0.74245  0.16926  1.0000
  C   C730      1.0  0.44356  0.55862  0.18912  1.0000
  H   H584      1.0  0.30906  0.50369  0.12746  1.0000
  H   H585      1.0  0.45887  0.73144  0.16395  1.0000
  C   C731      1.0  0.35455  0.51637  0.09249  1.0000
  H   H586      1.0  0.17358  0.75579  0.04362  1.0000
  C   C732      1.0  0.45176  0.93460  0.21516  1.0000
  C   C733      1.0  0.37316  0.67952  0.21776  1.0000
  C   C734      1.0  0.31756  0.50167  0.11387  1.0000
  H   H587      1.0  0.47106  0.55494  0.11806  1.0000
  C   C735      1.0  0.06651  0.81707  0.04892  1.0000
  C   C736      1.0  0.15761  0.58573  0.21579  1.0000
  C   C737      1.0  0.40241  0.49555  0.19985  1.0000
  H   H588      1.0  0.15619  0.83617  0.12297  1.0000
  H   H589      1.0  0.00737  0.58108  0.23799  1.0000
  H   H590      1.0  0.13307  0.78906  0.99762  1.0000
  C   C738      1.0  0.17478  0.79627  0.08142  1.0000
  H   H591      1.0  0.09061  0.74147  0.13016  1.0000
  C   C739      1.0  0.29103  0.78995  0.16740  1.0000
  H   H592      1.0  0.32458  0.53635  0.16091  1.0000
  C   C740      1.0  0.14201  0.90637  0.04123  1.0000
  H   H593      1.0  0.07548  0.77552  0.12656  1.0000
  C   C741      1.0  0.15586  0.85067  0.09404  1.0000
  C   C742      1.0  0.23661  0.80561  0.20830  1.0000
  H   H594      1.0  0.23814  0.89992  0.03265  1.0000
  C   C743      1.0  0.31305  0.87350  0.23520  1.0000
  H   H595      1.0  0.10798  0.54347  0.18490  1.0000
  H   H596      1.0  0.15707  0.73201  0.08733  1.0000
  C   C744      1.0  0.18852  0.74077  0.22511  1.0000
  H   H597      1.0  0.10730  0.50337  0.17776  1.0000
  H   H598      1.0  0.41056  0.62482  0.14726  1.0000
  H   H599      1.0  0.24002  0.81907  0.07340  1.0000
  H   H600      1.0  0.06136  0.57638  0.23051  1.0000
  H   H601      1.0  0.37489  0.52984  0.08958  1.0000
  C   C745      1.0  0.25749  0.77084  0.19178  1.0000
  C   C746      1.0  0.09951  0.49285  0.19104  1.0000
  C   C747      1.0  0.19372  0.54935  0.16374  1.0000
  H   H602      1.0  0.20469  0.74515  0.17699  1.0000
  H   H603      1.0  0.98943  0.51784  0.17592  1.0000
  H   H604      1.0  0.34905  0.49286  0.06631  1.0000
  C   C748      1.0  0.23515  0.85373  0.20390  1.0000
  C   C749      1.0  0.23775  0.84551  0.22258  1.0000
  C   C750      1.0  0.43678  0.88865  0.20564  1.0000
  C   C751      1.0  0.44761  0.56518  0.22437  1.0000
  H   H605      1.0  0.17024  0.89092  0.01670  1.0000
  C   C752      1.0  0.12475  0.72138  0.06619  1.0000
  H   H606      1.0  0.37222  0.87032  0.19103  1.0000
  H   H607      1.0  0.16224  0.79957  0.09157  1.0000
  P   P25       1.0  0.12923  0.75479  0.06450  1.0000
  C   C753      1.0  0.25846  0.90879  0.00538  1.0000
  C   C754      1.0  0.18143  0.52834  0.23473  1.0000
  C   C755      1.0  0.13157  0.77376  0.02648  1.0000
  C   C756      1.0  0.21890  0.80736  0.07127  1.0000
  C   C757      1.0  0.14165  0.71626  0.07856  1.0000
  H   H608      1.0  0.04538  0.80586  0.04653  1.0000
  P   P26       1.0  0.23808  0.77485  0.21089  1.0000
  H   H609      1.0  0.23060  0.80123  0.17671  1.0000
  C   C758      1.0  0.30812  0.97206  0.99150  1.0000
  C   C759      1.0  0.25355  0.89886  0.02426  1.0000
  C   C760      1.0  0.17914  0.94879  0.06402  1.0000
  C   C761      1.0  0.11538  0.75895  0.04156  1.0000
  C   C762      1.0  0.13562  0.60789  0.19976  1.0000
  S   S114      1.0  0.19339  0.97909  0.00794  1.0000
  H   H610      1.0  0.99593  0.65958  0.15060  1.0000
  H   H611      1.0  0.08510  0.65826  0.04950  1.0000
  P   P27       1.0  0.15613  0.86949  0.05623  1.0000
  H   H612      1.0  0.05399  0.49771  0.22426  1.0000
  C   C763      1.0  0.12126  0.84722  0.05417  1.0000
  C   C764      1.0  0.19352  0.73798  0.19012  1.0000
  C   C765      1.0  0.11059  0.82927  0.03814  1.0000
  C   C766      1.0  0.18133  0.77177  0.05454  1.0000
  H   H613      1.0  0.15269  0.78283  0.02812  1.0000
  C   C767      1.0  0.23274  0.81344  0.18966  1.0000
  H   H614      1.0  0.15998  0.70843  0.17394  1.0000
  C   C768      1.0  0.27916  0.90870  0.99469  1.0000
  C   C769      1.0  0.08798  0.74816  0.03898  1.0000
  H   H615      1.0  0.29436  0.96196  0.00276  1.0000
  H   H616      1.0  0.04311  0.65343  0.21016  1.0000
  C   C770      1.0  0.38351  0.66213  0.22160  1.0000
  H   H617      1.0  0.13302  0.69185  0.20328  1.0000
  C   C771      1.0  0.05895  0.55947  0.22159  1.0000
  C   C772      1.0  0.44458  0.88853  0.14473  1.0000
  H   H618      1.0  0.23195  0.88676  0.10038  1.0000
  C   C773      1.0  0.09319  0.76609  0.00654  1.0000
  C   C774      1.0  0.20203  0.81174  0.08357  1.0000
  H   H619      1.0  0.07503  0.73713  0.05052  1.0000
  C   C775      1.0  0.14376  0.93151  0.03959  1.0000
  H   H620      1.0  0.40416  0.91652  0.18604  1.0000
  H   H621      1.0  0.17343  0.58701  0.22533  1.0000
  Fe  Fe59      1.0  0.01127  0.77555  0.99384  1.0000
  C   C776      1.0  0.38174  0.93772  0.18401  1.0000
  C   C777      1.0  0.20856  0.78736  0.05673  1.0000
  H   H622      1.0  0.11550  0.64974  0.07101  1.0000
  C   C778      1.0  0.16796  0.71730  0.18827  1.0000
  C   C779      1.0  0.11886  0.58431  0.18978  1.0000
  H   H623      1.0  0.18756  0.52104  0.22209  1.0000
  C   C780      1.0  0.47447  0.68841  0.16162  1.0000
  H   H624      1.0  0.10431  0.58396  0.17925  1.0000
  C   C781      1.0  0.10415  0.85015  0.06736  1.0000
  C   C782      1.0  0.36717  0.85679  0.20299  1.0000
  H   H625      1.0  0.20471  0.85974  0.12710  1.0000
  C   C783      1.0  0.47312  0.67391  0.14455  1.0000
  C   C784      1.0  0.15888  0.90223  0.05431  1.0000
  C   C785      1.0  0.15274  0.70809  0.20482  1.0000
  H   H626      1.0  0.20068  0.82303  0.02470  1.0000
  C   C786      1.0  0.16079  0.53504  0.23315  1.0000
  H   H627      1.0  0.05581  0.74318  0.01969  1.0000
  H   H628      1.0  0.08447  0.76893  0.99315  1.0000
  C   C787      1.0  0.17654  0.87589  0.01870  1.0000
  H   H629      1.0  0.05190  0.53987  0.17354  1.0000
  H   H630      1.0  0.16412  0.97233  0.04942  1.0000
  C   C788      1.0  0.41280  0.70803  0.20098  1.0000
  H   H631      1.0  0.35378  0.67522  0.22274  1.0000
  C   C789      1.0  0.44530  0.82800  0.20028  1.0000
  P   P28       1.0  0.40132  0.89987  0.22666  1.0000
  H   H632      1.0  0.13473  0.83999  0.09256  1.0000
  H   H633      1.0  0.02035  0.56236  0.16465  1.0000
  C   C790      1.0  0.45993  0.89579  0.19542  1.0000
  H   H634      1.0  0.43265  0.54812  0.17597  1.0000
  C   C791      1.0  0.27736  0.95644  0.04925  1.0000
  C   C792      1.0  0.19366  0.83755  0.02292  1.0000
  C   C793      1.0  0.34335  0.51967  0.10965  1.0000
  H   H635      1.0  0.28217  0.96278  0.03444  1.0000
  C   C794      1.0  0.19532  0.86168  0.11373  1.0000
  H   H636      1.0  0.02188  0.60206  0.18072  1.0000
  C   C795      1.0  0.07699  0.75157  0.02151  1.0000
  C   C796      1.0  0.43251  0.90804  0.21561  1.0000
  C   C797      1.0  0.16068  0.50463  0.18419  1.0000
  H   H637      1.0  0.17828  0.83275  0.05181  1.0000
  C   C798      1.0  0.37068  0.49247  0.23997  1.0000
  H   H638      1.0  0.45896  0.70205  0.23945  1.0000
  C   C799      1.0  0.17113  0.86630  0.07891  1.0000
  C   C800      1.0  0.45265  0.68024  0.17365  1.0000
  C   C801      1.0  0.21068  0.87692  0.09865  1.0000
  C   C802      1.0  0.19728  0.85073  0.00531  1.0000
  C   C803      1.0  0.00784  0.58285  0.18548  1.0000
  H   H639      1.0  0.42366  0.72584  0.19296  1.0000
  C   C804      1.0  0.35347  0.82045  0.23294  1.0000
  H   H640      1.0  0.39476  0.50156  0.16970  1.0000
  H   H641      1.0  0.44028  0.55943  0.23882  1.0000
  C   C805      1.0  0.18873  0.86989  0.00325  1.0000
  C   C806      1.0  0.11292  0.50257  0.20909  1.0000
  C   C807      1.0  0.45001  0.65120  0.13929  1.0000
  C   C808      1.0  0.29475  0.89832  0.00326  1.0000
  H   H642      1.0  0.29780  0.51484  0.01911  1.0000
  H   H643      1.0  0.45543  0.51639  0.23076  1.0000
  C   C809      1.0  0.10282  0.48778  0.22594  1.0000
  H   H644      1.0  0.31112  0.89834  0.99566  1.0000
  C   C810      1.0  0.99046  0.58052  0.20039  1.0000
  H   H645      1.0  0.31414  0.50081  0.04774  1.0000
  C   C811      1.0  0.47456  0.73287  0.19335  1.0000
  C   C812      1.0  0.16285  0.72007  0.22321  1.0000
  H   H646      1.0  0.34985  0.94973  0.22128  1.0000
  H   H647      1.0  0.11571  0.91177  0.99245  1.0000
  H   H648      1.0  0.37213  0.64432  0.22956  1.0000
  C   C813      1.0  0.42253  0.82256  0.23078  1.0000
  C   C814      1.0  0.29150  0.90838  0.23392  1.0000
  C   C815      1.0  0.08501  0.87118  0.99385  1.0000
  C   C816      1.0  0.00585  0.61802  0.23462  1.0000
  Fe  Fe60      1.0  0.23422  0.98408  0.01507  1.0000
  H   H649      1.0  0.00922  0.65745  0.23583  1.0000
  C   C817      1.0  0.47502  0.94158  0.20513  1.0000
  H   H650      1.0  0.40412  0.81550  0.23816  1.0000
  C   C818      1.0  0.07768  0.84409  0.99076  1.0000
  C   C819      1.0  0.29699  0.48633  0.03969  1.0000
  C   C820      1.0  0.27770  0.79849  0.23964  1.0000
  H   H651      1.0  0.10882  0.57552  0.23923  1.0000
  H   H652      1.0  0.11277  0.49428  0.24007  1.0000
  H   H653      1.0  0.24003  0.81540  0.23946  1.0000
  H   H654      1.0  0.19588  0.75019  0.23937  1.0000
  C   C821      1.0  0.12590  0.76555  0.43368  1.0000
  C   C822      1.0  0.12776  0.61528  0.28020  1.0000
  S   S115      1.0  0.27207  0.95964  0.44967  1.0000
  Fe  Fe61      1.0  0.19322  0.95493  0.48848  1.0000
  Fe  Fe62      1.0  0.99928  0.72706  0.47809  1.0000
  S   S116      1.0  0.02545  0.71496  0.45926  1.0000
  Fe  Fe63      1.0  0.30728  0.87064  0.30848  1.0000
  S   S117      1.0  0.32286  0.84353  0.31920  1.0000
  S   S118      1.0  0.31180  0.86950  0.27522  1.0000
  Fe  Fe64      1.0  0.29533  0.88110  0.35154  1.0000
  S   S119      1.0  0.31079  0.85442  0.36422  1.0000
  S   S120      1.0  0.27246  0.89935  0.36849  1.0000
  Fe  Fe65      1.0  0.34419  0.87342  0.34302  1.0000
  S   S121      1.0  0.38916  0.89159  0.34588  1.0000
  Fe  Fe66      1.0  0.28830  0.82666  0.33880  1.0000
  S   S122      1.0  0.26434  0.78215  0.33484  1.0000
  S   S123      1.0  0.33012  0.90186  0.33183  1.0000
  S   S124      1.0  0.27139  0.85200  0.32692  1.0000
  Fe  Fe67      1.0  0.09260  0.67139  0.31887  1.0000
  S   S125      1.0  0.12069  0.65640  0.32916  1.0000
  S   S126      1.0  0.09499  0.69083  0.28953  1.0000
  Fe  Fe68      1.0  0.06476  0.66174  0.35903  1.0000
  S   S127      1.0  0.09029  0.64508  0.37140  1.0000
  S   S128      1.0  0.03132  0.66370  0.37609  1.0000
  Fe  Fe69      1.0  0.12342  0.67929  0.35718  1.0000
  S   S129      1.0  0.15836  0.70680  0.37637  1.0000
  Fe  Fe70      1.0  0.08500  0.62338  0.34233  1.0000
  S   S130      1.0  0.06913  0.57851  0.33774  1.0000
  S   S131      1.0  0.09809  0.69675  0.34601  1.0000
  S   S132      1.0  0.05675  0.63764  0.33072  1.0000
  H   H655      1.0  0.30682  0.81826  0.26270  1.0000
  C   C823      1.0  0.45606  0.52367  0.35049  1.0000
  C   C824      1.0  0.42947  0.50620  0.34555  1.0000
  C   C825      1.0  0.41517  0.51399  0.33277  1.0000
  C   C826      1.0  0.42785  0.53951  0.32513  1.0000
  C   C827      1.0  0.45436  0.55708  0.33022  1.0000
  H   H656      1.0  0.41700  0.54574  0.31526  1.0000
  C   C828      1.0  0.03017  0.63116  0.27209  1.0000
  C   C829      1.0  0.08363  0.55682  0.33798  1.0000
  C   C830      1.0  0.06734  0.52957  0.33461  1.0000
  C   C831      1.0  0.07762  0.51136  0.33525  1.0000
  C   C832      1.0  0.10436  0.52017  0.33960  1.0000
  C   C833      1.0  0.12078  0.54751  0.34244  1.0000
  C   C834      1.0  0.11052  0.56575  0.34163  1.0000
  H   H657      1.0  0.04651  0.52240  0.33182  1.0000
  H   H658      1.0  0.04089  0.59144  0.45514  1.0000
  H   H659      1.0  0.14151  0.55459  0.34568  1.0000
  H   H660      1.0  0.12333  0.58663  0.34410  1.0000
  C   C835      1.0  0.40991  0.87608  0.34467  1.0000
  C   C836      1.0  0.40035  0.84890  0.34693  1.0000
  C   C837      1.0  0.41789  0.83785  0.34758  1.0000
  C   C838      1.0  0.44514  0.85373  0.34578  1.0000
  C   C839      1.0  0.45459  0.88072  0.34264  1.0000
  C   C840      1.0  0.43709  0.89182  0.34224  1.0000
  H   H661      1.0  0.37954  0.83650  0.34880  1.0000
  H   H662      1.0  0.41033  0.81694  0.34995  1.0000
  C   C841      1.0  0.45267  0.81138  0.29843  1.0000
  H   H663      1.0  0.44473  0.91285  0.34046  1.0000
  C   C842      1.0  0.23411  0.76293  0.34617  1.0000
  C   C843      1.0  0.21507  0.74024  0.33614  1.0000
  C   C844      1.0  0.19130  0.72359  0.34496  1.0000
  C   C845      1.0  0.18687  0.72885  0.36424  1.0000
  C   C846      1.0  0.20595  0.75143  0.37434  1.0000
  C   C847      1.0  0.22927  0.76877  0.36521  1.0000
  H   H664      1.0  0.21871  0.73556  0.32145  1.0000
  H   H665      1.0  0.17680  0.70623  0.33705  1.0000
  H   H666      1.0  0.20287  0.75527  0.38935  1.0000
  H   H667      1.0  0.24393  0.78602  0.37315  1.0000
  C   C848      1.0  0.02692  0.70292  0.43517  1.0000
  C   C849      1.0  0.00482  0.69031  0.42262  1.0000
  C   C850      1.0  0.00662  0.67879  0.40452  1.0000
  C   C851      1.0  0.03054  0.67991  0.39859  1.0000
  C   C852      1.0  0.05280  0.69325  0.41088  1.0000
  C   C853      1.0  0.05099  0.70459  0.42903  1.0000
  C   C854      1.0  0.19329  0.81279  0.38399  1.0000
  H   H668      1.0  0.07129  0.69441  0.40650  1.0000
  H   H669      1.0  0.06825  0.71431  0.43857  1.0000
  H   H670      1.0  0.20377  0.78530  0.42497  1.0000
  H   H671      1.0  0.07831  0.76357  0.45049  1.0000
  H   H672      1.0  0.03628  0.80057  0.42352  1.0000
  C   C855      1.0  0.07631  0.51666  0.38732  1.0000
  C   C856      1.0  0.27150  0.94262  0.42698  1.0000
  C   C857      1.0  0.29182  0.93575  0.42348  1.0000
  C   C858      1.0  0.29238  0.92233  0.40592  1.0000
  C   C859      1.0  0.27265  0.91563  0.39137  1.0000
  C   C860      1.0  0.25234  0.92250  0.39483  1.0000
  C   C861      1.0  0.25175  0.93589  0.41239  1.0000
  H   H673      1.0  0.30730  0.94083  0.43450  1.0000
  H   H674      1.0  0.30823  0.91739  0.40361  1.0000
  H   H675      1.0  0.23714  0.91778  0.38367  1.0000
  H   H676      1.0  0.10282  0.53477  0.28122  1.0000
  S   S133      1.0  0.46654  0.83915  0.34874  1.0000
  C   C862      1.0  0.09371  0.67636  0.26601  1.0000
  C   C863      1.0  0.09154  0.65103  0.26367  1.0000
  H   H677      1.0  0.04005  0.63653  0.28637  1.0000
  H   H678      1.0  0.09108  0.63995  0.27645  1.0000
  C   C864      1.0  0.29465  0.89848  0.25199  1.0000
  C   C865      1.0  0.30577  0.88128  0.25277  1.0000
  H   H679      1.0  0.08539  0.53029  0.37571  1.0000
  H   H680      1.0  0.28883  0.90437  0.26533  1.0000
  H   H681      1.0  0.20933  0.84511  0.30551  1.0000
  H   H682      1.0  0.02919  0.66083  0.45425  1.0000
  H   H683      1.0  0.47548  0.89320  0.34128  1.0000
  H   H684      1.0  0.21692  0.97388  0.27211  1.0000
  C   C866      1.0  0.15707  0.58351  0.38573  1.0000
  H   H685      1.0  0.34374  0.92773  0.28413  1.0000
  C   C867      1.0  0.17660  0.83929  0.43728  1.0000
  C   C868      1.0  0.01289  0.64294  0.24343  1.0000
  H   H686      1.0  0.30615  0.92231  0.30394  1.0000
  H   H687      1.0  0.23608  0.94113  0.41461  1.0000
  H   H688      1.0  0.32495  0.95704  0.33415  1.0000
  C   C869      1.0  0.12827  0.60625  0.26113  1.0000
  H   H689      1.0  0.06697  0.83689  0.47485  1.0000
  C   C870      1.0  0.06611  0.50944  0.26550  1.0000
  C   C871      1.0  0.25011  0.90714  0.29071  1.0000
  C   C872      1.0  0.38925  0.53969  0.24597  1.0000
  C   C873      1.0  0.12471  0.76054  0.37537  1.0000
  C   C874      1.0  0.02970  0.53133  0.26733  1.0000
  H   H690      1.0  0.14336  0.63402  0.28569  1.0000
  H   H691      1.0  0.03822  0.51934  0.29537  1.0000
  H   H692      1.0  0.17595  0.75251  0.46448  1.0000
  C   C875      1.0  0.08904  0.63965  0.24475  1.0000
  C   C876      1.0  0.01169  0.59999  0.24463  1.0000
  C   C877      1.0  0.44672  0.83568  0.24119  1.0000
  H   H693      1.0  0.46375  0.57662  0.32427  1.0000
  C   C878      1.0  0.33750  0.94302  0.28436  1.0000
  H   H694      1.0  0.24824  0.91697  0.33995  1.0000
  C   C879      1.0  0.24606  0.75319  0.24542  1.0000
  C   C880      1.0  0.41170  0.85170  0.28730  1.0000
  C   C881      1.0  0.38292  0.89918  0.26441  1.0000
  C   C882      1.0  0.46006  0.50245  0.27219  1.0000
  C   C883      1.0  0.41631  0.83249  0.27738  1.0000
  P   P29       1.0  0.44819  0.84060  0.26762  1.0000
  C   C884      1.0  0.04487  0.60381  0.40255  1.0000
  H   H695      1.0  0.38058  0.85267  0.25130  1.0000
  H   H696      1.0  0.36818  0.89758  0.29347  1.0000
  C   C885      1.0  0.24416  0.96556  0.28904  1.0000
  C   C886      1.0  0.10414  0.87273  0.47857  1.0000
  H   H697      1.0  0.98923  0.66865  0.39514  1.0000
  H   H698      1.0  0.99927  0.56653  0.43597  1.0000
  C   C887      1.0  0.15941  0.48600  0.30006  1.0000
  H   H699      1.0  0.15988  0.55330  0.28095  1.0000
  C   C888      1.0  0.99092  0.59957  0.43448  1.0000
  C   C889      1.0  0.18130  0.88519  0.36929  1.0000
  C   C890      1.0  0.98774  0.53226  0.26505  1.0000
  H   H700      1.0  0.42690  0.87194  0.28892  1.0000
  H   H701      1.0  0.22949  0.73473  0.24071  1.0000
  H   H702      1.0  0.10718  0.49820  0.29637  1.0000
  C   C891      1.0  0.25603  0.92082  0.30891  1.0000
  H   H703      1.0  0.10813  0.70302  0.46718  1.0000
  C   C892      1.0  0.22736  0.87987  0.32446  1.0000
  H   H704      1.0  0.46538  0.61987  0.28679  1.0000
  C   C893      1.0  0.09413  0.69043  0.24920  1.0000
  C   C894      1.0  0.08814  0.51473  0.27768  1.0000
  S   S134      1.0  0.99914  0.76610  0.47347  1.0000
  H   H705      1.0  0.45964  0.91010  0.38304  1.0000
  C   C895      1.0  0.38556  0.90407  0.28468  1.0000
  C   C896      1.0  0.16601  0.54652  0.26800  1.0000
  C   C897      1.0  0.44702  0.49871  0.28998  1.0000
  C   C898      1.0  0.04566  0.55940  0.38511  1.0000
  H   H706      1.0  0.43738  0.53693  0.27565  1.0000
  C   C899      1.0  0.06168  0.57161  0.40179  1.0000
  C   C900      1.0  0.36768  0.81854  0.29462  1.0000
  H   H707      1.0  0.21303  0.86317  0.42291  1.0000
  H   H708      1.0  0.07434  0.60462  0.42259  1.0000
  C   C901      1.0  0.09948  0.57646  0.47721  1.0000
  H   H709      1.0  0.22925  0.86942  0.27543  1.0000
  H   H710      1.0  0.46769  0.89002  0.24592  1.0000
  C   C902      1.0  0.24409  0.90705  0.32571  1.0000
  H   H711      1.0  0.46693  0.51732  0.36027  1.0000
  C   C903      1.0  0.10141  0.80561  0.44594  1.0000
  C   C904      1.0  0.01099  0.53551  0.25645  1.0000
  C   C905      1.0  0.07309  0.52599  0.40572  1.0000
  C   C906      1.0  0.36569  0.50952  0.27152  1.0000
  C   C907      1.0  0.10055  0.82814  0.43879  1.0000
  C   C908      1.0  0.16459  0.86843  0.33646  1.0000
  H   H712      1.0  0.10530  0.87716  0.46319  1.0000
  H   H713      1.0  0.09582  0.71005  0.25086  1.0000
  C   C909      1.0  0.43027  0.91970  0.26211  1.0000
  C   C910      1.0  0.02502  0.64945  0.26207  1.0000
  H   H714      1.0  0.22147  0.90438  0.44134  1.0000
  H   H715      1.0  0.34801  0.80642  0.24459  1.0000
  H   H716      1.0  0.99754  0.51424  0.31044  1.0000
  C   C911      1.0  0.20384  0.88619  0.44378  1.0000
  C   C912      1.0  0.28005  0.77831  0.26999  1.0000
  C   C913      1.0  0.25836  0.75479  0.26366  1.0000
  C   C914      1.0  0.10692  0.60022  0.29217  1.0000
  C   C915      1.0  0.02883  0.59138  0.38607  1.0000
  C   C916      1.0  0.16177  0.75599  0.45598  1.0000
  H   H717      1.0  0.44787  0.92561  0.25383  1.0000
  H   H718      1.0  0.07055  0.56539  0.29474  1.0000
  C   C917      1.0  0.19907  0.86289  0.43354  1.0000
  C   C918      1.0  0.05453  0.80195  0.42947  1.0000
  Fe  Fe71      1.0  0.24742  0.97298  0.46962  1.0000
  C   C919      1.0  0.07003  0.56298  0.44870  1.0000
  H   H719      1.0  0.12269  0.73334  0.41487  1.0000
  H   H720      1.0  0.13667  0.54850  0.24913  1.0000
  H   H721      1.0  0.17331  0.82142  0.42933  1.0000
  C   C920      1.0  0.45373  0.55664  0.27671  1.0000
  P   P30       1.0  0.28023  0.95525  0.31073  1.0000
  C   C921      1.0  0.14976  0.74047  0.43914  1.0000
  C   C922      1.0  0.23314  0.87997  0.28945  1.0000
  C   C923      1.0  0.15891  0.83890  0.45144  1.0000
  H   H722      1.0  0.03103  0.66890  0.26867  1.0000
  H   H723      1.0  0.28903  0.77982  0.28439  1.0000
  H   H724      1.0  0.25084  0.73793  0.27307  1.0000
  C   C924      1.0  0.45995  0.81957  0.27921  1.0000
  C   C925      1.0  0.09544  0.78465  0.38991  1.0000
  C   C926      1.0  0.06130  0.59406  0.41034  1.0000
  C   C927      1.0  0.44868  0.57780  0.28150  1.0000
  C   C928      1.0  0.31620  0.94002  0.29562  1.0000
  C   C929      1.0  0.23823  0.83803  0.39670  1.0000
  C   C930      1.0  0.18690  0.54035  0.26937  1.0000
  H   H725      1.0  0.24822  0.82347  0.42268  1.0000
  C   C931      1.0  0.05524  0.77941  0.43638  1.0000
  H   H726      1.0  0.35851  0.50604  0.28636  1.0000
  H   H727      1.0  0.16910  0.77812  0.40032  1.0000
  C   C932      1.0  0.11578  0.57956  0.39780  1.0000
  H   H728      1.0  0.06437  0.74503  0.39332  1.0000
  H   H729      1.0  0.15465  0.72501  0.43449  1.0000
  H   H730      1.0  0.14022  0.58836  0.47153  1.0000
  H   H731      1.0  0.18953  0.90427  0.46519  1.0000
  C   C933      1.0  0.43287  0.92443  0.28243  1.0000
  H   H732      1.0  0.42015  0.48662  0.35144  1.0000
  C   C934      1.0  0.12230  0.60477  0.39083  1.0000
  C   C935      1.0  0.14594  0.61918  0.38134  1.0000
  H   H733      1.0  0.10913  0.61334  0.39255  1.0000
  H   H734      1.0  0.15064  0.63851  0.37576  1.0000
  H   H735      1.0  0.34909  0.81314  0.30158  1.0000
  C   C936      1.0  0.27647  0.97179  0.34876  1.0000
  H   H736      1.0  0.19693  0.54228  0.28338  1.0000
  H   H737      1.0  0.02855  0.59277  0.27093  1.0000
  H   H738      1.0  0.05812  0.51402  0.43482  1.0000
  C   C937      1.0  0.18594  0.88610  0.45741  1.0000
  C   C938      1.0  0.39644  0.80616  0.27646  1.0000
  C   C939      1.0  0.10790  0.58222  0.25401  1.0000
  H   H739      1.0  0.39995  0.79089  0.26951  1.0000
  C   C940      1.0  0.11043  0.64094  0.45145  1.0000
  H   H740      1.0  0.31234  0.98126  0.39107  1.0000
  H   H741      1.0  0.08412  0.79394  0.39566  1.0000
  C   C941      1.0  0.12063  0.58144  0.46515  1.0000
  H   H742      1.0  0.01765  0.56024  0.36408  1.0000
  C   C942      1.0  0.19443  0.53103  0.25280  1.0000
  H   H743      1.0  0.45221  0.93378  0.28951  1.0000
  C   C943      1.0  0.02434  0.52311  0.28674  1.0000
  C   C944      1.0  0.02928  0.60115  0.45113  1.0000
  H   H744      1.0  0.07654  0.84389  0.42563  1.0000
  C   C945      1.0  0.15292  0.54379  0.24998  1.0000
  C   C946      1.0  0.38747  0.84467  0.29590  1.0000
  H   H745      1.0  0.41247  0.92001  0.30948  1.0000
  C   C947      1.0  0.11651  0.57711  0.44486  1.0000
  C   C948      1.0  0.13176  0.74519  0.42806  1.0000
  H   H746      1.0  0.21028  0.52573  0.25399  1.0000
  P   P31       1.0  0.13109  0.80820  0.45774  1.0000
  H   H747      1.0  0.09033  0.72376  0.38044  1.0000
  H   H748      1.0  0.13311  0.58071  0.43583  1.0000
  C   C949      1.0  0.08649  0.56730  0.26582  1.0000
  H   H749      1.0  0.17556  0.90818  0.34684  1.0000
  C   C950      1.0  0.30678  0.97715  0.37564  1.0000
  C   C951      1.0  0.30758  0.95939  0.29579  1.0000
  H   H750      1.0  0.03753  0.76061  0.43575  1.0000
  C   C952      1.0  0.15582  0.77627  0.46171  1.0000
  C   C953      1.0  0.02288  0.64021  0.45063  1.0000
  C   C954      1.0  0.35024  0.96528  0.27301  1.0000
  H   H751      1.0  0.35697  0.77892  0.28433  1.0000
  H   H752      1.0  0.08517  0.78672  0.48366  1.0000
  C   C955      1.0  0.07308  0.62889  0.48999  1.0000
  C   C956      1.0  0.09305  0.72410  0.48484  1.0000
  H   H753      1.0  0.25895  0.91745  0.27753  1.0000
  H   H754      1.0  0.05025  0.55531  0.44252  1.0000
  C   C957      1.0  0.17401  0.88912  0.35049  1.0000
  H   H755      1.0  0.38196  0.55171  0.27446  1.0000
  H   H756      1.0  0.45322  0.51465  0.30089  1.0000
  C   C958      1.0  0.07419  0.56724  0.46898  1.0000
  H   H757      1.0  0.15370  0.49793  0.30946  1.0000
  C   C959      1.0  0.06104  0.50770  0.42048  1.0000
  H   H758      1.0  0.10655  0.60697  0.30703  1.0000
  C   C960      1.0  0.23390  0.98192  0.28207  1.0000
  S   S135      1.0  0.15149  0.91925  0.48225  1.0000
  C   C961      1.0  0.46227  0.79592  0.30785  1.0000
  C   C962      1.0  0.12940  0.66151  0.42097  1.0000
  C   C963      1.0  0.11227  0.67266  0.42020  1.0000
  C   C964      1.0  0.09443  0.66819  0.43513  1.0000
  H   H759      1.0  0.06473  0.49045  0.33285  1.0000
  H   H760      1.0  0.44021  0.81756  0.30649  1.0000
  H   H761      1.0  0.18837  0.90114  0.38025  1.0000
  H   H762      1.0  0.11761  0.84735  0.43989  1.0000
  H   H763      1.0  0.25862  0.97201  0.34359  1.0000
  C   C965      1.0  0.07103  0.67636  0.47985  1.0000
  S   S136      1.0  0.11801  0.49794  0.34251  1.0000
  C   C966      1.0  0.16268  0.84385  0.34114  1.0000
  C   C967      1.0  0.28998  0.80000  0.25782  1.0000
  H   H764      1.0  0.08687  0.61989  0.24318  1.0000
  C   C968      1.0  0.08225  0.84978  0.48517  1.0000
  H   H765      1.0  0.04513  0.62156  0.40881  1.0000
  H   H766      1.0  0.01680  0.59955  0.37965  1.0000
  C   C969      1.0  0.32077  0.98196  0.28459  1.0000
  H   H767      1.0  0.14146  0.63659  0.43690  1.0000
  H   H768      1.0  0.14325  0.66512  0.40934  1.0000
  H   H769      1.0  0.11280  0.68464  0.40790  1.0000
  H   H770      1.0  0.08113  0.67674  0.43436  1.0000
  C   C970      1.0  0.12098  0.80019  0.38354  1.0000
  C   C971      1.0  0.17202  0.79274  0.34383  1.0000
  C   C972      1.0  0.15006  0.77534  0.33223  1.0000
  C   C973      1.0  0.15337  0.76330  0.31519  1.0000
  C   C974      1.0  0.17861  0.76916  0.30924  1.0000
  C   C975      1.0  0.20057  0.78713  0.32028  1.0000
  C   C976      1.0  0.19733  0.79871  0.33757  1.0000
  C   C977      1.0  0.18812  0.79516  0.39931  1.0000
  C   C978      1.0  0.20780  0.79912  0.41331  1.0000
  C   C979      1.0  0.23285  0.82054  0.41200  1.0000
  H   H771      1.0  0.10905  0.74329  0.48191  1.0000
  H   H772      1.0  0.12900  0.82146  0.38447  1.0000
  H   H773      1.0  0.13030  0.77080  0.33630  1.0000
  H   H774      1.0  0.13631  0.74916  0.30668  1.0000
  H   H775      1.0  0.18116  0.75955  0.29620  1.0000
  H   H776      1.0  0.22018  0.79148  0.31577  1.0000
  H   H777      1.0  0.98614  0.68875  0.42707  1.0000
  H   H778      1.0  0.21469  0.81199  0.34606  1.0000
  H   H779      1.0  0.12902  0.54974  0.40057  1.0000
  H   H780      1.0  0.15524  0.82806  0.33009  1.0000
  H   H781      1.0  0.04651  0.54299  0.37753  1.0000
  C   C980      1.0  0.07850  0.78119  0.44465  1.0000
  C   C981      1.0  0.09357  0.65264  0.45100  1.0000
  H   H782      1.0  0.36337  0.88882  0.25777  1.0000
  H   H783      1.0  0.42891  0.57416  0.28471  1.0000
  P   P32       1.0  0.16785  0.80813  0.36605  1.0000
  C   C982      1.0  0.13761  0.78106  0.45071  1.0000
  H   H784      1.0  0.15005  0.86297  0.47202  1.0000
  C   C983      1.0  0.02371  0.60652  0.26332  1.0000
  C   C984      1.0  0.21857  0.83421  0.38276  1.0000
  H   H785      1.0  0.25772  0.85456  0.39555  1.0000
  C   C985      1.0  0.13558  0.78823  0.37571  1.0000
  H   H786      1.0  0.15883  0.87145  0.32191  1.0000
  C   C986      1.0  0.07720  0.82629  0.43064  1.0000
  H   H787      1.0  0.18145  0.61956  0.37113  1.0000
  P   P33       1.0  0.06024  0.53606  0.25674  1.0000
  C   C987      1.0  0.12841  0.64555  0.43653  1.0000
  C   C988      1.0  0.08633  0.57646  0.28503  1.0000
  C   C989      1.0  0.16330  0.60852  0.37873  1.0000
  C   C990      1.0  0.17948  0.86068  0.37401  1.0000
  C   C991      1.0  0.02920  0.56918  0.37739  1.0000
  C   C992      1.0  0.08433  0.75711  0.38866  1.0000
  H   H788      1.0  0.18506  0.85800  0.38871  1.0000
  C   C993      1.0  0.37926  0.53526  0.26487  1.0000
  C   C994      1.0  0.13348  0.56910  0.39530  1.0000
  P   P34       1.0  0.08537  0.56117  0.41038  1.0000
  H   H789      1.0  0.10953  0.62796  0.46302  1.0000
  C   C995      1.0  0.22187  0.86629  0.30636  1.0000
  C   C996      1.0  0.00120  0.52008  0.29533  1.0000
  H   H790      1.0  0.21940  0.86929  0.33770  1.0000
  H   H791      1.0  0.38422  0.85935  0.30407  1.0000
  C   C997      1.0  0.16354  0.86261  0.46123  1.0000
  C   C998      1.0  0.09116  0.56790  0.43647  1.0000
  H   H792      1.0  0.17037  0.57507  0.38347  1.0000
  C   C999      1.0  0.37214  0.79929  0.28489  1.0000
  C   C1000     1.0  0.03792  0.62778  0.45652  1.0000
  H   H793      1.0  0.22327  0.84799  0.37098  1.0000
  C   C1001     1.0  0.09903  0.74511  0.38149  1.0000
  C   C1002     1.0  0.17046  0.83990  0.35989  1.0000
  H   H794      1.0  0.13583  0.75083  0.36989  1.0000
  C   C1003     1.0  0.41052  0.91667  0.29370  1.0000
  H   H795      1.0  0.11250  0.76932  0.42458  1.0000
  H   H796      1.0  0.05775  0.56305  0.47836  1.0000
  H   H797      1.0  0.01414  0.54120  0.24135  1.0000
  S   S137      1.0  0.38211  0.49238  0.32481  1.0000
  C   C1004     1.0  0.46870  0.54925  0.34293  1.0000
  P   P35       1.0  0.06917  0.64624  0.46939  1.0000
  H   H798      1.0  0.23479  0.94500  0.28430  1.0000
  C   C1005     1.0  0.98293  0.52473  0.28452  1.0000
  C   C1006     1.0  0.40524  0.90715  0.25287  1.0000
  C   C1007     1.0  0.47126  0.87447  0.27397  1.0000
  H   H799      1.0  0.45715  0.79046  0.32290  1.0000
  C   C1008     1.0  0.00575  0.58703  0.44028  1.0000
  C   C1009     1.0  0.46922  0.60356  0.28270  1.0000
  C   C1010     1.0  0.26626  0.97586  0.30187  1.0000
  C   C1011     1.0  0.31364  0.96335  0.34338  1.0000
  C   C1012     1.0  0.09081  0.49402  0.28630  1.0000
  C   C1013     1.0  0.09227  0.70118  0.47639  1.0000
  C   C1014     1.0  0.29118  0.96450  0.33601  1.0000
  C   C1015     1.0  0.99948  0.62613  0.43968  1.0000
  C   C1016     1.0  0.28434  0.97821  0.36847  1.0000
  C   C1017     1.0  0.36099  0.48813  0.25894  1.0000
  H   H800      1.0  0.33823  0.96796  0.36888  1.0000
  H   H801      1.0  0.46138  0.86805  0.38796  1.0000
  C   C1018     1.0  0.32136  0.96965  0.36313  1.0000
  H   H802      1.0  0.36645  0.96731  0.26404  1.0000
  H   H803      1.0  0.14431  0.61810  0.25184  1.0000
  C   C1019     1.0  0.06829  0.48973  0.38386  1.0000
  H   H804      1.0  0.16564  0.78833  0.47462  1.0000
  S   S138      1.0  0.21232  0.97921  0.46182  1.0000
  H   H805      1.0  0.13646  0.48686  0.27507  1.0000
  C   C1020     1.0  0.12788  0.80860  0.48407  1.0000
  H   H806      1.0  0.98814  0.63599  0.43505  1.0000
  H   H807      1.0  0.27268  0.98326  0.37839  1.0000
  H   H808      1.0  0.16985  0.83073  0.49034  1.0000
  H   H809      1.0  0.39935  0.55974  0.24095  1.0000
  C   C1021     1.0  0.98159  0.73945  0.69085  1.0000
  C   C1022     1.0  0.05216  0.69769  0.50085  1.0000
  H   H810      1.0  0.08129  0.59510  0.53675  1.0000
  C   C1023     1.0  0.10079  0.62588  0.51615  1.0000
  Fe  Fe72      1.0  0.01574  0.77684  0.50427  1.0000
  S   S139      1.0  0.05165  0.81626  0.51483  1.0000
  S   S140      1.0  0.22828  0.94837  0.49579  1.0000
  S   S141      1.0  0.01634  0.73807  0.50909  1.0000
  H   H811      1.0  0.98274  0.77419  0.70482  1.0000
  C   C1024     1.0  0.07982  0.84399  0.50513  1.0000
  C   C1025     1.0  0.10017  0.86129  0.51815  1.0000
  C   C1026     1.0  0.12232  0.88392  0.51149  1.0000
  H   H812      1.0  0.09876  0.85721  0.53361  1.0000
  H   H813      1.0  0.13754  0.89685  0.52183  1.0000
  C   C1027     1.0  0.07905  0.60440  0.52365  1.0000
  H   H814      1.0  0.01401  0.83712  0.53171  1.0000
  H   H815      1.0  0.03473  0.65587  0.49536  1.0000
  C   C1028     1.0  0.99494  0.83021  0.52439  1.0000
  H   H816      1.0  0.16554  0.83212  0.52609  1.0000
  C   C1029     1.0  0.38160  0.92410  0.55181  1.0000
  H   H817      1.0  0.99864  0.75052  0.68211  1.0000
  C   C1030     1.0  0.12441  0.89014  0.49162  1.0000
  H   H818      1.0  0.08162  0.78772  0.51930  1.0000
  H   H819      1.0  0.37712  0.95655  0.54050  1.0000
  H   H820      1.0  0.12143  0.81068  0.54069  1.0000
  C   C1031     1.0  0.05120  0.60775  0.49792  1.0000
  H   H821      1.0  0.38041  0.90937  0.59993  1.0000
  C   C1032     1.0  0.10089  0.79670  0.51290  1.0000
  C   C1033     1.0  0.14813  0.82175  0.51673  1.0000
  C   C1034     1.0  0.37469  0.95567  0.57217  1.0000
  H   H822      1.0  0.11464  0.65542  0.49424  1.0000
  C   C1035     1.0  0.15044  0.82103  0.49640  1.0000
  C   C1036     1.0  0.32932  0.97974  0.54874  1.0000
  H   H823      1.0  0.03641  0.69639  0.51005  1.0000
  C   C1037     1.0  0.99313  0.82858  0.50396  1.0000
  C   C1038     1.0  0.32468  0.95495  0.59569  1.0000
  H   H824      1.0  0.31565  0.97017  0.56020  1.0000
  H   H825      1.0  0.11988  0.63329  0.52350  1.0000
  H   H826      1.0  0.38566  0.89340  0.56705  1.0000
  C   C1039     1.0  0.12335  0.80966  0.52498  1.0000
  C   C1040     1.0  0.30773  0.95026  0.61130  1.0000
  H   H827      1.0  0.03725  0.57930  0.52076  1.0000
  H   H828      1.0  0.07319  0.74005  0.50320  1.0000
  H   H829      1.0  0.37354  0.94885  0.60334  1.0000
  C   C1041     1.0  0.07295  0.72234  0.49697  1.0000
  C   C1042     1.0  0.37563  0.94204  0.58885  1.0000
  C   C1043     1.0  0.37956  0.91967  0.58699  1.0000
  H   H830      1.0  0.32004  0.93961  0.58450  1.0000
  H   H831      1.0  0.29008  0.93154  0.61199  1.0000
  C   C1044     1.0  0.09778  0.63825  0.49951  1.0000
  C   C1045     1.0  0.34740  0.97932  0.59451  1.0000
  H   H832      1.0  0.38395  0.91716  0.53744  1.0000
  H   H833      1.0  0.30045  0.96609  0.63810  1.0000
  C   C1046     1.0  0.31923  0.98206  0.53050  1.0000
  C   C1047     1.0  0.05122  0.67478  0.49238  1.0000
  C   C1048     1.0  0.38254  0.91070  0.56848  1.0000
  C   C1049     1.0  0.37772  0.94651  0.55362  1.0000
  C   C1050     1.0  0.05425  0.59543  0.51459  1.0000
  H   H834      1.0  0.97772  0.66411  0.71808  1.0000
  C   C1051     1.0  0.31354  0.96970  0.62599  1.0000
  C   C1052     1.0  0.10305  0.79624  0.49255  1.0000
  H   H835      1.0  0.10265  0.57955  0.49294  1.0000
  H   H836      1.0  0.29817  0.97428  0.52814  1.0000
  H   H837      1.0  0.01074  0.83418  0.49558  1.0000
  H   H838      1.0  0.03163  0.60117  0.49165  1.0000
  H   H839      1.0  0.97649  0.70195  0.67985  1.0000
  C   C1053     1.0  0.01551  0.71744  0.89700  1.0000
  H   H840      1.0  0.19188  0.87661  0.95255  1.0000
  C   C1054     1.0  0.10824  0.70323  0.91356  1.0000
  H   H841      1.0  0.33702  0.87772  0.92365  1.0000
  C   C1055     1.0  0.23351  0.89661  0.95977  1.0000
  H   H842      1.0  0.08332  0.72554  0.96200  1.0000
  C   C1056     1.0  0.99625  0.70347  0.88249  1.0000
  C   C1057     1.0  0.02307  0.70384  0.91056  1.0000
  H   H843      1.0  0.09663  0.77313  0.93506  1.0000
  H   H844      1.0  0.11462  0.68876  0.91756  1.0000
  C   C1058     1.0  0.01172  0.67683  0.97488  1.0000
  H   H845      1.0  0.07609  0.68854  0.93321  1.0000
  C   C1059     1.0  0.07816  0.72204  0.91745  1.0000
  S   S142      1.0  0.01623  0.73978  0.98518  1.0000
  H   H846      1.0  0.10192  0.81771  0.94328  1.0000
  H   H847      1.0  0.12274  0.75360  0.88237  1.0000
  H   H848      1.0  0.98998  0.71398  0.87237  1.0000
  C   C1060     1.0  0.99252  0.66226  0.89439  1.0000
  H   H849      1.0  0.13815  0.72128  0.89219  1.0000
  C   C1061     1.0  0.25706  0.92022  0.95867  1.0000
  C   C1062     1.0  0.12144  0.72150  0.89923  1.0000
  C   C1063     1.0  0.07932  0.77596  0.93630  1.0000
  H   H850      1.0  0.27510  0.95934  0.94650  1.0000
  C   C1064     1.0  0.30239  0.90863  0.95601  1.0000
  H   H851      1.0  0.98316  0.64083  0.89356  1.0000
  C   C1065     1.0  0.01679  0.68883  0.95671  1.0000
  H   H852      1.0  0.13736  0.85182  0.97550  1.0000
  C   C1066     1.0  0.03520  0.78397  0.94148  1.0000
  C   C1067     1.0  0.11280  0.73974  0.89373  1.0000
  H   H853      1.0  0.01243  0.74253  0.93496  1.0000
  C   C1068     1.0  0.06037  0.80520  0.94376  1.0000
  H   H854      1.0  0.08423  0.75373  0.89798  1.0000
  C   C1069     1.0  0.08652  0.70333  0.92255  1.0000
  H   H855      1.0  0.23404  0.95550  0.93196  1.0000
  P   P36       1.0  0.28673  0.92358  0.97087  1.0000
  H   H856      1.0  0.28991  0.86518  0.91743  1.0000
  C   C1070     1.0  0.32909  0.91569  0.95936  1.0000
  C   C1071     1.0  0.12290  0.85744  0.98073  1.0000
  C   C1072     1.0  0.04271  0.70580  0.95160  1.0000
  H   H857      1.0  0.01810  0.78690  0.94409  1.0000
  C   C1073     1.0  0.08244  0.80123  0.94112  1.0000
  C   C1074     1.0  0.09109  0.73987  0.90268  1.0000
  S   S143      1.0  0.16254  0.90899  0.97675  1.0000
  C   C1075     1.0  0.21042  0.91567  0.94118  1.0000
  H   H858      1.0  0.26783  0.88468  0.93773  1.0000
  C   C1076     1.0  0.98480  0.67591  0.88117  1.0000
  H   H859      1.0  0.23305  0.88017  0.96768  1.0000
  P   P37       1.0  0.04949  0.72163  0.92827  1.0000
  H   H860      1.0  0.06274  0.82460  0.94808  1.0000
  C   C1077     1.0  0.03204  0.75882  0.93636  1.0000
  C   C1078     1.0  0.30897  0.95840  0.97444  1.0000
  H   H861      1.0  0.19219  0.91434  0.93521  1.0000
  H   H862      1.0  0.02435  0.73879  0.89761  1.0000
  C   C1079     1.0  0.01182  0.67615  0.90887  1.0000
  C   C1080     1.0  0.13004  0.88457  0.98338  1.0000
  C   C1081     1.0  0.05401  0.75463  0.93352  1.0000
  C   C1082     1.0  0.23394  0.93886  0.93942  1.0000
  H   H863      1.0  0.34038  0.92997  0.97091  1.0000
  C   C1083     1.0  0.32735  0.88626  0.93270  1.0000
  H   H864      1.0  0.41094  0.96571  0.79302  1.0000
  C   C1084     1.0  0.30080  0.87917  0.92922  1.0000
  C   C1085     1.0  0.25724  0.94104  0.94791  1.0000
  C   C1086     1.0  0.28833  0.89029  0.94081  1.0000
  H   H865      1.0  0.32650  0.96266  0.94597  1.0000
  H   H866      1.0  0.98710  0.65220  0.75084  1.0000
  H   H867      1.0  0.36211  0.91012  0.95042  1.0000
  C   C1087     1.0  0.21027  0.89442  0.95109  1.0000
  Fe  Fe73      1.0  0.19349  0.95327  0.98258  1.0000
  C   C1088     1.0  0.34149  0.90451  0.94777  1.0000
  H   H868      1.0  0.00038  0.68529  0.94691  1.0000
  C   C1089     1.0  0.32627  0.97244  0.95966  1.0000
  H   H869      1.0  0.01775  0.66524  0.91885  1.0000
  H   H870      1.0  0.37760  0.97790  0.80592  1.0000
  H   H871      1.0  0.09227  0.81686  0.98248  1.0000
  C   C1090     1.0  0.06333  0.71162  0.96531  1.0000
  C   C1091     1.0  0.05819  0.69959  0.98349  1.0000
  C   C1092     1.0  0.03243  0.68200  0.98818  1.0000
  C   C1093     1.0  0.09718  0.83745  0.98462  1.0000
  H   H872      1.0  0.99165  0.66406  0.97890  1.0000
  Fe  Fe74      1.0  0.97572  0.72268  0.97028  1.0000
  S   S144      1.0  0.23442  0.95847  0.98984  1.0000
  C   C1094     1.0  0.11087  0.89118  0.99033  1.0000
  H   H873      1.0  0.19165  0.88045  0.98978  1.0000
  Fe  Fe75      1.0  0.75614  0.01273  0.00795  1.0000
  H   H874      1.0  0.73180  0.00304  0.06464  1.0000
  C   C1095     1.0  0.69084  0.11470  0.07305  1.0000
  C   C1096     1.0  0.67687  0.12352  0.06086  1.0000
  C   C1097     1.0  0.84548  0.22479  0.00730  1.0000
  C   C1098     1.0  0.67489  0.07410  0.05329  1.0000
  H   H875      1.0  0.67741  0.02528  0.08892  1.0000
  H   H876      1.0  0.77276  0.04417  0.05901  1.0000
  C   C1099     1.0  0.66048  0.08284  0.04133  1.0000
  C   C1100     1.0  0.86459  0.22253  0.01896  1.0000
  C   C1101     1.0  0.66163  0.10756  0.04505  1.0000
  C   C1102     1.0  0.87275  0.20362  0.01407  1.0000
  H   H877      1.0  0.69183  0.06876  0.01216  1.0000
  S   S145      1.0  0.79306  0.05065  0.01936  1.0000
  H   H878      1.0  0.83305  0.09851  0.03797  1.0000
  C   C1103     1.0  0.64239  0.99583  0.99915  1.0000
  C   C1104     1.0  0.75244  0.06672  0.05180  1.0000
  C   C1105     1.0  0.67738  0.04858  0.00868  1.0000
  H   H879      1.0  0.68870  0.00231  0.06039  1.0000
  H   H880      1.0  0.67769  0.14263  0.06377  1.0000
  H   H881      1.0  0.87413  0.13599  0.02667  1.0000
  H   H882      1.0  0.83918  0.23947  0.01111  1.0000
  C   C1106     1.0  0.66451  0.03111  0.02368  1.0000
  H   H883      1.0  0.77037  0.08424  0.04855  1.0000
  S   S146      1.0  0.71753  0.01414  0.00518  1.0000
  H   H884      1.0  0.70243  0.12692  0.08544  1.0000
  C   C1107     1.0  0.62199  0.00952  0.06101  1.0000
  C   C1108     1.0  0.83860  0.09861  0.02291  1.0000
  H   H885      1.0  0.61535  0.01338  0.04709  1.0000
  C   C1109     1.0  0.86203  0.12002  0.01652  1.0000
  C   C1110     1.0  0.64896  0.02071  0.06589  1.0000
  C   C1111     1.0  0.82245  0.07727  0.01012  1.0000
  H   H886      1.0  0.87316  0.23545  0.03176  1.0000
  H   H887      1.0  0.64433  0.99536  0.11141  1.0000
  H   H888      1.0  0.70035  0.08322  0.07910  1.0000
  H   H889      1.0  0.64819  0.07051  0.02925  1.0000
  C   C1112     1.0  0.70638  0.02055  0.05849  1.0000
  H   H890      1.0  0.78307  0.09649  0.01075  1.0000
  H   H891      1.0  0.88756  0.20178  0.02307  1.0000
  P   P38       1.0  0.67301  0.04202  0.04898  1.0000
  C   C1113     1.0  0.65686  0.01624  0.08445  1.0000
  C   C1114     1.0  0.60335  0.99281  0.07398  1.0000
  H   H892      1.0  0.55542  0.04195  0.99366  1.0000
  C   C1115     1.0  0.68973  0.08999  0.06937  1.0000
  H   H893      1.0  0.63804  0.99038  0.03001  1.0000
  H   H894      1.0  0.72725  0.08387  0.04436  1.0000
  C   C1116     1.0  0.73079  0.02091  0.06085  1.0000
  C   C1117     1.0  0.75383  0.04405  0.05765  1.0000
  C   C1118     1.0  0.83011  0.07797  0.99065  1.0000
  C   C1119     1.0  0.72798  0.06640  0.04948  1.0000
  C   C1120     1.0  0.70477  0.04343  0.05334  1.0000
  C   C1121     1.0  0.64716  0.00462  0.01876  1.0000
  H   H895      1.0  0.65053  0.11427  0.03576  1.0000
  H   H896      1.0  0.81708  0.14029  0.00172  1.0000
  C   C1122     1.0  0.63816  0.99961  0.09739  1.0000
  C   C1123     1.0  0.61146  0.98770  0.09209  1.0000
  C   C1124     1.0  0.78361  0.10286  0.99584  1.0000
  H   H897      1.0  0.86865  0.17267  0.99385  1.0000
  C   C1125     1.0  0.86207  0.18719  0.99742  1.0000
  C   C1126     1.0  0.87000  0.12045  0.99718  1.0000
  S   S147      1.0  0.93827  0.22730  0.99607  1.0000
  S   S148      1.0  0.97254  0.19994  0.01452  1.0000
  Fe  Fe76      1.0  0.93750  0.18718  0.99364  1.0000
  C   C1127     1.0  0.83464  0.20824  0.99067  1.0000
  C   C1128     1.0  0.80293  0.12777  0.99059  1.0000
  C   C1129     1.0  0.94324  0.14341  0.45931  1.0000
  C   C1130     1.0  0.92085  0.17235  0.42478  1.0000
  S   S149      1.0  0.90030  0.16797  0.48849  1.0000
  H   H898      1.0  0.49679  0.37770  0.48350  1.0000
  H   H899      1.0  0.92881  0.24338  0.43285  1.0000
  H   H900      1.0  0.82079  0.05875  0.44571  1.0000
  H   H901      1.0  0.95218  0.19038  0.40420  1.0000
  C   C1131     1.0  0.94627  0.14338  0.43897  1.0000
  C   C1132     1.0  0.85056  0.12454  0.48639  1.0000
  H   H902      1.0  0.91165  0.14308  0.35082  1.0000
  H   H903      1.0  0.92486  0.14087  0.46525  1.0000
  H   H904      1.0  0.93444  0.30955  0.48784  1.0000
  C   C1133     1.0  0.90541  0.17724  0.43838  1.0000
  H   H905      1.0  0.53842  0.05426  0.40785  1.0000
  C   C1134     1.0  0.93926  0.19340  0.41416  1.0000
  C   C1135     1.0  0.52903  0.01451  0.41558  1.0000
  H   H906      1.0  0.95612  0.23516  0.40885  1.0000
  C   C1136     1.0  0.88839  0.11451  0.43031  1.0000
  H   H907      1.0  0.57688  0.01797  0.37491  1.0000
  C   C1137     1.0  0.86498  0.11499  0.42459  1.0000
  C   C1138     1.0  0.83957  0.07397  0.44098  1.0000
  H   H908      1.0  0.82269  0.09575  0.42616  1.0000
  H   H909      1.0  0.93615  0.10292  0.40617  1.0000
  C   C1139     1.0  0.92335  0.13172  0.39796  1.0000
  C   C1140     1.0  0.88709  0.09313  0.44093  1.0000
  H   H910      1.0  0.84381  0.13894  0.48316  1.0000
  C   C1141     1.0  0.94162  0.21877  0.41676  1.0000
  Fe  Fe77      1.0  0.71676  0.98621  0.46962  1.0000
  C   C1142     1.0  0.91564  0.14230  0.38221  1.0000
  C   C1143     1.0  0.96426  0.14796  0.47214  1.0000
  H   H911      1.0  0.56890  0.05620  0.38181  1.0000
  C   C1144     1.0  0.54999  0.99336  0.39659  1.0000
  H   H912      1.0  0.90803  0.15627  0.38476  1.0000
  S   S150      1.0  0.73810  0.02249  0.49002  1.0000
  C   C1145     1.0  0.92615  0.22346  0.43032  1.0000
  C   C1146     1.0  0.86274  0.07296  0.44624  1.0000
  C   C1147     1.0  0.92628  0.11597  0.35925  1.0000
  C   C1148     1.0  0.93137  0.11228  0.39419  1.0000
  P   P39       1.0  0.91964  0.14024  0.42288  1.0000
  H   H913      1.0  0.90481  0.09207  0.44527  1.0000
  Fe  Fe78      1.0  0.77324  0.01462  0.48904  1.0000
  H   H914      1.0  0.92753  0.11000  0.34430  1.0000
  H   H915      1.0  0.86551  0.13104  0.41607  1.0000
  C   C1149     1.0  0.81598  0.98670  0.45855  1.0000
  C   C1150     1.0  0.87771  0.13323  0.48980  1.0000
  H   H916      1.0  0.89188  0.16163  0.44735  1.0000
  H   H917      1.0  0.86177  0.05690  0.45498  1.0000
  C   C1151     1.0  0.56311  0.01655  0.38605  1.0000
  C   C1152     1.0  0.62304  0.98954  0.42604  1.0000
  C   C1153     1.0  0.54169  0.03732  0.40474  1.0000
  H   H918      1.0  0.89674  0.20645  0.45219  1.0000
  C   C1154     1.0  0.90809  0.20270  0.44116  1.0000
  C   C1155     1.0  0.84068  0.09493  0.43011  1.0000
  H   H919      1.0  0.64365  0.00369  0.42515  1.0000
  C   C1156     1.0  0.93311  0.10466  0.37488  1.0000
  C   C1157     1.0  0.91740  0.13466  0.36292  1.0000
  H   H920      1.0  0.61232  0.99947  0.39835  1.0000
  C   C1158     1.0  0.55880  0.03838  0.39003  1.0000
  H   H921      1.0  0.51600  0.01379  0.42715  1.0000
  H   H922      1.0  0.81135  0.09126  0.48393  1.0000
  H   H923      1.0  0.70906  0.09121  0.48354  1.0000
  C   C1159     1.0  0.97089  0.14864  0.43162  1.0000
  H   H924      1.0  0.82112  0.00587  0.45255  1.0000
  C   C1160     1.0  0.83200  0.09739  0.48683  1.0000
  C   C1161     1.0  0.60530  0.98685  0.41081  1.0000
  C   C1162     1.0  0.53331  0.99267  0.41164  1.0000
  H   H925      1.0  0.93953  0.08982  0.37204  1.0000
  S   S151      1.0  0.69531  0.98525  0.44041  1.0000
  C   C1163     1.0  0.82787  0.98509  0.47617  1.0000
  S   S152      1.0  0.81828  0.04324  0.48944  1.0000
  Fe  Fe79      1.0  0.94362  0.20188  0.49005  1.0000
  S   S153      1.0  0.94726  0.24322  0.48935  1.0000
  H   H926      1.0  0.84227  0.00323  0.48323  1.0000
  H   H927      1.0  0.97419  0.15011  0.41604  1.0000
  H   H928      1.0  0.96197  0.14873  0.48783  1.0000
  S   S154      1.0  0.97192  0.21117  0.51594  1.0000
  H   H929      1.0  0.56395  0.44125  0.61722  1.0000
  H   H930      1.0  0.66183  0.19226  0.68774  1.0000
  Fe  Fe80      1.0  0.88290  0.29987  0.62717  1.0000
  S   S155      1.0  0.85927  0.32057  0.61798  1.0000
  S   S156      1.0  0.89111  0.27523  0.60332  1.0000
  Fe  Fe81      1.0  0.87133  0.30529  0.67177  1.0000
  S   S157      1.0  0.84654  0.32514  0.66453  1.0000
  S   S158      1.0  0.86977  0.29006  0.70287  1.0000
  Fe  Fe82      1.0  0.82969  0.29525  0.63963  1.0000
  S   S159      1.0  0.78653  0.27225  0.63078  1.0000
  Fe  Fe83      1.0  0.87841  0.34876  0.64379  1.0000
  S   S160      1.0  0.89722  0.39400  0.64434  1.0000
  S   S161      1.0  0.85223  0.27382  0.64801  1.0000
  S   S162      1.0  0.90447  0.32985  0.65187  1.0000
  Fe  Fe84      1.0  0.65799  0.07817  0.62388  1.0000
  S   S163      1.0  0.66367  0.12015  0.62419  1.0000
  S   S164      1.0  0.66330  0.06383  0.59308  1.0000
  Fe  Fe85      1.0  0.64349  0.07307  0.66775  1.0000
  S   S165      1.0  0.64814  0.11411  0.67025  1.0000
  S   S166      1.0  0.62931  0.04853  0.69511  1.0000
  Fe  Fe86      1.0  0.62619  0.10499  0.64120  1.0000
  S   S167      1.0  0.59634  0.12050  0.63523  1.0000
  Fe  Fe87      1.0  0.68470  0.12533  0.65319  1.0000
  S   S168      1.0  0.72357  0.15776  0.66540  1.0000
  S   S169      1.0  0.61916  0.06287  0.63940  1.0000
  S   S170      1.0  0.68146  0.08444  0.65216  1.0000
  C   C1164     1.0  0.79216  0.34788  0.71204  1.0000
  H   H931      1.0  0.75444  0.41329  0.69298  1.0000
  C   C1165     1.0  0.85965  0.34686  0.52599  1.0000
  C   C1166     1.0  0.56174  0.10472  0.63870  1.0000
  C   C1167     1.0  0.54764  0.11916  0.63585  1.0000
  C   C1168     1.0  0.52015  0.10740  0.63817  1.0000
  C   C1169     1.0  0.50638  0.08094  0.64335  1.0000
  C   C1170     1.0  0.52049  0.06656  0.64632  1.0000
  C   C1171     1.0  0.54798  0.07836  0.64408  1.0000
  H   H932      1.0  0.55806  0.13957  0.63169  1.0000
  H   H933      1.0  0.50965  0.11875  0.63578  1.0000
  H   H934      1.0  0.51007  0.04607  0.65025  1.0000
  H   H935      1.0  0.55849  0.06696  0.64621  1.0000
  C   C1172     1.0  0.67830  0.04667  0.58037  1.0000
  C   C1173     1.0  0.67712  0.04540  0.55970  1.0000
  C   C1174     1.0  0.68793  0.03148  0.54890  1.0000
  C   C1175     1.0  0.70009  0.01846  0.55861  1.0000
  C   C1176     1.0  0.70164  0.02006  0.57928  1.0000
  C   C1177     1.0  0.69096  0.03411  0.59008  1.0000
  H   H936      1.0  0.58409  0.04574  0.67740  1.0000
  H   H937      1.0  0.68626  0.03033  0.53309  1.0000
  H   H938      1.0  0.69211  0.03483  0.60592  1.0000
  C   C1178     1.0  0.76905  0.24019  0.64015  1.0000
  C   C1179     1.0  0.77972  0.23195  0.65548  1.0000
  C   C1180     1.0  0.76527  0.20678  0.66318  1.0000
  C   C1181     1.0  0.74036  0.18930  0.65530  1.0000
  C   C1182     1.0  0.72961  0.19738  0.63990  1.0000
  C   C1183     1.0  0.74383  0.22290  0.63250  1.0000
  H   H939      1.0  0.79881  0.24524  0.66181  1.0000
  H   H940      1.0  0.77347  0.20082  0.67531  1.0000
  H   H941      1.0  0.71031  0.18408  0.63382  1.0000
  H   H942      1.0  0.73535  0.22919  0.62074  1.0000
  H   H943      1.0  0.72669  0.46766  0.57352  1.0000
  C   C1184     1.0  0.55811  0.07939  0.70325  1.0000
  H   H944      1.0  0.75096  0.17612  0.59458  1.0000
  C   C1185     1.0  0.80868  0.23037  0.60661  1.0000
  C   C1186     1.0  0.95235  0.27635  0.55888  1.0000
  C   C1187     1.0  0.92589  0.25729  0.55733  1.0000
  C   C1188     1.0  0.90760  0.25743  0.57099  1.0000
  C   C1189     1.0  0.91526  0.27670  0.58630  1.0000
  C   C1190     1.0  0.94165  0.29590  0.58773  1.0000
  C   C1191     1.0  0.86417  0.46699  0.69153  1.0000
  H   H945      1.0  0.91960  0.24237  0.54568  1.0000
  H   H946      1.0  0.88731  0.24252  0.56974  1.0000
  H   H947      1.0  0.94805  0.31078  0.59943  1.0000
  H   H948      1.0  0.91230  0.32451  0.58218  1.0000
  C   C1192     1.0  0.53905  0.44745  0.63766  1.0000
  C   C1193     1.0  0.54506  0.43243  0.62409  1.0000
  C   C1194     1.0  0.52645  0.40600  0.61924  1.0000
  C   C1195     1.0  0.50170  0.39401  0.62802  1.0000
  C   C1196     1.0  0.49583  0.40896  0.64174  1.0000
  C   C1197     1.0  0.51426  0.43547  0.64637  1.0000
  H   H949      1.0  0.80645  0.35112  0.66366  1.0000
  H   H950      1.0  0.53129  0.39472  0.60863  1.0000
  C   C1198     1.0  0.78788  0.42038  0.71159  1.0000
  C   C1199     1.0  0.85997  0.45046  0.63907  1.0000
  C   C1200     1.0  0.88650  0.46003  0.64457  1.0000
  C   C1201     1.0  0.89742  0.44243  0.64640  1.0000
  C   C1202     1.0  0.88200  0.41505  0.64288  1.0000
  C   C1203     1.0  0.85533  0.40540  0.63784  1.0000
  C   C1204     1.0  0.84444  0.42301  0.63593  1.0000
  C   C1205     1.0  0.64384  0.17687  0.69336  1.0000
  H   H951      1.0  0.91804  0.45014  0.65037  1.0000
  H   H952      1.0  0.84321  0.38445  0.63503  1.0000
  H   H953      1.0  0.82390  0.41535  0.63170  1.0000
  C   C1206     1.0  0.53971  0.13866  0.72501  1.0000
  C   C1207     1.0  0.64039  0.06244  0.71907  1.0000
  C   C1208     1.0  0.66565  0.08323  0.72254  1.0000
  C   C1209     1.0  0.76271  0.41761  0.70780  1.0000
  H   H954      1.0  0.67846  0.09168  0.71038  1.0000
  H   H955      1.0  0.60736  0.10130  0.73738  1.0000
  C   C1210     1.0  0.87954  0.30684  0.72617  1.0000
  H   H956      1.0  0.75883  0.18760  0.71141  1.0000
  H   H957      1.0  0.92102  0.32235  0.72172  1.0000
  H   H958      1.0  0.93542  0.39645  0.61573  1.0000
  H   H959      1.0  0.87421  0.07251  0.49690  1.0000
  C   C1211     1.0  0.88588  0.11411  0.49390  1.0000
  C   C1212     1.0  0.85105  0.36033  0.51321  1.0000
  C   C1213     1.0  0.91684  0.41932  0.69778  1.0000
  H   H960      1.0  0.89869  0.48103  0.64713  1.0000
  H   H961      1.0  0.53719  0.01310  0.67415  1.0000
  H   H962      1.0  0.85718  0.01380  0.51722  1.0000
  C   C1214     1.0  0.88259  0.21647  0.67343  1.0000
  C   C1215     1.0  0.87086  0.22909  0.68424  1.0000
  C   C1216     1.0  0.84556  0.22495  0.67904  1.0000
  C   C1217     1.0  0.83226  0.20880  0.66276  1.0000
  C   C1218     1.0  0.84418  0.19674  0.65145  1.0000
  C   C1219     1.0  0.86916  0.20005  0.65722  1.0000
  P   P40       1.0  0.82611  0.17537  0.63087  1.0000
  C   C1220     1.0  0.80320  0.14489  0.64164  1.0000
  C   C1221     1.0  0.80948  0.19061  0.61762  1.0000
  C   C1222     1.0  0.78421  0.17544  0.60926  1.0000
  C   C1223     1.0  0.77094  0.18780  0.60020  1.0000
  C   C1224     1.0  0.82199  0.21804  0.61555  1.0000
  C   C1225     1.0  0.81009  0.12461  0.64486  1.0000
  C   C1226     1.0  0.79260  0.10149  0.65393  1.0000
  C   C1227     1.0  0.76840  0.09873  0.66024  1.0000
  C   C1228     1.0  0.76184  0.11923  0.65774  1.0000
  C   C1229     1.0  0.77926  0.14233  0.64871  1.0000
  C   C1230     1.0  0.84789  0.17245  0.61329  1.0000
  C   C1231     1.0  0.87106  0.19496  0.60852  1.0000
  C   C1232     1.0  0.88741  0.19326  0.59420  1.0000
  C   C1233     1.0  0.88054  0.16923  0.58425  1.0000
  C   C1234     1.0  0.85721  0.14689  0.58856  1.0000
  C   C1235     1.0  0.84082  0.14853  0.60292  1.0000
  H   H963      1.0  0.90220  0.21967  0.67751  1.0000
  H   H964      1.0  0.59397  0.45895  0.57177  1.0000
  H   H965      1.0  0.83655  0.23491  0.68732  1.0000
  H   H966      1.0  0.81287  0.20610  0.65872  1.0000
  H   H967      1.0  0.87842  0.19023  0.64914  1.0000
  H   H968      1.0  0.77448  0.15418  0.61012  1.0000
  H   H969      1.0  0.84185  0.23006  0.62123  1.0000
  H   H970      1.0  0.82910  0.12679  0.64068  1.0000
  H   H971      1.0  0.79789  0.08579  0.65627  1.0000
  H   H972      1.0  0.75481  0.08088  0.66729  1.0000
  H   H973      1.0  0.74332  0.11741  0.66298  1.0000
  H   H974      1.0  0.77399  0.15824  0.64749  1.0000
  H   H975      1.0  0.87639  0.21400  0.61564  1.0000
  H   H976      1.0  0.90525  0.21075  0.59061  1.0000
  H   H977      1.0  0.89307  0.16810  0.57293  1.0000
  H   H978      1.0  0.85158  0.12845  0.58046  1.0000
  H   H979      1.0  0.82242  0.13133  0.60555  1.0000
  H   H980      1.0  0.77267  0.14493  0.52118  1.0000
  C   C1236     1.0  0.90444  0.37357  0.51595  1.0000
  C   C1237     1.0  0.72729  0.11166  0.58531  1.0000
  C   C1238     1.0  0.52397  0.03659  0.69133  1.0000
  C   C1239     1.0  0.89920  0.03100  0.51601  1.0000
  C   C1240     1.0  0.88644  0.35337  0.52744  1.0000
  C   C1241     1.0  0.77441  0.05846  0.55495  1.0000
  C   C1242     1.0  0.59769  0.13595  0.70770  1.0000
  H   H981      1.0  0.85525  0.32266  0.57125  1.0000
  H   H982      1.0  0.83993  0.29260  0.73582  1.0000
  C   C1243     1.0  0.92510  0.35941  0.60049  1.0000
  H   H983      1.0  0.81040  0.02607  0.54580  1.0000
  C   C1244     1.0  0.73327  0.10292  0.60274  1.0000
  H   H984      1.0  0.76782  0.01868  0.55954  1.0000
  H   H985      1.0  0.71055  0.11568  0.58458  1.0000
  H   H986      1.0  0.72122  0.10035  0.61540  1.0000
  C   C1245     1.0  0.86878  0.28129  0.54230  1.0000
  C   C1246     1.0  0.84763  0.25729  0.54716  1.0000
  C   C1247     1.0  0.82927  0.25690  0.56052  1.0000
  C   C1248     1.0  0.83211  0.28052  0.56913  1.0000
  H   H987      1.0  0.88294  0.28096  0.53219  1.0000
  H   H988      1.0  0.84555  0.23898  0.54065  1.0000
  H   H989      1.0  0.81299  0.23827  0.56429  1.0000
  H   H990      1.0  0.81808  0.28029  0.57969  1.0000
  H   H991      1.0  0.90130  0.31877  0.50428  1.0000
  C   C1249     1.0  0.81670  0.36659  0.71967  1.0000
  C   C1250     1.0  0.86907  0.38035  0.50179  1.0000
  C   C1251     1.0  0.48028  0.42606  0.57820  1.0000
  H   H992      1.0  0.88140  0.24233  0.69652  1.0000
  C   C1252     1.0  0.70907  0.18043  0.71771  1.0000
  H   H993      1.0  0.48114  0.43741  0.60863  1.0000
  H   H994      1.0  0.95326  0.43039  0.68310  1.0000
  H   H995      1.0  0.92522  0.37907  0.51698  1.0000
  C   C1253     1.0  0.61680  0.15461  0.72070  1.0000
  H   H996      1.0  0.73950  0.06063  0.52841  1.0000
  C   C1254     1.0  0.75928  0.10335  0.52647  1.0000
  H   H997      1.0  0.47700  0.40015  0.64871  1.0000
  H   H998      1.0  0.52451  0.02143  0.73555  1.0000
  C   C1255     1.0  0.52086  0.14719  0.72102  1.0000
  H   H999      1.0  0.84987  0.38376  0.67702  1.0000
  C   C1256     1.0  0.83381  0.37401  0.68693  1.0000
  H   H1000     1.0  0.50622  0.32139  0.70608  1.0000
  H   H1001     1.0  0.94757  0.38461  0.68062  1.0000
  C   C1257     1.0  0.74942  0.24369  0.70851  1.0000
  C   C1258     1.0  0.72550  0.23874  0.69915  1.0000
  C   C1259     1.0  0.72541  0.25113  0.68170  1.0000
  C   C1260     1.0  0.74912  0.26907  0.67378  1.0000
  C   C1261     1.0  0.77294  0.27467  0.68331  1.0000
  C   C1262     1.0  0.77316  0.26195  0.70054  1.0000
  C   C1263     1.0  0.90606  0.31932  0.73224  1.0000
  H   H1002     1.0  0.95015  0.34219  0.55711  1.0000
  H   H1003     1.0  0.84593  0.42521  0.68669  1.0000
  C   C1264     1.0  0.50646  0.13991  0.70326  1.0000
  H   H1004     1.0  0.63900  0.47682  0.55953  1.0000
  C   C1265     1.0  0.74059  0.07755  0.52082  1.0000
  H   H1005     1.0  0.71774  0.18530  0.70341  1.0000
  H   H1006     1.0  0.87292  0.35585  0.70769  1.0000
  H   H1007     1.0  0.61397  0.15364  0.73635  1.0000
  H   H1008     1.0  0.51764  0.15968  0.73162  1.0000
  C   C1266     1.0  0.63985  0.17490  0.71353  1.0000
  H   H1009     1.0  0.72891  0.41886  0.72004  1.0000
  C   C1267     1.0  0.60155  0.13855  0.68748  1.0000
  H   H1010     1.0  0.70691  0.22534  0.70526  1.0000
  H   H1011     1.0  0.70699  0.24660  0.67412  1.0000
  H   H1012     1.0  0.74915  0.27816  0.65997  1.0000
  H   H1013     1.0  0.79130  0.28817  0.67688  1.0000
  H   H1014     1.0  0.50071  0.11950  0.67531  1.0000
  C   C1268     1.0  0.89062  0.37247  0.70283  1.0000
  C   C1269     1.0  0.89407  0.39843  0.70494  1.0000
  H   H1015     1.0  0.84237  0.19990  0.57170  1.0000
  C   C1270     1.0  0.68668  0.15621  0.71973  1.0000
  H   H1016     1.0  0.74141  0.13700  0.49365  1.0000
  H   H1017     1.0  0.50930  0.44678  0.65688  1.0000
  C   C1271     1.0  0.86739  0.08695  0.49408  1.0000
  H   H1018     1.0  0.90754  0.34761  0.69340  1.0000
  C   C1272     1.0  0.51135  0.12462  0.68932  1.0000
  H   H1019     1.0  0.83037  0.35527  0.51221  1.0000
  C   C1273     1.0  0.48244  0.27914  0.70503  1.0000
  H   H1020     1.0  0.75853  0.08970  0.61708  1.0000
  P   P41       1.0  0.78096  0.10905  0.54754  1.0000
  P   P42       1.0  0.86929  0.40455  0.71668  1.0000
  C   C1274     1.0  0.78306  0.21532  0.59911  1.0000
  C   C1275     1.0  0.53155  0.06042  0.70176  1.0000
  C   C1276     1.0  0.78144  0.03802  0.55448  1.0000
  H   H1021     1.0  0.75540  0.05450  0.56053  1.0000
  H   H1022     1.0  0.84532  0.33150  0.53469  1.0000
  C   C1277     1.0  0.87155  0.30516  0.55065  1.0000
  C   C1278     1.0  0.85324  0.30454  0.56432  1.0000
  H   H1023     1.0  0.87000  0.21032  0.54226  1.0000
  H   H1024     1.0  0.59789  0.08744  0.69632  1.0000
  C   C1279     1.0  0.93281  0.38851  0.68756  1.0000
  C   C1280     1.0  0.57715  0.07361  0.69491  1.0000
  C   C1281     1.0  0.52988  0.11575  0.69338  1.0000
  C   C1282     1.0  0.80541  0.04220  0.54680  1.0000
  C   C1283     1.0  0.75425  0.09686  0.60363  1.0000
  C   C1284     1.0  0.94653  0.33566  0.54190  1.0000
  C   C1285     1.0  0.78840  0.34242  0.69186  1.0000
  C   C1286     1.0  0.82159  0.21238  0.72900  1.0000
  H   H1025     1.0  0.92888  0.35036  0.61313  1.0000
  H   H1026     1.0  0.85787  0.17747  0.51478  1.0000
  C   C1287     1.0  0.56082  0.46147  0.73256  1.0000
  H   H1027     1.0  0.77244  0.22509  0.59289  1.0000
  S   S171      1.0  0.84527  0.47174  0.63565  1.0000
  C   C1288     1.0  0.92887  0.38537  0.60191  1.0000
  H   H1028     1.0  0.94057  0.04289  0.51372  1.0000
  H   H1029     1.0  0.51664  0.06426  0.70832  1.0000
  C   C1289     1.0  0.91582  0.34483  0.58290  1.0000
  C   C1290     1.0  0.96000  0.29560  0.57422  1.0000
  C   C1291     1.0  0.74190  0.11386  0.56863  1.0000
  P   P43       1.0  0.89810  0.33654  0.54405  1.0000
  H   H1030     1.0  0.58468  0.45945  0.70910  1.0000
  H   H1031     1.0  0.82945  0.10626  0.53482  1.0000
  H   H1032     1.0  0.58682  0.12479  0.67715  1.0000
  C   C1292     1.0  0.76910  0.09929  0.58704  1.0000
  C   C1293     1.0  0.67501  0.14925  0.73792  1.0000
  C   C1294     1.0  0.91083  0.35625  0.56640  1.0000
  H   H1033     1.0  0.78503  0.09415  0.58792  1.0000
  C   C1295     1.0  0.48475  0.37327  0.49632  1.0000
  H   H1034     1.0  0.81803  0.25173  0.60613  1.0000
  H   H1035     1.0  0.91973  0.43943  0.69855  1.0000
  H   H1036     1.0  0.49632  0.18881  0.72076  1.0000
  H   H1037     1.0  0.48981  0.44062  0.73079  1.0000
  C   C1296     1.0  0.82373  0.14821  0.52885  1.0000
  C   C1297     1.0  0.81541  0.16050  0.56117  1.0000
  C   C1298     1.0  0.75922  0.12479  0.51669  1.0000
  H   H1038     1.0  0.73639  0.11998  0.55518  1.0000
  C   C1299     1.0  0.92333  0.33158  0.53187  1.0000
  C   C1300     1.0  0.76276  0.10740  0.56931  1.0000
  H   H1039     1.0  0.79711  0.17937  0.70978  1.0000
  H   H1040     1.0  0.49182  0.14642  0.70007  1.0000
  H   H1041     1.0  0.79910  0.41820  0.69969  1.0000
  H   H1042     1.0  0.83869  0.20910  0.72788  1.0000
  H   H1043     1.0  0.65764  0.13046  0.73944  1.0000
  C   C1301     1.0  0.93607  0.41431  0.68905  1.0000
  C   C1302     1.0  0.96088  0.32120  0.51297  1.0000
  C   C1303     1.0  0.49479  0.30614  0.73496  1.0000
  H   H1044     1.0  0.50145  0.35013  0.50943  1.0000
  C   C1304     1.0  0.77641  0.20041  0.71988  1.0000
  H   H1045     1.0  0.76944  0.32790  0.68591  1.0000
  C   C1305     1.0  0.71742  0.47956  0.56892  1.0000
  C   C1306     1.0  0.79134  0.08340  0.54780  1.0000
  H   H1046     1.0  0.80393  0.15621  0.57425  1.0000
  C   C1307     1.0  0.85989  0.44147  0.69583  1.0000
  H   H1047     1.0  0.48289  0.27742  0.68921  1.0000
  C   C1308     1.0  0.56947  0.04982  0.68435  1.0000
  C   C1309     1.0  0.91016  0.36764  0.69456  1.0000
  C   C1310     1.0  0.56376  0.48094  0.70088  1.0000
  P   P44       1.0  0.56743  0.11020  0.71662  1.0000
  C   C1311     1.0  0.85270  0.19135  0.54317  1.0000
  H   H1048     1.0  0.79191  0.26633  0.70752  1.0000
  C   C1312     1.0  0.80884  0.14149  0.54587  1.0000
  H   H1049     1.0  0.48690  0.03090  0.73288  1.0000
  C   C1313     1.0  0.62415  0.05146  0.73512  1.0000
  H   H1050     1.0  0.60464  0.03523  0.73260  1.0000
  C   C1314     1.0  0.79823  0.19570  0.71882  1.0000
  C   C1315     1.0  0.84587  0.17283  0.52768  1.0000
  H   H1051     1.0  0.84101  0.07012  0.53367  1.0000
  H   H1052     1.0  0.67845  0.14273  0.70717  1.0000
  C   C1316     1.0  0.74133  0.12040  0.50114  1.0000
  C   C1317     1.0  0.83768  0.37985  0.70715  1.0000
  P   P45       1.0  0.74990  0.22872  0.73147  1.0000
  H   H1053     1.0  0.69903  0.47732  0.59663  1.0000
  C   C1318     1.0  0.74835  0.42077  0.72307  1.0000
  C   C1319     1.0  0.82261  0.06700  0.53996  1.0000
  C   C1320     1.0  0.81572  0.08755  0.54048  1.0000
  C   C1321     1.0  0.91697  0.00121  0.50730  1.0000
  C   C1322     1.0  0.62457  0.15888  0.68036  1.0000
  H   H1054     1.0  0.62753  0.16044  0.66470  1.0000
  S   S172      1.0  0.47860  0.36075  0.62094  1.0000
  H   H1055     1.0  0.91054  0.39169  0.55562  1.0000
  H   H1056     1.0  0.53362  0.10427  0.68218  1.0000
  H   H1057     1.0  0.71094  0.01010  0.58703  1.0000
  C   C1323     1.0  0.54295  0.03135  0.68252  1.0000
  C   C1324     1.0  0.80921  0.35550  0.67932  1.0000
  H   H1058     1.0  0.81843  0.13424  0.51655  1.0000
  H   H1059     1.0  0.65473  0.18893  0.72362  1.0000
  H   H1060     1.0  0.66740  0.05498  0.55197  1.0000
  H   H1061     1.0  0.90975  0.40253  0.49435  1.0000
  C   C1325     1.0  0.83721  0.18539  0.55976  1.0000
  C   C1326     1.0  0.93791  0.31717  0.50285  1.0000
  C   C1327     1.0  0.87401  0.43743  0.71130  1.0000
  H   H1062     1.0  0.50336  0.02240  0.68974  1.0000
  C   C1328     1.0  0.72262  0.07328  0.50537  1.0000
  C   C1329     1.0  0.54353  0.12187  0.71158  1.0000
  C   C1330     1.0  0.47649  0.18643  0.72148  1.0000
  H   H1063     1.0  0.92601  0.41681  0.58699  1.0000
  C   C1331     1.0  0.89287  0.45949  0.72209  1.0000
  Fe  Fe88      1.0  0.72387  0.99326  0.51439  1.0000
  H   H1064     1.0  0.81848  0.42892  0.73321  1.0000
  H   H1065     1.0  0.77609  0.33750  0.72176  1.0000
  C   C1332     1.0  0.92360  0.39685  0.58566  1.0000
  C   C1333     1.0  0.91472  0.38243  0.56790  1.0000
  C   C1334     1.0  0.91922  0.32241  0.51222  1.0000
  C   C1335     1.0  0.92082  0.02661  0.51245  1.0000
  C   C1336     1.0  0.89576  0.38696  0.50316  1.0000
  C   C1337     1.0  0.57101  0.46654  0.71374  1.0000
  S   S173      1.0  0.75970  0.98641  0.51395  1.0000
  S   S174      1.0  0.71329  0.99959  0.54589  1.0000
  H   H1066     1.0  0.49661  0.44475  0.57457  1.0000
  H   H1067     1.0  0.81934  0.37036  0.73532  1.0000
  H   H1068     1.0  0.48916  0.07663  0.72606  1.0000
  C   C1338     1.0  0.49553  0.30390  0.71455  1.0000
  C   C1339     1.0  0.77767  0.22176  0.73131  1.0000
  C   C1340     1.0  0.60480  0.47974  0.56858  1.0000
  C   C1341     1.0  0.79876  0.42642  0.73063  1.0000
  H   H1069     1.0  0.55139  0.14535  0.73849  1.0000
  H   H1070     1.0  0.97505  0.31641  0.50596  1.0000
  C   C1342     1.0  0.48733  0.35770  0.51091  1.0000
  H   H1071     1.0  0.85347  0.47002  0.67939  1.0000
  C   C1343     1.0  0.87374  0.01002  0.51440  1.0000
  H   H1072     1.0  0.93377  0.99781  0.50465  1.0000
  H   H1073     1.0  0.47584  0.40933  0.54922  1.0000
  C   C1344     1.0  0.96529  0.33070  0.53239  1.0000
  H   H1074     1.0  0.90453  0.45702  0.73374  1.0000
  H   H1075     1.0  0.74098  0.27573  0.73265  1.0000
  C   C1345     1.0  0.54323  0.47082  0.73864  1.0000
  S   S175      1.0  0.56100  0.48138  0.64380  1.0000
  H   H1076     1.0  0.90650  0.12020  0.49681  1.0000
  H   H1077     1.0  0.90214  0.05069  0.51999  1.0000
  C   C1346     1.0  0.82312  0.23379  0.74020  1.0000
  H   H1078     1.0  0.70816  0.05331  0.50120  1.0000
  C   C1347     1.0  0.72009  0.19795  0.73395  1.0000
  C   C1348     1.0  0.72307  0.09465  0.49547  1.0000
  C   C1349     1.0  0.84029  0.07824  0.49042  1.0000
  C   C1350     1.0  0.86045  0.30228  0.74031  1.0000
  H   H1079     1.0  0.86236  0.39079  0.49193  1.0000
  H   H1080     1.0  0.55514  0.41744  0.86282  1.0000
  H   H1081     1.0  0.93081  0.28400  0.88206  1.0000
  C   C1351     1.0  0.58044  0.09823  0.78183  1.0000
  C   C1352     1.0  0.90775  0.45679  0.88460  1.0000
  C   C1353     1.0  0.82764  0.12108  0.88189  1.0000
  C   C1354     1.0  0.75408  0.11886  0.89573  1.0000
  H   H1082     1.0  0.50808  0.38882  0.85338  1.0000
  Fe  Fe89      1.0  0.84823  0.33287  0.84592  1.0000
  S   S176      1.0  0.88913  0.33682  0.84794  1.0000
  S   S177      1.0  0.83577  0.36445  0.85438  1.0000
  Fe  Fe90      1.0  0.82463  0.27482  0.83151  1.0000
  S   S178      1.0  0.86411  0.27543  0.83221  1.0000
  S   S179      1.0  0.79073  0.23761  0.81831  1.0000
  Fe  Fe91      1.0  0.87107  0.29644  0.86171  1.0000
  S   S180      1.0  0.87922  0.28123  0.89121  1.0000
  Fe  Fe92      1.0  0.87821  0.31501  0.81831  1.0000
  S   S181      1.0  0.90455  0.32758  0.79165  1.0000
  S   S182      1.0  0.83050  0.29398  0.86136  1.0000
  S   S183      1.0  0.83844  0.31315  0.81595  1.0000
  Fe  Fe93      1.0  0.65356  0.08858  0.81221  1.0000
  S   S184      1.0  0.63641  0.11495  0.82235  1.0000
  S   S185      1.0  0.67139  0.09466  0.78183  1.0000
  Fe  Fe94      1.0  0.65030  0.06508  0.85366  1.0000
  S   S186      1.0  0.63196  0.08935  0.86621  1.0000
  S   S187      1.0  0.65896  0.03432  0.86968  1.0000
  Fe  Fe95      1.0  0.60713  0.07968  0.83821  1.0000
  S   S188      1.0  0.56240  0.06423  0.83389  1.0000
  Fe  Fe96      1.0  0.66245  0.12267  0.84918  1.0000
  S   S189      1.0  0.68709  0.16346  0.86298  1.0000
  S   S190      1.0  0.62317  0.05261  0.82663  1.0000
  S   S191      1.0  0.68195  0.09907  0.83814  1.0000
  C   C1355     1.0  0.65855  0.08166  0.75792  1.0000
  H   H1083     1.0  0.72620  0.42532  0.81391  1.0000
  H   H1084     1.0  0.55191  0.01726  0.93346  1.0000
  H   H1085     1.0  0.62039  0.05253  0.76664  1.0000
  C   C1356     1.0  0.75715  0.28839  0.78105  1.0000
  C   C1357     1.0  0.89418  0.32050  0.76646  1.0000
  C   C1358     1.0  0.74945  0.29123  0.76211  1.0000
  H   H1086     1.0  0.83416  0.23291  0.80340  1.0000
  C   C1359     1.0  0.81619  0.18338  0.94731  1.0000
  C   C1360     1.0  0.53795  0.06549  0.90523  1.0000
  C   C1361     1.0  0.76182  0.21793  0.83094  1.0000
  C   C1362     1.0  0.74327  0.19402  0.82206  1.0000
  C   C1363     1.0  0.72039  0.17720  0.83177  1.0000
  C   C1364     1.0  0.71560  0.18442  0.85037  1.0000
  C   C1365     1.0  0.73401  0.20851  0.85923  1.0000
  C   C1366     1.0  0.75713  0.22520  0.84957  1.0000
  H   H1087     1.0  0.74671  0.18837  0.80764  1.0000
  H   H1088     1.0  0.70636  0.15874  0.82477  1.0000
  H   H1089     1.0  0.73040  0.21425  0.87360  1.0000
  H   H1090     1.0  0.77128  0.24362  0.85652  1.0000
  C   C1367     1.0  0.90253  0.27443  0.90474  1.0000
  C   C1368     1.0  0.89708  0.26578  0.92415  1.0000
  C   C1369     1.0  0.91468  0.26003  0.93545  1.0000
  C   C1370     1.0  0.93834  0.26309  0.92762  1.0000
  C   C1371     1.0  0.94381  0.27180  0.90823  1.0000
  C   C1372     1.0  0.92609  0.27731  0.89687  1.0000
  H   H1091     1.0  0.87931  0.26398  0.93068  1.0000
  H   H1092     1.0  0.91028  0.25392  0.95040  1.0000
  C   C1373     1.0  0.91330  0.32631  0.75217  1.0000
  H   H1093     1.0  0.72514  0.11590  0.79836  1.0000
  C   C1374     1.0  0.92594  0.45312  0.89645  1.0000
  C   C1375     1.0  0.77218  0.07832  0.90211  1.0000
  C   C1376     1.0  0.90292  0.35104  0.90204  1.0000
  C   C1377     1.0  0.69116  0.04701  0.92580  1.0000
  C   C1378     1.0  0.68132  0.05093  0.90763  1.0000
  C   C1379     1.0  0.67110  0.03061  0.89323  1.0000
  C   C1380     1.0  0.84596  0.12528  0.82599  1.0000
  H   H1094     1.0  0.74776  0.42943  0.75366  1.0000
  H   H1095     1.0  0.69915  0.06292  0.93671  1.0000
  H   H1096     1.0  0.68178  0.06969  0.90469  1.0000
  C   C1381     1.0  0.78446  0.42963  0.74610  1.0000
  C   C1382     1.0  0.50433  0.09634  0.85109  1.0000
  C   C1383     1.0  0.53162  0.11207  0.85420  1.0000
  C   C1384     1.0  0.54969  0.10292  0.84858  1.0000
  C   C1385     1.0  0.54067  0.07753  0.84026  1.0000
  C   C1386     1.0  0.51339  0.06189  0.83693  1.0000
  C   C1387     1.0  0.49534  0.07127  0.84215  1.0000
  H   H1097     1.0  0.53885  0.13149  0.86109  1.0000
  H   H1098     1.0  0.57057  0.11547  0.85077  1.0000
  H   H1099     1.0  0.50612  0.04218  0.83057  1.0000
  C   C1388     1.0  0.74942  0.03298  0.91270  1.0000
  C   C1389     1.0  0.87410  0.45253  0.83873  1.0000
  C   C1390     1.0  0.85174  0.44164  0.85016  1.0000
  C   C1391     1.0  0.84058  0.41481  0.85512  1.0000
  C   C1392     1.0  0.85135  0.39844  0.84850  1.0000
  C   C1393     1.0  0.87367  0.40933  0.83707  1.0000
  C   C1394     1.0  0.88472  0.43610  0.83199  1.0000
  H   H1100     1.0  0.84336  0.45401  0.85553  1.0000
  H   H1101     1.0  0.82337  0.40663  0.86407  1.0000
  H   H1102     1.0  0.88254  0.39715  0.83232  1.0000
  H   H1103     1.0  0.90191  0.44429  0.82307  1.0000
  C   C1395     1.0  0.55711  0.45261  0.85017  1.0000
  C   C1396     1.0  0.54275  0.46296  0.83992  1.0000
  C   C1397     1.0  0.51601  0.44670  0.83467  1.0000
  C   C1398     1.0  0.50319  0.41984  0.83947  1.0000
  C   C1399     1.0  0.51758  0.40938  0.84953  1.0000
  C   C1400     1.0  0.54431  0.42570  0.85488  1.0000
  H   H1104     1.0  0.61535  0.01374  0.90122  1.0000
  H   H1105     1.0  0.50515  0.45512  0.82700  1.0000
  H   H1106     1.0  0.84916  0.19438  0.89647  1.0000
  C   C1401     1.0  0.70849  0.19046  0.75230  1.0000
  H   H1107     1.0  0.70098  0.05639  0.83868  1.0000
  C   C1402     1.0  0.80834  0.12908  0.88587  1.0000
  Fe  Fe97      1.0  0.96525  0.23798  0.97033  1.0000
  C   C1403     1.0  0.51029  0.08686  0.90015  1.0000
  S   S192      1.0  0.75200  0.99248  0.97856  1.0000
  C   C1404     1.0  0.76581  0.08314  0.82800  1.0000
  C   C1405     1.0  0.61900  0.10852  0.92139  1.0000
  H   H1108     1.0  0.86915  0.13297  0.88040  1.0000
  C   C1406     1.0  0.86204  0.16575  0.88830  1.0000
  H   H1109     1.0  0.49008  0.15292  0.79711  1.0000
  C   C1407     1.0  0.55314  0.02688  0.96413  1.0000
  C   C1408     1.0  0.47568  0.10569  0.76112  1.0000
  C   C1409     1.0  0.85162  0.46871  0.78332  1.0000
  H   H1110     1.0  0.65845  0.13970  0.92683  1.0000
  H   H1111     1.0  0.55281  0.39686  0.78788  1.0000
  C   C1410     1.0  0.85434  0.13935  0.88310  1.0000
  H   H1112     1.0  0.77835  0.08527  0.81581  1.0000
  C   C1411     1.0  0.79937  0.36725  0.77880  1.0000
  C   C1412     1.0  0.67640  0.47140  0.78741  1.0000
  H   H1113     1.0  0.53514  0.10309  0.75192  1.0000
  C   C1413     1.0  0.76057  0.24943  0.77009  1.0000
  H   H1114     1.0  0.55522  0.04541  0.87277  1.0000
  H   H1115     1.0  0.56838  0.01735  0.85287  1.0000
  H   H1116     1.0  0.57618  0.09916  0.94867  1.0000
  C   C1414     1.0  0.67480  0.09238  0.74186  1.0000
  C   C1415     1.0  0.94895  0.43334  0.82206  1.0000
  S   S193      1.0  0.96416  0.19795  0.96766  1.0000
  H   H1117     1.0  0.88613  0.47884  0.88027  1.0000
  C   C1416     1.0  0.84304  0.17390  0.89227  1.0000
  H   H1118     1.0  0.96203  0.27442  0.90196  1.0000
  H   H1119     1.0  0.56699  0.45054  0.74229  1.0000
  C   C1417     1.0  0.94186  0.43105  0.86272  1.0000
  C   C1418     1.0  0.78910  0.17580  0.94647  1.0000
  C   C1419     1.0  0.76836  0.03871  0.92764  1.0000
  H   H1120     1.0  0.94195  0.38176  0.89810  1.0000
  H   H1121     1.0  0.71670  0.20303  0.76525  1.0000
  H   H1122     1.0  0.93703  0.39159  0.82301  1.0000
  H   H1123     1.0  0.79876  0.35108  0.76984  1.0000
  C   C1420     1.0  0.80186  0.36685  0.79916  1.0000
  H   H1124     1.0  0.89783  0.25969  0.76373  1.0000
  C   C1421     1.0  0.48019  0.28365  0.74594  1.0000
  C   C1422     1.0  0.56582  0.05926  0.93860  1.0000
  H   H1125     1.0  0.80731  0.10350  0.91933  1.0000
  C   C1423     1.0  0.48913  0.04342  0.76342  1.0000
  H   H1126     1.0  0.95962  0.47471  0.82565  1.0000
  H   H1127     1.0  0.95371  0.47297  0.86133  1.0000
  C   C1424     1.0  0.57506  0.02197  0.86807  1.0000
  H   H1128     1.0  0.63580  0.45513  0.79554  1.0000
  H   H1129     1.0  0.80330  0.25562  0.74978  1.0000
  H   H1130     1.0  0.50777  0.10457  0.90018  1.0000
  C   C1425     1.0  0.67056  0.00629  0.89751  1.0000
  C   C1426     1.0  0.53086  0.03053  0.76649  1.0000
  H   H1131     1.0  0.58386  0.09591  0.79718  1.0000
  C   C1427     1.0  0.55808  0.10043  0.77597  1.0000
  S   S194      1.0  0.96211  0.25721  0.94137  1.0000
  C   C1428     1.0  0.49890  0.33017  0.79822  1.0000
  C   C1429     1.0  0.52126  0.26484  0.81059  1.0000
  C   C1430     1.0  0.51809  0.02808  0.74840  1.0000
  C   C1431     1.0  0.72221  0.06691  0.84081  1.0000
  H   H1132     1.0  0.92021  0.20208  0.94083  1.0000
  C   C1432     1.0  0.93525  0.46809  0.91405  1.0000
  C   C1433     1.0  0.75292  0.25215  0.75094  1.0000
  H   H1133     1.0  0.76914  0.13202  0.81415  1.0000
  H   H1134     1.0  0.52877  0.41314  0.76620  1.0000
  C   C1434     1.0  0.57153  0.10436  0.74210  1.0000
  C   C1435     1.0  0.55828  0.04678  0.97832  1.0000
  H   H1135     1.0  0.76647  0.02351  0.93773  1.0000
  C   C1436     1.0  0.60153  0.02003  0.89535  1.0000
  H   H1136     1.0  0.51945  0.25835  0.82556  1.0000
  H   H1137     1.0  0.50046  0.47633  0.79369  1.0000
  C   C1437     1.0  0.88063  0.18705  0.95089  1.0000
  H   H1138     1.0  0.84694  0.35717  0.89667  1.0000
  H   H1139     1.0  0.54425  0.09976  0.78687  1.0000
  H   H1140     1.0  0.73558  0.04782  0.88914  1.0000
  S   S195      1.0  0.70466  0.01941  0.95296  1.0000
  H   H1141     1.0  0.59852  0.00139  0.86703  1.0000
  C   C1438     1.0  0.80210  0.40936  0.80209  1.0000
  C   C1439     1.0  0.79959  0.40999  0.78162  1.0000
  C   C1440     1.0  0.79804  0.38863  0.77006  1.0000
  P   P46       1.0  0.79927  0.43844  0.77053  1.0000
  C   C1441     1.0  0.48390  0.42723  0.77948  1.0000
  C   C1442     1.0  0.78084  0.44964  0.78599  1.0000
  C   C1443     1.0  0.48243  0.13045  0.76988  1.0000
  C   C1444     1.0  0.49586  0.43965  0.76220  1.0000
  H   H1142     1.0  0.48369  0.11537  0.81766  1.0000
  C   C1445     1.0  0.74392  0.43962  0.80719  1.0000
  C   C1446     1.0  0.75744  0.43118  0.79428  1.0000
  C   C1447     1.0  0.85270  0.14009  0.94555  1.0000
  H   H1143     1.0  0.71405  0.11487  0.93327  1.0000
  H   H1144     1.0  0.51898  0.02336  0.89860  1.0000
  C   C1448     1.0  0.81631  0.15570  0.89115  1.0000
  C   C1449     1.0  0.77685  0.09375  0.84655  1.0000
  H   H1145     1.0  0.88422  0.20610  0.95701  1.0000
  P   P47       1.0  0.82938  0.16795  0.96412  1.0000
  C   C1450     1.0  0.87166  0.39301  0.78342  1.0000
  H   H1146     1.0  0.75825  0.18235  0.93326  1.0000
  H   H1147     1.0  0.75558  0.18096  0.75961  1.0000
  H   H1148     1.0  0.85263  0.30454  0.77108  1.0000
  H   H1149     1.0  0.87104  0.11867  0.93188  1.0000
  C   C1451     1.0  0.82310  0.21704  0.92351  1.0000
  H   H1150     1.0  0.52822  0.28896  0.75724  1.0000
  H   H1151     1.0  0.66267  0.99035  0.88659  1.0000
  C   C1452     1.0  0.68603  0.16623  0.75422  1.0000
  H   H1152     1.0  0.59534  0.47422  0.81480  1.0000
  C   C1453     1.0  0.59355  0.10130  0.74805  1.0000
  C   C1454     1.0  0.54280  0.26778  0.79968  1.0000
  H   H1153     1.0  0.58557  0.42727  0.81268  1.0000
  C   C1455     1.0  0.51686  0.04126  0.89898  1.0000
  H   H1154     1.0  0.84620  0.16052  0.83762  1.0000
  H   H1155     1.0  0.79941  0.19788  0.77535  1.0000
  H   H1156     1.0  0.75917  0.14248  0.87018  1.0000
  H   H1157     1.0  0.74380  0.47311  0.82244  1.0000
  H   H1158     1.0  0.80355  0.42560  0.81144  1.0000
  C   C1456     1.0  0.74119  0.11116  0.91353  1.0000
  H   H1159     1.0  0.86861  0.26884  0.78537  1.0000
  H   H1160     1.0  0.76486  0.23334  0.77360  1.0000
  H   H1161     1.0  0.85640  0.12314  0.83864  1.0000
  H   H1162     1.0  0.74991  0.41024  0.79106  1.0000
  H   H1163     1.0  0.75869  0.30220  0.79275  1.0000
  H   H1164     1.0  0.49563  0.05140  0.79476  1.0000
  C   C1457     1.0  0.79968  0.19883  0.85967  1.0000
  C   C1458     1.0  0.82411  0.21651  0.86797  1.0000
  C   C1459     1.0  0.84714  0.22079  0.85863  1.0000
  C   C1460     1.0  0.84575  0.20839  0.84048  1.0000
  C   C1461     1.0  0.82124  0.19147  0.83158  1.0000
  C   C1462     1.0  0.79820  0.18623  0.84157  1.0000
  P   P48       1.0  0.81994  0.17735  0.80738  1.0000
  C   C1463     1.0  0.84430  0.20290  0.79294  1.0000
  C   C1464     1.0  0.82677  0.14954  0.80891  1.0000
  H   H1165     1.0  0.71836  0.14028  0.77112  1.0000
  H   H1166     1.0  0.85925  0.17810  0.77926  1.0000
  C   C1465     1.0  0.84014  0.14653  0.82533  1.0000
  C   C1466     1.0  0.84700  0.22859  0.79425  1.0000
  C   C1467     1.0  0.86636  0.24895  0.78389  1.0000
  C   C1468     1.0  0.88287  0.24374  0.77175  1.0000
  C   C1469     1.0  0.88003  0.21808  0.77002  1.0000
  C   C1470     1.0  0.86088  0.19770  0.78063  1.0000
  C   C1471     1.0  0.78775  0.16605  0.79589  1.0000
  C   C1472     1.0  0.76654  0.14280  0.80216  1.0000
  C   C1473     1.0  0.74162  0.13359  0.79326  1.0000
  C   C1474     1.0  0.73774  0.14732  0.77788  1.0000
  C   C1475     1.0  0.75874  0.17033  0.77144  1.0000
  C   C1476     1.0  0.78364  0.17980  0.78045  1.0000
  H   H1167     1.0  0.78180  0.19579  0.86680  1.0000
  H   H1168     1.0  0.82527  0.22745  0.88137  1.0000
  H   H1169     1.0  0.86609  0.23465  0.86508  1.0000
  H   H1170     1.0  0.86383  0.21277  0.83310  1.0000
  H   H1171     1.0  0.77900  0.17357  0.83512  1.0000
  H   H1172     1.0  0.80894  0.13294  0.78043  1.0000
  C   C1477     1.0  0.81921  0.13093  0.79326  1.0000
  H   H1173     1.0  0.88430  0.36397  0.77609  1.0000
  H   H1174     1.0  0.53216  0.04033  0.79723  1.0000
  H   H1175     1.0  0.48421  0.14662  0.76097  1.0000
  C   C1478     1.0  0.76569  0.08562  0.98174  1.0000
  C   C1479     1.0  0.57554  0.43448  0.80276  1.0000
  C   C1480     1.0  0.59620  0.11342  0.89282  1.0000
  H   H1176     1.0  0.61524  0.09641  0.77242  1.0000
  H   H1177     1.0  0.55773  0.26350  0.80619  1.0000
  C   C1481     1.0  0.59804  0.09843  0.76785  1.0000
  H   H1178     1.0  0.88386  0.37018  0.74080  1.0000
  C   C1482     1.0  0.87870  0.37835  0.77046  1.0000
  C   C1483     1.0  0.86777  0.36285  0.89759  1.0000
  C   C1484     1.0  0.64088  0.13252  0.91755  1.0000
  C   C1485     1.0  0.55693  0.41737  0.78894  1.0000
  C   C1486     1.0  0.87612  0.34395  0.90163  1.0000
  C   C1487     1.0  0.49373  0.36945  0.79334  1.0000
  H   H1179     1.0  0.80375  0.06860  0.94166  1.0000
  C   C1488     1.0  0.80130  0.23850  0.74138  1.0000
  C   C1489     1.0  0.93756  0.40830  0.85171  1.0000
  C   C1490     1.0  0.83844  0.10689  0.81033  1.0000
  C   C1491     1.0  0.88618  0.38889  0.89399  1.0000
  C   C1492     1.0  0.73346  0.14714  0.89056  1.0000
  C   C1493     1.0  0.56754  0.47034  0.79186  1.0000
  C   C1494     1.0  0.87342  0.13788  0.93663  1.0000
  C   C1495     1.0  0.63305  0.06120  0.75445  1.0000
  H   H1180     1.0  0.76832  0.26526  0.79979  1.0000
  H   H1181     1.0  0.87151  0.38970  0.79896  1.0000
  Fe  Fe98      1.0  0.71311  0.99399  0.97559  1.0000
  H   H1182     1.0  0.82201  0.10052  0.87839  1.0000
  H   H1183     1.0  0.67735  0.16035  0.76845  1.0000
  H   H1184     1.0  0.67897  0.45511  0.79305  1.0000
  C   C1496     1.0  0.54329  0.42663  0.77677  1.0000
  C   C1497     1.0  0.58104  0.46098  0.80401  1.0000
  C   C1498     1.0  0.72046  0.13923  0.90818  1.0000
  C   C1499     1.0  0.76261  0.26750  0.78502  1.0000
  C   C1500     1.0  0.77912  0.18828  0.93385  1.0000
  H   H1185     1.0  0.70700  0.14669  0.91263  1.0000
  H   H1186     1.0  0.81806  0.06190  0.98055  1.0000
  C   C1501     1.0  0.50204  0.27047  0.80228  1.0000
  P   P49       1.0  0.77410  0.10449  0.88657  1.0000
  H   H1187     1.0  0.84299  0.09045  0.81086  1.0000
  C   C1502     1.0  0.52591  0.28208  0.77209  1.0000
  H   H1188     1.0  0.79596  0.38839  0.75433  1.0000
  C   C1503     1.0  0.74725  0.27319  0.74713  1.0000
  H   H1189     1.0  0.86184  0.32365  0.90402  1.0000
  H   H1190     1.0  0.73302  0.01329  0.91124  1.0000
  H   H1191     1.0  0.60256  0.04210  0.92139  1.0000
  C   C1504     1.0  0.82509  0.10973  0.79397  1.0000
  C   C1505     1.0  0.73312  0.07758  0.85932  1.0000
  C   C1506     1.0  0.85600  0.16478  0.95251  1.0000
  P   P50       1.0  0.56891  0.06706  0.91302  1.0000
  C   C1507     1.0  0.73851  0.06978  0.82512  1.0000
  C   C1508     1.0  0.69079  0.02272  0.93001  1.0000
  P   P51       1.0  0.52996  0.46465  0.76297  1.0000
  H   H1192     1.0  0.71995  0.07523  0.87120  1.0000
  C   C1509     1.0  0.48193  0.11277  0.80184  1.0000
  H   H1193     1.0  0.57017  0.08815  0.98364  1.0000
  C   C1510     1.0  0.76677  0.09340  0.96240  1.0000
  H   H1194     1.0  0.91399  0.15847  0.92842  1.0000
  C   C1511     1.0  0.80417  0.13587  0.97117  1.0000
  C   C1512     1.0  0.86764  0.30893  0.76034  1.0000
  H   H1195     1.0  0.81926  0.09549  0.78181  1.0000
  C   C1513     1.0  0.76057  0.09090  0.86242  1.0000
  C   C1514     1.0  0.53429  0.08818  0.90621  1.0000
  H   H1196     1.0  0.57951  0.10568  0.88266  1.0000
  C   C1515     1.0  0.83920  0.48193  0.75300  1.0000
  H   H1197     1.0  0.74493  0.30729  0.75910  1.0000
  H   H1198     1.0  0.80215  0.16254  0.89483  1.0000
  C   C1516     1.0  0.52235  0.03860  0.78315  1.0000
  H   H1199     1.0  0.88274  0.17989  0.88956  1.0000
  H   H1200     1.0  0.73022  0.16080  0.88152  1.0000
  C   C1517     1.0  0.54514  0.27643  0.78045  1.0000
  H   H1201     1.0  0.75297  0.07961  0.95156  1.0000
  C   C1518     1.0  0.83311  0.20436  0.93586  1.0000
  C   C1519     1.0  0.92137  0.37698  0.89835  1.0000
  C   C1520     1.0  0.89765  0.16026  0.93473  1.0000
  C   C1521     1.0  0.91317  0.39623  0.89451  1.0000
  H   H1202     1.0  0.85924  0.42297  0.78657  1.0000
  C   C1522     1.0  0.74998  0.13683  0.88423  1.0000
  C   C1523     1.0  0.59201  0.01302  0.87602  1.0000
  C   C1524     1.0  0.87848  0.38211  0.75032  1.0000
  H   H1203     1.0  0.87910  0.40291  0.89034  1.0000
  C   C1525     1.0  0.72447  0.12138  0.91975  1.0000
  P   P52       1.0  0.93709  0.42945  0.88889  1.0000
  C   C1526     1.0  0.90121  0.18483  0.94182  1.0000
  P   P53       1.0  0.47903  0.28613  0.77234  1.0000
  H   H1204     1.0  0.90932  0.33622  0.90483  1.0000
  C   C1527     1.0  0.79026  0.47665  0.79058  1.0000
  H   H1205     1.0  0.90002  0.44520  0.87118  1.0000
  C   C1528     1.0  0.87124  0.40076  0.74290  1.0000
  H   H1206     1.0  0.78684  0.12407  0.94199  1.0000
  C   C1529     1.0  0.65208  0.47138  0.78883  1.0000
  H   H1207     1.0  0.51314  0.36360  0.81858  1.0000
  H   H1208     1.0  0.72989  0.06163  0.81076  1.0000
  C   C1530     1.0  0.54816  0.45309  0.77840  1.0000
  C   C1531     1.0  0.50318  0.35532  0.80459  1.0000
  H   H1209     1.0  0.56195  0.27891  0.77205  1.0000
  S   S196      1.0  0.48242  0.10814  0.86008  1.0000
  H   H1210     1.0  0.93144  0.38960  0.85868  1.0000
  H   H1211     1.0  0.68305  0.05295  0.97751  1.0000
  H   H1212     1.0  0.83461  0.12237  0.94771  1.0000
  C   C1532     1.0  0.48560  0.13399  0.79023  1.0000
  H   H1213     1.0  0.85411  0.21142  0.93657  1.0000
  C   C1533     1.0  0.83248  0.46467  0.76874  1.0000
  H   H1214     1.0  0.74328  0.09665  0.92229  1.0000
  H   H1215     1.0  0.80319  0.35050  0.80605  1.0000
  C   C1534     1.0  0.48001  0.35848  0.77567  1.0000
  C   C1535     1.0  0.78595  0.11841  0.95709  1.0000
  C   C1536     1.0  0.75106  0.05271  0.90013  1.0000
  H   H1216     1.0  0.62004  0.09712  0.93356  1.0000
  H   H1217     1.0  0.83645  0.23359  0.91507  1.0000
  H   H1218     1.0  0.48564  0.26839  0.81102  1.0000
  C   C1537     1.0  0.79119  0.08386  0.91716  1.0000
  C   C1538     1.0  0.57672  0.04467  0.89894  1.0000
  C   C1539     1.0  0.57021  0.07901  0.95287  1.0000
  C   C1540     1.0  0.85370  0.09925  0.98432  1.0000
  H   H1219     1.0  0.95123  0.43409  0.80633  1.0000
  C   C1541     1.0  0.84313  0.18952  0.98549  1.0000
  H   H1220     1.0  0.78841  0.21872  0.91272  1.0000
  C   C1542     1.0  0.64041  0.14697  0.90138  1.0000
  C   C1543     1.0  0.80284  0.38770  0.81076  1.0000
  H   H1221     1.0  0.54730  0.02610  0.76766  1.0000
  H   H1222     1.0  0.84682  0.45681  0.79622  1.0000
  C   C1544     1.0  0.79610  0.20881  0.92231  1.0000
  H   H1223     1.0  0.85956  0.09909  0.96939  1.0000
  H   H1224     1.0  0.54999  0.10698  0.91141  1.0000
  C   C1545     1.0  0.55322  0.10275  0.75613  1.0000
  C   C1546     1.0  0.59416  0.03603  0.90672  1.0000
  C   C1547     1.0  0.50410  0.27898  0.78293  1.0000
  C   C1548     1.0  0.68009  0.00227  0.91575  1.0000
  C   C1549     1.0  0.55659  0.03302  0.94430  1.0000
  C   C1550     1.0  0.96796  0.43732  0.90143  1.0000
  C   C1551     1.0  0.96811  0.42955  0.92082  1.0000
  C   C1552     1.0  0.86462  0.41169  0.77631  1.0000
  H   H1225     1.0  0.77565  0.16061  0.95577  1.0000
  H   H1226     1.0  0.89289  0.21410  0.76061  1.0000
  H   H1227     1.0  0.49499  0.43215  0.79326  1.0000
  H   H1228     1.0  0.93386  0.33533  0.75665  1.0000
  C   C1553     1.0  0.78931  0.06413  0.92984  1.0000
  H   H1229     1.0  0.80434  0.38707  0.82655  1.0000
  H   H1230     1.0  0.61814  0.14814  0.87607  1.0000
  H   H1231     1.0  0.50573  0.31937  0.80755  1.0000
  C   C1554     1.0  0.48529  0.31902  0.78037  1.0000
  C   C1555     1.0  0.95021  0.45510  0.85320  1.0000
  C   C1556     1.0  0.56754  0.03785  0.87945  1.0000
  C   C1557     1.0  0.56668  0.07281  0.97268  1.0000
  C   C1558     1.0  0.86412  0.41543  0.75614  1.0000
  C   C1559     1.0  0.65496  0.01340  0.98430  1.0000
  H   H1232     1.0  0.79796  0.10415  0.84833  1.0000
  C   C1560     1.0  0.61809  0.13739  0.88901  1.0000
  H   H1233     1.0  0.94982  0.41894  0.92836  1.0000
  C   C1561     1.0  0.59632  0.09903  0.90921  1.0000
  H   H1234     1.0  0.49646  0.38859  0.79868  1.0000
  C   C1562     1.0  0.95376  0.45621  0.83295  1.0000
  H   H1235     1.0  0.65758  0.16523  0.89806  1.0000
  H   H1236     1.0  0.54623  0.00663  0.96846  1.0000
  C   C1563     1.0  0.48968  0.06287  0.89336  1.0000
  H   H1237     1.0  0.85804  0.42963  0.75096  1.0000
  C   C1564     1.0  0.94091  0.40941  0.83145  1.0000
  C   C1565     1.0  0.50169  0.04512  0.78163  1.0000
  H   H1238     1.0  0.47916  0.19525  0.75252  1.0000
  S   S197      1.0  0.59083  0.47240  0.85757  1.0000
  C   C1566     1.0  0.75369  0.46650  0.81194  1.0000
  H   H1239     1.0  0.75128  0.06599  0.98574  1.0000
  H   H1240     1.0  0.55221  0.48356  0.83616  1.0000
  C   C1567     1.0  0.49291  0.04005  0.89286  1.0000
  C   C1568     1.0  0.48110  0.43204  0.74447  1.0000
  C   C1569     1.0  0.49702  0.03402  0.74691  1.0000
  H   H1241     1.0  0.65194  0.00637  0.96914  1.0000
  H   H1242     1.0  0.94905  0.46560  0.92366  1.0000
  H   H1243     1.0  0.50564  0.32544  0.74204  1.0000
  H   H1244     1.0  0.84147  0.24721  0.74757  1.0000
  H   H1245     1.0  0.81984  0.21027  0.98187  1.0000
  C   C1570     1.0  0.89969  0.47570  0.88980  1.0000
  S   S198      1.0  0.89994  0.14671  0.98829  1.0000
  H   H1246     1.0  0.69462  0.10802  0.74430  1.0000
  C   C1571     1.0  0.75914  0.42676  0.74216  1.0000
  H   H1247     1.0  0.82465  0.48020  0.74199  1.0000
  H   H1248     1.0  0.47693  0.02152  0.88748  1.0000
  C   C1572     1.0  0.67246  0.03976  0.98905  1.0000
  C   C1573     1.0  0.56354  0.58071  0.99253  1.0000
  S   S199      1.0  0.73132  0.70054  0.00077  1.0000
  S   S200      1.0  0.74739  0.76189  0.01284  1.0000
  C   C1574     1.0  0.97301  0.55527  0.20676  1.0000
  H   H1249     1.0  0.65551  0.79566  0.09719  1.0000
  C   C1575     1.0  0.84522  0.83922  0.07423  1.0000
  Fe  Fe99      1.0  0.71182  0.72183  0.01665  1.0000
  S   S201      1.0  0.69394  0.71159  0.04759  1.0000
  Fe  Fe100     1.0  0.50846  0.88535  0.14446  1.0000
  S   S202      1.0  0.54790  0.90981  0.16006  1.0000
  H   H1250     1.0  0.48226  0.77962  0.16003  1.0000
  Fe  Fe101     1.0  0.52234  0.84061  0.13527  1.0000
  S   S203      1.0  0.56182  0.86169  0.15040  1.0000
  S   S204      1.0  0.50853  0.80004  0.12077  1.0000
  Fe  Fe102     1.0  0.54081  0.87181  0.17422  1.0000
  S   S205      1.0  0.54318  0.85963  0.20577  1.0000
  Fe  Fe103     1.0  0.56575  0.89775  0.13464  1.0000
  S   S206      1.0  0.60650  0.92441  0.12162  1.0000
  S   S207      1.0  0.50078  0.84816  0.15979  1.0000
  S   S208      1.0  0.52685  0.87595  0.11825  1.0000
  Fe  Fe104     1.0  0.55343  0.63947  0.16454  1.0000
  S   S209      1.0  0.51895  0.64767  0.16523  1.0000
  S   S210      1.0  0.56405  0.62496  0.19290  1.0000
  Fe  Fe105     1.0  0.56156  0.65119  0.11991  1.0000
  S   S211      1.0  0.52638  0.65942  0.11849  1.0000
  S   S212      1.0  0.58169  0.65486  0.08986  1.0000
  Fe  Fe106     1.0  0.54272  0.68237  0.14678  1.0000
  S   S213      1.0  0.54829  0.72270  0.15726  1.0000
  Fe  Fe107     1.0  0.50525  0.62348  0.13702  1.0000
  H   H1251     1.0  0.65205  0.83738  0.08624  1.0000
  S   S214      1.0  0.57869  0.67598  0.14770  1.0000
  S   S215      1.0  0.53896  0.61351  0.13687  1.0000
  H   H1252     1.0  0.88226  0.58774  0.21499  1.0000
  C   C1576     1.0  0.80980  0.81332  0.99845  1.0000
  H   H1253     1.0  0.58850  0.64530  0.00773  1.0000
  H   H1254     1.0  0.81485  0.76134  0.03145  1.0000
  H   H1255     1.0  0.94308  0.57839  0.18553  1.0000
  C   C1577     1.0  0.56290  0.63646  0.21720  1.0000
  C   C1578     1.0  0.64344  0.85806  0.05260  1.0000
  C   C1579     1.0  0.55688  0.65724  0.22071  1.0000
  C   C1580     1.0  0.65815  0.85197  0.03898  1.0000
  H   H1256     1.0  0.55271  0.66652  0.20843  1.0000
  C   C1581     1.0  0.54617  0.87573  0.22895  1.0000
  C   C1582     1.0  0.55581  0.90309  0.23126  1.0000
  C   C1583     1.0  0.67244  0.76449  0.04178  1.0000
  H   H1257     1.0  0.56062  0.91518  0.21847  1.0000
  C   C1584     1.0  0.88228  0.73654  0.00672  1.0000
  C   C1585     1.0  0.62072  0.93234  0.09786  1.0000
  C   C1586     1.0  0.64833  0.94529  0.09654  1.0000
  C   C1587     1.0  0.66062  0.95256  0.07827  1.0000
  C   C1588     1.0  0.64550  0.94714  0.06085  1.0000
  C   C1589     1.0  0.61788  0.93410  0.06215  1.0000
  C   C1590     1.0  0.60557  0.92667  0.08043  1.0000
  H   H1258     1.0  0.66036  0.94985  0.10982  1.0000
  C   C1591     1.0  0.65238  0.88413  0.05954  1.0000
  H   H1259     1.0  0.60585  0.92972  0.04889  1.0000
  H   H1260     1.0  0.58435  0.91686  0.08106  1.0000
  C   C1592     1.0  0.52060  0.77904  0.13037  1.0000
  C   C1593     1.0  0.53559  0.78571  0.14783  1.0000
  C   C1594     1.0  0.54352  0.76799  0.15589  1.0000
  C   C1595     1.0  0.53736  0.74381  0.14629  1.0000
  C   C1596     1.0  0.52331  0.73751  0.12838  1.0000
  C   C1597     1.0  0.51461  0.75492  0.12061  1.0000
  H   H1261     1.0  0.54039  0.80420  0.15548  1.0000
  H   H1262     1.0  0.55441  0.77301  0.16972  1.0000
  H   H1263     1.0  0.51908  0.71929  0.12054  1.0000
  H   H1264     1.0  0.50321  0.74973  0.10699  1.0000
  H   H1265     1.0  0.54059  0.79610  0.08636  1.0000
  C   C1598     1.0  0.67590  0.90420  0.05288  1.0000
  H   H1266     1.0  0.57936  0.75995  0.07405  1.0000
  C   C1599     1.0  0.84715  0.84454  0.05416  1.0000
  C   C1600     1.0  0.61329  0.79861  0.03650  1.0000
  H   H1267     1.0  0.88776  0.91094  0.05751  1.0000
  H   H1268     1.0  0.56944  0.71204  0.19134  1.0000
  C   C1601     1.0  0.66236  0.69610  0.05889  1.0000
  C   C1602     1.0  0.63852  0.68372  0.04809  1.0000
  C   C1603     1.0  0.61427  0.67115  0.05779  1.0000
  C   C1604     1.0  0.61321  0.67108  0.07845  1.0000
  C   C1605     1.0  0.63704  0.68399  0.08922  1.0000
  C   C1606     1.0  0.66129  0.69620  0.07952  1.0000
  H   H1269     1.0  0.63878  0.68364  0.03226  1.0000
  H   H1270     1.0  0.59612  0.66146  0.04920  1.0000
  H   H1271     1.0  0.63681  0.68427  0.10506  1.0000
  H   H1272     1.0  0.67944  0.70569  0.08815  1.0000
  H   H1273     1.0  0.83412  0.81923  0.07917  1.0000
  C   C1607     1.0  0.55040  0.73647  0.23038  1.0000
  C   C1608     1.0  0.55682  0.66640  0.24004  1.0000
  H   H1274     1.0  0.51170  0.80890  0.18661  1.0000
  H   H1275     1.0  0.74593  0.72726  0.06599  1.0000
  H   H1276     1.0  0.50409  0.60782  0.20268  1.0000
  C   C1609     1.0  0.78059  0.74172  0.04861  1.0000
  H   H1277     1.0  0.89426  0.78165  0.04303  1.0000
  H   H1278     1.0  0.68267  0.92446  0.05792  1.0000
  H   H1279     1.0  0.81324  0.85880  0.03303  1.0000
  H   H1280     1.0  0.70198  0.84083  0.04392  1.0000
  C   C1610     1.0  0.64777  0.82057  0.00271  1.0000
  H   H1281     1.0  0.72949  0.81982  0.05293  1.0000
  C   C1611     1.0  0.66692  0.80389  0.03741  1.0000
  H   H1282     1.0  0.53221  0.71923  0.20218  1.0000
  H   H1283     1.0  0.75087  0.77182  0.07402  1.0000
  H   H1284     1.0  0.96079  0.62528  0.23935  1.0000
  H   H1285     1.0  0.59713  0.87763  0.09367  1.0000
  S   S216      1.0  0.65985  0.95604  0.03716  1.0000
  H   H1286     1.0  0.69698  0.87260  0.08065  1.0000
  C   C1612     1.0  0.50123  0.78776  0.18860  1.0000
  C   C1613     1.0  0.57045  0.72135  0.20553  1.0000
  H   H1287     1.0  0.57043  0.78304  0.10353  1.0000
  C   C1614     1.0  0.60856  0.78564  0.05437  1.0000
  C   C1615     1.0  0.50466  0.77704  0.20596  1.0000
  C   C1616     1.0  0.70902  0.80766  0.04868  1.0000
  C   C1617     1.0  0.48200  0.53024  0.20707  1.0000
  H   H1288     1.0  0.56866  0.78917  0.23105  1.0000
  P   P54       1.0  0.64669  0.81872  0.02912  1.0000
  C   C1618     1.0  0.63938  0.63505  0.01322  1.0000
  C   C1619     1.0  0.76254  0.74460  0.06063  1.0000
  H   H1289     1.0  0.48763  0.84917  0.20262  1.0000
  H   H1290     1.0  0.71390  0.88004  0.14270  1.0000
  Fe  Fe108     1.0  0.69731  0.97375  0.01833  1.0000
  H   H1291     1.0  0.70823  0.91405  0.03363  1.0000
  S   S217      1.0  0.91171  0.73516  0.01496  1.0000
  C   C1620     1.0  0.65665  0.77624  0.03660  1.0000
  H   H1292     1.0  0.54774  0.57027  0.21199  1.0000
  H   H1293     1.0  0.62496  0.84297  0.05775  1.0000
  H   H1294     1.0  0.77790  0.72216  0.04454  1.0000
  C   C1621     1.0  0.87319  0.88563  0.08215  1.0000
  C   C1622     1.0  0.59423  0.74113  0.23599  1.0000
  H   H1295     1.0  0.48504  0.59579  0.23550  1.0000
  C   C1623     1.0  0.54218  0.56980  0.00496  1.0000
  C   C1624     1.0  0.95551  0.60225  0.21245  1.0000
  H   H1296     1.0  0.58272  0.76086  0.12803  1.0000
  H   H1297     1.0  0.73775  0.83150  0.01065  1.0000
  C   C1625     1.0  0.83583  0.74132  0.99651  1.0000
  H   H1298     1.0  0.82125  0.72263  0.02385  1.0000
  H   H1299     1.0  0.51287  0.54886  0.18643  1.0000
  C   C1626     1.0  0.78642  0.79216  0.05781  1.0000
  C   C1627     1.0  0.48457  0.77122  0.17361  1.0000
  H   H1300     1.0  0.85642  0.85557  0.10364  1.0000
  H   H1301     1.0  0.57380  0.60908  0.23096  1.0000
  H   H1302     1.0  0.78800  0.81151  0.06101  1.0000
  H   H1303     1.0  0.89574  0.66564  0.00579  1.0000
  H   H1304     1.0  0.74362  0.87671  0.01896  1.0000
  C   C1628     1.0  0.81670  0.82790  0.01626  1.0000
  H   H1305     1.0  0.57466  0.71673  0.11605  1.0000
  C   C1629     1.0  0.89141  0.65358  0.99242  1.0000
  C   C1630     1.0  0.92082  0.60755  0.22886  1.0000
  C   C1631     1.0  0.88768  0.79302  0.03400  1.0000
  H   H1306     1.0  0.66902  0.84514  0.14847  1.0000
  C   C1632     1.0  0.85805  0.85976  0.08817  1.0000
  H   H1307     1.0  0.86388  0.83250  0.00069  1.0000
  H   H1308     1.0  0.57605  0.83487  0.22683  1.0000
  C   C1633     1.0  0.65480  0.80404  0.99143  1.0000
  C   C1634     1.0  0.66216  0.64079  0.02437  1.0000
  C   C1635     1.0  0.68370  0.64022  0.01556  1.0000
  C   C1636     1.0  0.69326  0.81953  0.04354  1.0000
  C   C1637     1.0  0.87011  0.82126  0.01007  1.0000
  H   H1309     1.0  0.50505  0.65066  0.21915  1.0000
  P   P55       1.0  0.83146  0.81819  0.03599  1.0000
  H   H1310     1.0  0.95947  0.55306  0.21830  1.0000
  H   H1311     1.0  0.49401  0.74189  0.22204  1.0000
  H   H1312     1.0  0.54170  0.75662  0.05365  1.0000
  H   H1313     1.0  0.86168  0.71918  0.03295  1.0000
  H   H1314     1.0  0.91609  0.63597  0.00068  1.0000
  H   H1315     1.0  0.62608  0.78187  0.15403  1.0000
  H   H1316     1.0  0.59900  0.81131  0.20213  1.0000
  H   H1317     1.0  0.81413  0.79693  0.99625  1.0000
  H   H1318     1.0  0.71091  0.77089  0.05130  1.0000
  H   H1319     1.0  0.51768  0.79009  0.21748  1.0000
  H   H1320     1.0  0.55358  0.84333  0.08147  1.0000
  H   H1321     1.0  0.85789  0.79032  0.05374  1.0000
  H   H1322     1.0  0.66330  0.64620  0.03981  1.0000
  H   H1323     1.0  0.70150  0.64519  0.02416  1.0000
  C   C1638     1.0  0.56839  0.62467  0.23341  1.0000
  Fe  Fe109     1.0  0.95208  0.74010  0.00413  1.0000
  C   C1639     1.0  0.73079  0.88297  0.99056  1.0000
  H   H1324     1.0  0.61461  0.78043  0.18872  1.0000
  H   H1325     1.0  0.60647  0.71193  0.09445  1.0000
  H   H1326     1.0  0.72802  0.89399  0.10886  1.0000
  C   C1640     1.0  0.73335  0.84249  0.99975  1.0000
  C   C1641     1.0  0.59279  0.72918  0.21764  1.0000
  C   C1642     1.0  0.86690  0.79769  0.03987  1.0000
  C   C1643     1.0  0.85766  0.81147  0.02780  1.0000
  C   C1644     1.0  0.87574  0.89095  0.06219  1.0000
  H   H1327     1.0  0.91540  0.79824  0.01154  1.0000
  H   H1328     1.0  0.62774  0.86529  0.11064  1.0000
  C   C1645     1.0  0.80164  0.76402  0.04128  1.0000
  C   C1646     1.0  0.91079  0.58123  0.19877  1.0000
  H   H1329     1.0  0.68184  0.96243  0.07773  1.0000
  C   C1647     1.0  0.47902  0.92218  0.19517  1.0000
  C   C1648     1.0  0.69038  0.89834  0.03919  1.0000
  H   H1330     1.0  0.60888  0.72571  0.21283  1.0000
  C   C1649     1.0  0.54932  0.72510  0.21183  1.0000
  H   H1331     1.0  0.60488  0.84457  0.14561  1.0000
  H   H1332     1.0  0.48903  0.85653  0.23826  1.0000
  C   C1650     1.0  0.86056  0.72760  0.01913  1.0000
  C   C1651     1.0  0.49129  0.74969  0.20841  1.0000
  S   S218      1.0  0.73624  0.97395  0.02382  1.0000
  H   H1333     1.0  0.52924  0.54871  0.00434  1.0000
  H   H1334     1.0  0.59497  0.80678  0.01133  1.0000
  C   C1652     1.0  0.89965  0.80240  0.01620  1.0000
  C   C1653     1.0  0.69863  0.78016  0.04775  1.0000
  C   C1654     1.0  0.83753  0.72970  0.01403  1.0000
  H   H1335     1.0  0.63663  0.76370  0.03144  1.0000
  H   H1336     1.0  0.62476  0.78734  0.06364  1.0000
  H   H1337     1.0  0.64088  0.88899  0.06977  1.0000
  C   C1655     1.0  0.93710  0.58650  0.19781  1.0000
  H   H1338     1.0  0.48605  0.66737  0.19404  1.0000
  S   S219      1.0  0.47962  0.90305  0.14348  1.0000
  H   H1339     1.0  0.55109  0.62573  0.02982  1.0000
  C   C1656     1.0  0.58284  0.77028  0.06040  1.0000
  H   H1340     1.0  0.59400  0.84316  0.18041  1.0000
  H   H1341     1.0  0.66456  0.74318  0.04076  1.0000
  H   H1342     1.0  0.86547  0.87478  0.03279  1.0000
  H   H1343     1.0  0.64706  0.75133  0.08531  1.0000
  H   H1344     1.0  0.63751  0.85268  0.00161  1.0000
  C   C1657     1.0  0.90264  0.59174  0.21430  1.0000
  H   H1345     1.0  0.89674  0.56913  0.18739  1.0000
  C   C1658     1.0  0.56163  0.76833  0.04886  1.0000
  C   C1659     1.0  0.68147  0.87241  0.03216  1.0000
  C   C1660     1.0  0.63298  0.75367  0.09452  1.0000
  C   C1661     1.0  0.61017  0.73137  0.09968  1.0000
  C   C1662     1.0  0.59216  0.73407  0.11179  1.0000
  C   C1663     1.0  0.59675  0.75911  0.11855  1.0000
  C   C1664     1.0  0.61929  0.78174  0.11322  1.0000
  C   C1665     1.0  0.63764  0.77881  0.10131  1.0000
  P   P56       1.0  0.62379  0.81396  0.12143  1.0000
  C   C1666     1.0  0.60203  0.82301  0.10772  1.0000
  C   C1667     1.0  0.61622  0.81325  0.14710  1.0000
  C   C1668     1.0  0.61923  0.79545  0.15956  1.0000
  C   C1669     1.0  0.61295  0.79472  0.17933  1.0000
  C   C1670     1.0  0.60403  0.81201  0.18687  1.0000
  C   C1671     1.0  0.60125  0.82995  0.17464  1.0000
  C   C1672     1.0  0.60735  0.83062  0.15484  1.0000
  C   C1673     1.0  0.60919  0.84980  0.10487  1.0000
  C   C1674     1.0  0.59187  0.85699  0.09524  1.0000
  C   C1675     1.0  0.56733  0.83765  0.08833  1.0000
  C   C1676     1.0  0.56007  0.81102  0.09104  1.0000
  C   C1677     1.0  0.57718  0.80370  0.10086  1.0000
  C   C1678     1.0  0.65719  0.83872  0.11770  1.0000
  C   C1679     1.0  0.67488  0.85078  0.13360  1.0000
  C   C1680     1.0  0.70038  0.87060  0.13038  1.0000
  C   C1681     1.0  0.70836  0.87847  0.11132  1.0000
  C   C1682     1.0  0.69089  0.86642  0.09543  1.0000
  C   C1683     1.0  0.66543  0.84661  0.09862  1.0000
  Fe  Fe110     1.0  0.72945  0.95333  0.99403  1.0000
  C   C1684     1.0  0.76537  0.76980  0.06516  1.0000
  C   C1685     1.0  0.57560  0.62419  0.00672  1.0000
  C   C1686     1.0  0.56616  0.78155  0.03120  1.0000
  S   S220      1.0  0.95507  0.70264  0.99735  1.0000
  C   C1687     1.0  0.48399  0.59250  0.20408  1.0000
  C   C1688     1.0  0.68253  0.63408  0.99555  1.0000
  C   C1689     1.0  0.80499  0.78942  0.04612  1.0000
  C   C1690     1.0  0.73667  0.86823  0.00441  1.0000
  C   C1691     1.0  0.59189  0.79662  0.02500  1.0000
  H   H1346     1.0  0.88317  0.90152  0.09296  1.0000
  C   C1692     1.0  0.89090  0.81653  0.00425  1.0000
  C   C1693     1.0  0.79690  0.85455  0.00398  1.0000
  C   C1694     1.0  0.50801  0.54569  0.20177  1.0000
  H   H1347     1.0  0.48961  0.96211  0.20450  1.0000
  H   H1348     1.0  0.47767  0.58406  0.17305  1.0000
  S   S221      1.0  0.73469  0.91530  0.99748  1.0000
  C   C1695     1.0  0.97279  0.53273  0.19808  1.0000
  H   H1349     1.0  0.52139  0.57750  0.02822  1.0000
  C   C1696     1.0  0.80950  0.84814  0.01912  1.0000
  Fe  Fe111     1.0  0.76514  0.74018  0.99490  1.0000
  C   C1697     1.0  0.52152  0.55432  0.23610  1.0000
  C   C1698     1.0  0.63802  0.62889  0.99306  1.0000
  C   C1699     1.0  0.52771  0.55779  0.21626  1.0000
  C   C1700     1.0  0.86297  0.87045  0.04823  1.0000
  H   H1350     1.0  0.49021  0.67996  0.13559  1.0000
  H   H1351     1.0  0.69252  0.86844  0.02103  1.0000
  C   C1701     1.0  0.49503  0.66192  0.22355  1.0000
  H   H1352     1.0  0.62318  0.63579  0.02051  1.0000
  C   C1702     1.0  0.53769  0.58601  0.01838  1.0000
  H   H1353     1.0  0.59711  0.97420  0.10197  1.0000
  H   H1354     1.0  0.62972  0.97513  0.99556  1.0000
  H   H1355     1.0  0.95927  0.51327  0.20295  1.0000
  C   C1703     1.0  0.55438  0.61320  0.01923  1.0000
  H   H1356     1.0  0.49655  0.92759  0.18671  1.0000
  C   C1704     1.0  0.58056  0.60799  0.99343  1.0000
  H   H1357     1.0  0.97250  0.62425  0.17385  1.0000
  H   H1358     1.0  0.65975  0.78987  0.99817  1.0000
  H   H1359     1.0  0.79143  0.87023  0.00614  1.0000
  C   C1705     1.0  0.48415  0.67153  0.20929  1.0000
  H   H1360     1.0  0.49275  0.70566  0.16567  1.0000
  H   H1361     1.0  0.54970  0.78015  0.02232  1.0000
  C   C1706     1.0  0.64255  0.83939  0.99326  1.0000
  C   C1707     1.0  0.94716  0.61288  0.22794  1.0000
  H   H1362     1.0  0.53384  0.73909  0.23517  1.0000
  C   C1708     1.0  0.47573  0.52710  0.22687  1.0000
  H   H1363     1.0  0.58261  0.98352  0.06993  1.0000
  C   C1709     1.0  0.56386  0.58728  0.44366  1.0000
  Fe  Fe112     1.0  0.71212  0.72278  0.47589  1.0000
  S   S222      1.0  0.67437  0.70912  0.45621  1.0000
  H   H1364     1.0  0.50512  0.55652  0.30699  1.0000
  C   C1710     1.0  0.53051  0.52676  0.27620  1.0000
  S   S223      1.0  0.75303  0.75675  0.47204  1.0000
  H   H1365     1.0  0.56941  0.71125  0.39023  1.0000
  H   H1366     1.0  0.50634  0.74804  0.31353  1.0000
  H   H1367     1.0  0.54510  0.70494  0.27068  1.0000
  C   C1711     1.0  0.47923  0.88669  0.38946  1.0000
  Fe  Fe113     1.0  0.55534  0.89179  0.31867  1.0000
  S   S224      1.0  0.52569  0.84918  0.31704  1.0000
  S   S225      1.0  0.56348  0.91556  0.29081  1.0000
  Fe  Fe114     1.0  0.56795  0.89037  0.36313  1.0000
  S   S226      1.0  0.53760  0.84742  0.36378  1.0000
  S   S227      1.0  0.58986  0.90310  0.39338  1.0000
  Fe  Fe115     1.0  0.55466  0.84267  0.33569  1.0000
  S   S228      1.0  0.57020  0.81380  0.32811  1.0000
  Fe  Fe116     1.0  0.51111  0.85810  0.34516  1.0000
  P   P57       1.0  0.60669  0.75857  0.41213  1.0000
  S   S229      1.0  0.58578  0.88495  0.33537  1.0000
  S   S230      1.0  0.53973  0.90131  0.34643  1.0000
  Fe  Fe117     1.0  0.52987  0.61361  0.34287  1.0000
  S   S231      1.0  0.56893  0.62535  0.32850  1.0000
  S   S232      1.0  0.50245  0.57022  0.34951  1.0000
  Fe  Fe118     1.0  0.54200  0.67147  0.34896  1.0000
  S   S233      1.0  0.58117  0.68668  0.33504  1.0000
  S   S234      1.0  0.52643  0.69853  0.36139  1.0000
  Fe  Fe119     1.0  0.56002  0.65439  0.31197  1.0000
  S   S235      1.0  0.56288  0.66801  0.28020  1.0000
  Fe  Fe120     1.0  0.58673  0.65680  0.35296  1.0000
  S   S236      1.0  0.62680  0.66848  0.36873  1.0000
  S   S237      1.0  0.52020  0.64096  0.32517  1.0000
  S   S238      1.0  0.54839  0.64313  0.36811  1.0000
  H   H1368     1.0  0.61528  0.65769  0.46133  1.0000
  C   C1712     1.0  0.55839  0.78240  0.33833  1.0000
  C   C1713     1.0  0.56849  0.76558  0.33170  1.0000
  C   C1714     1.0  0.55854  0.73977  0.33849  1.0000
  C   C1715     1.0  0.53906  0.73084  0.35250  1.0000
  C   C1716     1.0  0.52933  0.74788  0.35948  1.0000
  C   C1717     1.0  0.53880  0.77355  0.35228  1.0000
  H   H1369     1.0  0.58345  0.77221  0.32077  1.0000
  H   H1370     1.0  0.56574  0.72672  0.33267  1.0000
  H   H1371     1.0  0.51420  0.74109  0.37029  1.0000
  H   H1372     1.0  0.53085  0.78638  0.35743  1.0000
  C   C1718     1.0  0.66692  0.96072  0.42723  1.0000
  C   C1719     1.0  0.66326  0.96431  0.40724  1.0000
  C   C1720     1.0  0.64038  0.94652  0.39646  1.0000
  C   C1721     1.0  0.62034  0.92515  0.40565  1.0000
  C   C1722     1.0  0.62431  0.92117  0.42550  1.0000
  C   C1723     1.0  0.64752  0.93857  0.43615  1.0000
  H   H1373     1.0  0.52810  0.77363  0.41208  1.0000
  H   H1374     1.0  0.63808  0.94973  0.38116  1.0000
  H   H1375     1.0  0.60909  0.90472  0.43282  1.0000
  H   H1376     1.0  0.64992  0.93538  0.45145  1.0000
  H   H1377     1.0  0.79392  0.91847  0.48170  1.0000
  C   C1724     1.0  0.54850  0.78137  0.40814  1.0000
  H   H1378     1.0  0.61534  0.95454  0.34512  1.0000
  H   H1379     1.0  0.54497  0.91058  0.39727  1.0000
  C   C1725     1.0  0.66189  0.69830  0.43164  1.0000
  C   C1726     1.0  0.67694  0.69511  0.41690  1.0000
  C   C1727     1.0  0.66583  0.68592  0.39787  1.0000
  C   C1728     1.0  0.63957  0.67989  0.39316  1.0000
  C   C1729     1.0  0.62463  0.68346  0.40785  1.0000
  C   C1730     1.0  0.63571  0.69254  0.42689  1.0000
  H   H1380     1.0  0.69713  0.69960  0.42014  1.0000
  H   H1381     1.0  0.67770  0.68341  0.38668  1.0000
  H   H1382     1.0  0.60454  0.67924  0.40448  1.0000
  H   H1383     1.0  0.62384  0.69509  0.43803  1.0000
  H   H1384     1.0  0.73363  0.82501  0.47512  1.0000
  H   H1385     1.0  0.58146  0.57285  0.46490  1.0000
  H   H1386     1.0  0.61183  0.74706  0.24502  1.0000
  H   H1387     1.0  0.59134  0.86689  0.25496  1.0000
  C   C1731     1.0  0.51708  0.69944  0.29278  1.0000
  C   C1732     1.0  0.56764  0.63337  0.25282  1.0000
  C   C1733     1.0  0.56214  0.65455  0.25625  1.0000
  C   C1734     1.0  0.53891  0.55101  0.31345  1.0000
  H   H1388     1.0  0.57224  0.62430  0.26505  1.0000
  C   C1735     1.0  0.52643  0.91084  0.39472  1.0000
  C   C1736     1.0  0.58793  0.84674  0.25695  1.0000
  C   C1737     1.0  0.55526  0.89970  0.26710  1.0000
  C   C1738     1.0  0.54456  0.87225  0.26468  1.0000
  S   S239      1.0  0.80271  0.72191  0.48925  1.0000
  H   H1389     1.0  0.54053  0.86012  0.27734  1.0000
  C   C1739     1.0  0.62152  0.75450  0.38989  1.0000
  C   C1740     1.0  0.64056  0.74548  0.39057  1.0000
  C   C1741     1.0  0.65074  0.74083  0.37331  1.0000
  C   C1742     1.0  0.64206  0.74510  0.35517  1.0000
  C   C1743     1.0  0.62309  0.75394  0.35426  1.0000
  C   C1744     1.0  0.61256  0.75824  0.37148  1.0000
  C   C1745     1.0  0.47960  0.56116  0.27346  1.0000
  C   C1746     1.0  0.58666  0.81467  0.39258  1.0000
  C   C1747     1.0  0.60070  0.80079  0.39701  1.0000
  H   H1390     1.0  0.64943  0.74066  0.34185  1.0000
  H   H1391     1.0  0.61578  0.75657  0.34018  1.0000
  H   H1392     1.0  0.59679  0.76358  0.37019  1.0000
  H   H1393     1.0  0.49173  0.70003  0.31553  1.0000
  H   H1394     1.0  0.59568  0.83268  0.38443  1.0000
  H   H1395     1.0  0.62072  0.80836  0.39225  1.0000
  C   C1748     1.0  0.64089  0.87782  0.46435  1.0000
  H   H1396     1.0  0.96699  0.81662  0.47857  1.0000
  C   C1749     1.0  0.50763  0.92692  0.28381  1.0000
  H   H1397     1.0  0.66104  0.49536  0.48219  1.0000
  H   H1398     1.0  0.55283  0.68297  0.24239  1.0000
  H   H1399     1.0  0.51078  0.62816  0.27994  1.0000
  C   C1750     1.0  0.47996  0.68128  0.24903  1.0000
  H   H1400     1.0  0.50178  0.65956  0.25439  1.0000
  H   H1401     1.0  0.59463  0.96369  0.31607  1.0000
  C   C1751     1.0  0.70127  0.63420  0.47688  1.0000
  H   H1402     1.0  0.77117  0.98271  0.39817  1.0000
  H   H1403     1.0  0.47858  0.86638  0.30377  1.0000
  C   C1752     1.0  0.55141  0.52888  0.28827  1.0000
  C   C1753     1.0  0.73828  0.84117  0.48556  1.0000
  H   H1404     1.0  0.57183  0.54278  0.31623  1.0000
  C   C1754     1.0  0.57879  0.96783  0.41159  1.0000
  C   C1755     1.0  0.88036  0.76319  0.47346  1.0000
  C   C1756     1.0  0.53431  0.75387  0.29106  1.0000
  C   C1757     1.0  0.59012  0.96019  0.36569  1.0000
  C   C1758     1.0  0.78897  0.93931  0.45757  1.0000
  C   C1759     1.0  0.67028  0.80142  0.46093  1.0000
  H   H1405     1.0  0.52723  0.51694  0.26195  1.0000
  H   H1406     1.0  0.60623  0.85534  0.44615  1.0000
  H   H1407     1.0  0.68535  0.81152  0.47219  1.0000
  C   C1760     1.0  0.57305  0.74493  0.24249  1.0000
  H   H1408     1.0  0.50071  0.93563  0.25437  1.0000
  C   C1761     1.0  0.63692  0.80073  0.43834  1.0000
  H   H1409     1.0  0.53043  0.65722  0.43562  1.0000
  H   H1410     1.0  0.51125  0.67855  0.29395  1.0000
  H   H1411     1.0  0.52014  0.59122  0.27173  1.0000
  C   C1762     1.0  0.73327  0.86250  0.48065  1.0000
  C   C1763     1.0  0.89153  0.74703  0.47971  1.0000
  P   P58       1.0  0.62533  0.62043  0.48402  1.0000
  H   H1412     1.0  0.55715  0.97347  0.32014  1.0000
  C   C1764     1.0  0.56166  0.69511  0.44541  1.0000
  H   H1413     1.0  0.62831  0.97549  0.45395  1.0000
  H   H1414     1.0  0.54134  0.77502  0.29137  1.0000
  C   C1765     1.0  0.56241  0.76733  0.41252  1.0000
  H   H1415     1.0  0.78707  0.96514  0.43578  1.0000
  H   H1416     1.0  0.50408  0.86837  0.39482  1.0000
  H   H1417     1.0  0.54970  0.81567  0.39454  1.0000
  H   H1418     1.0  0.60069  0.70028  0.48254  1.0000
  H   H1419     1.0  0.64849  0.64279  0.44598  1.0000
  C   C1766     1.0  0.84406  0.91758  0.48884  1.0000
  H   H1420     1.0  0.54190  0.56016  0.32798  1.0000
  C   C1767     1.0  0.64511  0.76283  0.43998  1.0000
  H   H1421     1.0  0.64052  0.74280  0.43576  1.0000
  C   C1768     1.0  0.54551  0.67631  0.43127  1.0000
  H   H1422     1.0  0.53534  0.66815  0.40050  1.0000
  C   C1769     1.0  0.51425  0.73858  0.30366  1.0000
  H   H1423     1.0  0.48370  0.81842  0.25512  1.0000
  C   C1770     1.0  0.80077  0.93761  0.47520  1.0000
  C   C1771     1.0  0.65632  0.81373  0.45297  1.0000
  C   C1772     1.0  0.51402  0.53730  0.28256  1.0000
  H   H1424     1.0  0.59230  0.73457  0.45092  1.0000
  C   C1773     1.0  0.62755  0.86515  0.44691  1.0000
  H   H1425     1.0  0.66464  0.73286  0.37397  1.0000
  C   C1774     1.0  0.58866  0.77693  0.40700  1.0000
  H   H1426     1.0  0.66866  0.53787  0.46784  1.0000
  H   H1427     1.0  0.91452  0.61582  0.24085  1.0000
  C   C1775     1.0  0.66836  0.89066  0.46522  1.0000
  C   C1776     1.0  0.60103  0.61574  0.46504  1.0000
  C   C1777     1.0  0.53648  0.71451  0.27972  1.0000
  P   P59       1.0  0.57520  0.76163  0.26573  1.0000
  C   C1778     1.0  0.60369  0.76416  0.27945  1.0000
  C   C1779     1.0  0.57916  0.79461  0.26213  1.0000
  C   C1780     1.0  0.58747  0.81291  0.27799  1.0000
  C   C1781     1.0  0.59162  0.83878  0.27545  1.0000
  C   C1782     1.0  0.49483  0.60823  0.27896  1.0000
  C   C1783     1.0  0.58795  0.95501  0.44341  1.0000
  C   C1784     1.0  0.63149  0.77533  0.43137  1.0000
  C   C1785     1.0  0.60219  0.74306  0.29058  1.0000
  C   C1786     1.0  0.62464  0.74447  0.29999  1.0000
  C   C1787     1.0  0.64879  0.76704  0.29860  1.0000
  C   C1788     1.0  0.65055  0.78814  0.28758  1.0000
  C   C1789     1.0  0.62819  0.78663  0.27788  1.0000
  C   C1790     1.0  0.54007  0.86040  0.24577  1.0000
  H   H1428     1.0  0.64707  0.74102  0.40421  1.0000
  C   C1791     1.0  0.57941  0.82865  0.24107  1.0000
  H   H1429     1.0  0.64853  0.72917  0.48123  1.0000
  H   H1430     1.0  0.55014  0.60706  0.42339  1.0000
  C   C1792     1.0  0.84116  0.89190  0.48694  1.0000
  H   H1431     1.0  0.59084  0.80716  0.29236  1.0000
  H   H1432     1.0  0.59757  0.85262  0.28789  1.0000
  C   C1793     1.0  0.65732  0.63041  0.47384  1.0000
  C   C1794     1.0  0.57013  0.95224  0.42819  1.0000
  C   C1795     1.0  0.56774  0.70690  0.40568  1.0000
  H   H1433     1.0  0.58396  0.72516  0.29183  1.0000
  H   H1434     1.0  0.62324  0.72774  0.30812  1.0000
  H   H1435     1.0  0.66619  0.76799  0.30583  1.0000
  H   H1436     1.0  0.66935  0.80552  0.28626  1.0000
  H   H1437     1.0  0.63019  0.80287  0.26892  1.0000
  C   C1796     1.0  0.58781  0.96480  0.33062  1.0000
  H   H1438     1.0  0.97291  0.58884  0.42579  1.0000
  C   C1797     1.0  0.66469  0.77598  0.45443  1.0000
  H   H1439     1.0  0.55238  0.74882  0.41991  1.0000
  C   C1798     1.0  0.50330  0.88688  0.39336  1.0000
  H   H1440     1.0  0.69168  0.65463  0.43238  1.0000
  C   C1799     1.0  0.61439  0.97361  0.44232  1.0000
  H   H1441     1.0  0.58255  0.65186  0.43508  1.0000
  C   C1800     1.0  0.55727  0.97091  0.35165  1.0000
  C   C1801     1.0  0.66285  0.64010  0.45482  1.0000
  C   C1802     1.0  0.85354  0.75618  0.47645  1.0000
  C   C1803     1.0  0.52566  0.93484  0.39228  1.0000
  C   C1804     1.0  0.56405  0.60946  0.43520  1.0000
  C   C1805     1.0  0.56664  0.97032  0.33294  1.0000
  C   C1806     1.0  0.49547  0.92052  0.26520  1.0000
  C   C1807     1.0  0.56923  0.96625  0.36820  1.0000
  H   H1442     1.0  0.62634  0.81067  0.43256  1.0000
  H   H1443     1.0  0.56856  0.93623  0.25190  1.0000
  H   H1444     1.0  0.52253  0.94690  0.28737  1.0000
  H   H1445     1.0  0.51080  0.91228  0.31202  1.0000
  H   H1446     1.0  0.62450  0.57074  0.47193  1.0000
  C   C1808     1.0  0.82076  0.96043  0.48445  1.0000
  H   H1447     1.0  0.84699  0.88556  0.47366  1.0000
  C   C1809     1.0  0.58218  0.59035  0.45859  1.0000
  P   P60       1.0  0.55597  0.96537  0.39212  1.0000
  H   H1448     1.0  0.67557  0.76639  0.46055  1.0000
  H   H1449     1.0  0.47812  0.68491  0.26440  1.0000
  C   C1810     1.0  0.58067  0.71996  0.43972  1.0000
  C   C1811     1.0  0.60080  0.63793  0.45664  1.0000
  H   H1450     1.0  0.54960  0.56768  0.43850  1.0000
  H   H1451     1.0  0.72427  0.86225  0.46659  1.0000
  C   C1812     1.0  0.47830  0.91044  0.38665  1.0000
  H   H1452     1.0  0.48747  0.77746  0.30590  1.0000
  C   C1813     1.0  0.67678  0.62764  0.48485  1.0000
  Fe  Fe121     1.0  0.95839  0.74716  0.48658  1.0000
  P   P61       1.0  0.48698  0.53446  0.26711  1.0000
  H   H1453     1.0  0.85197  0.93089  0.47683  1.0000
  C   C1814     1.0  0.48301  0.88123  0.29283  1.0000
  H   H1454     1.0  0.67878  0.90050  0.47873  1.0000
  H   H1455     1.0  0.96502  0.52242  0.29123  1.0000
  H   H1456     1.0  0.59861  0.95498  0.37805  1.0000
  C   C1815     1.0  0.54610  0.74199  0.27936  1.0000
  C   C1816     1.0  0.50110  0.90737  0.29769  1.0000
  C   C1817     1.0  0.56038  0.91500  0.25026  1.0000
  H   H1457     1.0  0.72584  0.64958  0.45196  1.0000
  H   H1458     1.0  0.62999  0.87789  0.47715  1.0000
  C   C1818     1.0  0.56063  0.80503  0.39821  1.0000
  C   C1819     1.0  0.68743  0.64680  0.44695  1.0000
  C   C1820     1.0  0.68251  0.89119  0.44862  1.0000
  C   C1821     1.0  0.66928  0.87913  0.43090  1.0000
  C   C1822     1.0  0.64165  0.86561  0.43028  1.0000
  P   P62       1.0  0.68789  0.87957  0.40968  1.0000
  C   C1823     1.0  0.66788  0.87291  0.38753  1.0000
  C   C1824     1.0  0.71461  0.91225  0.40667  1.0000
  C   C1825     1.0  0.71333  0.93466  0.41427  1.0000
  C   C1826     1.0  0.73379  0.95992  0.41132  1.0000
  C   C1827     1.0  0.75550  0.96305  0.40056  1.0000
  C   C1828     1.0  0.75677  0.94087  0.39272  1.0000
  C   C1829     1.0  0.73633  0.91555  0.39566  1.0000
  C   C1830     1.0  0.66879  0.85651  0.37224  1.0000
  C   C1831     1.0  0.65229  0.85098  0.35560  1.0000
  C   C1832     1.0  0.63559  0.86257  0.35378  1.0000
  C   C1833     1.0  0.63572  0.88007  0.36844  1.0000
  C   C1834     1.0  0.65191  0.88536  0.38516  1.0000
  C   C1835     1.0  0.70054  0.85634  0.41413  1.0000
  C   C1836     1.0  0.68600  0.82956  0.40844  1.0000
  C   C1837     1.0  0.69589  0.81177  0.41233  1.0000
  C   C1838     1.0  0.71991  0.82036  0.42247  1.0000
  C   C1839     1.0  0.73416  0.84681  0.42867  1.0000
  C   C1840     1.0  0.72449  0.86472  0.42459  1.0000
  H   H1459     1.0  0.66072  0.83350  0.45796  1.0000
  H   H1460     1.0  0.53700  0.56445  0.24708  1.0000
  H   H1461     1.0  0.54970  0.93798  0.42948  1.0000
  H   H1462     1.0  0.70381  0.90136  0.44956  1.0000
  H   H1463     1.0  0.63085  0.85557  0.41700  1.0000
  H   H1464     1.0  0.69648  0.93280  0.42232  1.0000
  H   H1465     1.0  0.56426  0.52097  0.28324  1.0000
  H   H1466     1.0  0.61421  0.52959  0.48929  1.0000
  H   H1467     1.0  0.77345  0.94332  0.38416  1.0000
  H   H1468     1.0  0.73734  0.89856  0.38918  1.0000
  H   H1469     1.0  0.68224  0.84810  0.37298  1.0000
  H   H1470     1.0  0.65244  0.83779  0.34402  1.0000
  H   H1471     1.0  0.62266  0.85814  0.34095  1.0000
  H   H1472     1.0  0.62309  0.88941  0.36700  1.0000
  H   H1473     1.0  0.65175  0.89905  0.39632  1.0000
  H   H1474     1.0  0.66686  0.82222  0.40128  1.0000
  H   H1475     1.0  0.68472  0.79117  0.40779  1.0000
  H   H1476     1.0  0.72731  0.80642  0.42577  1.0000
  H   H1477     1.0  0.75254  0.85336  0.43692  1.0000
  H   H1478     1.0  0.73551  0.88500  0.42994  1.0000
  C   C1841     1.0  0.50602  0.71149  0.30483  1.0000
  H   H1479     1.0  0.73262  0.97711  0.41725  1.0000
  C   C1842     1.0  0.51807  0.54902  0.30142  1.0000
  C   C1843     1.0  0.58411  0.72588  0.41975  1.0000
  C   C1844     1.0  0.54843  0.68232  0.41146  1.0000
  H   H1480     1.0  0.55900  0.69060  0.46078  1.0000
  H   H1481     1.0  0.89252  0.78124  0.46609  1.0000
  H   H1482     1.0  0.67815  0.98119  0.40007  1.0000
  C   C1845     1.0  0.58237  0.63475  0.44179  1.0000
  C   C1846     1.0  0.50146  0.93442  0.38774  1.0000
  C   C1847     1.0  0.50006  0.58717  0.27438  1.0000
  H   H1483     1.0  0.77314  0.92168  0.45086  1.0000
  H   H1484     1.0  0.50039  0.95244  0.38470  1.0000
  S   S240      1.0  0.92544  0.75654  0.47471  1.0000
  H   H1485     1.0  0.52367  0.97525  0.42036  1.0000
  H   H1486     1.0  0.84545  0.76883  0.47139  1.0000
  C   C1848     1.0  0.55567  0.54111  0.30685  1.0000
  C   C1849     1.0  0.49306  0.66686  0.24341  1.0000
  H   H1487     1.0  0.58132  0.94261  0.45602  1.0000
  C   C1850     1.0  0.87524  0.72361  0.48902  1.0000
  C   C1851     1.0  0.70662  0.64384  0.45795  1.0000
  C   C1852     1.0  0.79675  0.96379  0.44914  1.0000
  C   C1853     1.0  0.83717  0.73259  0.48556  1.0000
  C   C1854     1.0  0.47939  0.78864  0.29829  1.0000
  S   S241      1.0  0.95717  0.70703  0.48862  1.0000
  C   C1855     1.0  0.59952  0.95970  0.34699  1.0000
  H   H1488     1.0  0.53253  0.83923  0.24419  1.0000
  S   S242      1.0  0.73390  0.91103  0.48628  1.0000
  C   C1856     1.0  0.49547  0.53837  0.24155  1.0000
  H   H1489     1.0  0.54039  0.97449  0.35318  1.0000
  H   H1490     1.0  0.50074  0.79173  0.27201  1.0000
  S   S243      1.0  0.75300  0.98067  0.46692  1.0000
  C   C1857     1.0  0.67043  0.53654  0.48357  1.0000
  H   H1491     1.0  0.71645  0.63264  0.48559  1.0000
  Fe  Fe122     1.0  0.76835  0.73292  0.48987  1.0000
  C   C1858     1.0  0.48688  0.79676  0.27923  1.0000
  H   H1492     1.0  0.67922  0.57700  0.48959  1.0000
  C   C1859     1.0  0.61882  0.56916  0.48710  1.0000
  C   C1860     1.0  0.57502  0.80265  0.24361  1.0000
  H   H1493     1.0  0.97346  0.53566  0.25664  1.0000
  C   C1861     1.0  0.47701  0.89447  0.26038  1.0000
  C   C1862     1.0  0.47719  0.81211  0.26969  1.0000
  Fe  Fe123     1.0  0.86214  0.51653  0.64128  1.0000
  S   S244      1.0  0.90452  0.54633  0.64624  1.0000
  C   C1863     1.0  0.70394  0.53366  0.69308  1.0000
  Fe  Fe124     1.0  0.84364  0.55854  0.64833  1.0000
  S   S245      1.0  0.88502  0.59085  0.65414  1.0000
  S   S246      1.0  0.81290  0.57276  0.65228  1.0000
  Fe  Fe125     1.0  0.89567  0.57413  0.62759  1.0000
  S   S247      1.0  0.92335  0.59752  0.60259  1.0000
  Fe  Fe126     1.0  0.88996  0.56065  0.67219  1.0000
  S   S248      1.0  0.91062  0.56662  0.70231  1.0000
  S   S249      1.0  0.85383  0.54303  0.62096  1.0000
  S   S250      1.0  0.84814  0.52968  0.66801  1.0000
  Fe  Fe127     1.0  0.64784  0.55701  0.66523  1.0000
  S   S251      1.0  0.63637  0.51383  0.66170  1.0000
  S   S252      1.0  0.66201  0.57877  0.69504  1.0000
  Fe  Fe128     1.0  0.64298  0.56392  0.62035  1.0000
  S   S253      1.0  0.63083  0.52055  0.61453  1.0000
  S   S254      1.0  0.64355  0.58628  0.59208  1.0000
  Fe  Fe129     1.0  0.60469  0.51154  0.64051  1.0000
  C   C1864     1.0  0.91360  0.74933  0.53062  1.0000
  Fe  Fe130     1.0  0.66331  0.52641  0.63612  1.0000
  S   S255      1.0  0.69109  0.50922  0.62922  1.0000
  S   S256      1.0  0.61481  0.55465  0.64537  1.0000
  S   S257      1.0  0.67686  0.56982  0.64058  1.0000
  H   H1494     1.0  0.70427  0.60063  0.60240  1.0000
  H   H1495     1.0  0.69979  0.53204  0.67742  1.0000
  H   H1496     1.0  0.54095  0.50167  0.69678  1.0000
  S   S258      1.0  0.70595  0.73931  0.50470  1.0000
  S   S259      1.0  0.76435  0.75074  0.51849  1.0000
  H   H1497     1.0  0.95230  0.81916  0.60818  1.0000
  Fe  Fe131     1.0  0.72381  0.71616  0.51966  1.0000
  S   S260      1.0  0.71358  0.69598  0.54965  1.0000
  C   C1865     1.0  0.67883  0.55697  0.51610  1.0000
  S   S261      1.0  0.75827  0.81569  0.51060  1.0000
  H   H1498     1.0  0.58363  0.62867  0.50143  1.0000
  H   H1499     1.0  0.57391  0.48862  0.57788  1.0000
  C   C1866     1.0  0.95560  0.61638  0.66813  1.0000
  C   C1867     1.0  0.74982  0.84109  0.50379  1.0000
  H   H1500     1.0  0.83497  0.80858  0.49908  1.0000
  C   C1868     1.0  0.73989  0.88420  0.49373  1.0000
  H   H1501     1.0  0.65215  0.80261  0.50290  1.0000
  C   C1869     1.0  0.96223  0.65638  0.72861  1.0000
  H   H1502     1.0  0.89496  0.68501  0.68917  1.0000
  C   C1870     1.0  0.84068  0.62519  0.68813  1.0000
  C   C1871     1.0  0.83197  0.96809  0.54637  1.0000
  H   H1503     1.0  0.81071  0.69175  0.53058  1.0000
  H   H1504     1.0  0.78130  0.94513  0.51259  1.0000
  H   H1505     1.0  0.94798  0.65052  0.63047  1.0000
  C   C1872     1.0  0.67653  0.55863  0.49581  1.0000
  C   C1873     1.0  0.69943  0.56291  0.56173  1.0000
  C   C1874     1.0  0.66459  0.61653  0.58046  1.0000
  C   C1875     1.0  0.66172  0.61833  0.56006  1.0000
  C   C1876     1.0  0.67686  0.64208  0.55028  1.0000
  C   C1877     1.0  0.69494  0.66471  0.56081  1.0000
  C   C1878     1.0  0.69804  0.66282  0.58117  1.0000
  C   C1879     1.0  0.68316  0.63895  0.59090  1.0000
  H   H1506     1.0  0.64759  0.60121  0.55178  1.0000
  H   H1507     1.0  0.67426  0.64295  0.53466  1.0000
  H   H1508     1.0  0.71191  0.68007  0.58956  1.0000
  H   H1509     1.0  0.68560  0.63811  0.60657  1.0000
  C   C1880     1.0  0.93134  0.62566  0.58747  1.0000
  H   H1510     1.0  0.81592  0.65452  0.51575  1.0000
  H   H1511     1.0  0.86058  0.76348  0.53464  1.0000
  C   C1881     1.0  0.94542  0.66975  0.56236  1.0000
  C   C1882     1.0  0.92844  0.66552  0.57814  1.0000
  C   C1883     1.0  0.92128  0.64363  0.59048  1.0000
  C   C1884     1.0  0.68344  0.52688  0.70606  1.0000
  C   C1885     1.0  0.75582  0.86249  0.51703  1.0000
  C   C1886     1.0  0.82494  0.90773  0.52092  1.0000
  H   H1512     1.0  0.90799  0.64063  0.60231  1.0000
  C   C1887     1.0  0.77906  0.55422  0.64616  1.0000
  C   C1888     1.0  0.76863  0.52922  0.63693  1.0000
  C   C1889     1.0  0.74154  0.51542  0.63208  1.0000
  C   C1890     1.0  0.72475  0.52650  0.63641  1.0000
  C   C1891     1.0  0.73524  0.55143  0.64573  1.0000
  C   C1892     1.0  0.76226  0.56521  0.65056  1.0000
  H   H1513     1.0  0.78142  0.52057  0.63349  1.0000
  H   H1514     1.0  0.75521  0.89958  0.52271  1.0000
  H   H1515     1.0  0.72263  0.56027  0.64905  1.0000
  H   H1516     1.0  0.77020  0.58456  0.65767  1.0000
  C   C1893     1.0  0.93816  0.71087  0.71388  1.0000
  C   C1894     1.0  0.89832  0.56799  0.72587  1.0000
  C   C1895     1.0  0.94863  0.62803  0.68364  1.0000
  H   H1517     1.0  0.75518  0.55357  0.72580  1.0000
  C   C1896     1.0  0.87659  0.82711  0.50628  1.0000
  C   C1897     1.0  0.62835  0.54232  0.72123  1.0000
  C   C1898     1.0  0.65051  0.56661  0.71872  1.0000
  C   C1899     1.0  0.64987  0.66531  0.50900  1.0000
  H   H1518     1.0  0.61793  0.53011  0.70853  1.0000
  C   C1900     1.0  0.69349  0.51051  0.55729  1.0000
  H   H1519     1.0  0.85276  0.97391  0.54793  1.0000
  C   C1901     1.0  0.79184  0.95173  0.52656  1.0000
  C   C1902     1.0  0.94734  0.81190  0.52585  1.0000
  H   H1520     1.0  0.74569  0.54877  0.69019  1.0000
  C   C1903     1.0  0.93437  0.84348  0.59971  1.0000
  H   H1521     1.0  0.71389  0.51433  0.53015  1.0000
  C   C1904     1.0  0.77801  0.95185  0.54323  1.0000
  H   H1522     1.0  0.84053  0.58796  0.69300  1.0000
  H   H1523     1.0  0.60201  0.52574  0.52417  1.0000
  C   C1905     1.0  0.93700  0.81037  0.57844  1.0000
  C   C1906     1.0  0.94578  0.81055  0.50529  1.0000
  C   C1907     1.0  0.62605  0.64539  0.50106  1.0000
  C   C1908     1.0  0.73146  0.61314  0.57875  1.0000
  C   C1909     1.0  0.86543  0.78153  0.52702  1.0000
  H   H1524     1.0  0.88633  0.50853  0.69882  1.0000
  H   H1525     1.0  0.62599  0.69512  0.54077  1.0000
  H   H1526     1.0  0.67663  0.55636  0.58795  1.0000
  C   C1910     1.0  0.89519  0.64797  0.69540  1.0000
  H   H1527     1.0  0.58052  0.79212  0.56861  1.0000
  C   C1911     1.0  0.79119  0.96056  0.56136  1.0000
  H   H1528     1.0  0.93530  0.67110  0.65775  1.0000
  C   C1912     1.0  0.68851  0.52877  0.72625  1.0000
  C   C1913     1.0  0.66623  0.51263  0.49164  1.0000
  C   C1914     1.0  0.85073  0.80693  0.50690  1.0000
  C   C1915     1.0  0.89302  0.75235  0.56056  1.0000
  C   C1916     1.0  0.88594  0.72587  0.56405  1.0000
  H   H1529     1.0  0.60007  0.56326  0.54177  1.0000
  P   P63       1.0  0.91758  0.79892  0.53982  1.0000
  C   C1917     1.0  0.90672  0.72295  0.53423  1.0000
  H   H1530     1.0  0.76438  0.86260  0.53129  1.0000
  H   H1531     1.0  0.66815  0.69792  0.52988  1.0000
  H   H1532     1.0  0.67224  0.52402  0.73582  1.0000
  C   C1918     1.0  0.89150  0.80165  0.52643  1.0000
  C   C1919     1.0  0.94868  0.64473  0.64541  1.0000
  P   P64       1.0  0.67844  0.53093  0.55042  1.0000
  C   C1920     1.0  0.64509  0.51725  0.55870  1.0000
  H   H1533     1.0  0.52280  0.49300  0.73005  1.0000
  H   H1534     1.0  0.75562  0.61963  0.55363  1.0000
  C   C1921     1.0  0.60623  0.54369  0.51655  1.0000
  C   C1922     1.0  0.61310  0.54588  0.49689  1.0000
  H   H1535     1.0  0.84695  0.66474  0.68315  1.0000
  H   H1536     1.0  0.88092  0.84461  0.49804  1.0000
  C   C1923     1.0  0.63313  0.53363  0.56132  1.0000
  C   C1924     1.0  0.60750  0.52330  0.56814  1.0000
  C   C1925     1.0  0.62598  0.68144  0.52957  1.0000
  C   C1926     1.0  0.60222  0.64402  0.50727  1.0000
  H   H1537     1.0  0.73361  0.49613  0.62489  1.0000
  H   H1538     1.0  0.68274  0.57408  0.52539  1.0000
  C   C1927     1.0  0.89689  0.82457  0.51610  1.0000
  Fe  Fe132     1.0  0.74669  0.77237  0.50112  1.0000
  C   C1928     1.0  0.82203  0.88206  0.51893  1.0000
  H   H1539     1.0  0.64388  0.55457  0.55869  1.0000
  H   H1540     1.0  0.59905  0.53642  0.57137  1.0000
  H   H1541     1.0  0.75702  0.94539  0.54201  1.0000
  P   P65       1.0  0.93021  0.66169  0.69974  1.0000
  C   C1929     1.0  0.93682  0.65252  0.72358  1.0000
  H   H1542     1.0  0.91188  0.50201  0.72586  1.0000
  H   H1543     1.0  0.88852  0.60790  0.69941  1.0000
  C   C1930     1.0  0.91626  0.83617  0.56652  1.0000
  H   H1544     1.0  0.96051  0.61530  0.63695  1.0000
  H   H1545     1.0  0.66359  0.52067  0.70050  1.0000
  C   C1931     1.0  0.87957  0.62056  0.69627  1.0000
  C   C1932     1.0  0.66870  0.51095  0.51192  1.0000
  H   H1546     1.0  0.94770  0.62042  0.69813  1.0000
  H   H1547     1.0  0.72796  0.57518  0.53877  1.0000
  H   H1548     1.0  0.74336  0.63274  0.58515  1.0000
  C   C1933     1.0  0.59613  0.71960  0.50865  1.0000
  C   C1934     1.0  0.81524  0.67904  0.53985  1.0000
  C   C1935     1.0  0.63618  0.75609  0.52230  1.0000
  H   H1549     1.0  0.67128  0.76493  0.50614  1.0000
  C   C1936     1.0  0.71424  0.53735  0.73373  1.0000
  H   H1550     1.0  0.88316  0.71063  0.49362  1.0000
  H   H1551     1.0  0.91235  0.71168  0.52410  1.0000
  H   H1552     1.0  0.88729  0.76337  0.57077  1.0000
  C   C1937     1.0  0.81888  0.95980  0.52802  1.0000
  C   C1938     1.0  0.97218  0.82189  0.53533  1.0000
  C   C1939     1.0  0.94660  0.69735  0.70069  1.0000
  H   H1553     1.0  0.86179  0.56614  0.71566  1.0000
  H   H1554     1.0  0.81778  0.91303  0.53396  1.0000
  S   S262      1.0  0.70050  0.95765  0.49410  1.0000
  H   H1555     1.0  0.58379  0.66058  0.52645  1.0000
  C   C1940     1.0  0.81766  0.68332  0.56017  1.0000
  C   C1941     1.0  0.95541  0.65175  0.55933  1.0000
  C   C1942     1.0  0.87406  0.56785  0.72834  1.0000
  C   C1943     1.0  0.89302  0.71124  0.55097  1.0000
  C   C1944     1.0  0.85612  0.65252  0.68703  1.0000
  H   H1556     1.0  0.81968  0.61615  0.68493  1.0000
  C   C1945     1.0  0.94216  0.82386  0.59658  1.0000
  H   H1557     1.0  0.59770  0.74109  0.53510  1.0000
  H   H1558     1.0  0.67831  0.50469  0.58664  1.0000
  C   C1946     1.0  0.60899  0.73937  0.52315  1.0000
  C   C1947     1.0  0.94151  0.65629  0.66089  1.0000
  C   C1948     1.0  0.69167  0.74105  0.56448  1.0000
  C   C1949     1.0  0.71813  0.75802  0.56131  1.0000
  C   C1950     1.0  0.72528  0.78214  0.55244  1.0000
  C   C1951     1.0  0.70601  0.78936  0.54665  1.0000
  C   C1952     1.0  0.67939  0.77257  0.55007  1.0000
  C   C1953     1.0  0.67236  0.74818  0.55875  1.0000
  P   P66       1.0  0.65387  0.78038  0.54154  1.0000
  C   C1954     1.0  0.60222  0.66199  0.52148  1.0000
  C   C1955     1.0  0.63278  0.78003  0.56104  1.0000
  C   C1956     1.0  0.61239  0.78651  0.55694  1.0000
  C   C1957     1.0  0.59624  0.78712  0.57187  1.0000
  C   C1958     1.0  0.60053  0.78159  0.59105  1.0000
  C   C1959     1.0  0.62112  0.77568  0.59534  1.0000
  C   C1960     1.0  0.63734  0.77510  0.58045  1.0000
  C   C1961     1.0  0.92141  0.84961  0.58470  1.0000
  C   C1962     1.0  0.92403  0.81644  0.56324  1.0000
  C   C1963     1.0  0.88334  0.66392  0.69054  1.0000
  C   C1964     1.0  0.73820  0.60579  0.56093  1.0000
  H   H1559     1.0  0.78043  0.96093  0.57418  1.0000
  C   C1965     1.0  0.66773  0.81359  0.53271  1.0000
  C   C1966     1.0  0.66322  0.81861  0.51332  1.0000
  H   H1560     1.0  0.94326  0.79526  0.57621  1.0000
  C   C1967     1.0  0.68658  0.86576  0.52056  1.0000
  C   C1968     1.0  0.69127  0.86091  0.53982  1.0000
  C   C1969     1.0  0.68183  0.83493  0.54590  1.0000
  H   H1561     1.0  0.68621  0.72208  0.57099  1.0000
  H   H1562     1.0  0.73302  0.75213  0.56533  1.0000
  H   H1563     1.0  0.74578  0.79497  0.54957  1.0000
  H   H1564     1.0  0.71208  0.80772  0.53913  1.0000
  H   H1565     1.0  0.65192  0.73462  0.56104  1.0000
  C   C1970     1.0  0.65024  0.75249  0.50691  1.0000
  C   C1971     1.0  0.67597  0.53338  0.52423  1.0000
  H   H1566     1.0  0.58809  0.78218  0.60264  1.0000
  H   H1567     1.0  0.62468  0.77178  0.61029  1.0000
  H   H1568     1.0  0.65357  0.77123  0.58433  1.0000
  C   C1972     1.0  0.64975  0.68310  0.52334  1.0000
  C   C1973     1.0  0.67277  0.84467  0.50729  1.0000
  H   H1569     1.0  0.81471  0.69921  0.56665  1.0000
  C   C1974     1.0  0.94186  0.64833  0.68020  1.0000
  C   C1975     1.0  0.85243  0.60924  0.69272  1.0000
  H   H1570     1.0  0.93843  0.85397  0.61377  1.0000
  H   H1571     1.0  0.83606  0.69804  0.49860  1.0000
  H   H1572     1.0  0.69397  0.88594  0.51586  1.0000
  H   H1573     1.0  0.70222  0.87733  0.55001  1.0000
  H   H1574     1.0  0.68538  0.83146  0.56095  1.0000
  H   H1575     1.0  0.60991  0.60412  0.52484  1.0000
  C   C1976     1.0  0.91728  0.64313  0.73771  1.0000
  H   H1576     1.0  0.95660  0.61650  0.56928  1.0000
  C   C1977     1.0  0.84519  0.78424  0.51734  1.0000
  C   C1978     1.0  0.94858  0.63009  0.57184  1.0000
  C   C1979     1.0  0.82392  0.64156  0.54339  1.0000
  C   C1980     1.0  0.82754  0.64644  0.56373  1.0000
  C   C1981     1.0  0.82358  0.66698  0.57210  1.0000
  P   P67       1.0  0.83299  0.62407  0.57926  1.0000
  C   C1982     1.0  0.80070  0.59899  0.58522  1.0000
  C   C1983     1.0  0.85246  0.61025  0.56819  1.0000
  C   C1984     1.0  0.85206  0.58740  0.57585  1.0000
  C   C1985     1.0  0.86833  0.57742  0.56831  1.0000
  C   C1986     1.0  0.88533  0.59032  0.55324  1.0000
  C   C1987     1.0  0.88630  0.61341  0.54585  1.0000
  C   C1988     1.0  0.87018  0.62355  0.55344  1.0000
  C   C1989     1.0  0.78657  0.60429  0.59972  1.0000
  C   C1990     1.0  0.76129  0.58519  0.60417  1.0000
  C   C1991     1.0  0.74992  0.56074  0.59415  1.0000
  C   C1992     1.0  0.76374  0.55544  0.57955  1.0000
  C   C1993     1.0  0.78895  0.57459  0.57490  1.0000
  C   C1994     1.0  0.85152  0.64044  0.60132  1.0000
  C   C1995     1.0  0.87178  0.66645  0.60089  1.0000
  C   C1996     1.0  0.88717  0.67862  0.61776  1.0000
  C   C1997     1.0  0.88259  0.66471  0.63509  1.0000
  C   C1998     1.0  0.86281  0.63859  0.63549  1.0000
  C   C1999     1.0  0.84745  0.62643  0.61865  1.0000
  C   C2000     1.0  0.60501  0.56475  0.52642  1.0000
  C   C2001     1.0  0.70983  0.50573  0.54445  1.0000
  C   C2002     1.0  0.70944  0.59508  0.58848  1.0000
  H   H1577     1.0  0.82537  0.62494  0.53668  1.0000
  H   H1578     1.0  0.82480  0.67021  0.58785  1.0000
  H   H1579     1.0  0.83978  0.57770  0.58806  1.0000
  H   H1580     1.0  0.86863  0.56033  0.57475  1.0000
  H   H1581     1.0  0.89866  0.58313  0.54799  1.0000
  H   H1582     1.0  0.90047  0.62415  0.53488  1.0000
  H   H1583     1.0  0.87238  0.64221  0.54825  1.0000
  H   H1584     1.0  0.79510  0.62308  0.60773  1.0000
  H   H1585     1.0  0.75051  0.58921  0.61550  1.0000
  H   H1586     1.0  0.73042  0.54590  0.59783  1.0000
  H   H1587     1.0  0.75501  0.53639  0.57201  1.0000
  H   H1588     1.0  0.79922  0.57022  0.56338  1.0000
  H   H1589     1.0  0.87619  0.67699  0.58739  1.0000
  H   H1590     1.0  0.90306  0.69857  0.61724  1.0000
  H   H1591     1.0  0.89461  0.67393  0.64812  1.0000
  H   H1592     1.0  0.85956  0.62744  0.64872  1.0000
  H   H1593     1.0  0.83274  0.60592  0.61911  1.0000
  C   C2003     1.0  0.69359  0.56999  0.58011  1.0000
  C   C2004     1.0  0.81823  0.65806  0.53149  1.0000
  C   C2005     1.0  0.75087  0.88377  0.51211  1.0000
  C   C2006     1.0  0.96876  0.71182  0.68946  1.0000
  H   H1594     1.0  0.82522  0.76833  0.51747  1.0000
  C   C2007     1.0  0.90743  0.76443  0.54398  1.0000
  C   C2008     1.0  0.61053  0.58799  0.51666  1.0000
  H   H1595     1.0  0.97418  0.82269  0.55109  1.0000
  H   H1596     1.0  0.92067  0.67927  0.58075  1.0000
  C   C2009     1.0  0.72239  0.58065  0.55252  1.0000
  C   C2010     1.0  0.59338  0.49639  0.57187  1.0000
  H   H1597     1.0  0.87508  0.71681  0.57694  1.0000
  C   C2011     1.0  0.95575  0.62480  0.64904  1.0000
  H   H1598     1.0  0.57520  0.70667  0.50941  1.0000
  H   H1599     1.0  0.91683  0.84039  0.51555  1.0000
  H   H1600     1.0  0.60907  0.79125  0.54219  1.0000
  C   C2012     1.0  0.95104  0.73849  0.71525  1.0000
  C   C2013     1.0  0.72973  0.54302  0.70031  1.0000
  C   C2014     1.0  0.73496  0.54533  0.72055  1.0000
  S   S263      1.0  0.95321  0.69766  0.54701  1.0000
  H   H1601     1.0  0.81272  0.86792  0.53028  1.0000
  H   H1602     1.0  0.96000  0.60016  0.67086  1.0000
  C   C2015     1.0  0.63050  0.49006  0.56188  1.0000
  H   H1603     1.0  0.91537  0.86482  0.58714  1.0000
  H   H1604     1.0  0.88809  0.69089  0.55371  1.0000
  H   H1605     1.0  0.92166  0.69999  0.72317  1.0000
  C   C2016     1.0  0.63740  0.73241  0.49268  1.0000
  H   H1606     1.0  0.68090  0.60095  0.73372  1.0000
  C   C2017     1.0  0.81818  0.96868  0.56294  1.0000
  H   H1607     1.0  0.66958  0.84869  0.49234  1.0000
  H   H1608     1.0  0.92381  0.75786  0.51739  1.0000
  H   H1609     1.0  0.90622  0.84127  0.55513  1.0000
  S   S264      1.0  0.72770  0.69780  0.49138  1.0000
  H   H1610     1.0  0.89762  0.64036  0.73450  1.0000
  H   H1611     1.0  0.66857  0.66698  0.50450  1.0000
  C   C2018     1.0  0.61038  0.71604  0.49348  1.0000
  C   C2019     1.0  0.66378  0.58213  0.73549  1.0000
  H   H1612     1.0  0.96852  0.65454  0.54740  1.0000
  H   H1613     1.0  0.92689  0.80205  0.49758  1.0000
  H   H1614     1.0  0.82838  0.97525  0.57704  1.0000
  C   C2020     1.0  0.61727  0.59030  0.49684  1.0000
  H   H1615     1.0  0.67315  0.62071  0.49971  1.0000
  C   C2021     1.0  0.89149  0.98018  0.50560  1.0000
  C   C2022     1.0  0.88279  0.48874  0.70241  1.0000
  H   H1616     1.0  0.94436  0.74879  0.72542  1.0000
  C   C2023     1.0  0.97268  0.75279  0.70368  1.0000
  C   C2024     1.0  0.69000  0.50041  0.57619  1.0000
  S   S265      1.0  0.97527  0.76060  0.51717  1.0000
  H   H1617     1.0  0.73397  0.48621  0.54025  1.0000
  C   C2025     1.0  0.96856  0.81882  0.49441  1.0000
  C   C2026     1.0  0.83590  0.92571  0.50583  1.0000
  C   C2027     1.0  0.72147  0.49000  0.55019  1.0000
  H   H1618     1.0  0.66497  0.49218  0.51801  1.0000
  Fe  Fe133     1.0  0.97441  0.72062  0.51933  1.0000
  C   C2028     1.0  0.54638  0.49041  0.70682  1.0000
  P   P68       1.0  0.83646  0.95771  0.50692  1.0000
  Fe  Fe134     1.0  0.73746  0.95295  0.49201  1.0000
  C   C2029     1.0  0.84836  0.71645  0.49178  1.0000
  H   H1619     1.0  0.88907  0.96071  0.50174  1.0000
  C   C2030     1.0  0.61920  0.53412  0.74021  1.0000
  H   H1620     1.0  0.82682  0.85389  0.50024  1.0000
  C   C2031     1.0  0.82996  0.87409  0.50193  1.0000
  H   H1621     1.0  0.72833  0.58917  0.73983  1.0000
  C   C2032     1.0  0.53616  0.48543  0.72563  1.0000
  H   H1622     1.0  0.86994  0.51518  0.73924  1.0000
  C   C2033     1.0  0.70182  0.48491  0.58193  1.0000
  H   H1623     1.0  0.57169  0.48487  0.68630  1.0000
  C   C2034     1.0  0.86964  0.98446  0.50899  1.0000
  C   C2035     1.0  0.89720  0.48500  0.71764  1.0000
  Fe  Fe135     1.0  0.67634  0.55516  0.84221  1.0000
  S   S266      1.0  0.66443  0.58400  0.82898  1.0000
  S   S267      1.0  0.72090  0.57316  0.84318  1.0000
  Fe  Fe136     1.0  0.61836  0.51478  0.84858  1.0000
  S   S268      1.0  0.60386  0.54216  0.83658  1.0000
  C   C2036     1.0  0.82317  0.64722  0.95505  1.0000
  Fe  Fe137     1.0  0.63281  0.54895  0.81248  1.0000
  S   S269      1.0  0.61819  0.53933  0.78035  1.0000
  Fe  Fe138     1.0  0.63751  0.57451  0.85456  1.0000
  S   S270      1.0  0.63559  0.60796  0.87290  1.0000
  S   S271      1.0  0.64648  0.52076  0.82425  1.0000
  S   S272      1.0  0.65016  0.54655  0.86814  1.0000
  Fe  Fe139     1.0  0.88908  0.57109  0.86162  1.0000
  S   S273      1.0  0.86212  0.52786  0.86679  1.0000
  S   S274      1.0  0.91175  0.59414  0.88994  1.0000
  Fe  Fe140     1.0  0.87386  0.56307  0.81706  1.0000
  S   S275      1.0  0.84619  0.52001  0.81988  1.0000
  S   S276      1.0  0.87260  0.58039  0.78727  1.0000
  Fe  Fe141     1.0  0.83299  0.53277  0.84700  1.0000
  S   S277      1.0  0.78960  0.51305  0.85366  1.0000
  Fe  Fe142     1.0  0.87745  0.51851  0.83924  1.0000
  H   H1624     1.0  0.65969  0.62448  0.96876  1.0000
  S   S278      1.0  0.85856  0.57617  0.84336  1.0000
  S   S279      1.0  0.90658  0.56138  0.83493  1.0000
  C   C2037     1.0  0.81457  0.71914  0.92227  1.0000
  H   H1625     1.0  0.85605  0.58694  0.88904  1.0000
  C   C2038     1.0  0.58980  0.65613  0.96468  1.0000
  H   H1626     1.0  0.77502  0.58887  0.83698  1.0000
  Fe  Fe143     1.0  0.71213  0.70533  0.97296  1.0000
  S   S280      1.0  0.70136  0.67001  0.95110  1.0000
  C   C2039     1.0  0.80531  0.67545  0.96794  1.0000
  S   S281      1.0  0.74612  0.74482  0.96698  1.0000
  H   H1627     1.0  0.50741  0.51769  0.81021  1.0000
  H   H1628     1.0  0.95235  0.65125  0.94886  1.0000
  C   C2040     1.0  0.69743  0.49250  0.77882  1.0000
  H   H1629     1.0  0.83646  0.68820  0.94758  1.0000
  C   C2041     1.0  0.71917  0.59917  0.79496  1.0000
  C   C2042     1.0  0.90933  0.49078  0.90715  1.0000
  H   H1630     1.0  0.71661  0.60200  0.81034  1.0000
  C   C2043     1.0  0.55322  0.51941  0.76856  1.0000
  H   H1631     1.0  0.66740  0.53073  0.76923  1.0000
  C   C2044     1.0  0.61051  0.56229  0.94507  1.0000
  C   C2045     1.0  0.79862  0.57547  0.91023  1.0000
  C   C2046     1.0  0.89186  0.69141  0.93407  1.0000
  C   C2047     1.0  0.88139  0.57248  0.76407  1.0000
  C   C2048     1.0  0.90519  0.57166  0.76162  1.0000
  H   H1632     1.0  0.82875  0.67895  0.84170  1.0000
  H   H1633     1.0  0.91759  0.57369  0.77432  1.0000
  H   H1634     1.0  0.77782  0.56164  0.90935  1.0000
  C   C2049     1.0  0.92342  0.62472  0.90381  1.0000
  C   C2050     1.0  0.92349  0.64737  0.89620  1.0000
  C   C2051     1.0  0.93459  0.67146  0.90732  1.0000
  C   C2052     1.0  0.94542  0.67332  0.92635  1.0000
  C   C2053     1.0  0.94440  0.65040  0.93425  1.0000
  C   C2054     1.0  0.93371  0.62643  0.92300  1.0000
  H   H1635     1.0  0.91563  0.64653  0.88155  1.0000
  C   C2055     1.0  0.78305  0.52396  0.75980  1.0000
  C   C2056     1.0  0.63209  0.54991  0.75697  1.0000
  C   C2057     1.0  0.76282  0.68004  0.92635  1.0000
  C   C2058     1.0  0.65478  0.57379  0.75451  1.0000
  H   H1636     1.0  0.83472  0.73421  0.92088  1.0000
  H   H1637     1.0  0.66495  0.58615  0.76721  1.0000
  C   C2059     1.0  0.65429  0.62504  0.89458  1.0000
  C   C2060     1.0  0.65227  0.64725  0.90202  1.0000
  C   C2061     1.0  0.66652  0.66132  0.91913  1.0000
  C   C2062     1.0  0.68279  0.65316  0.92931  1.0000
  C   C2063     1.0  0.68459  0.63077  0.92199  1.0000
  C   C2064     1.0  0.67061  0.61692  0.90473  1.0000
  H   H1638     1.0  0.63969  0.65374  0.89439  1.0000
  H   H1639     1.0  0.66493  0.67849  0.92438  1.0000
  H   H1640     1.0  0.69696  0.62407  0.92967  1.0000
  H   H1641     1.0  0.67234  0.59986  0.89935  1.0000
  C   C2065     1.0  0.73907  0.55537  0.84492  1.0000
  C   C2066     1.0  0.72757  0.52901  0.85043  1.0000
  C   C2067     1.0  0.74326  0.51616  0.85287  1.0000
  C   C2068     1.0  0.77039  0.52947  0.84962  1.0000
  C   C2069     1.0  0.78172  0.55561  0.84363  1.0000
  C   C2070     1.0  0.76611  0.56852  0.84138  1.0000
  H   H1642     1.0  0.70675  0.51875  0.85321  1.0000
  C   C2071     1.0  0.76833  0.55705  0.78126  1.0000
  H   H1643     1.0  0.80253  0.56599  0.84098  1.0000
  H   H1644     1.0  0.87763  0.61166  0.94426  1.0000
  H   H1645     1.0  0.63019  0.49289  0.78313  1.0000
  C   C2072     1.0  0.60199  0.59005  0.92278  1.0000
  C   C2073     1.0  0.82275  0.67167  0.95577  1.0000
  C   C2074     1.0  0.72318  0.61906  0.78183  1.0000
  H   H1646     1.0  0.93366  0.60908  0.92917  1.0000
  C   C2075     1.0  0.55715  0.54287  0.77813  1.0000
  H   H1647     1.0  0.87278  0.62555  0.91186  1.0000
  H   H1648     1.0  0.81844  0.54097  0.77800  1.0000
  H   H1649     1.0  0.65355  0.82740  0.94616  1.0000
  C   C2076     1.0  0.77363  0.70187  0.93937  1.0000
  H   H1650     1.0  0.90101  0.68937  0.94748  1.0000
  H   H1651     1.0  0.59920  0.59487  0.90791  1.0000
  H   H1652     1.0  0.83876  0.64126  0.84540  1.0000
  C   C2077     1.0  0.71830  0.57202  0.92548  1.0000
  H   H1653     1.0  0.61887  0.71688  0.94460  1.0000
  C   C2078     1.0  0.64444  0.84170  0.97293  1.0000
  C   C2079     1.0  0.77756  0.67784  0.91085  1.0000
  C   C2080     1.0  0.60631  0.56826  0.92599  1.0000
  C   C2081     1.0  0.81887  0.66436  0.85262  1.0000
  C   C2082     1.0  0.72438  0.59786  0.89653  1.0000
  C   C2083     1.0  0.67008  0.51407  0.77388  1.0000
  C   C2084     1.0  0.79227  0.55702  0.78556  1.0000
  H   H1654     1.0  0.71491  0.56018  0.79874  1.0000
  H   H1655     1.0  0.61406  0.54548  0.94750  1.0000
  H   H1656     1.0  0.64107  0.85673  0.96582  1.0000
  C   C2085     1.0  0.71916  0.84607  0.96704  1.0000
  C   C2086     1.0  0.78699  0.64740  0.87841  1.0000
  H   H1657     1.0  0.90312  0.50552  0.91107  1.0000
  C   C2087     1.0  0.72658  0.61533  0.76200  1.0000
  C   C2088     1.0  0.88406  0.50524  0.76561  1.0000
  H   H1658     1.0  0.72339  0.63722  0.78700  1.0000
  P   P69       1.0  0.84818  0.64320  0.94176  1.0000
  H   H1659     1.0  0.79559  0.68273  0.86244  1.0000
  H   H1660     1.0  0.60186  0.51548  0.74188  1.0000
  H   H1661     1.0  0.81521  0.60720  0.86961  1.0000
  C   C2089     1.0  0.71122  0.57405  0.90615  1.0000
  H   H1662     1.0  0.78011  0.84468  0.97464  1.0000
  C   C2090     1.0  0.65985  0.62849  0.98435  1.0000
  C   C2091     1.0  0.80370  0.69743  0.90908  1.0000
  C   C2092     1.0  0.89490  0.71688  0.90537  1.0000
  H   H1663     1.0  0.66284  0.79409  0.96263  1.0000
  C   C2093     1.0  0.73947  0.65427  0.87721  1.0000
  C   C2094     1.0  0.75220  0.61757  0.92550  1.0000
  C   C2095     1.0  0.73879  0.59377  0.93515  1.0000
  C   C2096     1.0  0.72568  0.66782  0.88361  1.0000
  C   C2097     1.0  0.70710  0.66987  0.87122  1.0000
  C   C2098     1.0  0.70206  0.65842  0.85237  1.0000
  C   C2099     1.0  0.71593  0.64526  0.84577  1.0000
  H   H1664     1.0  0.76828  0.63406  0.93314  1.0000
  H   H1665     1.0  0.74429  0.59219  0.95012  1.0000
  H   H1666     1.0  0.70792  0.55354  0.93290  1.0000
  H   H1667     1.0  0.72851  0.67626  0.89827  1.0000
  H   H1668     1.0  0.69594  0.67960  0.87648  1.0000
  H   H1669     1.0  0.68694  0.65920  0.84307  1.0000
  H   H1670     1.0  0.71182  0.63615  0.83123  1.0000
  C   C2100     1.0  0.72596  0.59172  0.75530  1.0000
  H   H1671     1.0  0.74276  0.66504  0.92828  1.0000
  C   C2101     1.0  0.90577  0.71375  0.92298  1.0000
  H   H1672     1.0  0.71709  0.88229  0.96096  1.0000
  H   H1673     1.0  0.57370  0.56137  0.77435  1.0000
  C   C2102     1.0  0.82452  0.64316  0.85468  1.0000
  H   H1674     1.0  0.67952  0.98344  0.91863  1.0000
  H   H1675     1.0  0.57040  0.64066  0.96782  1.0000
  H   H1676     1.0  0.76196  0.70348  0.95117  1.0000
  C   C2103     1.0  0.71827  0.57545  0.78831  1.0000
  C   C2104     1.0  0.88106  0.62344  0.95757  1.0000
  P   P70       1.0  0.72086  0.54099  0.75996  1.0000
  C   C2105     1.0  0.75164  0.54071  0.76600  1.0000
  C   C2106     1.0  0.80811  0.59709  0.92353  1.0000
  H   H1677     1.0  0.71859  0.59885  0.88152  1.0000
  C   C2107     1.0  0.79975  0.54073  0.77470  1.0000
  P   P71       1.0  0.76262  0.65024  0.89337  1.0000
  C   C2108     1.0  0.84259  0.58980  0.89860  1.0000
  H   H1678     1.0  0.56697  0.52035  0.75757  1.0000
  C   C2109     1.0  0.85592  0.67543  0.91001  1.0000
  C   C2110     1.0  0.86686  0.67201  0.92759  1.0000
  C   C2111     1.0  0.79943  0.72152  0.93725  1.0000
  C   C2112     1.0  0.61066  0.57829  0.96093  1.0000
  C   C2113     1.0  0.72178  0.87147  0.97185  1.0000
  H   H1679     1.0  0.90397  0.52091  0.76445  1.0000
  C   C2114     1.0  0.59220  0.67923  0.95618  1.0000
  C   C2115     1.0  0.87493  0.65537  0.97788  1.0000
  S   S282      1.0  0.97229  0.76007  0.97678  1.0000
  C   C2116     1.0  0.78789  0.65487  0.97920  1.0000
  H   H1680     1.0  0.80774  0.73840  0.94742  1.0000
  S   S283      1.0  0.72081  0.79898  0.97369  1.0000
  C   C2117     1.0  0.86490  0.50199  0.75142  1.0000
  C   C2118     1.0  0.64890  0.49261  0.78190  1.0000
  C   C2119     1.0  0.61227  0.65295  0.96877  1.0000
  C   C2120     1.0  0.72475  0.83121  0.98091  1.0000
  H   H1681     1.0  0.92525  0.72838  0.92797  1.0000
  C   C2121     1.0  0.85206  0.61158  0.91168  1.0000
  H   H1682     1.0  0.90768  0.62952  0.76712  1.0000
  C   C2122     1.0  0.75898  0.52374  0.75558  1.0000
  H   H1683     1.0  0.61444  0.57372  0.97559  1.0000
  H   H1684     1.0  0.80513  0.56969  0.79731  1.0000
  C   C2123     1.0  0.60225  0.60618  0.93856  1.0000
  C   C2124     1.0  0.92294  0.63708  0.75636  1.0000
  C   C2125     1.0  0.81134  0.62401  0.86843  1.0000
  H   H1685     1.0  0.59963  0.62336  0.93551  1.0000
  H   H1686     1.0  0.81578  0.69621  0.89758  1.0000
  H   H1687     1.0  0.65445  0.67034  0.96582  1.0000
  C   C2126     1.0  0.65648  0.80629  0.97110  1.0000
  C   C2127     1.0  0.54058  0.54229  0.79307  1.0000
  C   C2128     1.0  0.51999  0.51820  0.79840  1.0000
  H   H1688     1.0  0.79425  0.59970  0.93263  1.0000
  H   H1689     1.0  0.65845  0.71082  0.95074  1.0000
  H   H1690     1.0  0.78883  0.51120  0.75151  1.0000
  S   S284      1.0  0.96131  0.70500  0.93888  1.0000
  H   H1691     1.0  0.90593  0.73408  0.89674  1.0000
  H   H1692     1.0  0.71599  0.49201  0.77784  1.0000
  H   H1693     1.0  0.71256  0.83778  0.95240  1.0000
  H   H1694     1.0  0.76303  0.56984  0.78994  1.0000
  C   C2129     1.0  0.86595  0.57065  0.74729  1.0000
  C   C2130     1.0  0.94799  0.64012  0.76104  1.0000
  P   P72       1.0  0.60905  0.62229  0.97820  1.0000
  C   C2131     1.0  0.83507  0.61505  0.92467  1.0000
  C   C2132     1.0  0.86997  0.69771  0.89887  1.0000
  S   S285      1.0  0.89077  0.48677  0.83376  1.0000
  H   H1695     1.0  0.73439  0.49593  0.85753  1.0000
  H   H1696     1.0  0.95199  0.63470  0.77537  1.0000
  H   H1697     1.0  0.54405  0.56045  0.80076  1.0000
  H   H1698     1.0  0.57484  0.68164  0.95315  1.0000
  C   C2133     1.0  0.80011  0.66644  0.86438  1.0000
  H   H1699     1.0  0.69552  0.55715  0.89852  1.0000
  H   H1700     1.0  0.80573  0.69462  0.96908  1.0000
  H   H1701     1.0  0.60676  0.55627  0.91361  1.0000
  C   C2134     1.0  0.61695  0.69905  0.95131  1.0000
  C   C2135     1.0  0.74484  0.61989  0.90618  1.0000
  H   H1702     1.0  0.93519  0.68894  0.90098  1.0000
  C   C2136     1.0  0.80618  0.62690  0.96695  1.0000
  C   C2137     1.0  0.63696  0.67273  0.96350  1.0000
  C   C2138     1.0  0.92696  0.48685  0.91934  1.0000
  C   C2139     1.0  0.69435  0.51395  0.77182  1.0000
  C   C2140     1.0  0.65142  0.82517  0.96185  1.0000
  C   C2141     1.0  0.63927  0.69570  0.95484  1.0000
  H   H1703     1.0  0.78223  0.61057  0.89042  1.0000
  C   C2142     1.0  0.72181  0.57159  0.76843  1.0000
  C   C2143     1.0  0.81589  0.57166  0.89792  1.0000
  H   H1704     1.0  0.74406  0.63170  0.85295  1.0000
  H   H1705     1.0  0.80856  0.55480  0.88769  1.0000
  H   H1706     1.0  0.85638  0.75859  0.97022  1.0000
  C   C2144     1.0  0.53272  0.49506  0.77387  1.0000
  C   C2145     1.0  0.79259  0.62601  0.88022  1.0000
  H   H1707     1.0  0.78456  0.50572  0.80776  1.0000
  C   C2146     1.0  0.60665  0.60046  0.95779  1.0000
  C   C2147     1.0  0.51608  0.49467  0.78889  1.0000
  H   H1708     1.0  0.86160  0.70001  0.88516  1.0000
  H   H1709     1.0  0.83661  0.66076  0.90487  1.0000
  H   H1710     1.0  0.72926  0.63054  0.75172  1.0000
  C   C2148     1.0  0.73438  0.64296  0.85814  1.0000
  H   H1711     1.0  0.84776  0.57180  0.74891  1.0000
  C   C2149     1.0  0.86949  0.64022  0.96033  1.0000
  H   H1712     1.0  0.79114  0.80783  0.96988  1.0000
  H   H1713     1.0  0.69950  0.63446  0.98850  1.0000
  H   H1714     1.0  0.89214  0.49177  0.79283  1.0000
  C   C2150     1.0  0.89774  0.62188  0.97210  1.0000
  S   S286      1.0  0.69034  0.95337  0.98853  1.0000
  C   C2151     1.0  0.96768  0.64985  0.74719  1.0000
  C   C2152     1.0  0.87738  0.48872  0.78158  1.0000
  Fe  Fe144     1.0  0.72612  0.76356  0.98526  1.0000
  H   H1715     1.0  0.80835  0.49135  0.78460  1.0000
  H   H1716     1.0  0.96953  0.66500  0.87017  1.0000
  H   H1717     1.0  0.56672  0.56774  0.98239  1.0000
  H   H1718     1.0  0.77532  0.61488  0.98791  1.0000
  H   H1719     1.0  0.57208  0.49095  0.79333  1.0000
  C   C2153     1.0  0.88017  0.74717  0.98881  1.0000
  C   C2154     1.0  0.91370  0.56971  0.74265  1.0000
  H   H1720     1.0  0.93433  0.49849  0.93284  1.0000
  H   H1721     1.0  0.80719  0.60841  0.96745  1.0000
  C   C2155     1.0  0.85729  0.74971  0.98387  1.0000
  H   H1722     1.0  0.74615  0.51046  0.74410  1.0000
  H   H1723     1.0  0.89650  0.75417  0.97901  1.0000
  S   S287      1.0  0.69033  0.72397  0.98937  1.0000
  C   C2156     1.0  0.79683  0.81948  0.98347  1.0000
  C   C2157     1.0  0.78832  0.63059  0.97872  1.0000
  H   H1724     1.0  0.90692  0.60922  0.96973  1.0000
  S   S288      1.0  0.80774  0.74609  0.98977  1.0000
  C   C2158     1.0  0.79055  0.84021  0.98617  1.0000
  H   H1725     1.0  0.86684  0.66898  0.98031  1.0000
  C   C2159     1.0  0.90289  0.63691  0.98953  1.0000
  H   H1726     1.0  0.90008  0.82355  0.99037  1.0000
  H   H1727     1.0  0.77452  0.65806  0.98864  1.0000
  H   H1728     1.0  0.93251  0.56991  0.74095  1.0000
  C   C2160     1.0  0.77675  0.48496  0.80359  1.0000
