data_image0
_chemical_formula_structural       FeS3FeS2H2C2HFeS2FeS2FeSFeS3FeS2CSC2PCHCHC6H4C6H4C9H2C6H4C2HCH3PC8HSC2H10C7PC4HC11H12C5HCH2C3HCH3C2HC3HC3H2SH3C7FeC2H5CH5C4H7C5H3C3HPCHC2HCH2CHCH4CH2CHCHSCHC2HCH2CHC3HPC2H2CHC7HCHFeCH2C2H2CHCHCFeC2HC2HCHCSHSCHCHC3HPHC2H2CHCH3CHC5H2CHCH3C2HCH2CHCH2CHS2H2CHC3FeSCFeS3FeS2FeS2FeS2FeSFeS3FeS2C6H4C6H4CH2CH2SCHC6H5C3PC4H4CH2C6H5CHC3PC18H16CHC2H2CHCHCHCH2CH2C6H2C3HCH2C3HC2H2CPC4HC2HCH2C2HPCH3C3H2C2HCH3CHC5H2CHCHFeCH2C3HC2H3CH2CPCHC4HC2HC4PCHCHCH2C7SH2C4H2CHC5HC3H3C4HCH2C3H2C2H6SHC3H2CHC2H2C3H3CSHCPC2H2C2H2CSHCFeC2HC2HCH2C2HCH2SHCH3FeCSC2HC4S2FeHC2H2C3H4C3HSHC2HCH3C2H3CH3CFeH2CHFe2H3C2FeC3HC2HC2FeH2CHCFeC5HC3SH3C6HCHC3HC2S2H3CH2SC2SHCHCHCHC3HC2SH2C3SHCH2CH2C2HPCH3SC2HCH3CH2C2H2CHCH2C3HCHC2SHC2HC2HCPC3HC4HCH3C4HPH2CHSHCHC2H4CPC2H3C3HCHCHCHCHCHCHCHC2HCH2C2H2C2HCHSCH3C2H3CHC3HCHC3HC3HCHSCHPHCHC2H2CSC4FeSHSHFeHS2CFeSC2SHFeCHSC2HC2HCHS2HCHC2HC2H2CHCHCH3C2H5FeS2FeS2FeS2FeSFeS3FeS2CSH2FeSC2HFeS2C3HCH6CHCH2C3H2C6H4C6H4C3H2SC8H4C3H2C2PC8HC5HC3HCHCSH3CHFeCH6CH2CH2CHCHC3HFeHC9HS2C2HCFeHC2HCH4PH2C3H2C4HPC2HC2FeHC2H2CH2C2HC3H3CHC2HC5H4CH2C4H2CH4CH5C2HC2HC4HPH2CH4CHC5H2CHCHCH2C5HC2SH2C7HCH2C2HPHC2H2C6HSH2CHCFeCSH2CHC4HCHCSHPHC2H3FeS2C2SC2HFeS2FeSCPC2FeS2CS2C2H3C7H4CHC2HC3HC2SH2FeC2H2C8H4CHCH2C2HCSC3HCHCHC4HCHCHCHSC3H2CHPCHCHFeHC3H3C4H2CHC3H3CH3CHCHCH3PC5H2C6PC15HC2H17C2HFeH2SCHSCHCHC3H2FeCH2FeHSC2SHC2H3C3HC2H2FeC3HC2HCSHCHCH3FeS2FeS2H3SC2FeS2HFeS2C6H5C2HCHSC2HC4H2C3HCHC6H2SHC2HC2H2FeCH3CHC4HC2PC6HCHCH3CHPHCHCHSHC3HC2FeH2C3H3C9H5CHC2FeHC5H4C2HCH2CHC2H2C2H4PHCPC2HC2HC2H2C2HC3HC3H2CH2CHCHCHCHSH2CH2C2SC4HC3H2C8H4C2HCPH2CH4C2HCHC2H2CH2CH3C2HCH3C4H2CHCH3C3HC2H2C3SHSHC3HCHFeHC2HCH2C2FeS2HCSH2C2HCSHCH3PC6H5C3SCHCH2CHCH3C2SC4HC2PHFeHCSC2HCSHCHC5HCFeC5H3CHC2HCH7C5HCH3C2HCHC3FeS2FeSCHC6H4CSH5CHCFeHCPC2HC2SHCH2CSCH2C2H3CH2PC2HCHCHC2H2CHC2HC7H2C6HC2H3C3H4CHCHCHC5HCH3PC3HC2H3FeS2H2C3HFeS2HCSC8H4C2HC3HCH2C2HCHSCHCPH3CH3CHCHFeHC2HCHCH2CPSC2H2C2HC2H2C4HSCHFeH2C3H2CHC2HC3HC4H3C4HC2H2C5FeS2FeS2HC7H4CHC3HPCHCHCH2SCH3C2H2CHCHCHC2HCH2C2HCH2PHC2HC8HCHCFeC2H3CH2C2HCHSHCHCH2FeSHC3HC2HC3HC4HCSCHPCHFeS2HCH2CHC3HCSHFeS2CSFeS2H2S3HC7H4CSHC8H5CHC2SCFeC2HC3H2CSHFeH2C3PH2CHCFeHC2HC5H2CHC7PCHCHCHCHC2HCHCHC3H4S2H2C2HCHC2H2PC3FeHC3HCH3CSC3H2CH3C3HFeHC3H2C2H2FeHCHC6H4SH6C2H2CH4C5PHC6HCH3C4H3C3H2C4H2CH2CFeH2CFeS2H2CHC2FeS2CHSFeS2H2CHC3H2C2HSC2HCHC5HC8H4C6H4CHCH2PC3HC9H3C5SH2CFeH3CH3C3H2C6PC17H7CSH15C2HC4H2CH2FeC3HC2SHPH4CHCHCH2C3HCSHC2HC3HC2HC2HCH2CHFeH2CHCH2CHCH2CSCHCHSC2HC2HC2HFeCHCH2CHCFeHFeS2HCH3CFeS2FeS2FeS2FeSFeS3HS2CHSC2H2FeS2HCH2C6H4C6H4SC9H4C6HC2HCHCH4C6PC13HC2H6CH11CPHC4H2SCHC2HCH3C3HC3FeC3H2CSCH2C2H2C6PC16H19C3H7C12H7C2HCH4CHCHC2HCHC2SFeCSCPCH3CH2CSFeHC2HCHC2H2FeH2SHSHCH2CH3FeC2HSCHCFeS2FeS2FeS2FeS2FeS2FeSFeS3FeS2PC2HC6H4C6H4C2HC2HC3H4C6H5C6HCH2C2HSC5H5SCH4CHC3HC4PC19H20C2H2CHC9PC18H20C6PC2HFeC4HC7H6CFeH3C2H3CHC2H3PCHC3H2C4FeH2C3HC4SC2H3CHCHCHCHSC2HCHC2HC2H2CH2C2H2FeH2SC2HPC3H2C2H2C2H2C3H4CHCHCHC2HSHCHCH2FeC3H4SC3FeS2FeHCS2FeHSC2HCSFeS2FeS2FeSFeS3H4C2S2FeS2C4HC6H4C6H4C6H4C7H4CH3C2H3C6PC6H11CSCH3CPC8H2C4HC3H6C2H2FeCH2C3H2CHCH2CHPSC3H2CHCH2C3H2C4HC7PC18H11C2H7C3S2CHCSC8H2FeC3H4C4HCHC3HCPC2H2C3H2C3HC2H4PH2C7H2CFeCH2C2H2CFeC2H2CH3SHCHCHC2HC3H3C4H2C3HC2H2C2H2C3HCHC2H2SH4CHCPC2H2C2HC3HCH2C5HSHFeS2FeS2FeSFeS3FeCHFeCSFeS2HCSC2SH2C6HC8H4C6H5C2H4CHCHC7H5CH4FeHSH2C2HCHC2SCHFeH2C4PC7HFeH3C2H3C5H2FeHC2H4C2HC3H3C2HCHCHCSHCSC6PC4HC13H18C2PC18H6C2SH2C2H2CHCHC2HCHCPHSHCHCPC2HCH6C2HCH3CH2CH5CHCFeH2C2SHC2HCS2
_chemical_formula_sum              "Fe144 S288 H1728 C2160 P72"
_cell_length_a       55.0028
_cell_length_b       54.7984
_cell_length_c       69.5897
_cell_angle_alpha    91.3608
_cell_angle_beta     93.0653
_cell_angle_gamma    118.076

_space_group_name_H-M_alt    "P 1"
_space_group_IT_number       1

loop_
  _space_group_symop_operation_xyz
  'x, y, z'

loop_
  _atom_site_type_symbol
  _atom_site_label
  _atom_site_symmetry_multiplicity
  _atom_site_fract_x
  _atom_site_fract_y
  _atom_site_fract_z
  _atom_site_occupancy
  Fe  Fe1       1.0  0.29339  0.36488  0.22762  1.0000
  S   S1        1.0  0.29719  0.40591  0.21914  1.0000
  S   S2        1.0  0.29115  0.32996  0.20714  1.0000
  S   S3        1.0  0.22289  0.39523  0.22584  1.0000
  Fe  Fe2       1.0  0.05320  0.37903  0.22814  1.0000
  S   S4        1.0  0.08188  0.42518  0.23328  1.0000
  S   S5        1.0  0.05056  0.35341  0.20070  1.0000
  H   H1        1.0  0.31005  0.10804  0.12439  1.0000
  H   H2        1.0  0.03841  0.26629  0.18783  1.0000
  C   C1        1.0  0.98714  0.29437  0.15285  1.0000
  C   C2        1.0  0.00499  0.36777  0.13421  1.0000
  H   H3        1.0  0.28992  0.05158  0.17253  1.0000
  Fe  Fe3       1.0  0.21603  0.24193  0.10203  1.0000
  S   S6        1.0  0.19068  0.19689  0.10855  1.0000
  S   S7        1.0  0.23008  0.28062  0.12279  1.0000
  Fe  Fe4       1.0  0.20738  0.22732  0.05725  1.0000
  S   S8        1.0  0.18173  0.18198  0.06131  1.0000
  S   S9        1.0  0.20878  0.24534  0.02763  1.0000
  Fe  Fe5       1.0  0.16147  0.19475  0.08372  1.0000
  S   S10       1.0  0.11464  0.17229  0.08239  1.0000
  Fe  Fe6       1.0  0.21311  0.18782  0.08541  1.0000
  S   S11       1.0  0.23266  0.15913  0.08535  1.0000
  S   S12       1.0  0.18516  0.23972  0.07838  1.0000
  S   S13       1.0  0.24050  0.23314  0.08028  1.0000
  Fe  Fe7       1.0  0.01133  0.22880  0.09756  1.0000
  S   S14       1.0  0.99964  0.26147  0.08924  1.0000
  S   S15       1.0  0.05708  0.24468  0.10393  1.0000
  C   C3        1.0  0.19312  0.05684  0.01239  1.0000
  S   S16       1.0  0.17332  0.03152  0.10505  1.0000
  C   C4        1.0  0.19800  0.03741  0.04241  1.0000
  C   C5        1.0  0.33291  0.01228  0.17186  1.0000
  P   P1        1.0  0.31201  0.05673  0.13412  1.0000
  C   C6        1.0  0.00681  0.18018  0.02937  1.0000
  H   H4        1.0  0.08850  0.32096  0.14297  1.0000
  C   C7        1.0  0.03633  0.25082  0.03376  1.0000
  H   H5        1.0  0.30951  0.06963  0.09396  1.0000
  C   C8        1.0  0.21522  0.12339  0.09012  1.0000
  C   C9        1.0  0.18948  0.11131  0.09795  1.0000
  C   C10       1.0  0.17691  0.08317  0.10235  1.0000
  C   C11       1.0  0.18969  0.06669  0.09875  1.0000
  C   C12       1.0  0.21518  0.07864  0.09055  1.0000
  C   C13       1.0  0.22795  0.10687  0.08641  1.0000
  H   H6        1.0  0.17946  0.12375  0.10091  1.0000
  H   H7        1.0  0.15718  0.07414  0.10865  1.0000
  H   H8        1.0  0.22530  0.06625  0.08772  1.0000
  H   H9        1.0  0.24785  0.11599  0.08036  1.0000
  C   C14       1.0  0.09854  0.19299  0.08652  1.0000
  C   C15       1.0  0.06964  0.18139  0.08408  1.0000
  C   C16       1.0  0.05654  0.19733  0.08859  1.0000
  C   C17       1.0  0.07236  0.22474  0.09592  1.0000
  C   C18       1.0  0.10117  0.23644  0.09780  1.0000
  C   C19       1.0  0.11420  0.22073  0.09299  1.0000
  H   H10       1.0  0.05739  0.15995  0.07897  1.0000
  H   H11       1.0  0.03427  0.18820  0.08699  1.0000
  H   H12       1.0  0.11355  0.25763  0.10320  1.0000
  H   H13       1.0  0.13637  0.22988  0.09502  1.0000
  C   C20       1.0  0.28545  0.06725  0.13500  1.0000
  C   C21       1.0  0.02508  0.33022  0.18296  1.0000
  C   C22       1.0  0.99863  0.32782  0.18039  1.0000
  C   C23       1.0  0.39919  0.33006  0.02575  1.0000
  C   C24       1.0  0.35333  0.10825  0.14851  1.0000
  C   C25       1.0  0.01344  0.29650  0.15564  1.0000
  C   C26       1.0  0.03221  0.31430  0.17060  1.0000
  C   C27       1.0  0.00573  0.34264  0.08313  1.0000
  C   C28       1.0  0.31982  0.01317  0.18832  1.0000
  H   H14       1.0  0.05259  0.31597  0.17249  1.0000
  H   H15       1.0  0.11465  0.24286  0.01259  1.0000
  C   C29       1.0  0.27306  0.31604  0.18397  1.0000
  C   C30       1.0  0.27100  0.29104  0.17624  1.0000
  C   C31       1.0  0.25756  0.27960  0.15781  1.0000
  C   C32       1.0  0.24623  0.29319  0.14663  1.0000
  C   C33       1.0  0.24816  0.31811  0.15441  1.0000
  C   C34       1.0  0.26125  0.32935  0.17293  1.0000
  H   H16       1.0  0.28005  0.28051  0.18454  1.0000
  H   H17       1.0  0.25641  0.26050  0.15214  1.0000
  H   H18       1.0  0.23968  0.32902  0.14600  1.0000
  H   H19       1.0  0.26261  0.34857  0.17854  1.0000
  C   C35       1.0  0.17245  0.06166  0.01993  1.0000
  C   C36       1.0  0.17383  0.39481  0.23142  1.0000
  H   H20       1.0  0.40165  0.28132  0.05400  1.0000
  C   C37       1.0  0.34562  0.08671  0.13437  1.0000
  H   H21       1.0  0.16664  0.38257  0.21793  1.0000
  H   H22       1.0  0.25476  0.17021  0.23936  1.0000
  H   H23       1.0  0.40569  0.11239  0.11183  1.0000
  P   P2        1.0  0.14350  0.43750  0.18059  1.0000
  C   C38       1.0  0.11272  0.44066  0.18401  1.0000
  C   C39       1.0  0.13743  0.40216  0.17893  1.0000
  C   C40       1.0  0.12074  0.38322  0.19186  1.0000
  C   C41       1.0  0.11606  0.35584  0.19072  1.0000
  C   C42       1.0  0.12872  0.34746  0.17704  1.0000
  C   C43       1.0  0.14631  0.36647  0.16465  1.0000
  C   C44       1.0  0.15078  0.39379  0.16562  1.0000
  C   C45       1.0  0.39100  0.11132  0.12199  1.0000
  H   H24       1.0  0.29714  0.04124  0.06332  1.0000
  S   S17       1.0  0.98144  0.19710  0.07530  1.0000
  C   C46       1.0  0.06265  0.42070  0.18253  1.0000
  C   C47       1.0  0.08633  0.41791  0.18015  1.0000
  H   H25       1.0  0.32148  0.00265  0.20093  1.0000
  H   H26       1.0  0.12186  0.42039  0.14078  1.0000
  H   H27       1.0  0.11118  0.38955  0.20277  1.0000
  H   H28       1.0  0.10261  0.34125  0.20053  1.0000
  H   H29       1.0  0.12513  0.32636  0.17610  1.0000
  H   H30       1.0  0.15671  0.36009  0.15441  1.0000
  H   H31       1.0  0.16496  0.40834  0.15618  1.0000
  H   H32       1.0  0.29439  0.02822  0.20124  1.0000
  H   H33       1.0  0.04242  0.40273  0.18022  1.0000
  H   H34       1.0  0.08378  0.39785  0.17554  1.0000
  C   C48       1.0  0.30814  0.31976  0.00774  1.0000
  C   C49       1.0  0.18418  0.31370  0.12044  1.0000
  C   C50       1.0  0.16774  0.32316  0.11057  1.0000
  C   C51       1.0  0.14137  0.31597  0.11634  1.0000
  C   C52       1.0  0.13133  0.29911  0.13187  1.0000
  C   C53       1.0  0.14764  0.28929  0.14180  1.0000
  C   C54       1.0  0.17427  0.29701  0.13604  1.0000
  P   P3        1.0  0.13513  0.26671  0.16161  1.0000
  C   C55       1.0  0.12554  0.23137  0.15404  1.0000
  C   C56       1.0  0.16375  0.27981  0.17975  1.0000
  C   C57       1.0  0.17650  0.26372  0.18506  1.0000
  C   C58       1.0  0.20035  0.27504  0.19762  1.0000
  H   H35       1.0  0.01943  0.28473  0.14609  1.0000
  C   C59       1.0  0.17540  0.30741  0.18712  1.0000
  C   C60       1.0  0.10570  0.20940  0.16375  1.0000
  C   C61       1.0  0.09763  0.18192  0.15779  1.0000
  C   C62       1.0  0.10970  0.17619  0.14235  1.0000
  C   C63       1.0  0.13008  0.19791  0.13310  1.0000
  C   C64       1.0  0.13803  0.22539  0.13886  1.0000
  C   C65       1.0  0.10458  0.26643  0.17037  1.0000
  C   C66       1.0  0.08016  0.25562  0.15822  1.0000
  C   C67       1.0  0.05648  0.25573  0.16446  1.0000
  C   C68       1.0  0.05672  0.26593  0.18309  1.0000
  C   C69       1.0  0.10434  0.27565  0.18934  1.0000
  H   H36       1.0  0.12840  0.32288  0.10849  1.0000
  H   H37       1.0  0.11068  0.29342  0.13560  1.0000
  H   H38       1.0  0.18732  0.28970  0.14336  1.0000
  H   H39       1.0  0.16881  0.24280  0.17903  1.0000
  H   H40       1.0  0.21083  0.26301  0.20110  1.0000
  H   H41       1.0  0.09639  0.21345  0.17589  1.0000
  H   H42       1.0  0.08200  0.16503  0.16507  1.0000
  H   H43       1.0  0.10338  0.15497  0.13747  1.0000
  H   H44       1.0  0.13938  0.19340  0.12113  1.0000
  H   H45       1.0  0.15374  0.24168  0.13126  1.0000
  H   H46       1.0  0.07950  0.24728  0.14378  1.0000
  H   H47       1.0  0.03796  0.24793  0.15474  1.0000
  C   C70       1.0  0.16481  0.05453  0.03865  1.0000
  C   C71       1.0  0.17741  0.04218  0.04979  1.0000
  C   C72       1.0  0.09383  0.41399  0.06705  1.0000
  C   C73       1.0  0.20544  0.04414  0.02365  1.0000
  C   C74       1.0  0.29037  0.00401  0.07697  1.0000
  H   H48       1.0  0.14819  0.22697  0.02336  1.0000
  C   C75       1.0  0.21052  0.47536  0.23098  1.0000
  H   H49       1.0  0.00543  0.40361  0.09473  1.0000
  H   H50       1.0  0.08213  0.15157  0.04111  1.0000
  C   C76       1.0  0.12624  0.21369  0.02442  1.0000
  C   C77       1.0  0.11711  0.18801  0.03246  1.0000
  C   C78       1.0  0.30446  0.02749  0.18845  1.0000
  H   H51       1.0  0.13511  0.48466  0.19167  1.0000
  C   C79       1.0  0.05810  0.39684  0.08980  1.0000
  H   H52       1.0  0.01831  0.24134  0.02365  1.0000
  H   H53       1.0  0.06413  0.38430  0.13751  1.0000
  H   H54       1.0  0.14898  0.05831  0.04457  1.0000
  C   C80       1.0  0.06418  0.31794  0.11688  1.0000
  C   C81       1.0  0.14919  0.45233  0.12334  1.0000
  H   H55       1.0  0.00430  0.18064  0.17641  1.0000
  C   C82       1.0  0.01929  0.19185  0.01247  1.0000
  C   C83       1.0  0.06981  0.17986  0.02819  1.0000
  C   C84       1.0  0.00542  0.34772  0.06344  1.0000
  H   H56       1.0  0.38533  0.14798  0.16007  1.0000
  C   C85       1.0  0.38914  0.41213  0.22704  1.0000
  C   C86       1.0  0.37051  0.31925  0.02302  1.0000
  C   C87       1.0  0.07830  0.35433  0.14190  1.0000
  H   H57       1.0  0.27186  0.16287  0.02470  1.0000
  H   H58       1.0  0.00763  0.31354  0.23335  1.0000
  S   S18       1.0  0.25730  0.35415  0.24565  1.0000
  H   H59       1.0  0.04825  0.16660  0.03019  1.0000
  H   H60       1.0  0.30006  0.09843  0.00512  1.0000
  H   H61       1.0  0.32549  0.24208  0.00349  1.0000
  C   C88       1.0  0.42983  0.40585  0.22710  1.0000
  C   C89       1.0  0.30303  0.29072  0.04856  1.0000
  C   C90       1.0  0.31775  0.29782  0.06672  1.0000
  C   C91       1.0  0.30698  0.30476  0.08250  1.0000
  C   C92       1.0  0.28151  0.30465  0.08026  1.0000
  C   C93       1.0  0.26680  0.29764  0.06224  1.0000
  C   C94       1.0  0.27193  0.19806  0.03916  1.0000
  Fe  Fe8       1.0  0.18749  0.99990  0.09677  1.0000
  C   C95       1.0  0.15557  0.45340  0.15825  1.0000
  C   C96       1.0  0.10200  0.44120  0.07369  1.0000
  H   H62       1.0  0.23529  0.46490  0.21301  1.0000
  H   H63       1.0  0.33727  0.29766  0.06887  1.0000
  H   H64       1.0  0.31807  0.30976  0.09658  1.0000
  H   H65       1.0  0.27284  0.30931  0.09261  1.0000
  H   H66       1.0  0.22622  0.08726  0.13350  1.0000
  C   C97       1.0  0.41041  0.31641  0.03689  1.0000
  H   H67       1.0  0.04750  0.19693  0.16000  1.0000
  H   H68       1.0  0.05763  0.42860  0.10877  1.0000
  H   H69       1.0  0.17104  0.03605  0.06411  1.0000
  H   H70       1.0  0.23407  0.21060  0.01821  1.0000
  H   H71       1.0  0.01850  0.18692  0.04326  1.0000
  C   C98       1.0  0.98598  0.32729  0.05021  1.0000
  C   C99       1.0  0.04988  0.32936  0.10651  1.0000
  C   C100      1.0  0.98536  0.31757  0.08946  1.0000
  C   C101      1.0  0.11499  0.46661  0.18923  1.0000
  H   H72       1.0  0.00207  0.14631  0.10941  1.0000
  H   H73       1.0  0.13191  0.18151  0.03781  1.0000
  H   H74       1.0  0.26009  0.02263  0.00422  1.0000
  H   H75       1.0  0.20832  0.34000  0.20527  1.0000
  H   H76       1.0  0.37056  0.41058  0.21963  1.0000
  H   H77       1.0  0.06633  0.37086  0.07010  1.0000
  H   H78       1.0  0.21690  0.04033  0.14232  1.0000
  C   C102      1.0  0.16362  0.16853  0.00867  1.0000
  C   C103      1.0  0.28982  0.99177  0.09443  1.0000
  C   C104      1.0  0.39297  0.29191  0.04533  1.0000
  C   C105      1.0  0.40576  0.40353  0.21754  1.0000
  C   C106      1.0  0.28236  0.22681  0.03986  1.0000
  H   H79       1.0  0.28424  0.99155  0.06350  1.0000
  H   H80       1.0  0.13545  0.39583  0.23475  1.0000
  H   H81       1.0  0.17840  0.18341  0.01946  1.0000
  C   C107      1.0  0.08034  0.25560  0.04633  1.0000
  C   C108      1.0  0.26902  0.10073  0.12889  1.0000
  C   C109      1.0  0.29022  0.09342  0.12913  1.0000
  H   H82       1.0  0.01107  0.35284  0.13943  1.0000
  P   P4        1.0  0.05484  0.21880  0.01396  1.0000
  C   C110      1.0  0.15383  0.14022  0.01067  1.0000
  H   H83       1.0  0.15754  0.29781  0.24166  1.0000
  C   C111      1.0  0.14039  0.44019  0.14082  1.0000
  C   C112      1.0  0.30440  0.03599  0.11186  1.0000
  H   H84       1.0  0.98399  0.12346  0.18326  1.0000
  C   C113      1.0  0.21584  0.46526  0.21399  1.0000
  H   H85       1.0  0.36231  0.33017  0.01433  1.0000
  H   H86       1.0  0.13761  0.44182  0.10993  1.0000
  C   C114      1.0  0.03772  0.26956  0.04827  1.0000
  H   H87       1.0  0.11870  0.45833  0.06729  1.0000
  C   C115      1.0  0.02816  0.18192  0.15269  1.0000
  H   H88       1.0  0.33903  0.10712  0.15902  1.0000
  H   H89       1.0  0.14411  0.46059  0.21980  1.0000
  H   H90       1.0  0.44282  0.39938  0.21966  1.0000
  H   H91       1.0  0.22050  0.03897  0.01796  1.0000
  C   C116      1.0  0.06038  0.28129  0.06184  1.0000
  H   H92       1.0  0.23057  0.31126  0.21425  1.0000
  H   H93       1.0  0.27256  0.12077  0.12414  1.0000
  C   C117      1.0  0.33047  0.02550  0.15548  1.0000
  H   H94       1.0  0.12248  0.28315  0.19929  1.0000
  C   C118      1.0  0.36430  0.28103  0.04262  1.0000
  H   H95       1.0  0.09865  0.28247  0.07188  1.0000
  S   S19       1.0  0.02095  0.37922  0.24667  1.0000
  C   C119      1.0  0.00364  0.17251  0.16196  1.0000
  H   H96       1.0  0.25725  0.18575  0.04934  1.0000
  C   C120      1.0  0.08056  0.27569  0.19557  1.0000
  C   C121      1.0  0.21157  0.30236  0.20504  1.0000
  H   H97       1.0  0.16672  0.32062  0.18262  1.0000
  C   C122      1.0  0.43716  0.41656  0.24622  1.0000
  H   H98       1.0  0.27538  0.23617  0.05057  1.0000
  H   H99       1.0  0.06108  0.29513  0.07345  1.0000
  C   C123      1.0  0.28023  0.18519  0.02533  1.0000
  H   H100      1.0  0.14262  0.00447  0.01112  1.0000
  C   C124      1.0  0.02767  0.17234  0.13383  1.0000
  C   C125      1.0  0.23163  0.21979  0.00522  1.0000
  C   C126      1.0  0.27745  0.29060  0.04649  1.0000
  H   H101      1.0  0.24669  0.29678  0.06056  1.0000
  P   P5        1.0  0.31577  0.28038  0.02813  1.0000
  C   C127      1.0  0.30122  0.24300  0.02673  1.0000
  C   C128      1.0  0.19906  0.31853  0.19987  1.0000
  H   H102      1.0  0.26547  0.28463  0.03273  1.0000
  H   H103      1.0  0.20452  0.31885  0.11588  1.0000
  C   C129      1.0  0.98964  0.37574  0.14579  1.0000
  H   H104      1.0  0.08065  0.28349  0.21006  1.0000
  C   C130      1.0  0.39644  0.42287  0.24612  1.0000
  C   C131      1.0  0.16984  0.45349  0.20016  1.0000
  C   C132      1.0  0.35284  0.29461  0.03143  1.0000
  C   C133      1.0  0.23763  0.05543  0.13926  1.0000
  C   C134      1.0  0.19563  0.45443  0.19861  1.0000
  C   C135      1.0  0.30662  0.29340  0.00672  1.0000
  C   C136      1.0  0.04912  0.35295  0.11404  1.0000
  H   H105      1.0  0.35107  0.26208  0.04935  1.0000
  C   C137      1.0  0.09128  0.46937  0.19164  1.0000
  H   H106      1.0  0.02085  0.27442  0.04920  1.0000
  Fe  Fe9       1.0  0.32629  0.42542  0.24598  1.0000
  C   C138      1.0  0.06512  0.44637  0.18844  1.0000
  H   H107      1.0  0.39997  0.39518  0.20276  1.0000
  H   H108      1.0  0.31420  0.33202  0.02126  1.0000
  C   C139      1.0  0.98037  0.39398  0.13910  1.0000
  C   C140      1.0  0.06707  0.42420  0.09686  1.0000
  H   H109      1.0  0.17538  0.33575  0.09831  1.0000
  H   H110      1.0  0.08863  0.36348  0.15583  1.0000
  C   C141      1.0  0.31421  0.03904  0.15522  1.0000
  H   H111      1.0  0.10427  0.41000  0.05556  1.0000
  C   C142      1.0  0.39836  0.13293  0.13589  1.0000
  H   H112      1.0  0.06394  0.29918  0.11130  1.0000
  C   C143      1.0  0.16436  0.46289  0.21753  1.0000
  Fe  Fe10      1.0  0.26230  0.39589  0.23838  1.0000
  C   C144      1.0  0.37955  0.13136  0.14918  1.0000
  C   C145      1.0  0.18484  0.47425  0.23272  1.0000
  H   H113      1.0  0.19991  0.44607  0.18574  1.0000
  C   C146      1.0  0.30463  0.04806  0.09425  1.0000
  C   C147      1.0  0.24282  0.08183  0.13412  1.0000
  H   H114      1.0  0.99279  0.33988  0.18980  1.0000
  C   C148      1.0  0.07821  0.33030  0.13464  1.0000
  H   H115      1.0  0.34109  0.02496  0.14294  1.0000
  C   C149      1.0  0.30171  0.04045  0.17201  1.0000
  S   S20       1.0  0.23195  0.01044  0.09628  1.0000
  H   H116      1.0  0.99047  0.28164  0.02402  1.0000
  S   S21       1.0  0.24139  0.00089  0.04096  1.0000
  C   C150      1.0  0.08164  0.27427  0.06089  1.0000
  H   H117      1.0  0.09538  0.46737  0.09403  1.0000
  C   C151      1.0  0.08894  0.17107  0.03426  1.0000
  H   H118      1.0  0.04667  0.17994  0.12658  1.0000
  C   C152      1.0  0.25882  0.04814  0.13965  1.0000
  C   C153      1.0  0.08877  0.44628  0.08869  1.0000
  C   C154      1.0  0.06402  0.36578  0.13160  1.0000
  H   H119      1.0  0.03934  0.31968  0.09270  1.0000
  P   P6        1.0  0.03096  0.36795  0.10068  1.0000
  H   H120      1.0  0.25426  0.02738  0.14318  1.0000
  C   C155      1.0  0.05774  0.24392  0.03248  1.0000
  C   C156      1.0  0.36478  0.08819  0.12128  1.0000
  H   H121      1.0  0.98804  0.10967  0.21626  1.0000
  H   H122      1.0  0.01998  0.36728  0.05816  1.0000
  C   C157      1.0  0.07216  0.39187  0.07520  1.0000
  H   H123      1.0  0.35970  0.07146  0.11063  1.0000
  C   C158      1.0  0.07880  0.20579  0.02027  1.0000
  H   H124      1.0  0.09668  0.24993  0.04638  1.0000
  H   H125      1.0  0.16101  0.13316  0.02309  1.0000
  H   H126      1.0  0.20802  0.02816  0.05116  1.0000
  C   C159      1.0  0.29776  0.03213  0.07688  1.0000
  H   H127      1.0  0.41870  0.15080  0.13646  1.0000
  C   C160      1.0  0.21952  0.23716  0.00581  1.0000
  C   C161      1.0  0.29674  0.00765  0.11181  1.0000
  C   C162      1.0  0.10718  0.22256  0.01833  1.0000
  C   C163      1.0  0.01169  0.37850  0.11597  1.0000
  C   C164      1.0  0.15616  0.40231  0.24089  1.0000
  H   H128      1.0  0.43263  0.32483  0.03901  1.0000
  H   H129      1.0  0.41271  0.34906  0.01921  1.0000
  C   C165      1.0  0.31021  0.22997  0.01332  1.0000
  H   H130      1.0  0.04679  0.44839  0.19074  1.0000
  C   C166      1.0  0.00157  0.39613  0.10911  1.0000
  H   H131      1.0  0.30593  0.19118  0.00174  1.0000
  H   H132      1.0  0.98480  0.31345  0.10463  1.0000
  H   H133      1.0  0.34483  0.00120  0.17179  1.0000
  C   C167      1.0  0.20094  0.40343  0.23913  1.0000
  C   C168      1.0  0.17294  0.47796  0.12318  1.0000
  H   H134      1.0  0.29519  0.99741  0.12511  1.0000
  C   C169      1.0  0.29942  0.20115  0.01244  1.0000
  H   H135      1.0  0.21159  0.11402  0.00975  1.0000
  H   H136      1.0  0.16193  0.07045  0.01125  1.0000
  C   C170      1.0  0.17906  0.47941  0.15803  1.0000
  H   H137      1.0  0.98454  0.36738  0.15984  1.0000
  C   C171      1.0  0.00259  0.15330  0.12421  1.0000
  H   H138      1.0  0.18027  0.48077  0.24629  1.0000
  H   H139      1.0  0.22587  0.48292  0.24311  1.0000
  C   C172      1.0  0.98618  0.40404  0.12071  1.0000
  H   H140      1.0  0.98608  0.33092  0.03496  1.0000
  S   S22       1.0  0.36423  0.47030  0.24951  1.0000
  S   S23       1.0  0.98281  0.21337  0.12145  1.0000
  H   H141      1.0  0.19784  0.34451  0.24672  1.0000
  H   H142      1.0  0.41120  0.47400  0.22810  1.0000
  C   C173      1.0  0.97976  0.30992  0.16544  1.0000
  H   H143      1.0  0.25349  0.09230  0.01031  1.0000
  C   C174      1.0  0.98465  0.26572  0.01264  1.0000
  C   C175      1.0  0.98533  0.30454  0.23342  1.0000
  C   C176      1.0  0.97900  0.16013  0.02854  1.0000
  Fe  Fe11      1.0  0.28821  0.37623  0.27066  1.0000
  S   S24       1.0  0.28304  0.36410  0.30237  1.0000
  C   C177      1.0  0.25707  0.44211  0.31240  1.0000
  Fe  Fe12      1.0  0.04337  0.37064  0.27181  1.0000
  S   S25       1.0  0.07087  0.41608  0.27966  1.0000
  S   S26       1.0  0.02979  0.33294  0.29072  1.0000
  S   S27       1.0  0.14516  0.43143  0.26907  1.0000
  Fe  Fe13      1.0  0.20289  0.00922  0.38223  1.0000
  S   S28       1.0  0.21074  0.04916  0.36815  1.0000
  S   S29       1.0  0.23505  0.00432  0.40068  1.0000
  Fe  Fe14      1.0  0.20294  0.18689  0.40281  1.0000
  S   S30       1.0  0.23794  0.23063  0.40353  1.0000
  S   S31       1.0  0.20676  0.14951  0.41287  1.0000
  Fe  Fe15      1.0  0.15923  0.20653  0.39654  1.0000
  S   S32       1.0  0.19069  0.25139  0.39729  1.0000
  S   S33       1.0  0.11315  0.18935  0.39052  1.0000
  Fe  Fe16      1.0  0.21414  0.23738  0.37823  1.0000
  S   S34       1.0  0.22540  0.25175  0.34752  1.0000
  Fe  Fe17      1.0  0.21149  0.24093  0.42246  1.0000
  S   S35       1.0  0.22537  0.26662  0.45110  1.0000
  S   S36       1.0  0.18120  0.19246  0.37649  1.0000
  S   S37       1.0  0.17796  0.19721  0.42281  1.0000
  Fe  Fe18      1.0  0.01229  0.24413  0.41374  1.0000
  S   S38       1.0  0.05817  0.26061  0.42008  1.0000
  S   S39       1.0  0.99694  0.27505  0.41811  1.0000
  C   C178      1.0  0.07309  0.24091  0.41113  1.0000
  C   C179      1.0  0.05676  0.21404  0.40306  1.0000
  C   C180      1.0  0.06930  0.19857  0.39642  1.0000
  C   C181      1.0  0.09815  0.20987  0.39786  1.0000
  C   C182      1.0  0.11445  0.23695  0.40561  1.0000
  C   C183      1.0  0.10192  0.25226  0.41250  1.0000
  H   H144      1.0  0.03449  0.20511  0.40214  1.0000
  H   H145      1.0  0.05661  0.17768  0.39034  1.0000
  H   H146      1.0  0.13669  0.24597  0.40662  1.0000
  H   H147      1.0  0.11459  0.27300  0.41883  1.0000
  C   C184      1.0  0.20616  0.07550  0.38008  1.0000
  C   C185      1.0  0.21036  0.09915  0.37027  1.0000
  C   C186      1.0  0.20933  0.12163  0.37978  1.0000
  C   C187      1.0  0.20415  0.12056  0.39928  1.0000
  C   C188      1.0  0.19904  0.09652  0.40890  1.0000
  C   C189      1.0  0.19990  0.07402  0.39934  1.0000
  H   H148      1.0  0.21498  0.10025  0.35536  1.0000
  H   H149      1.0  0.21340  0.14004  0.37223  1.0000
  H   H150      1.0  0.19486  0.09553  0.42392  1.0000
  H   H151      1.0  0.19641  0.05584  0.40696  1.0000
  C   C190      1.0  0.22642  0.25134  0.47324  1.0000
  H   H152      1.0  0.22024  0.21269  0.46017  1.0000
  H   H153      1.0  0.12610  0.27764  0.26794  1.0000
  C   C191      1.0  0.01592  0.32285  0.31360  1.0000
  H   H154      1.0  0.19280  0.28524  0.34528  1.0000
  H   H155      1.0  0.15550  0.21603  0.49357  1.0000
  S   S40       1.0  0.07388  0.36823  0.25264  1.0000
  C   C192      1.0  0.00338  0.33611  0.32327  1.0000
  H   H156      1.0  0.00334  0.35415  0.31739  1.0000
  C   C193      1.0  0.26654  0.33249  0.31451  1.0000
  C   C194      1.0  0.26665  0.33378  0.33478  1.0000
  C   C195      1.0  0.25434  0.30947  0.34515  1.0000
  C   C196      1.0  0.24167  0.28336  0.33537  1.0000
  C   C197      1.0  0.24149  0.28205  0.31510  1.0000
  C   C198      1.0  0.25373  0.30637  0.30473  1.0000
  H   H157      1.0  0.27639  0.35379  0.34256  1.0000
  H   H158      1.0  0.25467  0.31097  0.36069  1.0000
  H   H159      1.0  0.23186  0.26205  0.30732  1.0000
  H   H160      1.0  0.25347  0.30492  0.28918  1.0000
  H   H161      1.0  0.35070  0.05783  0.46120  1.0000
  C   C199      1.0  0.25863  0.41739  0.31217  1.0000
  C   C200      1.0  0.20885  0.39133  0.31375  1.0000
  C   C201      1.0  0.23467  0.39213  0.31299  1.0000
  P   P7        1.0  0.17830  0.35816  0.31380  1.0000
  C   C202      1.0  0.18596  0.31647  0.33138  1.0000
  C   C203      1.0  0.17269  0.33895  0.29107  1.0000
  C   C204      1.0  0.19000  0.35038  0.27600  1.0000
  C   C205      1.0  0.14952  0.31275  0.28796  1.0000
  H   H162      1.0  0.27834  0.41763  0.31111  1.0000
  H   H163      1.0  0.23624  0.37312  0.31261  1.0000
  H   H164      1.0  0.15037  0.38086  0.28907  1.0000
  H   H165      1.0  0.18398  0.30715  0.31712  1.0000
  C   C206      1.0  0.23838  0.16391  0.46103  1.0000
  H   H166      1.0  0.20757  0.37090  0.27758  1.0000
  H   H167      1.0  0.13565  0.30410  0.29926  1.0000
  C   C207      1.0  0.17343  0.17233  0.32969  1.0000
  C   C208      1.0  0.15567  0.14505  0.33387  1.0000
  C   C209      1.0  0.20071  0.18014  0.32579  1.0000
  C   C210      1.0  0.29784  0.26062  0.34586  1.0000
  C   C211      1.0  0.27947  0.24020  0.35712  1.0000
  C   C212      1.0  0.26390  0.21294  0.34952  1.0000
  H   H168      1.0  0.16634  0.18770  0.33009  1.0000
  H   H169      1.0  0.13480  0.13927  0.33749  1.0000
  H   H170      1.0  0.21428  0.20154  0.32292  1.0000
  H   H171      1.0  0.27637  0.24582  0.37146  1.0000
  H   H172      1.0  0.24886  0.19766  0.35820  1.0000
  C   C213      1.0  0.26143  0.05550  0.47269  1.0000
  H   H173      1.0  0.24956  0.05452  0.45956  1.0000
  C   C214      1.0  0.05371  0.18567  0.33662  1.0000
  C   C215      1.0  0.05367  0.20982  0.34386  1.0000
  C   C216      1.0  0.03298  0.20728  0.35589  1.0000
  P   P8        1.0  0.07883  0.24340  0.33657  1.0000
  C   C217      1.0  0.08622  0.26992  0.35534  1.0000
  C   C218      1.0  0.10974  0.24128  0.33152  1.0000
  C   C219      1.0  0.12192  0.23132  0.34533  1.0000
  C   C220      1.0  0.14566  0.22935  0.34156  1.0000
  C   C221      1.0  0.15721  0.23693  0.32386  1.0000
  C   C222      1.0  0.14491  0.24631  0.30987  1.0000
  C   C223      1.0  0.12112  0.24828  0.31361  1.0000
  C   C224      1.0  0.06669  0.27912  0.35823  1.0000
  C   C225      1.0  0.07152  0.29905  0.37290  1.0000
  C   C226      1.0  0.09624  0.31056  0.38450  1.0000
  C   C227      1.0  0.11627  0.30237  0.38127  1.0000
  C   C228      1.0  0.11132  0.28210  0.36678  1.0000
  C   C229      1.0  0.06539  0.25309  0.31552  1.0000
  C   C230      1.0  0.04170  0.23366  0.30448  1.0000
  C   C231      1.0  0.03126  0.24195  0.28857  1.0000
  C   C232      1.0  0.04444  0.26959  0.28359  1.0000
  C   C233      1.0  0.06814  0.28896  0.29444  1.0000
  C   C234      1.0  0.07851  0.28075  0.31037  1.0000
  H   H174      1.0  0.22984  0.09513  0.45801  1.0000
  H   H175      1.0  0.06917  0.18691  0.32713  1.0000
  H   H176      1.0  0.03233  0.22533  0.36178  1.0000
  H   H177      1.0  0.11313  0.22520  0.35909  1.0000
  H   H178      1.0  0.15396  0.25220  0.29617  1.0000
  H   H179      1.0  0.11161  0.25500  0.30243  1.0000
  H   H180      1.0  0.04742  0.27049  0.34938  1.0000
  H   H181      1.0  0.05580  0.30515  0.37553  1.0000
  H   H182      1.0  0.09958  0.32540  0.39624  1.0000
  H   H183      1.0  0.13530  0.31110  0.39041  1.0000
  H   H184      1.0  0.12705  0.27594  0.36488  1.0000
  H   H185      1.0  0.03103  0.21227  0.30826  1.0000
  H   H186      1.0  0.01265  0.22706  0.28031  1.0000
  H   H187      1.0  0.32475  0.01512  0.40089  1.0000
  H   H188      1.0  0.09651  0.29606  0.31890  1.0000
  H   H189      1.0  0.35768  0.46458  0.29496  1.0000
  C   C235      1.0  0.99010  0.32547  0.34030  1.0000
  H   H190      1.0  0.44415  0.48359  0.30978  1.0000
  C   C236      1.0  0.04345  0.14829  0.43768  1.0000
  C   C237      1.0  0.28665  0.16530  0.47727  1.0000
  H   H191      1.0  0.10382  0.26153  0.49741  1.0000
  H   H192      1.0  0.06139  0.14565  0.44149  1.0000
  C   C238      1.0  0.01250  0.16692  0.44456  1.0000
  H   H193      1.0  0.27004  0.13652  0.43811  1.0000
  C   C239      1.0  0.16503  0.12536  0.33372  1.0000
  H   H194      1.0  0.15136  0.10422  0.33711  1.0000
  C   C240      1.0  0.30375  0.06135  0.48937  1.0000
  H   H195      1.0  0.29073  0.11348  0.45841  1.0000
  C   C241      1.0  0.98993  0.30197  0.34825  1.0000
  H   H196      1.0  0.07786  0.31055  0.29088  1.0000
  H   H197      1.0  0.19775  0.35076  0.38286  1.0000
  C   C242      1.0  0.42035  0.42495  0.25593  1.0000
  H   H198      1.0  0.30898  0.28194  0.35153  1.0000
  H   H199      1.0  0.98089  0.39098  0.31344  1.0000
  C   C243      1.0  0.19217  0.13297  0.32948  1.0000
  C   C244      1.0  0.21041  0.16057  0.32587  1.0000
  C   C245      1.0  0.26713  0.20573  0.33067  1.0000
  C   C246      1.0  0.30021  0.03798  0.43745  1.0000
  C   C247      1.0  0.28930  0.06199  0.47228  1.0000
  C   C248      1.0  0.28571  0.10752  0.44318  1.0000
  H   H200      1.0  0.31502  0.26966  0.31825  1.0000
  H   H201      1.0  0.15525  0.22218  0.35248  1.0000
  C   C249      1.0  0.09769  0.36404  0.31815  1.0000
  C   C250      1.0  0.03636  0.16461  0.44966  1.0000
  C   C251      1.0  0.30114  0.25368  0.32709  1.0000
  H   H202      1.0  0.34182  0.13018  0.44862  1.0000
  C   C252      1.0  0.18441  0.34117  0.33401  1.0000
  H   H203      1.0  0.11084  0.26755  0.46279  1.0000
  H   H204      1.0  0.17594  0.23590  0.32111  1.0000
  C   C253      1.0  0.35432  0.12051  0.45280  1.0000
  C   C254      1.0  0.35944  0.07998  0.45980  1.0000
  C   C255      1.0  0.34238  0.09173  0.45448  1.0000
  H   H205      1.0  0.09334  0.34360  0.34470  1.0000
  C   C256      1.0  0.26745  0.11326  0.41217  1.0000
  C   C257      1.0  0.28596  0.22634  0.31952  1.0000
  H   H206      1.0  0.19878  0.11729  0.32934  1.0000
  H   H207      1.0  0.02572  0.28914  0.31455  1.0000
  C   C258      1.0  0.17076  0.03410  0.45049  1.0000
  P   P9        1.0  0.30560  0.06976  0.44971  1.0000
  C   C259      1.0  0.29059  0.08669  0.43493  1.0000
  C   C260      1.0  0.27419  0.12073  0.43179  1.0000
  C   C261      1.0  0.19107  0.30399  0.34730  1.0000
  C   C262      1.0  0.10613  0.35202  0.33274  1.0000
  H   H208      1.0  0.08889  0.19987  0.43771  1.0000
  C   C263      1.0  0.23152  0.44156  0.31361  1.0000
  C   C264      1.0  0.20743  0.41626  0.31428  1.0000
  H   H209      1.0  0.19942  0.30656  0.37805  1.0000
  C   C265      1.0  0.14727  0.36130  0.31618  1.0000
  H   H210      1.0  0.18888  0.37318  0.35489  1.0000
  H   H211      1.0  0.28622  0.06276  0.40841  1.0000
  C   C266      1.0  0.27176  0.09227  0.40393  1.0000
  C   C267      1.0  0.28335  0.07907  0.41521  1.0000
  H   H212      1.0  0.25828  0.12334  0.40341  1.0000
  P   P10       1.0  0.24563  0.17082  0.32054  1.0000
  C   C268      1.0  0.27011  0.16791  0.28713  1.0000
  H   H213      1.0  0.19692  0.29250  0.47438  1.0000
  H   H214      1.0  0.10725  0.38382  0.29122  1.0000
  H   H215      1.0  0.26552  0.08579  0.38885  1.0000
  C   C269      1.0  0.19503  0.31615  0.36584  1.0000
  C   C270      1.0  0.05158  0.22834  0.46666  1.0000
  C   C271      1.0  0.13834  0.37293  0.30144  1.0000
  H   H216      1.0  0.13948  0.13465  0.43790  1.0000
  H   H217      1.0  0.20033  0.44079  0.27873  1.0000
  C   C272      1.0  0.18909  0.35365  0.35266  1.0000
  C   C273      1.0  0.23038  0.26632  0.49089  1.0000
  H   H218      1.0  0.13836  0.21796  0.43309  1.0000
  C   C274      1.0  0.22324  0.22449  0.47357  1.0000
  H   H219      1.0  0.00606  0.17870  0.45377  1.0000
  H   H220      1.0  0.30825  0.20076  0.46036  1.0000
  H   H221      1.0  0.05279  0.22485  0.45143  1.0000
  C   C275      1.0  0.38285  0.13721  0.45642  1.0000
  H   H222      1.0  0.13634  0.34053  0.34308  1.0000
  C   C276      1.0  0.13079  0.35059  0.33180  1.0000
  C   C277      1.0  0.24795  0.16993  0.29476  1.0000
  C   C278      1.0  0.02789  0.13590  0.42031  1.0000
  C   C279      1.0  0.11381  0.37449  0.30254  1.0000
  C   C280      1.0  0.19273  0.42748  0.26574  1.0000
  H   H223      1.0  0.12488  0.15686  0.46297  1.0000
  H   H224      1.0  0.28859  0.22166  0.30484  1.0000
  C   C281      1.0  0.22838  0.17224  0.28219  1.0000
  H   H225      1.0  0.03408  0.12420  0.41080  1.0000
  C   C282      1.0  0.10294  0.20247  0.45000  1.0000
  H   H226      1.0  0.33383  0.05832  0.41898  1.0000
  Fe  Fe19      1.0  0.09985  0.41354  0.25905  1.0000
  C   C283      1.0  0.13103  0.21314  0.44734  1.0000
  H   H227      1.0  0.27743  0.17262  0.35692  1.0000
  H   H228      1.0  0.26527  0.19910  0.44574  1.0000
  C   C284      1.0  0.24842  0.04931  0.48994  1.0000
  C   C285      1.0  0.25633  0.14708  0.33089  1.0000
  C   C286      1.0  0.27145  0.15331  0.34887  1.0000
  H   H229      1.0  0.21132  0.17422  0.28766  1.0000
  C   C287      1.0  0.19412  0.34104  0.36852  1.0000
  C   C288      1.0  0.99692  0.15439  0.42721  1.0000
  H   H230      1.0  0.07853  0.36506  0.31882  1.0000
  H   H231      1.0  0.18789  0.41637  0.31498  1.0000
  H   H232      1.0  0.23661  0.11595  0.30737  1.0000
  C   C289      1.0  0.24869  0.12149  0.32108  1.0000
  H   H233      1.0  0.04701  0.26480  0.46230  1.0000
  H   H234      1.0  0.03593  0.27629  0.27166  1.0000
  C   C290      1.0  0.14982  0.21774  0.46301  1.0000
  P   P11       1.0  0.05695  0.18088  0.47190  1.0000
  C   C291      1.0  0.09331  0.19536  0.46837  1.0000
  H   H235      1.0  0.17153  0.22611  0.46084  1.0000
  C   C292      1.0  0.28831  0.18485  0.46414  1.0000
  C   C293      1.0  0.23649  0.14440  0.47440  1.0000
  C   C294      1.0  0.20858  0.07992  0.45925  1.0000
  C   C295      1.0  0.14753  0.13678  0.45276  1.0000
  H   H236      1.0  0.17309  0.11826  0.44636  1.0000
  C   C296      1.0  0.04864  0.25122  0.47281  1.0000
  C   C297      1.0  0.16666  0.12752  0.45762  1.0000
  H   H237      1.0  0.22014  0.16415  0.45467  1.0000
  C   C298      1.0  0.26416  0.18400  0.45593  1.0000
  C   C299      1.0  0.19826  0.05404  0.44937  1.0000
  C   C300      1.0  0.05279  0.21011  0.48003  1.0000
  C   C301      1.0  0.19116  0.08613  0.47005  1.0000
  P   P12       1.0  0.20347  0.11965  0.48240  1.0000
  C   C302      1.0  0.17812  0.13108  0.47667  1.0000
  H   H238      1.0  0.21134  0.04941  0.44051  1.0000
  C   C303      1.0  0.22475  0.21312  0.49126  1.0000
  H   H239      1.0  0.16293  0.01412  0.44276  1.0000
  C   C304      1.0  0.38190  0.40892  0.30045  1.0000
  H   H240      1.0  0.30536  0.16610  0.48377  1.0000
  H   H241      1.0  0.22681  0.04405  0.49004  1.0000
  C   C305      1.0  0.38794  0.09674  0.46341  1.0000
  C   C306      1.0  0.44435  0.41945  0.29338  1.0000
  C   C307      1.0  0.16353  0.06593  0.47113  1.0000
  C   C308      1.0  0.15342  0.03999  0.46143  1.0000
  C   C309      1.0  0.27248  0.16789  0.26721  1.0000
  C   C310      1.0  0.21020  0.41938  0.25654  1.0000
  C   C311      1.0  0.27862  0.13419  0.35692  1.0000
  S   S41       1.0  0.29088  0.41780  0.26457  1.0000
  H   H242      1.0  0.24915  0.08236  0.32189  1.0000
  H   H243      1.0  0.34390  0.38548  0.31410  1.0000
  C   C312      1.0  0.18447  0.33546  0.25830  1.0000
  C   C313      1.0  0.26085  0.14507  0.48233  1.0000
  C   C314      1.0  0.45412  0.47475  0.28162  1.0000
  C   C315      1.0  0.14406  0.29784  0.27025  1.0000
  H   H244      1.0  0.22322  0.19275  0.49124  1.0000
  H   H245      1.0  0.15746  0.28310  0.45126  1.0000
  C   C316      1.0  0.39845  0.43347  0.29151  1.0000
  H   H246      1.0  0.38771  0.39270  0.30156  1.0000
  C   C317      1.0  0.98031  0.40103  0.28376  1.0000
  C   C318      1.0  0.34843  0.42488  0.30587  1.0000
  C   C319      1.0  0.39965  0.12534  0.46172  1.0000
  C   C320      1.0  0.35702  0.40472  0.30764  1.0000
  C   C321      1.0  0.38966  0.45365  0.28989  1.0000
  H   H247      1.0  0.32878  0.42120  0.31096  1.0000
  C   C322      1.0  0.23084  0.17227  0.26228  1.0000
  C   C323      1.0  0.25581  0.10241  0.32921  1.0000
  C   C324      1.0  0.43355  0.39083  0.28938  1.0000
  H   H248      1.0  0.21574  0.17416  0.25264  1.0000
  H   H249      1.0  0.26414  0.01147  0.45225  1.0000
  H   H250      1.0  0.47599  0.37840  0.32037  1.0000
  C   C325      1.0  0.36474  0.44932  0.29700  1.0000
  C   C326      1.0  0.31713  0.03879  0.42278  1.0000
  C   C327      1.0  0.27813  0.01251  0.44158  1.0000
  C   C328      1.0  0.46665  0.43307  0.30726  1.0000
  H   H251      1.0  0.23342  0.28729  0.49085  1.0000
  C   C329      1.0  0.01301  0.18113  0.36082  1.0000
  H   H252      1.0  0.42175  0.13831  0.46448  1.0000
  H   H253      1.0  0.39196  0.15939  0.45505  1.0000
  C   C330      1.0  0.12823  0.27227  0.47306  1.0000
  C   C331      1.0  0.15448  0.28109  0.46654  1.0000
  C   C332      1.0  0.15057  0.15289  0.48592  1.0000
  H   H254      1.0  0.99816  0.13715  0.35783  1.0000
  H   H255      1.0  0.07874  0.14368  0.48485  1.0000
  C   C333      1.0  0.04625  0.15458  0.48937  1.0000
  C   C334      1.0  0.14063  0.21189  0.48147  1.0000
  H   H256      1.0  0.32503  0.06561  0.48951  1.0000
  H   H257      1.0  0.28570  0.16658  0.29658  1.0000
  H   H258      1.0  0.40150  0.47234  0.28247  1.0000
  H   H259      1.0  0.04433  0.27362  0.49713  1.0000
  H   H260      1.0  0.03439  0.14111  0.33639  1.0000
  H   H261      1.0  0.14978  0.07034  0.47941  1.0000
  S   S42       1.0  0.03590  0.45860  0.25617  1.0000
  H   H262      1.0  0.28980  0.13888  0.37095  1.0000
  C   C335      1.0  0.11245  0.20076  0.48416  1.0000
  C   C336      1.0  0.03389  0.15958  0.34173  1.0000
  C   C337      1.0  0.13944  0.14941  0.46690  1.0000
  H   H263      1.0  0.99724  0.17932  0.37027  1.0000
  H   H264      1.0  0.25990  0.13030  0.49274  1.0000
  C   C338      1.0  0.06105  0.13990  0.49285  1.0000
  H   H265      1.0  0.97959  0.33531  0.34725  1.0000
  C   C339      1.0  0.27071  0.10872  0.34712  1.0000
  C   C340      1.0  0.01624  0.29971  0.32180  1.0000
  H   H266      1.0  0.40097  0.08752  0.46750  1.0000
  H   H267      1.0  0.27565  0.46165  0.31151  1.0000
  C   C341      1.0  0.31209  0.01441  0.41251  1.0000
  C   C342      1.0  0.00473  0.13911  0.41503  1.0000
  C   C343      1.0  0.17676  0.28642  0.47965  1.0000
  H   H268      1.0  0.28963  0.16636  0.26140  1.0000
  H   H269      1.0  0.99276  0.42319  0.28679  1.0000
  H   H270      1.0  0.41621  0.37987  0.27881  1.0000
  C   C344      1.0  0.16984  0.14376  0.49083  1.0000
  S   S43       1.0  0.32486  0.38459  0.25345  1.0000
  H   H271      1.0  0.99282  0.12986  0.40146  1.0000
  C   C345      1.0  0.00360  0.28949  0.33907  1.0000
  P   P13       1.0  0.42951  0.43828  0.28075  1.0000
  C   C346      1.0  0.25285  0.17007  0.25479  1.0000
  C   C347      1.0  0.12433  0.26901  0.49272  1.0000
  H   H272      1.0  0.23110  0.42626  0.26255  1.0000
  H   H273      1.0  0.23028  0.46071  0.31369  1.0000
  C   C348      1.0  0.16575  0.41914  0.25789  1.0000
  C   C349      1.0  0.29022  0.98908  0.41684  1.0000
  H   H274      1.0  0.13207  0.02453  0.46222  1.0000
  H   H275      1.0  0.27551  0.09354  0.35357  1.0000
  C   C350      1.0  0.16163  0.30918  0.25544  1.0000
  S   S44       1.0  0.98933  0.22743  0.38481  1.0000
  H   H276      1.0  0.43648  0.35403  0.29594  1.0000
  C   C351      1.0  0.44494  0.37611  0.29909  1.0000
  Fe  Fe20      1.0  0.05087  0.42526  0.25336  1.0000
  C   C352      1.0  0.01353  0.15732  0.35382  1.0000
  C   C353      1.0  0.04743  0.25635  0.49241  1.0000
  H   H277      1.0  0.10558  0.19634  0.49849  1.0000
  C   C354      1.0  0.46717  0.38982  0.31285  1.0000
  C   C355      1.0  0.05231  0.21581  0.49976  1.0000
  H   H278      1.0  0.01038  0.15864  0.49645  1.0000
  C   C356      1.0  0.47129  0.48609  0.26649  1.0000
  H   H279      1.0  0.00328  0.27120  0.34481  1.0000
  H   H280      1.0  0.14470  0.16310  0.49685  1.0000
  C   C357      1.0  0.27338  0.98813  0.43145  1.0000
  C   C358      1.0  0.17291  0.28315  0.49934  1.0000
  H   H281      1.0  0.17761  0.99022  0.48836  1.0000
  C   C359      1.0  0.02255  0.14810  0.49929  1.0000
  H   H282      1.0  0.98695  0.32288  0.26139  1.0000
  H   H283      1.0  0.47535  0.45507  0.31068  1.0000
  S   S45       1.0  0.97960  0.21174  0.43031  1.0000
  H   H284      1.0  0.97893  0.15676  0.42297  1.0000
  C   C360      1.0  0.47800  0.41828  0.31694  1.0000
  H   H285      1.0  0.38343  0.42973  0.25304  1.0000
  H   H286      1.0  0.45596  0.41841  0.25338  1.0000
  H   H287      1.0  0.46958  0.47355  0.25376  1.0000
  Fe  Fe21      1.0  0.98812  0.23653  0.57233  1.0000
  C   C361      1.0  0.01753  0.35833  0.72019  1.0000
  S   S46       1.0  0.98717  0.22480  0.62786  1.0000
  C   C362      1.0  0.98302  0.22513  0.50216  1.0000
  C   C363      1.0  0.97905  0.23681  0.51908  1.0000
  H   H288      1.0  0.00181  0.31762  0.61081  1.0000
  C   C364      1.0  0.98912  0.35407  0.69126  1.0000
  C   C365      1.0  0.99492  0.35963  0.71114  1.0000
  C   C366      1.0  0.00578  0.34702  0.68039  1.0000
  C   C367      1.0  0.04106  0.35475  0.61209  1.0000
  S   S47       1.0  0.45913  0.40741  0.74650  1.0000
  S   S48       1.0  0.99715  0.23623  0.54075  1.0000
  Fe  Fe22      1.0  0.38322  0.10769  0.74727  1.0000
  H   H289      1.0  0.99674  0.12376  0.52116  1.0000
  C   C368      1.0  0.16825  0.22285  0.73246  1.0000
  C   C369      1.0  0.02367  0.32504  0.63870  1.0000
  H   H290      1.0  0.99446  0.21368  0.50291  1.0000
  H   H291      1.0  0.02151  0.36194  0.73569  1.0000
  C   C370      1.0  0.29049  0.05457  0.50657  1.0000
  C   C371      1.0  0.39037  0.22335  0.74804  1.0000
  C   C372      1.0  0.47743  0.45416  0.62787  1.0000
  H   H292      1.0  0.46701  0.38279  0.71023  1.0000
  H   H293      1.0  0.16249  0.39854  0.70463  1.0000
  H   H294      1.0  0.30422  0.00562  0.74062  1.0000
  H   H295      1.0  0.20243  0.02597  0.73707  1.0000
  C   C373      1.0  0.00260  0.15631  0.56246  1.0000
  C   C374      1.0  0.22378  0.10406  0.65109  1.0000
  C   C375      1.0  0.30154  0.17709  0.74456  1.0000
  H   H296      1.0  0.13130  0.41968  0.70478  1.0000
  S   S49       1.0  0.37307  0.14297  0.74262  1.0000
  H   H297      1.0  0.47493  0.43860  0.61691  1.0000
  C   C376      1.0  0.26289  0.04868  0.50687  1.0000
  C   C377      1.0  0.00192  0.17061  0.54626  1.0000
  H   H298      1.0  0.20043  0.02747  0.67534  1.0000
  C   C378      1.0  0.02864  0.34576  0.68934  1.0000
  H   H299      1.0  0.14885  0.07317  0.57641  1.0000
  H   H300      1.0  0.27777  0.31289  0.74718  1.0000
  H   H301      1.0  0.18800  0.07271  0.50803  1.0000
  C   C379      1.0  0.16960  0.24210  0.69545  1.0000
  C   C380      1.0  0.03437  0.35147  0.70936  1.0000
  H   H302      1.0  0.19029  0.28655  0.50916  1.0000
  H   H303      1.0  0.47607  0.06482  0.72603  1.0000
  H   H304      1.0  0.19587  0.24063  0.65188  1.0000
  C   C381      1.0  0.46240  0.47235  0.70071  1.0000
  H   H305      1.0  0.17848  0.14714  0.50559  1.0000
  H   H306      1.0  0.12721  0.27559  0.62180  1.0000
  H   H307      1.0  0.32000  0.30940  0.74135  1.0000
  C   C382      1.0  0.28650  0.21914  0.74210  1.0000
  Fe  Fe23      1.0  0.22242  0.98964  0.60873  1.0000
  H   H308      1.0  0.45046  0.45547  0.69012  1.0000
  H   H309      1.0  0.29158  0.99491  0.63415  1.0000
  C   C383      1.0  0.05311  0.12009  0.50677  1.0000
  H   H310      1.0  0.17238  0.19815  0.53468  1.0000
  Fe  Fe24      1.0  0.18249  0.00119  0.58304  1.0000
  Fe  Fe25      1.0  0.22743  0.22095  0.56231  1.0000
  H   H311      1.0  0.33249  0.00440  0.65630  1.0000
  H   H312      1.0  0.24168  0.10951  0.61020  1.0000
  H   H313      1.0  0.47032  0.42820  0.70521  1.0000
  C   C384      1.0  0.20428  0.19385  0.68463  1.0000
  C   C385      1.0  0.45241  0.22466  0.65928  1.0000
  Fe  Fe26      1.0  0.42794  0.35992  0.74549  1.0000
  C   C386      1.0  0.46279  0.17804  0.74112  1.0000
  C   C387      1.0  0.11675  0.25589  0.61365  1.0000
  C   C388      1.0  0.40873  0.01194  0.71609  1.0000
  H   H314      1.0  0.07950  0.18544  0.58442  1.0000
  C   C389      1.0  0.20847  0.11765  0.50808  1.0000
  C   C390      1.0  0.37734  0.19465  0.74377  1.0000
  H   H315      1.0  0.43733  0.02659  0.74113  1.0000
  C   C391      1.0  0.18087  0.06337  0.58634  1.0000
  C   C392      1.0  0.07455  0.21730  0.59973  1.0000
  Fe  Fe27      1.0  0.21987  0.18671  0.59796  1.0000
  H   H316      1.0  0.12601  0.15957  0.53967  1.0000
  H   H317      1.0  0.02247  0.29717  0.70564  1.0000
  C   C393      1.0  0.01960  0.25835  0.69643  1.0000
  H   H318      1.0  0.05446  0.28756  0.55754  1.0000
  C   C394      1.0  0.02687  0.28623  0.69436  1.0000
  Fe  Fe28      1.0  0.02359  0.24230  0.60944  1.0000
  C   C395      1.0  0.04938  0.23870  0.50587  1.0000
  C   C396      1.0  0.22862  0.22800  0.50890  1.0000
  C   C397      1.0  0.30611  0.26678  0.64265  1.0000
  C   C398      1.0  0.41932  0.00908  0.73411  1.0000
  C   C399      1.0  0.45691  0.20951  0.67378  1.0000
  H   H319      1.0  0.38052  0.23531  0.74318  1.0000
  C   C400      1.0  0.32628  0.26834  0.65681  1.0000
  C   C401      1.0  0.20963  0.11914  0.60057  1.0000
  C   C402      1.0  0.14110  0.38660  0.69911  1.0000
  S   S50       1.0  0.25681  0.22222  0.58684  1.0000
  H   H320      1.0  0.00968  0.24822  0.70911  1.0000
  H   H321      1.0  0.14479  0.35018  0.69158  1.0000
  H   H322      1.0  0.25583  0.99296  0.73173  1.0000
  C   C403      1.0  0.20367  0.01735  0.72320  1.0000
  C   C404      1.0  0.02502  0.24359  0.68215  1.0000
  C   C405      1.0  0.09000  0.20519  0.59251  1.0000
  C   C406      1.0  0.14673  0.27513  0.50612  1.0000
  C   C407      1.0  0.15843  0.22882  0.53349  1.0000
  C   C408      1.0  0.29176  0.09058  0.63966  1.0000
  H   H323      1.0  0.19847  0.27145  0.62606  1.0000
  C   C409      1.0  0.13112  0.35935  0.69180  1.0000
  H   H324      1.0  0.03858  0.35924  0.59725  1.0000
  C   C410      1.0  0.08781  0.24271  0.61036  1.0000
  C   C411      1.0  0.27864  0.02572  0.67233  1.0000
  C   C412      1.0  0.14602  0.23401  0.70567  1.0000
  H   H325      1.0  0.04174  0.24519  0.65467  1.0000
  C   C413      1.0  0.23103  0.25458  0.50865  1.0000
  C   C414      1.0  0.32151  0.02366  0.67924  1.0000
  S   S51       1.0  0.22830  0.01717  0.58379  1.0000
  S   S52       1.0  0.16226  0.02834  0.57778  1.0000
  H   H326      1.0  0.20279  0.29682  0.59097  1.0000
  H   H327      1.0  0.05145  0.34999  0.71670  1.0000
  H   H328      1.0  0.32014  0.27989  0.71407  1.0000
  C   C415      1.0  0.10351  0.34388  0.68470  1.0000
  H   H329      1.0  0.11730  0.30437  0.51823  1.0000
  H   H330      1.0  0.28118  0.23580  0.74127  1.0000
  S   S53       1.0  0.40583  0.09291  0.72790  1.0000
  C   C416      1.0  0.32592  0.30758  0.67302  1.0000
  C   C417      1.0  0.20258  0.01825  0.68846  1.0000
  S   S54       1.0  0.13687  0.20157  0.58652  1.0000
  H   H331      1.0  0.37640  0.07465  0.67027  1.0000
  C   C418      1.0  0.19183  0.23083  0.72225  1.0000
  H   H332      1.0  0.16310  0.26395  0.56945  1.0000
  C   C419      1.0  0.19905  0.09202  0.51657  1.0000
  H   H333      1.0  0.23577  0.28779  0.72513  1.0000
  C   C420      1.0  0.30191  0.03134  0.68489  1.0000
  H   H334      1.0  0.21628  0.15595  0.65059  1.0000
  C   C421      1.0  0.10947  0.21201  0.53643  1.0000
  C   C422      1.0  0.37515  0.10791  0.68654  1.0000
  C   C423      1.0  0.27762  0.29990  0.73513  1.0000
  H   H335      1.0  0.33447  0.25394  0.65576  1.0000
  C   C424      1.0  0.03751  0.25665  0.66574  1.0000
  C   C425      1.0  0.14537  0.22446  0.72418  1.0000
  S   S55       1.0  0.24444  0.00570  0.63901  1.0000
  H   H336      1.0  0.35428  0.23332  0.68335  1.0000
  H   H337      1.0  0.28909  0.21548  0.71148  1.0000
  C   C426      1.0  0.27474  0.01275  0.65387  1.0000
  C   C427      1.0  0.21578  0.32990  0.57145  1.0000
  C   C428      1.0  0.44641  0.17359  0.72400  1.0000
  S   S56       1.0  0.00256  0.20878  0.58640  1.0000
  H   H338      1.0  0.23448  0.26647  0.52208  1.0000
  C   C429      1.0  0.28604  0.10892  0.67839  1.0000
  H   H339      1.0  0.30218  0.17795  0.71364  1.0000
  H   H340      1.0  0.06484  0.10910  0.50959  1.0000
  C   C430      1.0  0.30145  0.29787  0.73194  1.0000
  H   H341      1.0  0.25358  0.31176  0.68816  1.0000
  H   H342      1.0  0.23059  0.16223  0.51355  1.0000
  C   C431      1.0  0.12855  0.18015  0.53764  1.0000
  C   C432      1.0  0.06781  0.36668  0.64288  1.0000
  H   H343      1.0  0.43239  0.15253  0.71893  1.0000
  P   P14       1.0  0.14116  0.26888  0.53135  1.0000
  C   C433      1.0  0.18765  0.31969  0.54136  1.0000
  H   H344      1.0  0.20933  0.22928  0.72881  1.0000
  H   H345      1.0  0.23871  0.16030  0.54845  1.0000
  H   H346      1.0  0.32138  0.09408  0.66291  1.0000
  S   S57       1.0  0.38246  0.34574  0.73695  1.0000
  C   C434      1.0  0.17621  0.28458  0.56480  1.0000
  C   C435      1.0  0.38902  0.23468  0.70005  1.0000
  H   H347      1.0  0.42324  0.23205  0.71396  1.0000
  C   C436      1.0  0.24094  0.30265  0.67488  1.0000
  H   H348      1.0  0.29871  0.25125  0.63089  1.0000
  H   H349      1.0  0.29859  0.32131  0.65928  1.0000
  H   H350      1.0  0.35017  0.19609  0.66025  1.0000
  C   C437      1.0  0.10038  0.26241  0.55608  1.0000
  H   H351      1.0  0.38003  0.14469  0.70170  1.0000
  H   H352      1.0  0.30139  0.05338  0.51965  1.0000
  C   C438      1.0  0.30524  0.19646  0.63286  1.0000
  C   C439      1.0  0.29631  0.19004  0.65138  1.0000
  H   H353      1.0  0.09634  0.32290  0.67896  1.0000
  H   H354      1.0  0.08617  0.38088  0.65162  1.0000
  C   C440      1.0  0.19275  0.24071  0.70371  1.0000
  H   H355      1.0  0.39104  0.25128  0.70990  1.0000
  C   C441      1.0  0.40536  0.20285  0.68914  1.0000
  H   H356      1.0  0.25249  0.04284  0.52012  1.0000
  H   H357      1.0  0.33345  0.32345  0.68460  1.0000
  C   C442      1.0  0.28796  0.16336  0.65761  1.0000
  C   C443      1.0  0.11886  0.21821  0.59590  1.0000
  C   C444      1.0  0.16915  0.08108  0.58376  1.0000
  H   H358      1.0  0.16955  0.24935  0.68113  1.0000
  C   C445      1.0  0.12352  0.39850  0.69920  1.0000
  H   H359      1.0  0.38243  0.17678  0.66375  1.0000
  C   C446      1.0  0.17084  0.29258  0.54671  1.0000
  C   C447      1.0  0.23923  0.08989  0.64920  1.0000
  S   S58       1.0  0.36987  0.28196  0.74359  1.0000
  H   H360      1.0  0.08265  0.39275  0.69205  1.0000
  C   C448      1.0  0.29609  0.28594  0.64329  1.0000
  C   C449      1.0  0.22538  0.06157  0.64374  1.0000
  H   H361      1.0  0.30451  0.04131  0.69900  1.0000
  C   C450      1.0  0.07127  0.28444  0.55270  1.0000
  C   C451      1.0  0.03930  0.29949  0.67784  1.0000
  H   H362      1.0  0.35765  0.18496  0.73550  1.0000
  C   C452      1.0  0.09592  0.38311  0.69208  1.0000
  P   P15       1.0  0.04998  0.33589  0.67559  1.0000
  C   C453      1.0  0.19678  0.04784  0.63946  1.0000
  C   C454      1.0  0.08561  0.35556  0.68495  1.0000
  C   C455      1.0  0.11349  0.27467  0.53947  1.0000
  H   H363      1.0  0.02199  0.16229  0.57077  1.0000
  C   C456      1.0  0.31503  0.06320  0.61881  1.0000
  C   C457      1.0  0.36825  0.22455  0.68506  1.0000
  C   C458      1.0  0.27785  0.26673  0.70403  1.0000
  C   C459      1.0  0.29363  0.06695  0.61017  1.0000
  H   H364      1.0  0.31212  0.18118  0.60607  1.0000
  C   C460      1.0  0.28190  0.08039  0.62056  1.0000
  H   H365      1.0  0.23388  0.12587  0.65514  1.0000
  H   H366      1.0  0.18356  0.10174  0.64730  1.0000
  H   H367      1.0  0.10668  0.24947  0.56422  1.0000
  C   C461      1.0  0.28858  0.14291  0.64534  1.0000
  C   C462      1.0  0.29434  0.00509  0.64821  1.0000
  C   C463      1.0  0.19515  0.09034  0.64681  1.0000
  C   C464      1.0  0.04448  0.28442  0.66348  1.0000
  H   H368      1.0  0.41870  0.03149  0.70922  1.0000
  P   P16       1.0  0.27653  0.10803  0.65307  1.0000
  H   H369      1.0  0.28577  0.05893  0.59552  1.0000
  H   H370      1.0  0.29546  0.20564  0.66077  1.0000
  C   C465      1.0  0.13586  0.23410  0.53425  1.0000
  H   H371      1.0  0.23675  0.05022  0.64237  1.0000
  S   S59       1.0  0.34307  0.06852  0.74176  1.0000
  H   H372      1.0  0.15969  0.05188  0.63674  1.0000
  C   C466      1.0  0.31092  0.13060  0.68667  1.0000
  H   H373      1.0  0.26729  0.06810  0.71686  1.0000
  C   C467      1.0  0.29764  0.14966  0.62678  1.0000
  C   C468      1.0  0.42388  0.14268  0.66966  1.0000
  H   H374      1.0  0.02074  0.18784  0.54206  1.0000
  H   H375      1.0  0.18648  0.02618  0.63452  1.0000
  H   H376      1.0  0.25172  0.06895  0.68303  1.0000
  H   H377      1.0  0.29784  0.13438  0.61680  1.0000
  C   C469      1.0  0.20864  0.26279  0.65448  1.0000
  P   P17       1.0  0.22332  0.25098  0.69065  1.0000
  C   C470      1.0  0.08521  0.29792  0.53681  1.0000
  C   C471      1.0  0.04726  0.34282  0.65052  1.0000
  H   H378      1.0  0.31135  0.21692  0.62782  1.0000
  H   H379      1.0  0.01945  0.22201  0.68372  1.0000
  H   H380      1.0  0.09163  0.21533  0.53674  1.0000
  C   C472      1.0  0.31353  0.08697  0.64816  1.0000
  C   C473      1.0  0.21867  0.17382  0.65908  1.0000
  C   C474      1.0  0.41300  0.15398  0.68290  1.0000
  H   H381      1.0  0.18777  0.14995  0.67832  1.0000
  C   C475      1.0  0.22240  0.22058  0.67918  1.0000
  H   H382      1.0  0.32351  0.05201  0.61094  1.0000
  C   C476      1.0  0.01468  0.12829  0.51322  1.0000
  H   H383      1.0  0.15446  0.25402  0.60892  1.0000
  C   C477      1.0  0.32501  0.07326  0.63776  1.0000
  H   H384      1.0  0.19105  0.19079  0.69626  1.0000
  C   C478      1.0  0.22300  0.14221  0.51973  1.0000
  H   H385      1.0  0.26494  0.08255  0.61372  1.0000
  C   C479      1.0  0.38425  0.19266  0.67417  1.0000
  H   H386      1.0  0.24953  0.20272  0.64174  1.0000
  C   C480      1.0  0.44856  0.19611  0.71360  1.0000
  H   H387      1.0  0.05235  0.20673  0.59731  1.0000
  C   C481      1.0  0.22645  0.30884  0.64268  1.0000
  H   H388      1.0  0.43322  0.22561  0.65761  1.0000
  C   C482      1.0  0.30588  0.17631  0.62059  1.0000
  C   C483      1.0  0.21022  0.33818  0.55362  1.0000
  H   H389      1.0  0.19668  0.07134  0.54302  1.0000
  C   C484      1.0  0.19862  0.30321  0.57710  1.0000
  H   H390      1.0  0.07939  0.31182  0.52946  1.0000
  H   H391      1.0  0.05424  0.20277  0.51048  1.0000
  C   C485      1.0  0.18167  0.06227  0.64083  1.0000
  C   C486      1.0  0.25366  0.26842  0.70719  1.0000
  H   H392      1.0  0.25262  0.24391  0.65913  1.0000
  H   H393      1.0  0.23335  0.34414  0.58092  1.0000
  C   C487      1.0  0.23734  0.20028  0.65400  1.0000
  C   C488      1.0  0.20107  0.02947  0.70631  1.0000
  H   H394      1.0  0.04786  0.24240  0.52103  1.0000
  C   C489      1.0  0.06479  0.37245  0.62368  1.0000
  H   H395      1.0  0.35661  0.09427  0.69340  1.0000
  S   S60       1.0  0.37685  0.03428  0.75003  1.0000
  C   C490      1.0  0.33635  0.28869  0.67212  1.0000
  H   H396      1.0  0.46948  0.25095  0.63574  1.0000
  H   H397      1.0  0.25535  0.34218  0.66222  1.0000
  H   H398      1.0  0.22339  0.35896  0.54933  1.0000
  C   C491      1.0  0.07905  0.26694  0.56243  1.0000
  C   C492      1.0  0.36589  0.20355  0.67211  1.0000
  H   H399      1.0  0.12823  0.23514  0.69919  1.0000
  H   H400      1.0  0.26349  0.03142  0.67696  1.0000
  H   H401      1.0  0.18331  0.32659  0.52777  1.0000
  C   C493      1.0  0.24196  0.32005  0.66021  1.0000
  H   H402      1.0  0.44278  0.15562  0.66305  1.0000
  C   C494      1.0  0.41054  0.11416  0.66502  1.0000
  C   C495      1.0  0.23901  0.22356  0.66386  1.0000
  C   C496      1.0  0.10643  0.29330  0.53032  1.0000
  H   H403      1.0  0.28055  0.15857  0.67185  1.0000
  C   C497      1.0  0.30609  0.30631  0.65861  1.0000
  H   H404      1.0  0.22274  0.11497  0.56309  1.0000
  C   C498      1.0  0.38632  0.09680  0.67355  1.0000
  C   C499      1.0  0.29838  0.18661  0.72659  1.0000
  C   C500      1.0  0.20239  0.17055  0.67453  1.0000
  H   H405      1.0  0.17899  0.24547  0.53174  1.0000
  C   C501      1.0  0.31753  0.01050  0.66083  1.0000
  C   C502      1.0  0.22433  0.27385  0.67208  1.0000
  C   C503      1.0  0.25385  0.28543  0.72271  1.0000
  H   H406      1.0  0.02403  0.09922  0.52794  1.0000
  C   C504      1.0  0.38843  0.13641  0.69120  1.0000
  H   H407      1.0  0.27883  0.25470  0.69185  1.0000
  S   S61       1.0  0.42820  0.32622  0.72618  1.0000
  C   C505      1.0  0.10591  0.18517  0.53829  1.0000
  H   H408      1.0  0.33870  0.14695  0.71212  1.0000
  P   P18       1.0  0.43063  0.19049  0.69004  1.0000
  H   H409      1.0  0.22794  0.32222  0.63109  1.0000
  C   C506      1.0  0.30368  0.10779  0.71679  1.0000
  H   H410      1.0  0.41919  0.10539  0.65505  1.0000
  C   C507      1.0  0.20410  0.09110  0.53639  1.0000
  C   C508      1.0  0.15474  0.20194  0.53505  1.0000
  H   H411      1.0  0.31086  0.10722  0.73151  1.0000
  H   H412      1.0  0.06859  0.25704  0.57502  1.0000
  C   C509      1.0  0.13226  0.24373  0.60640  1.0000
  S   S62       1.0  0.35120  0.02988  0.69451  1.0000
  C   C510      1.0  0.20977  0.28024  0.63984  1.0000
  C   C511      1.0  0.22787  0.14120  0.53952  1.0000
  C   C512      1.0  0.31944  0.13020  0.70586  1.0000
  C   C513      1.0  0.27034  0.08639  0.68940  1.0000
  Fe  Fe29      1.0  0.36603  0.05271  0.72433  1.0000
  S   S63       1.0  0.36223  0.28954  0.68928  1.0000
  H   H413      1.0  0.19781  0.04748  0.70701  1.0000
  S   S64       1.0  0.23207  0.21298  0.53058  1.0000
  H   H414      1.0  0.32408  0.14751  0.67822  1.0000
  Fe  Fe30      1.0  0.38237  0.31072  0.71917  1.0000
  H   H415      1.0  0.08077  0.39073  0.61780  1.0000
  S   S65       1.0  0.27150  0.28531  0.62512  1.0000
  S   S66       1.0  0.20759  0.21321  0.61585  1.0000
  C   C514      1.0  0.40746  0.22383  0.70217  1.0000
  Fe  Fe31      1.0  0.24351  0.24888  0.60369  1.0000
  S   S67       1.0  0.01113  0.27134  0.59489  1.0000
  C   C515      1.0  0.30153  0.28125  0.71649  1.0000
  C   C516      1.0  0.27915  0.08583  0.70855  1.0000
  S   S68       1.0  0.19164  0.18338  0.57264  1.0000
  H   H416      1.0  0.05424  0.29410  0.65062  1.0000
  Fe  Fe32      1.0  0.18256  0.21347  0.58935  1.0000
  C   C517      1.0  0.21864  0.11568  0.54781  1.0000
  H   H417      1.0  0.34107  0.06965  0.64458  1.0000
  S   S69       1.0  0.21723  0.25115  0.57797  1.0000
  C   C518      1.0  0.03006  0.11445  0.51706  1.0000
  C   C519      1.0  0.18352  0.10895  0.59082  1.0000
  H   H418      1.0  0.17424  0.12239  0.58897  1.0000
  C   C520      1.0  0.22146  0.10157  0.60282  1.0000
  C   C521      1.0  0.29098  0.20771  0.72536  1.0000
  H   H419      1.0  0.08574  0.16836  0.54069  1.0000
  C   C522      1.0  0.20720  0.07382  0.59573  1.0000
  H   H420      1.0  0.21635  0.06039  0.59786  1.0000
  S   S70       1.0  0.22787  0.15333  0.61066  1.0000
  S   S71       1.0  0.06880  0.25840  0.61971  1.0000
  H   H421      1.0  0.30771  0.16110  0.74506  1.0000
  C   C523      1.0  0.46734  0.22314  0.72068  1.0000
  H   H422      1.0  0.45955  0.99210  0.73822  1.0000
  C   C524      1.0  0.20688  0.99509  0.68743  1.0000
  C   C525      1.0  0.38989  0.17867  0.74973  1.0000
  H   H423      1.0  0.12711  0.21830  0.73210  1.0000
  C   C526      1.0  0.29285  0.99012  0.72903  1.0000
  C   C527      1.0  0.02044  0.33120  0.61967  1.0000
  H   H424      1.0  0.46989  0.24083  0.71272  1.0000
  H   H425      1.0  0.00751  0.30662  0.64428  1.0000
  C   C528      1.0  0.47300  0.23914  0.64681  1.0000
  H   H426      1.0  0.42624  0.46916  0.71346  1.0000
  C   C529      1.0  0.38473  0.98999  0.70726  1.0000
  H   H427      1.0  0.46101  0.16050  0.74902  1.0000
  C   C530      1.0  0.44859  0.48018  0.71383  1.0000
  H   H428      1.0  0.37628  0.99248  0.69345  1.0000
  H   H429      1.0  0.45875  0.47289  0.60959  1.0000
  H   H430      1.0  0.19379  0.98801  0.52196  1.0000
  C   C531      1.0  0.20764  0.99396  0.72223  1.0000
  C   C532      1.0  0.46830  0.47347  0.62374  1.0000
  H   H431      1.0  0.98037  0.45995  0.66125  1.0000
  H   H432      1.0  0.16775  0.21543  0.74681  1.0000
  H   H433      1.0  0.00017  0.34192  0.66516  1.0000
  H   H434      1.0  0.98124  0.36390  0.71962  1.0000
  H   H435      1.0  0.20824  0.98710  0.67337  1.0000
  Fe  Fe33      1.0  0.02587  0.22335  0.90454  1.0000
  S   S72       1.0  0.02287  0.26291  0.90659  1.0000
  S   S73       1.0  0.05970  0.21052  0.90833  1.0000
  Fe  Fe34      1.0  0.20996  0.24326  0.88810  1.0000
  S   S74       1.0  0.25293  0.26556  0.90307  1.0000
  S   S75       1.0  0.18390  0.26527  0.88474  1.0000
  Fe  Fe35      1.0  0.21387  0.19056  0.88045  1.0000
  S   S76       1.0  0.25641  0.20879  0.89491  1.0000
  S   S77       1.0  0.19237  0.14690  0.86695  1.0000
  Fe  Fe36      1.0  0.24017  0.22567  0.91796  1.0000
  S   S78       1.0  0.24901  0.21814  0.94918  1.0000
  Fe  Fe37      1.0  0.26523  0.24667  0.87853  1.0000
  S   S79       1.0  0.30673  0.26528  0.86454  1.0000
  S   S80       1.0  0.19683  0.20470  0.90432  1.0000
  S   S81       1.0  0.22318  0.22728  0.86267  1.0000
  Fe  Fe38      1.0  0.20238  0.01863  0.90695  1.0000
  S   S82       1.0  0.20886  0.06062  0.91777  1.0000
  S   S83       1.0  0.23779  0.01113  0.91637  1.0000
  C   C533      1.0  0.13734  0.18338  0.85658  1.0000
  S   S84       1.0  0.39553  0.09330  0.77438  1.0000
  H   H436      1.0  0.26939  0.05187  0.95079  1.0000
  H   H437      1.0  0.07313  0.26378  0.93982  1.0000
  Fe  Fe39      1.0  0.35603  0.05317  0.76806  1.0000
  S   S85       1.0  0.31808  0.03032  0.78601  1.0000
  C   C534      1.0  0.45603  0.99552  0.76899  1.0000
  C   C535      1.0  0.30483  0.10423  0.88139  1.0000
  H   H438      1.0  0.05130  0.28002  0.96375  1.0000
  Fe  Fe40      1.0  0.37271  0.31753  0.76194  1.0000
  S   S86       1.0  0.41757  0.33391  0.77170  1.0000
  S   S87       1.0  0.33585  0.30853  0.77987  1.0000
  C   C536      1.0  0.27301  0.19928  0.83147  1.0000
  C   C537      1.0  0.13518  0.15884  0.97871  1.0000
  C   C538      1.0  0.23459  0.06779  0.98365  1.0000
  H   H439      1.0  0.39822  0.16477  0.83769  1.0000
  C   C539      1.0  0.24455  0.18470  0.82687  1.0000
  H   H440      1.0  0.30264  0.05748  0.92316  1.0000
  H   H441      1.0  0.11097  0.11536  0.96987  1.0000
  H   H442      1.0  0.01026  0.14592  0.96702  1.0000
  H   H443      1.0  0.08379  0.14459  0.98939  1.0000
  H   H444      1.0  0.04287  0.27268  0.84765  1.0000
  H   H445      1.0  0.26607  0.14468  0.84673  1.0000
  C   C540      1.0  0.32870  0.20799  0.86420  1.0000
  H   H446      1.0  0.32662  0.23323  0.88761  1.0000
  C   C541      1.0  0.23416  0.99137  0.98215  1.0000
  H   H447      1.0  0.41722  0.25332  0.80761  1.0000
  H   H448      1.0  0.21284  0.15752  0.00017  1.0000
  C   C542      1.0  0.30600  0.02625  0.80984  1.0000
  C   C543      1.0  0.36972  0.12778  0.82092  1.0000
  C   C544      1.0  0.20348  0.14489  0.97000  1.0000
  H   H449      1.0  0.20459  0.16427  0.96578  1.0000
  H   H450      1.0  0.30816  0.07816  0.97539  1.0000
  C   C545      1.0  0.19814  0.12297  0.88042  1.0000
  C   C546      1.0  0.21395  0.13138  0.89803  1.0000
  C   C547      1.0  0.21769  0.11210  0.90898  1.0000
  C   C548      1.0  0.20567  0.08422  0.90245  1.0000
  C   C549      1.0  0.19034  0.07576  0.88463  1.0000
  C   C550      1.0  0.18640  0.09511  0.87371  1.0000
  H   H451      1.0  0.22288  0.15264  0.90349  1.0000
  H   H452      1.0  0.22975  0.11877  0.92268  1.0000
  H   H453      1.0  0.18094  0.05424  0.87954  1.0000
  H   H454      1.0  0.17401  0.08842  0.86015  1.0000
  C   C551      1.0  0.31352  0.27490  0.84033  1.0000
  C   C552      1.0  0.33945  0.28099  0.83372  1.0000
  C   C553      1.0  0.34633  0.29028  0.81502  1.0000
  C   C554      1.0  0.32745  0.29403  0.80279  1.0000
  C   C555      1.0  0.30131  0.28732  0.80924  1.0000
  C   C556      1.0  0.29428  0.27761  0.82781  1.0000
  H   H455      1.0  0.35452  0.27898  0.84326  1.0000
  H   H456      1.0  0.36653  0.29541  0.81033  1.0000
  H   H457      1.0  0.28653  0.29014  0.79995  1.0000
  H   H458      1.0  0.27429  0.27306  0.83265  1.0000
  C   C557      1.0  0.36973  0.00473  0.79654  1.0000
  C   C558      1.0  0.23650  0.22522  0.97055  1.0000
  C   C559      1.0  0.24057  0.21434  0.98780  1.0000
  H   H459      1.0  0.11373  0.00800  0.94650  1.0000
  H   H460      1.0  0.25073  0.20158  0.98768  1.0000
  S   S88       1.0  0.19754  0.00109  0.87669  1.0000
  C   C560      1.0  0.41635  0.04258  0.80109  1.0000
  C   C561      1.0  0.28115  0.18222  0.80123  1.0000
  C   C562      1.0  0.09426  0.22655  0.90190  1.0000
  C   C563      1.0  0.10767  0.21029  0.90032  1.0000
  C   C564      1.0  0.13514  0.22198  0.89525  1.0000
  C   C565      1.0  0.14941  0.25001  0.89146  1.0000
  C   C566      1.0  0.13598  0.26629  0.89296  1.0000
  C   C567      1.0  0.10857  0.25469  0.89835  1.0000
  H   H461      1.0  0.09670  0.18842  0.90276  1.0000
  H   H462      1.0  0.14516  0.20921  0.89411  1.0000
  H   H463      1.0  0.14694  0.28804  0.89013  1.0000
  H   H464      1.0  0.09857  0.26747  0.89979  1.0000
  C   C568      1.0  0.08462  0.17734  0.84611  1.0000
  C   C569      1.0  0.05413  0.25455  0.98600  1.0000
  C   C570      1.0  0.29282  0.28915  0.97250  1.0000
  H   H465      1.0  0.22291  0.04551  0.95568  1.0000
  H   H466      1.0  0.01213  0.19254  0.98151  1.0000
  C   C571      1.0  0.15442  0.17787  0.99278  1.0000
  C   C572      1.0  0.41641  0.23655  0.75799  1.0000
  P   P19       1.0  0.12175  0.17007  0.95847  1.0000
  C   C573      1.0  0.08631  0.16198  0.96138  1.0000
  C   C574      1.0  0.14049  0.20723  0.95691  1.0000
  C   C575      1.0  0.15625  0.21926  0.94127  1.0000
  C   C576      1.0  0.16969  0.24802  0.94001  1.0000
  C   C577      1.0  0.16727  0.26499  0.95423  1.0000
  C   C578      1.0  0.28298  0.07890  0.90912  1.0000
  C   C579      1.0  0.13815  0.22445  0.97111  1.0000
  C   C580      1.0  0.07310  0.14962  0.97793  1.0000
  H   H467      1.0  0.08834  0.11025  0.89797  1.0000
  C   C581      1.0  0.03150  0.15056  0.96556  1.0000
  C   C582      1.0  0.04474  0.16349  0.94932  1.0000
  C   C583      1.0  0.07210  0.16942  0.94733  1.0000
  C   C584      1.0  0.12526  0.15256  0.93727  1.0000
  C   C585      1.0  0.10255  0.13632  0.92417  1.0000
  H   H468      1.0  0.32734  0.04128  0.85769  1.0000
  C   C586      1.0  0.31195  0.19093  0.89509  1.0000
  C   C587      1.0  0.30678  0.16437  0.88885  1.0000
  C   C588      1.0  0.15109  0.15443  0.93417  1.0000
  H   H469      1.0  0.21771  0.04203  0.83874  1.0000
  C   C589      1.0  0.32377  0.03772  0.82651  1.0000
  H   H470      1.0  0.44751  0.03693  0.78760  1.0000
  C   C590      1.0  0.27744  0.01050  0.81202  1.0000
  S   S89       1.0  0.99402  0.20208  0.92576  1.0000
  H   H471      1.0  0.15791  0.20663  0.92984  1.0000
  H   H472      1.0  0.18182  0.25715  0.92786  1.0000
  H   H473      1.0  0.29731  0.25786  0.98742  1.0000
  C   C591      1.0  0.17606  0.00761  0.97496  1.0000
  H   H474      1.0  0.26335  0.00148  0.79934  1.0000
  Fe  Fe41      1.0  0.23212  0.99200  0.88618  1.0000
  C   C592      1.0  0.32300  0.21273  0.88282  1.0000
  H   H475      1.0  0.17437  0.14277  0.91548  1.0000
  H   H476      1.0  0.03395  0.16930  0.93833  1.0000
  H   H477      1.0  0.08220  0.17996  0.93483  1.0000
  H   H478      1.0  0.08227  0.13397  0.92628  1.0000
  H   H479      1.0  0.07859  0.26674  0.86706  1.0000
  H   H480      1.0  0.15312  0.22371  0.84510  1.0000
  C   C593      1.0  0.38367  0.21196  0.80938  1.0000
  H   H481      1.0  0.16893  0.16698  0.94401  1.0000
  H   H482      1.0  0.26636  0.09979  0.89153  1.0000
  C   C594      1.0  0.47071  0.00238  0.78715  1.0000
  H   H483      1.0  0.45356  0.42353  0.78420  1.0000
  H   H484      1.0  0.42462  0.17929  0.76585  1.0000
  C   C595      1.0  0.13502  0.12113  0.99656  1.0000
  H   H485      1.0  0.40582  0.40884  0.77166  1.0000
  C   C596      1.0  0.41516  0.19152  0.76072  1.0000
  H   H486      1.0  0.30233  0.35052  0.99235  1.0000
  C   C597      1.0  0.26596  0.06079  0.96374  1.0000
  C   C598      1.0  0.44198  0.39541  0.80741  1.0000
  C   C599      1.0  0.26686  0.00580  0.83048  1.0000
  H   H487      1.0  0.29088  0.06893  0.78234  1.0000
  Fe  Fe42      1.0  0.41607  0.07558  0.75447  1.0000
  H   H488      1.0  0.98158  0.07987  0.85683  1.0000
  C   C600      1.0  0.02740  0.13869  0.77521  1.0000
  C   C601      1.0  0.40744  0.00052  0.78281  1.0000
  C   C602      1.0  0.41965  0.37416  0.81586  1.0000
  C   C603      1.0  0.39252  0.36622  0.80884  1.0000
  C   C604      1.0  0.38749  0.37885  0.79302  1.0000
  C   C605      1.0  0.40961  0.39967  0.78434  1.0000
  C   C606      1.0  0.43674  0.40798  0.79153  1.0000
  C   C607      1.0  0.13103  0.00788  0.95460  1.0000
  C   C608      1.0  0.29742  0.18871  0.76151  1.0000
  H   H489      1.0  0.24525  0.00320  0.97040  1.0000
  S   S90       1.0  0.99487  0.20702  0.87907  1.0000
  S   S91       1.0  0.27315  0.00944  0.87103  1.0000
  C   C609      1.0  0.05515  0.15282  0.78216  1.0000
  C   C610      1.0  0.28476  0.01650  0.84717  1.0000
  H   H490      1.0  0.10700  0.21810  0.83494  1.0000
  C   C611      1.0  0.19717  0.09912  0.96130  1.0000
  Fe  Fe43      1.0  0.98911  0.24040  0.92671  1.0000
  H   H491      1.0  0.08389  0.17418  0.80637  1.0000
  C   C612      1.0  0.34271  0.10613  0.81862  1.0000
  C   C613      1.0  0.20817  0.14109  0.98935  1.0000
  H   H492      1.0  0.38502  0.12831  0.81150  1.0000
  C   C614      1.0  0.42589  0.02728  0.79044  1.0000
  H   H493      1.0  0.43067  0.06355  0.80641  1.0000
  H   H494      1.0  0.42314  0.36329  0.82759  1.0000
  H   H495      1.0  0.37530  0.34970  0.81527  1.0000
  H   H496      1.0  0.36645  0.37193  0.78722  1.0000
  P   P20       1.0  0.20051  0.06300  0.98755  1.0000
  H   H497      1.0  0.44793  0.41309  0.84678  1.0000
  H   H498      1.0  0.03561  0.13433  0.99271  1.0000
  C   C615      1.0  0.17438  0.03234  0.97424  1.0000
  C   C616      1.0  0.30160  0.33043  0.99136  1.0000
  C   C617      1.0  0.28776  0.07559  0.97762  1.0000
  H   H499      1.0  0.20627  0.26176  0.98885  1.0000
  H   H500      1.0  0.99291  0.14863  0.89409  1.0000
  C   C618      1.0  0.13174  0.12490  0.90500  1.0000
  C   C619      1.0  0.01377  0.14530  0.80663  1.0000
  C   C620      1.0  0.01872  0.15877  0.87022  1.0000
  C   C621      1.0  0.02530  0.14885  0.85361  1.0000
  H   H501      1.0  0.01777  0.11188  0.83675  1.0000
  P   P21       1.0  0.05065  0.17287  0.83856  1.0000
  C   C622      1.0  0.08746  0.15620  0.85537  1.0000
  C   C623      1.0  0.04162  0.15950  0.81375  1.0000
  H   H502      1.0  0.01081  0.23562  0.82403  1.0000
  C   C624      1.0  0.98472  0.11222  0.87659  1.0000
  C   C625      1.0  0.15150  0.25320  0.96981  1.0000
  Fe  Fe44      1.0  0.41512  0.29960  0.75175  1.0000
  H   H503      1.0  0.99746  0.14229  0.81589  1.0000
  C   C626      1.0  0.38831  0.03130  0.80417  1.0000
  C   C627      1.0  0.00673  0.13496  0.78744  1.0000
  H   H504      1.0  0.33037  0.10669  0.76773  1.0000
  H   H505      1.0  0.02909  0.18062  0.87435  1.0000
  C   C628      1.0  0.06227  0.16324  0.80133  1.0000
  H   H506      1.0  0.11593  0.14294  0.86761  1.0000
  H   H507      1.0  0.06949  0.13737  0.85864  1.0000
  C   C629      1.0  0.31324  0.03273  0.84496  1.0000
  C   C630      1.0  0.22375  0.24208  0.97100  1.0000
  H   H508      1.0  0.34020  0.07261  0.90096  1.0000
  C   C631      1.0  0.15139  0.03220  0.96434  1.0000
  C   C632      1.0  0.98433  0.25315  0.97856  1.0000
  C   C633      1.0  0.04488  0.25406  0.84548  1.0000
  H   H509      1.0  0.33725  0.08974  0.80758  1.0000
  H   H510      1.0  0.28659  0.27713  0.95884  1.0000
  H   H511      1.0  0.26318  0.12626  0.80058  1.0000
  C   C634      1.0  0.01234  0.12016  0.84911  1.0000
  H   H512      1.0  0.30219  0.08795  0.82883  1.0000
  C   C635      1.0  0.04576  0.14390  0.97996  1.0000
  C   C636      1.0  0.00340  0.18339  0.99474  1.0000
  H   H513      1.0  0.07119  0.15573  0.77268  1.0000
  C   C637      1.0  0.32558  0.09630  0.88419  1.0000
  C   C638      1.0  0.15426  0.14070  0.91808  1.0000
  C   C639      1.0  0.10586  0.12262  0.90808  1.0000
  C   C640      1.0  0.12570  0.13038  0.98064  1.0000
  C   C641      1.0  0.33987  0.20276  0.79286  1.0000
  H   H514      1.0  0.23044  0.18527  0.83697  1.0000
  H   H515      1.0  0.36358  0.16321  0.85944  1.0000
  H   H516      1.0  0.47010  0.35027  0.82848  1.0000
  H   H517      1.0  0.19523  0.12722  0.94095  1.0000
  C   C642      1.0  0.42853  0.22045  0.76466  1.0000
  H   H518      1.0  0.34568  0.05018  0.82529  1.0000
  H   H519      1.0  0.12605  0.21551  0.98321  1.0000
  C   C643      1.0  0.07429  0.22535  0.97722  1.0000
  C   C644      1.0  0.07869  0.23626  0.95900  1.0000
  C   C645      1.0  0.31266  0.15936  0.87019  1.0000
  C   C646      1.0  0.05827  0.26517  0.96768  1.0000
  H   H520      1.0  0.34787  0.99639  0.79853  1.0000
  H   H521      1.0  0.17757  0.28725  0.95310  1.0000
  C   C647      1.0  0.27443  0.09551  0.79207  1.0000
  H   H522      1.0  0.26631  0.07208  0.91863  1.0000
  H   H523      1.0  0.28852  0.32313  0.96105  1.0000
  H   H524      1.0  0.30693  0.19454  0.90939  1.0000
  H   H525      1.0  0.13453  0.11457  0.89246  1.0000
  C   C648      1.0  0.11373  0.15922  0.86049  1.0000
  H   H526      1.0  0.28083  0.21142  0.84502  1.0000
  H   H527      1.0  0.16251  0.19992  0.99166  1.0000
  H   H528      1.0  0.38869  0.26999  0.78932  1.0000
  H   H529      1.0  0.39622  0.20473  0.81738  1.0000
  H   H530      1.0  0.34204  0.10237  0.87460  1.0000
  C   C649      1.0  0.29312  0.08972  0.78271  1.0000
  C   C650      1.0  0.06229  0.23463  0.99098  1.0000
  H   H531      1.0  0.08780  0.22895  0.94834  1.0000
  C   C651      1.0  0.23948  0.05698  0.96668  1.0000
  C   C652      1.0  0.35170  0.23064  0.78813  1.0000
  H   H532      1.0  0.38087  0.04339  0.81208  1.0000
  C   C653      1.0  0.99836  0.14059  0.88155  1.0000
  C   C654      1.0  0.29388  0.31508  0.97374  1.0000
  C   C655      1.0  0.37708  0.14836  0.83561  1.0000
  C   C656      1.0  0.99194  0.10194  0.86050  1.0000
  H   H533      1.0  0.19334  0.06878  0.82942  1.0000
  P   P22       1.0  0.30428  0.17900  0.78509  1.0000
  H   H534      1.0  0.02192  0.13065  0.76035  1.0000
  H   H535      1.0  0.14910  0.05073  0.96404  1.0000
  C   C657      1.0  0.25253  0.16840  0.79640  1.0000
  H   H536      1.0  0.44850  0.23044  0.77264  1.0000
  H   H537      1.0  0.19377  0.08343  0.95018  1.0000
  H   H538      1.0  0.21220  0.15843  0.80569  1.0000
  H   H539      1.0  0.25767  0.07918  0.79902  1.0000
  C   C658      1.0  0.32281  0.10528  0.83070  1.0000
  H   H540      1.0  0.14962  0.26634  0.98086  1.0000
  C   C659      1.0  0.29906  0.27827  0.98888  1.0000
  C   C660      1.0  0.07051  0.25602  0.95418  1.0000
  C   C661      1.0  0.27765  0.12243  0.79285  1.0000
  C   C662      1.0  0.20097  0.09478  0.98077  1.0000
  C   C663      1.0  0.28323  0.09490  0.89376  1.0000
  H   H541      1.0  0.28703  0.21959  0.77291  1.0000
  H   H542      1.0  0.08210  0.22375  0.86317  1.0000
  C   C664      1.0  0.21490  0.07955  0.83469  1.0000
  H   H543      1.0  0.15766  0.18584  0.86089  1.0000
  C   C665      1.0  0.35587  0.19376  0.80404  1.0000
  H   H544      1.0  0.31328  0.21003  0.82240  1.0000
  C   C666      1.0  0.19812  0.12398  0.95599  1.0000
  H   H545      1.0  0.33637  0.15416  0.76901  1.0000
  H   H546      1.0  0.33681  0.22500  0.85470  1.0000
  C   C667      1.0  0.22858  0.06449  0.83996  1.0000
  C   C668      1.0  0.04918  0.20519  0.84054  1.0000
  C   C669      1.0  0.22868  0.10846  0.83699  1.0000
  C   C670      1.0  0.32476  0.07952  0.89924  1.0000
  C   C671      1.0  0.06700  0.22631  0.85409  1.0000
  H   H547      1.0  0.26595  0.06614  0.85222  1.0000
  C   C672      1.0  0.25601  0.07829  0.84761  1.0000
  C   C673      1.0  0.21565  0.24830  0.98860  1.0000
  S   S92       1.0  0.46056  0.08156  0.76269  1.0000
  H   H548      1.0  0.21769  0.12007  0.83373  1.0000
  H   H549      1.0  0.24432  0.15637  0.78284  1.0000
  C   C674      1.0  0.25618  0.12236  0.84454  1.0000
  C   C675      1.0  0.32983  0.12623  0.84521  1.0000
  C   C676      1.0  0.27006  0.10736  0.84994  1.0000
  C   C677      1.0  0.10853  0.20151  0.84211  1.0000
  C   C678      1.0  0.06497  0.25067  0.85644  1.0000
  C   C679      1.0  0.35730  0.14750  0.84781  1.0000
  C   C680      1.0  0.02888  0.20872  0.82965  1.0000
  H   H550      1.0  0.07956  0.20914  0.98034  1.0000
  C   C681      1.0  0.29955  0.14385  0.78409  1.0000
  H   H551      1.0  0.34714  0.17261  0.80834  1.0000
  H   H552      1.0  0.33986  0.23853  0.77999  1.0000
  C   C682      1.0  0.13474  0.20460  0.84754  1.0000
  C   C683      1.0  0.23430  0.16950  0.80925  1.0000
  H   H553      1.0  0.22077  0.25088  0.95791  1.0000
  P   P23       1.0  0.30461  0.12473  0.86149  1.0000
  H   H554      1.0  0.01422  0.19264  0.81954  1.0000
  C   C684      1.0  0.31536  0.11098  0.77445  1.0000
  C   C685      1.0  0.37943  0.24877  0.79361  1.0000
  H   H555      1.0  0.29793  0.14798  0.89866  1.0000
  H   H556      1.0  0.32689  0.17787  0.84310  1.0000
  C   C686      1.0  0.39549  0.23938  0.80402  1.0000
  C   C687      1.0  0.32318  0.18135  0.85778  1.0000
  C   C688      1.0  0.29131  0.19825  0.81866  1.0000
  C   C689      1.0  0.31866  0.13790  0.77520  1.0000
  C   C690      1.0  0.30355  0.07092  0.91175  1.0000
  C   C691      1.0  0.02682  0.23309  0.83211  1.0000
  H   H557      1.0  0.98520  0.12408  0.78206  1.0000
  S   S93       1.0  0.43460  0.27305  0.76178  1.0000
  H   H558      1.0  0.04385  0.26144  0.99590  1.0000
  H   H559      1.0  0.19314  0.00705  0.98303  1.0000
  C   C692      1.0  0.46864  0.41068  0.87311  1.0000
  H   H560      1.0  0.24494  0.99323  0.83182  1.0000
  C   C693      1.0  0.37920  0.98944  0.78576  1.0000
  Fe  Fe45      1.0  0.98848  0.24447  0.88257  1.0000
  C   C694      1.0  0.28969  0.20972  0.76008  1.0000
  S   S94       1.0  0.99318  0.26465  0.95499  1.0000
  H   H561      1.0  0.00594  0.29475  0.99130  1.0000
  H   H562      1.0  0.12760  0.09916  0.99801  1.0000
  C   C695      1.0  0.99320  0.27316  0.99398  1.0000
  H   H563      1.0  0.45504  0.41426  0.88213  1.0000
  C   C696      1.0  0.46452  0.40976  0.85303  1.0000
  C   C697      1.0  0.20718  0.11624  0.99474  1.0000
  C   C698      1.0  0.28318  0.08696  0.99436  1.0000
  C   C699      1.0  0.25674  0.08331  0.99730  1.0000
  H   H564      1.0  0.98534  0.28257  0.81572  1.0000
  C   C700      1.0  0.47657  0.35253  0.81393  1.0000
  H   H565      1.0  0.46005  0.00010  0.80016  1.0000
  C   C701      1.0  0.47029  0.99781  0.75239  1.0000
  S   S95       1.0  0.98668  0.26425  0.85391  1.0000
  H   H566      1.0  0.47490  0.31238  0.81216  1.0000
  P   P24       1.0  0.47693  0.40375  0.81537  1.0000
  H   H567      1.0  0.47732  0.45732  0.81476  1.0000
  C   C702      1.0  0.24260  0.00225  0.00137  1.0000
  C   C703      1.0  0.07155  0.80901  0.14934  1.0000
  H   H568      1.0  0.34826  0.89014  0.19248  1.0000
  H   H569      1.0  0.27406  0.83376  0.15893  1.0000
  H   H570      1.0  0.17280  0.88821  0.09884  1.0000
  Fe  Fe46      1.0  0.28552  0.89283  0.22475  1.0000
  S   S96       1.0  0.26838  0.88996  0.19326  1.0000
  S   S97       1.0  0.29980  0.86142  0.23259  1.0000
  C   C704      1.0  0.15764  0.86280  0.18782  1.0000
  C   C705      1.0  0.19582  0.85699  0.13119  1.0000
  S   S98       1.0  0.32135  0.92756  0.24244  1.0000
  C   C706      1.0  0.45611  0.89176  0.24076  1.0000
  C   C707      1.0  0.09923  0.82485  0.15621  1.0000
  H   H571      1.0  0.21399  0.81433  0.23628  1.0000
  Fe  Fe47      1.0  0.03219  0.66203  0.23181  1.0000
  S   S99       1.0  0.00080  0.66895  0.21277  1.0000
  S   S100      1.0  0.06573  0.65342  0.22196  1.0000
  Fe  Fe48      1.0  0.22070  0.97102  0.11192  1.0000
  S   S101      1.0  0.17651  0.96191  0.11377  1.0000
  C   C708      1.0  0.14724  0.94309  0.18998  1.0000
  P   P25       1.0  0.08577  0.88670  0.00465  1.0000
  C   C709      1.0  0.40958  0.88655  0.23221  1.0000
  C   C710      1.0  0.18399  0.95903  0.16831  1.0000
  Fe  Fe49      1.0  0.16882  0.93912  0.08503  1.0000
  S   S102      1.0  0.13599  0.89621  0.07493  1.0000
  S   S103      1.0  0.21243  0.94598  0.08381  1.0000
  C   C711      1.0  0.13070  0.93830  0.01598  1.0000
  S   S104      1.0  0.01865  0.83746  0.10934  1.0000
  S   S105      1.0  0.01635  0.76796  0.09281  1.0000
  C   C712      1.0  0.16716  0.89572  0.24747  1.0000
  C   C713      1.0  0.02223  0.68062  0.17658  1.0000
  H   H572      1.0  0.17985  0.48735  0.10964  1.0000
  H   H573      1.0  0.06925  0.91500  0.03397  1.0000
  H   H574      1.0  0.03375  0.80952  0.14024  1.0000
  C   C714      1.0  0.16144  0.88165  0.12813  1.0000
  C   C715      1.0  0.10389  0.88070  0.08509  1.0000
  C   C716      1.0  0.09662  0.89488  0.09869  1.0000
  C   C717      1.0  0.07036  0.88163  0.10606  1.0000
  C   C718      1.0  0.05152  0.85414  0.10000  1.0000
  C   C719      1.0  0.05899  0.84026  0.08637  1.0000
  C   C720      1.0  0.08503  0.85340  0.07900  1.0000
  H   H575      1.0  0.11103  0.91607  0.10334  1.0000
  H   H576      1.0  0.06463  0.89269  0.11642  1.0000
  H   H577      1.0  0.04435  0.81977  0.08081  1.0000
  H   H578      1.0  0.09036  0.84242  0.06831  1.0000
  C   C721      1.0  0.00359  0.68160  0.18911  1.0000
  H   H579      1.0  0.03576  0.67235  0.18136  1.0000
  C   C722      1.0  0.98472  0.74920  0.01554  1.0000
  C   C723      1.0  0.16874  0.96478  0.18140  1.0000
  H   H580      1.0  0.43267  0.87420  0.21361  1.0000
  C   C724      1.0  0.00526  0.70037  0.15107  1.0000
  C   C725      1.0  0.19436  0.86676  0.21082  1.0000
  C   C726      1.0  0.05488  0.55002  0.24557  1.0000
  H   H581      1.0  0.25823  0.97387  0.18155  1.0000
  C   C727      1.0  0.14453  0.96724  0.01754  1.0000
  C   C728      1.0  0.17766  0.93163  0.16362  1.0000
  S   S106      1.0  0.00757  0.71213  0.12714  1.0000
  H   H582      1.0  0.28324  0.96978  0.09454  1.0000
  H   H583      1.0  0.14071  0.92722  0.02243  1.0000
  Fe  Fe50      1.0  0.98508  0.75149  0.06735  1.0000
  C   C729      1.0  0.41777  0.49376  0.23568  1.0000
  C   C730      1.0  0.11675  0.86714  0.02589  1.0000
  H   H584      1.0  0.19469  0.70998  0.20979  1.0000
  H   H585      1.0  0.37255  0.74788  0.17716  1.0000
  C   C731      1.0  0.00066  0.69373  0.02563  1.0000
  C   C732      1.0  0.24885  0.94815  0.15549  1.0000
  C   C733      1.0  0.25672  0.95493  0.17530  1.0000
  C   C734      1.0  0.26276  0.93752  0.18711  1.0000
  C   C735      1.0  0.26098  0.91294  0.17924  1.0000
  C   C736      1.0  0.25263  0.90591  0.15951  1.0000
  C   C737      1.0  0.24654  0.92331  0.14771  1.0000
  C   C738      1.0  0.20226  0.79481  0.24281  1.0000
  H   H586      1.0  0.26895  0.94322  0.20226  1.0000
  H   H587      1.0  0.25124  0.88704  0.15322  1.0000
  H   H588      1.0  0.24067  0.91783  0.13253  1.0000
  H   H589      1.0  0.27276  0.79465  0.17667  1.0000
  C   C739      1.0  0.02278  0.68959  0.15765  1.0000
  H   H590      1.0  0.18177  0.83931  0.23416  1.0000
  C   C740      1.0  0.14688  0.83385  0.21536  1.0000
  H   H591      1.0  0.16507  0.97814  0.02476  1.0000
  H   H592      1.0  0.09313  0.48925  0.19625  1.0000
  C   C741      1.0  0.15579  0.90970  0.17190  1.0000
  C   C742      1.0  0.06656  0.85045  0.14848  1.0000
  H   H593      1.0  0.05389  0.86031  0.14512  1.0000
  C   C743      1.0  0.35070  0.77128  0.17194  1.0000
  S   S107      1.0  0.06329  0.58571  0.24185  1.0000
  C   C744      1.0  0.06572  0.51133  0.24076  1.0000
  C   C745      1.0  0.22440  0.92937  0.24877  1.0000
  C   C746      1.0  0.11088  0.85373  0.15905  1.0000
  H   H594      1.0  0.11163  0.81465  0.15907  1.0000
  C   C747      1.0  0.25133  0.77361  0.21265  1.0000
  H   H595      1.0  0.20785  0.75951  0.21469  1.0000
  C   C748      1.0  0.13765  0.85966  0.02875  1.0000
  H   H596      1.0  0.12409  0.89902  0.19203  1.0000
  C   C749      1.0  0.35988  0.75602  0.18319  1.0000
  C   C750      1.0  0.33685  0.76222  0.21014  1.0000
  C   C751      1.0  0.21622  0.72546  0.20973  1.0000
  C   C752      1.0  0.17620  0.77530  0.23438  1.0000
  H   H597      1.0  0.07863  0.50355  0.23476  1.0000
  C   C753      1.0  0.40894  0.89821  0.25023  1.0000
  H   H598      1.0  0.36017  0.73976  0.21104  1.0000
  C   C754      1.0  0.06202  0.87430  0.02351  1.0000
  H   H599      1.0  0.09858  0.75800  0.22767  1.0000
  C   C755      1.0  0.18241  0.85910  0.14717  1.0000
  H   H600      1.0  0.10597  0.86832  0.03816  1.0000
  S   S108      1.0  0.24344  0.97207  0.14113  1.0000
  C   C756      1.0  0.13815  0.84238  0.19875  1.0000
  C   C757      1.0  0.18573  0.87535  0.19425  1.0000
  C   C758      1.0  0.35291  0.75145  0.20228  1.0000
  H   H601      1.0  0.16870  0.68596  0.24244  1.0000
  H   H602      1.0  0.05189  0.75377  0.22050  1.0000
  C   C759      1.0  0.33123  0.84726  0.19914  1.0000
  H   H603      1.0  0.27960  0.73095  0.20470  1.0000
  P   P26       1.0  0.14729  0.87414  0.16616  1.0000
  C   C760      1.0  0.26429  0.73763  0.20692  1.0000
  H   H604      1.0  0.02803  0.72977  0.01170  1.0000
  C   C761      1.0  0.22364  0.75346  0.21254  1.0000
  H   H605      1.0  0.20323  0.86653  0.10150  1.0000
  Fe  Fe51      1.0  0.98662  0.73343  0.10980  1.0000
  H   H606      1.0  0.16650  0.91176  0.21961  1.0000
  C   C762      1.0  0.44500  0.51558  0.23414  1.0000
  C   C763      1.0  0.32217  0.80541  0.23374  1.0000
  C   C764      1.0  0.33463  0.78208  0.17976  1.0000
  H   H607      1.0  0.39232  0.88030  0.22171  1.0000
  H   H608      1.0  0.34699  0.85171  0.21060  1.0000
  H   H609      1.0  0.23078  0.69579  0.20482  1.0000
  C   C765      1.0  0.27192  0.76588  0.20977  1.0000
  C   C766      1.0  0.43273  0.88321  0.22762  1.0000
  C   C767      1.0  0.19246  0.86763  0.11381  1.0000
  C   C768      1.0  0.16526  0.87165  0.14582  1.0000
  H   H610      1.0  0.13184  0.81791  0.22364  1.0000
  H   H611      1.0  0.16812  0.77995  0.22128  1.0000
  C   C769      1.0  0.29011  0.83737  0.17006  1.0000
  H   H612      1.0  0.19066  0.49037  0.17132  1.0000
  C   C770      1.0  0.04808  0.84589  0.02677  1.0000
  C   C771      1.0  0.31130  0.86431  0.17447  1.0000
  C   C772      1.0  0.20789  0.92878  0.23264  1.0000
  H   H613      1.0  0.03691  0.68810  0.14806  1.0000
  H   H614      1.0  0.05159  0.83119  0.01825  1.0000
  H   H615      1.0  0.13424  0.63737  0.23250  1.0000
  C   C773      1.0  0.05804  0.89291  0.03554  1.0000
  H   H616      1.0  0.21618  0.87641  0.21548  1.0000
  H   H617      1.0  0.24665  0.94238  0.24941  1.0000
  H   H618      1.0  0.18561  0.85094  0.16044  1.0000
  C   C774      1.0  0.09447  0.86650  0.15457  1.0000
  H   H619      1.0  0.21730  0.94116  0.22057  1.0000
  C   C775      1.0  0.32768  0.77772  0.19896  1.0000
  H   H620      1.0  0.36464  0.81993  0.22675  1.0000
  C   C776      1.0  0.05515  0.82177  0.14571  1.0000
  H   H621      1.0  0.11627  0.83298  0.19458  1.0000
  H   H622      1.0  0.14798  0.89105  0.12657  1.0000
  H   H623      1.0  0.08830  0.55208  0.22965  1.0000
  P   P27       1.0  0.30763  0.79223  0.20942  1.0000
  C   C777      1.0  0.17531  0.87994  0.11231  1.0000
  C   C778      1.0  0.17499  0.84589  0.22132  1.0000
  C   C779      1.0  0.30950  0.82028  0.19530  1.0000
  C   C780      1.0  0.33202  0.86919  0.18885  1.0000
  C   C781      1.0  0.16123  0.74944  0.24233  1.0000
  H   H624      1.0  0.31139  0.88151  0.16702  1.0000
  H   H625      1.0  0.12660  0.75841  0.20133  1.0000
  C   C782      1.0  0.12041  0.80055  0.11527  1.0000
  C   C783      1.0  0.09472  0.78556  0.10502  1.0000
  C   C784      1.0  0.07612  0.75936  0.11067  1.0000
  C   C785      1.0  0.08281  0.74849  0.12683  1.0000
  C   C786      1.0  0.10829  0.76363  0.13753  1.0000
  C   C787      1.0  0.12730  0.78956  0.13137  1.0000
  P   P28       1.0  0.11539  0.75040  0.15955  1.0000
  C   C788      1.0  0.10386  0.71373  0.15578  1.0000
  C   C789      1.0  0.15200  0.76799  0.16685  1.0000
  C   C790      1.0  0.16832  0.75484  0.16438  1.0000
  C   C791      1.0  0.19648  0.76847  0.17045  1.0000
  C   C792      1.0  0.20855  0.79532  0.17897  1.0000
  C   C793      1.0  0.19251  0.80855  0.18144  1.0000
  C   C794      1.0  0.16433  0.79496  0.17547  1.0000
  C   C795      1.0  0.09489  0.69619  0.17118  1.0000
  C   C796      1.0  0.08532  0.66772  0.16811  1.0000
  C   C797      1.0  0.08480  0.65658  0.14974  1.0000
  C   C798      1.0  0.09420  0.67395  0.13443  1.0000
  C   C799      1.0  0.10387  0.70246  0.13744  1.0000
  C   C800      1.0  0.09654  0.75483  0.17866  1.0000
  C   C801      1.0  0.07013  0.75228  0.17475  1.0000
  C   C802      1.0  0.05449  0.75278  0.18979  1.0000
  H   H626      1.0  0.35628  0.77498  0.15718  1.0000
  C   C803      1.0  0.09101  0.75759  0.21294  1.0000
  C   C804      1.0  0.10690  0.75773  0.19790  1.0000
  H   H627      1.0  0.13474  0.82088  0.11085  1.0000
  H   H628      1.0  0.08912  0.79429  0.09279  1.0000
  H   H629      1.0  0.05615  0.74757  0.10277  1.0000
  H   H630      1.0  0.06772  0.72840  0.13115  1.0000
  H   H631      1.0  0.14719  0.80161  0.13911  1.0000
  H   H632      1.0  0.15937  0.73399  0.15795  1.0000
  H   H633      1.0  0.20889  0.75812  0.16869  1.0000
  H   H634      1.0  0.23030  0.80594  0.18380  1.0000
  H   H635      1.0  0.20209  0.82936  0.18804  1.0000
  H   H636      1.0  0.15209  0.80538  0.17762  1.0000
  H   H637      1.0  0.09488  0.70423  0.18555  1.0000
  H   H638      1.0  0.07789  0.65425  0.17997  1.0000
  H   H639      1.0  0.07693  0.63444  0.14739  1.0000
  H   H640      1.0  0.09368  0.66528  0.12017  1.0000
  H   H641      1.0  0.11101  0.71559  0.12540  1.0000
  H   H642      1.0  0.06078  0.74845  0.16023  1.0000
  H   H643      1.0  0.03373  0.74983  0.18660  1.0000
  C   C805      1.0  0.39911  0.49762  0.24674  1.0000
  C   C806      1.0  0.07118  0.53902  0.23787  1.0000
  H   H644      1.0  0.20924  0.84758  0.13241  1.0000
  Fe  Fe52      1.0  0.99439  0.79150  0.10132  1.0000
  H   H645      1.0  0.14250  0.85502  0.04307  1.0000
  H   H646      1.0  0.20108  0.89169  0.18635  1.0000
  S   S109      1.0  0.17488  0.97564  0.06820  1.0000
  C   C807      1.0  0.02549  0.85478  0.05294  1.0000
  H   H647      1.0  0.06272  0.78691  0.14639  1.0000
  S   S110      1.0  0.06091  0.69889  0.25130  1.0000
  C   C808      1.0  0.23654  0.71754  0.20694  1.0000
  H   H648      1.0  0.10306  0.88878  0.15529  1.0000
  C   C809      1.0  0.06476  0.75508  0.20890  1.0000
  H   H649      1.0  0.13538  0.94757  0.20011  1.0000
  C   C810      1.0  0.03992  0.88314  0.05023  1.0000
  C   C811      1.0  0.10432  0.92408  0.00628  1.0000
  C   C812      1.0  0.14086  0.91565  0.18532  1.0000
  H   H650      1.0  0.00272  0.70525  0.03904  1.0000
  H   H651      1.0  0.18990  0.92780  0.15349  1.0000
  Fe  Fe53      1.0  0.09406  0.68897  0.24263  1.0000
  C   C813      1.0  0.14242  0.64297  0.24739  1.0000
  H   H652      1.0  0.19572  0.94817  0.02470  1.0000
  H   H653      1.0  0.01901  0.81432  0.04379  1.0000
  Fe  Fe54      1.0  0.21887  0.98409  0.06831  1.0000
  H   H654      1.0  0.25668  0.79524  0.21513  1.0000
  S   S111      1.0  0.13082  0.72391  0.22969  1.0000
  C   C814      1.0  0.97993  0.65044  0.00652  1.0000
  C   C815      1.0  0.28931  0.81536  0.18030  1.0000
  S   S112      1.0  0.00383  0.75775  0.03822  1.0000
  H   H655      1.0  0.28312  0.79550  0.24575  1.0000
  C   C816      1.0  0.22890  0.98680  0.01692  1.0000
  C   C817      1.0  0.20638  0.96042  0.01295  1.0000
  H   H656      1.0  0.33174  0.75866  0.22500  1.0000
  H   H657      1.0  0.03750  0.89757  0.05984  1.0000
  H   H658      1.0  0.16951  0.85411  0.01574  1.0000
  C   C818      1.0  0.02962  0.83620  0.04124  1.0000
  C   C819      1.0  0.17925  0.91216  0.23209  1.0000
  C   C820      1.0  0.98294  0.66525  0.02387  1.0000
  H   H659      1.0  0.32794  0.79403  0.17083  1.0000
  C   C821      1.0  0.35096  0.81825  0.23787  1.0000
  C   C822      1.0  0.45451  0.54193  0.24360  1.0000
  H   H660      1.0  0.01187  0.84725  0.06459  1.0000
  H   H661      1.0  0.45887  0.51198  0.22549  1.0000
  Fe  Fe55      1.0  0.05814  0.62554  0.24705  1.0000
  C   C823      1.0  0.98582  0.69203  0.18245  1.0000
  C   C824      1.0  0.15289  0.85930  0.01341  1.0000
  C   C825      1.0  0.01523  0.70758  0.01002  1.0000
  H   H662      1.0  0.20066  0.97582  0.16162  1.0000
  C   C826      1.0  0.11080  0.87425  0.00764  1.0000
  C   C827      1.0  0.18779  0.49153  0.14052  1.0000
  H   H663      1.0  0.14497  0.88298  0.24671  1.0000
  C   C828      1.0  0.98683  0.70164  0.16367  1.0000
  S   S113      1.0  0.25682  0.88182  0.24865  1.0000
  H   H664      1.0  0.20612  0.51147  0.14041  1.0000
  C   C829      1.0  0.30527  0.80469  0.24840  1.0000
  H   H665      1.0  0.17356  0.98605  0.18481  1.0000
  C   C830      1.0  0.13189  0.98212  0.00986  1.0000
  H   H666      1.0  0.01638  0.78370  0.00204  1.0000
  H   H667      1.0  0.24969  0.86105  0.32880  1.0000
  H   H668      1.0  0.03258  0.82072  0.35463  1.0000
  Fe  Fe56      1.0  0.29302  0.91446  0.26709  1.0000
  S   S114      1.0  0.28286  0.94407  0.28479  1.0000
  S   S115      1.0  0.30821  0.88516  0.27746  1.0000
  Fe  Fe57      1.0  0.05326  0.66886  0.27451  1.0000
  S   S116      1.0  0.05208  0.68200  0.30618  1.0000
  S   S117      1.0  0.08907  0.66131  0.26715  1.0000
  H   H669      1.0  0.11792  0.64439  0.32339  1.0000
  H   H670      1.0  0.08904  0.85436  0.44915  1.0000
  H   H671      1.0  0.06960  0.88021  0.43131  1.0000
  S   S118      1.0  0.98654  0.77980  0.38073  1.0000
  C   C831      1.0  0.11967  0.78249  0.32876  1.0000
  C   C832      1.0  0.19469  0.62640  0.33480  1.0000
  Fe  Fe58      1.0  0.00964  0.78015  0.40840  1.0000
  S   S119      1.0  0.05438  0.80824  0.41815  1.0000
  S   S120      1.0  0.99723  0.73478  0.40611  1.0000
  H   H672      1.0  0.99996  0.68161  0.29320  1.0000
  Fe  Fe59      1.0  0.16068  0.94812  0.38419  1.0000
  S   S121      1.0  0.11729  0.91712  0.37305  1.0000
  S   S122      1.0  0.18934  0.93879  0.40290  1.0000
  C   C833      1.0  0.07167  0.83792  0.40507  1.0000
  C   C834      1.0  0.05706  0.84695  0.39271  1.0000
  C   C835      1.0  0.07132  0.87118  0.38282  1.0000
  C   C836      1.0  0.10015  0.88679  0.38559  1.0000
  C   C837      1.0  0.11472  0.87775  0.39802  1.0000
  C   C838      1.0  0.10051  0.85322  0.40757  1.0000
  H   H673      1.0  0.03478  0.83547  0.39090  1.0000
  H   H674      1.0  0.05995  0.87810  0.37323  1.0000
  H   H675      1.0  0.13692  0.88945  0.40014  1.0000
  H   H676      1.0  0.11188  0.84628  0.41708  1.0000
  H   H677      1.0  0.00441  0.61953  0.42035  1.0000
  C   C839      1.0  0.99202  0.74022  0.49710  1.0000
  C   C840      1.0  0.44260  0.77965  0.36686  1.0000
  H   H678      1.0  0.30386  0.81701  0.27777  1.0000
  C   C841      1.0  0.23109  0.85867  0.30035  1.0000
  H   H679      1.0  0.15519  0.89500  0.35832  1.0000
  S   S123      1.0  0.19179  0.97123  0.36297  1.0000
  C   C842      1.0  0.02922  0.69157  0.31767  1.0000
  C   C843      1.0  0.00511  0.68923  0.30813  1.0000
  H   H680      1.0  0.42608  0.77010  0.37641  1.0000
  C   C844      1.0  0.31699  0.81685  0.26674  1.0000
  C   C845      1.0  0.01778  0.70902  0.34693  1.0000
  C   C846      1.0  0.03536  0.70148  0.33716  1.0000
  C   C847      1.0  0.05004  0.61733  0.30829  1.0000
  H   H681      1.0  0.02284  0.71662  0.36186  1.0000
  H   H682      1.0  0.05380  0.70327  0.34481  1.0000
  C   C848      1.0  0.21108  0.86218  0.28933  1.0000
  C   C849      1.0  0.99837  0.67534  0.47986  1.0000
  C   C850      1.0  0.16525  0.93960  0.31342  1.0000
  H   H683      1.0  0.00374  0.66315  0.37145  1.0000
  C   C851      1.0  0.11718  0.57052  0.28992  1.0000
  H   H684      1.0  0.02598  0.58928  0.42392  1.0000
  C   C852      1.0  0.27154  0.94228  0.30859  1.0000
  C   C853      1.0  0.25557  0.95528  0.31312  1.0000
  C   C854      1.0  0.24778  0.95616  0.33206  1.0000
  C   C855      1.0  0.25637  0.94452  0.34692  1.0000
  C   C856      1.0  0.27219  0.93136  0.34238  1.0000
  C   C857      1.0  0.27954  0.93003  0.32335  1.0000
  H   H685      1.0  0.05501  0.74403  0.40417  1.0000
  H   H686      1.0  0.07728  0.65141  0.32787  1.0000
  S   S124      1.0  0.19541  0.98435  0.45154  1.0000
  H   H687      1.0  0.29209  0.92027  0.32021  1.0000
  C   C858      1.0  0.15767  0.89007  0.49749  1.0000
  C   C859      1.0  0.18369  0.89594  0.26363  1.0000
  H   H688      1.0  0.28589  0.97030  0.40850  1.0000
  C   C860      1.0  0.08238  0.78615  0.49533  1.0000
  C   C861      1.0  0.04527  0.75365  0.44844  1.0000
  H   H689      1.0  0.47770  0.81030  0.25706  1.0000
  H   H690      1.0  0.02087  0.81795  0.49654  1.0000
  Fe  Fe60      1.0  0.27350  0.85334  0.25763  1.0000
  C   C862      1.0  0.09608  0.76719  0.36661  1.0000
  H   H691      1.0  0.06851  0.57622  0.28251  1.0000
  H   H692      1.0  0.02723  0.88796  0.45050  1.0000
  H   H693      1.0  0.27907  0.92235  0.35369  1.0000
  C   C863      1.0  0.17710  0.85110  0.37653  1.0000
  H   H694      1.0  0.47318  0.91034  0.26914  1.0000
  C   C864      1.0  0.05662  0.77647  0.32475  1.0000
  C   C865      1.0  0.06544  0.71573  0.44405  1.0000
  C   C866      1.0  0.13808  0.60648  0.33806  1.0000
  C   C867      1.0  0.04817  0.65239  0.46005  1.0000
  H   H695      1.0  0.21912  0.87577  0.34482  1.0000
  C   C868      1.0  0.19645  0.87496  0.31840  1.0000
  C   C869      1.0  0.15784  0.79253  0.30868  1.0000
  P   P29       1.0  0.01258  0.66967  0.44271  1.0000
  C   C870      1.0  0.08704  0.89117  0.44178  1.0000
  C   C871      1.0  0.98981  0.66001  0.46209  1.0000
  C   C872      1.0  0.15445  0.82582  0.37013  1.0000
  C   C873      1.0  0.12276  0.93426  0.45700  1.0000
  C   C874      1.0  0.12150  0.89072  0.46490  1.0000
  C   C875      1.0  0.13262  0.85038  0.35469  1.0000
  H   H696      1.0  0.16055  0.72386  0.26536  1.0000
  C   C876      1.0  0.08945  0.52066  0.29155  1.0000
  H   H697      1.0  0.07714  0.82230  0.36376  1.0000
  C   C877      1.0  0.98128  0.73567  0.47773  1.0000
  H   H698      1.0  0.24505  0.85310  0.29335  1.0000
  H   H699      1.0  0.19765  0.62444  0.36568  1.0000
  H   H700      1.0  0.10774  0.71430  0.38107  1.0000
  C   C878      1.0  0.13372  0.88191  0.30965  1.0000
  H   H701      1.0  0.06875  0.77956  0.38043  1.0000
  P   P30       1.0  0.13929  0.87296  0.47487  1.0000
  H   H702      1.0  0.08726  0.78527  0.44702  1.0000
  C   C879      1.0  0.11613  0.83827  0.48128  1.0000
  H   H703      1.0  0.22546  0.91459  0.27682  1.0000
  C   C880      1.0  0.18403  0.62109  0.35292  1.0000
  H   H704      1.0  0.14738  0.60646  0.36854  1.0000
  S   S125      1.0  0.24845  0.94635  0.37137  1.0000
  H   H705      1.0  0.23571  0.96644  0.33524  1.0000
  C   C881      1.0  0.17710  0.62184  0.31831  1.0000
  C   C882      1.0  0.13387  0.91970  0.46721  1.0000
  C   C883      1.0  0.01679  0.82619  0.46710  1.0000
  H   H706      1.0  0.03256  0.62113  0.30979  1.0000
  C   C884      1.0  0.46805  0.80156  0.37384  1.0000
  C   C885      1.0  0.02872  0.64770  0.44461  1.0000
  Fe  Fe61      1.0  0.22140  0.96442  0.38253  1.0000
  H   H707      1.0  0.18555  0.62547  0.30431  1.0000
  H   H708      1.0  0.01729  0.76083  0.30848  1.0000
  C   C886      1.0  0.05233  0.61235  0.44899  1.0000
  C   C887      1.0  0.15572  0.61104  0.35454  1.0000
  C   C888      1.0  0.08361  0.74424  0.44489  1.0000
  H   H709      1.0  0.21657  0.63378  0.33351  1.0000
  H   H710      1.0  0.20693  0.75803  0.28015  1.0000
  H   H711      1.0  0.17809  0.80678  0.30427  1.0000
  C   C889      1.0  0.08944  0.83142  0.48649  1.0000
  C   C890      1.0  0.16203  0.87449  0.45669  1.0000
  C   C891      1.0  0.18532  0.89979  0.45386  1.0000
  C   C892      1.0  0.20229  0.90178  0.43909  1.0000
  C   C893      1.0  0.19571  0.87880  0.42668  1.0000
  C   C894      1.0  0.17204  0.85376  0.42900  1.0000
  C   C895      1.0  0.15516  0.85161  0.44392  1.0000
  C   C896      1.0  0.02044  0.62454  0.43177  1.0000
  C   C897      1.0  0.45962  0.78268  0.33515  1.0000
  H   H712      1.0  0.47120  0.80905  0.38879  1.0000
  H   H713      1.0  0.22014  0.92139  0.43696  1.0000
  H   H714      1.0  0.20871  0.88072  0.41505  1.0000
  H   H715      1.0  0.16642  0.83619  0.41899  1.0000
  H   H716      1.0  0.13635  0.83242  0.44502  1.0000
  C   C898      1.0  0.14875  0.61234  0.31988  1.0000
  H   H717      1.0  0.10828  0.88720  0.33031  1.0000
  C   C899      1.0  0.19347  0.87023  0.29826  1.0000
  C   C900      1.0  0.08026  0.72667  0.39403  1.0000
  Fe  Fe62      1.0  0.20033  0.97892  0.41939  1.0000
  H   H718      1.0  0.38478  0.84058  0.25924  1.0000
  C   C901      1.0  0.09809  0.87655  0.45200  1.0000
  C   C902      1.0  0.03702  0.70607  0.44545  1.0000
  C   C903      1.0  0.34561  0.82966  0.27065  1.0000
  C   C904      1.0  0.22808  0.97365  0.47871  1.0000
  C   C905      1.0  0.09529  0.54758  0.29739  1.0000
  H   H719      1.0  0.17790  0.96188  0.31533  1.0000
  H   H720      1.0  0.35475  0.84001  0.28463  1.0000
  H   H721      1.0  0.02837  0.58361  0.28697  1.0000
  H   H722      1.0  0.03740  0.76838  0.44965  1.0000
  C   C906      1.0  0.09940  0.92001  0.44423  1.0000
  C   C907      1.0  0.17274  0.92426  0.30098  1.0000
  H   H723      1.0  0.19470  0.85144  0.38452  1.0000
  C   C908      1.0  0.06960  0.74529  0.39386  1.0000
  H   H724      1.0  0.12244  0.75023  0.35744  1.0000
  H   H725      1.0  0.16766  0.66404  0.30124  1.0000
  C   C909      1.0  0.99421  0.66504  0.41947  1.0000
  H   H726      1.0  0.08184  0.84638  0.48573  1.0000
  C   C910      1.0  0.14386  0.81988  0.27050  1.0000
  C   C911      1.0  0.04765  0.59619  0.29548  1.0000
  H   H727      1.0  0.19012  0.91814  0.46284  1.0000
  H   H728      1.0  0.07510  0.63863  0.47408  1.0000
  C   C912      1.0  0.07347  0.76318  0.44694  1.0000
  C   C913      1.0  0.07531  0.63437  0.31853  1.0000
  H   H729      1.0  0.14703  0.82442  0.48070  1.0000
  H   H730      1.0  0.25597  0.96864  0.43441  1.0000
  H   H731      1.0  0.00513  0.71806  0.44815  1.0000
  H   H732      1.0  0.09146  0.93136  0.43571  1.0000
  P   P31       1.0  0.16815  0.87563  0.28390  1.0000
  H   H733      1.0  0.00213  0.78943  0.32742  1.0000
  C   C914      1.0  0.21637  0.87124  0.32938  1.0000
  P   P32       1.0  0.12596  0.60524  0.29853  1.0000
  C   C915      1.0  0.01846  0.84575  0.45402  1.0000
  C   C916      1.0  0.19828  0.76297  0.26743  1.0000
  H   H734      1.0  0.18386  0.88198  0.32575  1.0000
  C   C917      1.0  0.09823  0.63028  0.31598  1.0000
  C   C918      1.0  0.09582  0.60873  0.30337  1.0000
  H   H735      1.0  0.11610  0.59806  0.33949  1.0000
  C   C919      1.0  0.07046  0.59198  0.29300  1.0000
  C   C920      1.0  0.40857  0.52397  0.25619  1.0000
  H   H736      1.0  0.08254  0.55040  0.30761  1.0000
  H   H737      1.0  0.07374  0.71071  0.40432  1.0000
  C   C921      1.0  0.23366  0.86307  0.32036  1.0000
  C   C922      1.0  0.02710  0.72523  0.44763  1.0000
  H   H738      1.0  0.15281  0.93120  0.47626  1.0000
  C   C923      1.0  0.03289  0.53252  0.25622  1.0000
  C   C924      1.0  0.12606  0.89740  0.32186  1.0000
  C   C925      1.0  0.10909  0.79298  0.49049  1.0000
  H   H739      1.0  0.43235  0.91575  0.27741  1.0000
  C   C926      1.0  0.09514  0.79157  0.26114  1.0000
  C   C927      1.0  0.02291  0.83369  0.48679  1.0000
  C   C928      1.0  0.00709  0.66501  0.40258  1.0000
  H   H740      1.0  0.15660  0.82228  0.32841  1.0000
  H   H741      1.0  0.10546  0.75170  0.44350  1.0000
  C   C929      1.0  0.12167  0.79436  0.26395  1.0000
  H   H742      1.0  0.11684  0.77825  0.49239  1.0000
  H   H743      1.0  0.02745  0.66652  0.40336  1.0000
  C   C930      1.0  0.03242  0.60711  0.43388  1.0000
  H   H744      1.0  0.39467  0.52756  0.26482  1.0000
  C   C931      1.0  0.11815  0.74696  0.30632  1.0000
  H   H745      1.0  0.13313  0.95671  0.45831  1.0000
  C   C932      1.0  0.45558  0.90353  0.25877  1.0000
  H   H746      1.0  0.10938  0.85765  0.27309  1.0000
  C   C933      1.0  0.07396  0.79384  0.34035  1.0000
  H   H747      1.0  0.19142  0.93503  0.29352  1.0000
  S   S126      1.0  0.24724  0.81108  0.26919  1.0000
  H   H748      1.0  0.03880  0.90169  0.48521  1.0000
  H   H749      1.0  0.08653  0.74025  0.32529  1.0000
  C   C934      1.0  0.15670  0.89532  0.29867  1.0000
  H   H750      1.0  0.10742  0.72596  0.29995  1.0000
  H   H751      1.0  0.05389  0.66940  0.47062  1.0000
  C   C935      1.0  0.47085  0.85115  0.29155  1.0000
  C   C936      1.0  0.12601  0.81903  0.48366  1.0000
  S   S127      1.0  0.02201  0.63175  0.25575  1.0000
  C   C937      1.0  0.03178  0.86116  0.49355  1.0000
  C   C938      1.0  0.03094  0.77506  0.32007  1.0000
  C   C939      1.0  0.02234  0.79108  0.33077  1.0000
  C   C940      1.0  0.09937  0.72866  0.38091  1.0000
  H   H752      1.0  0.18602  0.69883  0.27674  1.0000
  C   C941      1.0  0.07746  0.76549  0.38025  1.0000
  C   C942      1.0  0.13967  0.84284  0.27453  1.0000
  C   C943      1.0  0.07265  0.80541  0.49340  1.0000
  H   H753      1.0  0.46255  0.86547  0.29322  1.0000
  H   H754      1.0  0.99388  0.74813  0.46676  1.0000
  C   C944      1.0  0.06491  0.80966  0.35114  1.0000
  C   C945      1.0  0.17732  0.87599  0.37230  1.0000
  C   C946      1.0  0.43838  0.77025  0.34752  1.0000
  C   C947      1.0  0.13202  0.82524  0.35910  1.0000
  C   C948      1.0  0.20676  0.98043  0.47514  1.0000
  C   C949      1.0  0.17131  0.67756  0.27238  1.0000
  C   C950      1.0  0.03270  0.88053  0.48034  1.0000
  C   C951      1.0  0.02608  0.87283  0.46067  1.0000
  H   H755      1.0  0.45598  0.77531  0.32014  1.0000
  H   H756      1.0  0.01087  0.80518  0.46196  1.0000
  H   H757      1.0  0.15346  0.75893  0.28973  1.0000
  H   H758      1.0  0.19494  0.89564  0.37715  1.0000
  C   C952      1.0  0.98720  0.69613  0.31804  1.0000
  C   C953      1.0  0.10748  0.74900  0.36737  1.0000
  H   H759      1.0  0.16409  0.82133  0.27249  1.0000
  C   C954      1.0  0.09091  0.81451  0.26435  1.0000
  P   P33       1.0  0.10520  0.79250  0.34842  1.0000
  H   H760      1.0  0.20975  0.85911  0.27381  1.0000
  H   H761      1.0  0.01816  0.69381  0.48202  1.0000
  C   C955      1.0  0.10616  0.75529  0.32053  1.0000
  H   H762      1.0  0.41859  0.75341  0.34206  1.0000
  H   H763      1.0  0.07356  0.70144  0.44178  1.0000
  H   H764      1.0  0.01996  0.54026  0.26224  1.0000
  H   H765      1.0  0.10096  0.49549  0.27393  1.0000
  C   C956      1.0  0.14554  0.80117  0.32249  1.0000
  C   C957      1.0  0.23765  0.97303  0.49782  1.0000
  H   H766      1.0  0.15485  0.80674  0.37323  1.0000
  C   C958      1.0  0.14183  0.92620  0.32375  1.0000
  H   H767      1.0  0.01391  0.83991  0.43871  1.0000
  C   C959      1.0  0.15500  0.87562  0.36151  1.0000
  C   C960      1.0  0.14407  0.76551  0.30053  1.0000
  H   H768      1.0  0.06141  0.59867  0.45069  1.0000
  H   H769      1.0  0.06220  0.76329  0.31640  1.0000
  C   C961      1.0  0.19418  0.98506  0.49091  1.0000
  H   H770      1.0  0.11609  0.85070  0.34580  1.0000
  H   H771      1.0  0.12195  0.85954  0.30905  1.0000
  C   C962      1.0  0.03945  0.80858  0.34618  1.0000
  H   H772      1.0  0.23751  0.96930  0.46681  1.0000
  H   H773      1.0  0.25471  0.96860  0.50044  1.0000
  H   H774      1.0  0.44246  0.56573  0.26209  1.0000
  C   C963      1.0  0.43226  0.90662  0.26343  1.0000
  C   C964      1.0  0.06009  0.63490  0.46213  1.0000
  H   H775      1.0  0.12502  0.77662  0.26121  1.0000
  C   C965      1.0  0.99328  0.70596  0.33752  1.0000
  H   H776      1.0  0.14084  0.53573  0.26154  1.0000
  H   H777      1.0  0.01040  0.49190  0.26743  1.0000
  H   H778      1.0  0.13620  0.93807  0.33359  1.0000
  C   C966      1.0  0.02746  0.50489  0.25913  1.0000
  C   C967      1.0  0.14189  0.63014  0.28062  1.0000
  C   C968      1.0  0.46861  0.83841  0.27345  1.0000
  C   C969      1.0  0.99381  0.66322  0.38449  1.0000
  H   H779      1.0  0.08664  0.90496  0.49461  1.0000
  H   H780      1.0  0.19676  0.89191  0.49133  1.0000
  C   C970      1.0  0.16110  0.65769  0.28620  1.0000
  H   H781      1.0  0.11720  0.60205  0.25660  1.0000
  C   C971      1.0  0.13267  0.62295  0.26112  1.0000
  H   H782      1.0  0.15150  0.58342  0.27181  1.0000
  H   H783      1.0  0.24949  0.96511  0.30192  1.0000
  H   H784      1.0  0.07190  0.50296  0.29673  1.0000
  C   C972      1.0  0.21234  0.91326  0.26427  1.0000
  C   C973      1.0  0.12819  0.53912  0.27157  1.0000
  C   C974      1.0  0.36254  0.83004  0.25629  1.0000
  H   H785      1.0  0.07035  0.81239  0.26191  1.0000
  C   C975      1.0  0.17209  0.74360  0.25911  1.0000
  C   C976      1.0  0.11309  0.84009  0.27085  1.0000
  H   H786      1.0  0.01315  0.75564  0.50085  1.0000
  H   H787      1.0  0.05232  0.80033  0.49775  1.0000
  C   C977      1.0  0.10589  0.51642  0.27866  1.0000
  C   C978      1.0  0.13397  0.56609  0.27728  1.0000
  C   C979      1.0  0.47577  0.52020  0.29850  1.0000
  S   S128      1.0  0.37951  0.90202  0.25715  1.0000
  H   H788      1.0  0.06934  0.76613  0.50088  1.0000
  S   S129      1.0  0.16915  0.98650  0.40171  1.0000
  H   H789      1.0  0.07787  0.77161  0.25642  1.0000
  C   C980      1.0  0.21362  0.78843  0.25915  1.0000
  C   C981      1.0  0.98134  0.66683  0.49519  1.0000
  C   C982      1.0  0.43585  0.54584  0.25464  1.0000
  H   H790      1.0  0.45880  0.84302  0.26115  1.0000
  C   C983      1.0  0.45690  0.49193  0.29782  1.0000
  H   H791      1.0  0.12757  0.95087  0.50036  1.0000
  Fe  Fe63      1.0  0.33427  0.89540  0.25163  1.0000
  H   H792      1.0  0.47723  0.53357  0.31071  1.0000
  C   C984      1.0  0.04381  0.49391  0.25153  1.0000
  C   C985      1.0  0.16173  0.67029  0.25301  1.0000
  H   H793      1.0  0.10501  0.84026  0.54882  1.0000
  C   C986      1.0  0.08371  0.83451  0.54438  1.0000
  H   H794      1.0  0.25239  0.93352  0.68826  1.0000
  H   H795      1.0  0.22174  0.94122  0.63334  1.0000
  C   C987      1.0  0.07091  0.90540  0.52252  1.0000
  C   C988      1.0  0.14327  0.89516  0.51171  1.0000
  Fe  Fe64      1.0  0.17010  0.94113  0.58779  1.0000
  S   S130      1.0  0.14115  0.89475  0.58875  1.0000
  S   S131      1.0  0.21549  0.95315  0.58920  1.0000
  H   H796      1.0  0.01877  0.78168  0.54693  1.0000
  C   C989      1.0  0.18526  0.89620  0.50180  1.0000
  S   S132      1.0  0.01001  0.82811  0.59257  1.0000
  H   H797      1.0  0.02379  0.86212  0.55829  1.0000
  H   H798      1.0  0.22512  0.91610  0.72897  1.0000
  C   C990      1.0  0.19462  0.92940  0.72130  1.0000
  C   C991      1.0  0.26530  0.98289  0.72384  1.0000
  H   H799      1.0  0.10429  0.95772  0.55728  1.0000
  C   C992      1.0  0.01269  0.87200  0.53034  1.0000
  S   S133      1.0  0.99212  0.72540  0.53461  1.0000
  H   H800      1.0  0.37039  0.94338  0.74183  1.0000
  C   C993      1.0  0.21873  0.94469  0.66391  1.0000
  H   H801      1.0  0.09381  0.87427  0.53407  1.0000
  H   H802      1.0  0.13627  0.97745  0.53152  1.0000
  H   H803      1.0  0.15963  0.93716  0.71679  1.0000
  P   P34       1.0  0.04117  0.87134  0.51896  1.0000
  C   C994      1.0  0.10475  0.87706  0.59024  1.0000
  C   C995      1.0  0.09149  0.84811  0.59135  1.0000
  C   C996      1.0  0.06260  0.83294  0.59209  1.0000
  C   C997      1.0  0.04658  0.84657  0.59192  1.0000
  C   C998      1.0  0.05990  0.87563  0.59118  1.0000
  C   C999      1.0  0.08881  0.89081  0.59017  1.0000
  H   H804      1.0  0.10362  0.83728  0.59148  1.0000
  H   H805      1.0  0.05274  0.81067  0.59280  1.0000
  H   H806      1.0  0.04777  0.88646  0.59130  1.0000
  H   H807      1.0  0.09874  0.91309  0.58943  1.0000
  H   H808      1.0  0.17405  0.90247  0.62725  1.0000
  C   C1000     1.0  0.07725  0.85382  0.53593  1.0000
  C   C1001     1.0  0.99169  0.58393  0.70374  1.0000
  C   C1002     1.0  0.17502  0.91279  0.67586  1.0000
  S   S134      1.0  0.17197  0.96539  0.56186  1.0000
  C   C1003     1.0  0.20195  0.93486  0.67939  1.0000
  H   H809      1.0  0.16140  0.90483  0.68737  1.0000
  C   C1004     1.0  0.06263  0.80832  0.54803  1.0000
  H   H810      1.0  0.14484  0.90981  0.54106  1.0000
  H   H811      1.0  0.06313  0.91196  0.55195  1.0000
  C   C1005     1.0  0.20514  0.91429  0.73163  1.0000
  H   H812      1.0  0.00173  0.59333  0.69093  1.0000
  C   C1006     1.0  0.03510  0.80158  0.54341  1.0000
  H   H813      1.0  0.00708  0.81506  0.53137  1.0000
  H   H814      1.0  0.98258  0.75869  0.66076  1.0000
  H   H815      1.0  0.46456  0.50858  0.63465  1.0000
  C   C1007     1.0  0.40625  0.98408  0.74331  1.0000
  C   C1008     1.0  0.18371  0.91274  0.53409  1.0000
  S   S135      1.0  0.17664  0.97569  0.60891  1.0000
  C   C1009     1.0  0.38169  0.96234  0.73460  1.0000
  C   C1010     1.0  0.04966  0.84689  0.53066  1.0000
  C   C1011     1.0  0.15321  0.90852  0.73893  1.0000
  C   C1012     1.0  0.25037  0.96276  0.70887  1.0000
  H   H816      1.0  0.41570  0.93335  0.74668  1.0000
  C   C1013     1.0  0.00972  0.86717  0.55000  1.0000
  C   C1014     1.0  0.16512  0.90103  0.65714  1.0000
  P   P35       1.0  0.21413  0.95214  0.70313  1.0000
  H   H817      1.0  0.99581  0.88242  0.50487  1.0000
  Fe  Fe65      1.0  0.21740  0.97951  0.56421  1.0000
  H   H818      1.0  0.02768  0.75704  0.74734  1.0000
  C   C1015     1.0  0.20936  0.98264  0.70432  1.0000
  S   S136      1.0  0.23964  0.97947  0.53741  1.0000
  C   C1016     1.0  0.18995  0.89676  0.74571  1.0000
  C   C1017     1.0  0.26347  0.94970  0.69943  1.0000
  H   H819      1.0  0.06750  0.79360  0.55513  1.0000
  C   C1018     1.0  0.07650  0.92038  0.54032  1.0000
  S   S137      1.0  0.00293  0.75134  0.58936  1.0000
  H   H820      1.0  0.19387  0.92173  0.54818  1.0000
  C   C1019     1.0  0.15616  0.90628  0.52998  1.0000
  H   H821      1.0  0.20933  0.98469  0.73548  1.0000
  C   C1020     1.0  0.09992  0.94630  0.54346  1.0000
  C   C1021     1.0  0.29122  0.95740  0.70440  1.0000
  C   C1022     1.0  0.08964  0.91647  0.50815  1.0000
  C   C1023     1.0  0.18194  0.91120  0.64182  1.0000
  C   C1024     1.0  0.19830  0.90785  0.51999  1.0000
  H   H822      1.0  0.30149  0.94797  0.69664  1.0000
  C   C1025     1.0  0.20879  0.93294  0.64524  1.0000
  Fe  Fe66      1.0  0.98540  0.78090  0.58898  1.0000
  C   C1026     1.0  0.00486  0.59609  0.72180  1.0000
  C   C1027     1.0  0.11805  0.95740  0.52895  1.0000
  C   C1028     1.0  0.99083  0.49740  0.67827  1.0000
  C   C1029     1.0  0.98872  0.86906  0.55926  1.0000
  C   C1030     1.0  0.16838  0.92612  0.72488  1.0000
  H   H823      1.0  0.45293  0.50800  0.73773  1.0000
  H   H824      1.0  0.98672  0.86518  0.57447  1.0000
  H   H825      1.0  0.14421  0.88430  0.65438  1.0000
  C   C1031     1.0  0.11304  0.94242  0.51137  1.0000
  H   H826      1.0  0.35222  0.94849  0.70983  1.0000
  C   C1032     1.0  0.20332  0.98383  0.51001  1.0000
  C   C1033     1.0  0.30586  0.97753  0.71923  1.0000
  H   H827      1.0  0.32746  0.98378  0.72293  1.0000
  C   C1034     1.0  0.02858  0.82069  0.53473  1.0000
  H   H828      1.0  0.12193  0.89003  0.50868  1.0000
  H   H829      1.0  0.23931  0.96201  0.66616  1.0000
  H   H830      1.0  0.00867  0.49769  0.68590  1.0000
  H   H831      1.0  0.99009  0.80421  0.64949  1.0000
  H   H832      1.0  0.98138  0.58135  0.61563  1.0000
  H   H833      1.0  0.02447  0.61490  0.72281  1.0000
  H   H834      1.0  0.99602  0.53418  0.69350  1.0000
  C   C1035     1.0  0.99271  0.58401  0.73857  1.0000
  C   C1036     1.0  0.22553  0.97838  0.51359  1.0000
  C   C1037     1.0  0.37117  0.96523  0.71653  1.0000
  C   C1038     1.0  0.99403  0.87849  0.52001  1.0000
  C   C1039     1.0  0.47154  0.49353  0.63787  1.0000
  H   H835      1.0  0.21982  0.91337  0.52322  1.0000
  C   C1040     1.0  0.46361  0.50204  0.72750  1.0000
  H   H836      1.0  0.13305  0.90619  0.74172  1.0000
  H   H837      1.0  0.98799  0.67878  0.50887  1.0000
  H   H838      1.0  0.98206  0.62613  0.62359  1.0000
  C   C1041     1.0  0.98355  0.51808  0.68255  1.0000
  C   C1042     1.0  0.16404  0.89394  0.74940  1.0000
  H   H839      1.0  0.03212  0.84698  0.81277  1.0000
  C   C1043     1.0  0.01618  0.72245  0.84852  1.0000
  H   H840      1.0  0.04633  0.66856  0.98787  1.0000
  C   C1044     1.0  0.21201  0.96478  0.97819  1.0000
  C   C1045     1.0  0.99649  0.76538  0.99985  1.0000
  C   C1046     1.0  0.15565  0.98333  0.96532  1.0000
  Fe  Fe67      1.0  0.16896  0.95983  0.88879  1.0000
  S   S138      1.0  0.12646  0.92970  0.87426  1.0000
  S   S139      1.0  0.20320  0.94933  0.89640  1.0000
  Fe  Fe68      1.0  0.99934  0.78205  0.90173  1.0000
  S   S140      1.0  0.04503  0.81359  0.90776  1.0000
  C   C1047     1.0  0.04798  0.78863  0.95934  1.0000
  H   H841      1.0  0.03901  0.69313  0.93293  1.0000
  C   C1048     1.0  0.10359  0.89802  0.88426  1.0000
  C   C1049     1.0  0.07594  0.88315  0.87661  1.0000
  C   C1050     1.0  0.05761  0.85739  0.88366  1.0000
  C   C1051     1.0  0.06679  0.84615  0.89843  1.0000
  C   C1052     1.0  0.09432  0.86113  0.90619  1.0000
  C   C1053     1.0  0.11257  0.88695  0.89925  1.0000
  H   H842      1.0  0.06871  0.89158  0.86511  1.0000
  H   H843      1.0  0.03647  0.84620  0.87764  1.0000
  H   H844      1.0  0.10164  0.85271  0.91766  1.0000
  H   H845      1.0  0.13373  0.89809  0.90531  1.0000
  C   C1054     1.0  0.07649  0.79263  0.98816  1.0000
  S   S141      1.0  0.17073  0.97889  0.91802  1.0000
  H   H846      1.0  0.05721  0.76971  0.80699  1.0000
  H   H847      1.0  0.03123  0.85162  0.92933  1.0000
  H   H848      1.0  0.02040  0.74757  0.94796  1.0000
  H   H849      1.0  0.00630  0.73333  0.82096  1.0000
  H   H850      1.0  0.12309  0.88040  0.97827  1.0000
  C   C1055     1.0  0.39534  0.93775  0.79149  1.0000
  H   H851      1.0  0.00650  0.67213  0.90419  1.0000
  C   C1056     1.0  0.14723  0.86647  0.99521  1.0000
  Fe  Fe69      1.0  0.20589  0.97015  0.92562  1.0000
  H   H852      1.0  0.00681  0.70057  0.84429  1.0000
  C   C1057     1.0  0.38565  0.91018  0.79620  1.0000
  P   P36       1.0  0.02492  0.79316  0.82422  1.0000
  C   C1058     1.0  0.09815  0.88162  0.83254  1.0000
  C   C1059     1.0  0.04431  0.74703  0.97358  1.0000
  H   H853      1.0  0.04553  0.76660  0.88804  1.0000
  C   C1060     1.0  0.04133  0.85844  0.94370  1.0000
  C   C1061     1.0  0.00847  0.69457  0.95076  1.0000
  S   S142      1.0  0.98997  0.73948  0.91104  1.0000
  H   H854      1.0  0.07749  0.82736  0.97363  1.0000
  C   C1062     1.0  0.03775  0.75958  0.87321  1.0000
  H   H855      1.0  0.07115  0.89445  0.81769  1.0000
  H   H856      1.0  0.99213  0.65231  0.97761  1.0000
  C   C1063     1.0  0.03747  0.77837  0.86007  1.0000
  S   S143      1.0  0.20208  0.94916  0.95433  1.0000
  C   C1064     1.0  0.02733  0.76946  0.84084  1.0000
  H   H857      1.0  0.00785  0.82637  0.95751  1.0000
  H   H858      1.0  0.04166  0.79826  0.94809  1.0000
  C   C1065     1.0  0.02703  0.73163  0.86747  1.0000
  C   C1066     1.0  0.40562  0.94620  0.77342  1.0000
  H   H859      1.0  0.04465  0.79968  0.86508  1.0000
  H   H860      1.0  0.37763  0.90375  0.81013  1.0000
  H   H861      1.0  0.07798  0.89195  0.93384  1.0000
  C   C1067     1.0  0.02589  0.78201  0.79981  1.0000
  H   H862      1.0  0.99696  0.77729  0.75435  1.0000
  H   H863      1.0  0.00933  0.83029  0.84556  1.0000
  P   P37       1.0  0.03155  0.70993  0.97217  1.0000
  C   C1068     1.0  0.01599  0.74118  0.83530  1.0000
  C   C1069     1.0  0.07333  0.87705  0.82287  1.0000
  H   H864      1.0  0.08190  0.81547  0.84207  1.0000
  C   C1070     1.0  0.04385  0.77132  0.79563  1.0000
  H   H865      1.0  0.15953  0.86696  0.98341  1.0000
  C   C1071     1.0  0.10802  0.69670  0.96780  1.0000
  H   H866      1.0  0.39840  0.88466  0.75509  1.0000
  C   C1072     1.0  0.04443  0.76229  0.77677  1.0000
  C   C1073     1.0  0.07902  0.83242  0.83681  1.0000
  H   H867      1.0  0.11503  0.90253  0.83508  1.0000
  H   H868      1.0  0.03056  0.84135  0.99008  1.0000
  C   C1074     1.0  0.40701  0.92697  0.76044  1.0000
  H   H869      1.0  0.02620  0.71688  0.87785  1.0000
  C   C1075     1.0  0.03600  0.75976  0.95927  1.0000
  C   C1076     1.0  0.09172  0.93922  0.99866  1.0000
  H   H870      1.0  0.10148  0.90744  0.96638  1.0000
  C   C1077     1.0  0.05366  0.82773  0.82768  1.0000
  C   C1078     1.0  0.10101  0.85933  0.83946  1.0000
  C   C1079     1.0  0.12638  0.87405  0.99233  1.0000
  C   C1080     1.0  0.06799  0.87557  0.98087  1.0000
  C   C1081     1.0  0.06488  0.76374  0.98794  1.0000
  C   C1082     1.0  0.01772  0.68852  0.93374  1.0000
  C   C1083     1.0  0.99471  0.66414  0.99095  1.0000
  H   H871      1.0  0.99170  0.77071  0.96938  1.0000
  H   H872      1.0  0.12016  0.86309  0.84727  1.0000
  C   C1084     1.0  0.06293  0.68265  0.97966  1.0000
  C   C1085     1.0  0.08097  0.88980  0.96475  1.0000
  C   C1086     1.0  0.06770  0.88119  0.94627  1.0000
  C   C1087     1.0  0.05121  0.85018  0.82031  1.0000
  C   C1088     1.0  0.02817  0.84425  0.95961  1.0000
  C   C1089     1.0  0.04133  0.85280  0.97813  1.0000
  H   H873      1.0  0.15234  0.88041  0.76036  1.0000
  C   C1090     1.0  0.99936  0.67652  0.91741  1.0000
  C   C1091     1.0  0.08618  0.67878  0.97826  1.0000
  H   H874      1.0  0.07216  0.75446  0.99884  1.0000
  H   H875      1.0  0.18109  0.92881  0.99089  1.0000
  H   H876      1.0  0.39505  0.95241  0.80207  1.0000
  C   C1092     1.0  0.38655  0.89101  0.78303  1.0000
  C   C1093     1.0  0.13321  0.98348  0.95504  1.0000
  C   C1094     1.0  0.01004  0.77562  0.76589  1.0000
  H   H877      1.0  0.07117  0.92863  0.99146  1.0000
  H   H878      1.0  0.08266  0.73945  0.95289  1.0000
  H   H879      1.0  0.99596  0.79356  0.78752  1.0000
  H   H880      1.0  0.11776  0.96476  0.94721  1.0000
  C   C1095     1.0  0.06817  0.80504  0.97377  1.0000
  H   H881      1.0  0.12602  0.69368  0.96673  1.0000
  C   C1096     1.0  0.19814  0.94945  0.99372  1.0000
  H   H882      1.0  0.36442  0.96929  0.77934  1.0000
  C   C1097     1.0  0.02741  0.76429  0.76193  1.0000
  H   H883      1.0  0.12355  0.73246  0.95061  1.0000
  C   C1098     1.0  0.08344  0.72247  0.96010  1.0000
  C   C1099     1.0  0.39734  0.89943  0.76519  1.0000
  C   C1100     1.0  0.10664  0.71854  0.95873  1.0000
  C   C1101     1.0  0.00939  0.78465  0.78474  1.0000
  C   C1102     1.0  0.06138  0.70455  0.97058  1.0000
  H   H884      1.0  0.05795  0.75357  0.77369  1.0000
  C   C1103     1.0  0.99217  0.79205  0.82778  1.0000
  H   H885      1.0  0.15752  0.96449  0.96561  1.0000
  H   H886      1.0  0.08727  0.66186  0.98531  1.0000
  H   H887      1.0  0.37914  0.86969  0.78673  1.0000
  P   P38       1.0  0.41895  0.98178  0.76728  1.0000
  C   C1104     1.0  0.01254  0.69286  0.99256  1.0000
  C   C1105     1.0  0.10552  0.96816  0.00041  1.0000
  C   C1106     1.0  0.99076  0.81289  0.83905  1.0000
  H   H888      1.0  0.09586  0.97980  0.99440  1.0000
  C   C1107     1.0  0.98076  0.68871  0.95107  1.0000
  C   C1108     1.0  0.98274  0.75792  0.98128  1.0000
  H   H889      1.0  0.09217  0.80542  0.99935  1.0000
  H   H890      1.0  0.19831  0.88540  0.75381  1.0000
  H   H891      1.0  0.00271  0.59347  0.75260  1.0000
  Fe  Fe70      1.0  0.95114  0.18447  0.09834  1.0000
  S   S144      1.0  0.93565  0.21447  0.09093  1.0000
  S   S145      1.0  0.92408  0.13792  0.09936  1.0000
  H   H892      1.0  0.96326  0.18934  0.19243  1.0000
  H   H893      1.0  0.83119  0.11966  0.05530  1.0000
  C   C1109     1.0  0.87825  0.10232  0.04337  1.0000
  C   C1110     1.0  0.95164  0.19172  0.18025  1.0000
  C   C1111     1.0  0.92097  0.08873  0.14714  1.0000
  H   H894      1.0  0.89692  0.17414  0.02339  1.0000
  Fe  Fe71      1.0  0.76966  0.02579  0.10739  1.0000
  S   S146      1.0  0.72735  0.00740  0.09137  1.0000
  S   S147      1.0  0.79602  0.07242  0.11340  1.0000
  H   H895      1.0  0.80015  0.12078  0.07902  1.0000
  C   C1112     1.0  0.90409  0.12510  0.04840  1.0000
  S   S148      1.0  0.75508  0.99580  0.13118  1.0000
  C   C1113     1.0  0.82446  0.03299  0.04556  1.0000
  C   C1114     1.0  0.92720  0.17625  0.14871  1.0000
  C   C1115     1.0  0.88777  0.12071  0.10103  1.0000
  C   C1116     1.0  0.87311  0.09185  0.09736  1.0000
  C   C1117     1.0  0.84474  0.07696  0.10025  1.0000
  C   C1118     1.0  0.83079  0.09073  0.10718  1.0000
  C   C1119     1.0  0.84526  0.11972  0.11026  1.0000
  C   C1120     1.0  0.87354  0.13471  0.10702  1.0000
  H   H896      1.0  0.88392  0.08084  0.09276  1.0000
  H   H897      1.0  0.83398  0.05471  0.09788  1.0000
  H   H898      1.0  0.83462  0.13058  0.11551  1.0000
  H   H899      1.0  0.88447  0.15694  0.10970  1.0000
  C   C1121     1.0  0.96839  0.28783  0.21765  1.0000
  C   C1122     1.0  0.89173  0.15394  0.02874  1.0000
  H   H900      1.0  0.88735  0.12508  0.15919  1.0000
  C   C1123     1.0  0.96335  0.15179  0.01086  1.0000
  C   C1124     1.0  0.94062  0.17165  0.16484  1.0000
  C   C1125     1.0  0.85894  0.10517  0.03088  1.0000
  H   H901      1.0  0.73330  0.04571  0.21027  1.0000
  C   C1126     1.0  0.86793  0.08365  0.14678  1.0000
  H   H902      1.0  0.95672  0.11003  0.24052  1.0000
  H   H903      1.0  0.71902  0.03480  0.24338  1.0000
  C   C1127     1.0  0.95515  0.11651  0.22611  1.0000
  C   C1128     1.0  0.96574  0.29739  0.07625  1.0000
  H   H904      1.0  0.85377  0.04258  0.13410  1.0000
  C   C1129     1.0  0.94484  0.29898  0.24932  1.0000
  H   H905      1.0  0.97756  0.28377  0.20539  1.0000
  S   S149      1.0  0.95044  0.22957  0.03814  1.0000
  C   C1130     1.0  0.93281  0.13255  0.20241  1.0000
  H   H906      1.0  0.95883  0.12935  0.12565  1.0000
  C   C1131     1.0  0.95088  0.13302  0.18875  1.0000
  P   P39       1.0  0.94690  0.14217  0.16450  1.0000
  H   H907      1.0  0.95031  0.27790  0.08123  1.0000
  H   H908      1.0  0.93055  0.16871  0.04539  1.0000
  H   H909      1.0  0.76852  0.06202  0.00828  1.0000
  C   C1132     1.0  0.87154  0.06154  0.13983  1.0000
  H   H910      1.0  0.91992  0.16180  0.13624  1.0000
  H   H911      1.0  0.90076  0.04688  0.13460  1.0000
  H   H912      1.0  0.82491  0.04446  0.05861  1.0000
  C   C1133     1.0  0.73417  0.02843  0.21694  1.0000
  H   H913      1.0  0.92664  0.26399  0.20527  1.0000
  C   C1134     1.0  0.92361  0.19985  0.14840  1.0000
  H   H914      1.0  0.95943  0.30839  0.16344  1.0000
  Fe  Fe72      1.0  0.96975  0.24475  0.11224  1.0000
  H   H915      1.0  0.73807  0.03942  0.05841  1.0000
  C   C1135     1.0  0.79325  0.10289  0.06908  1.0000
  C   C1136     1.0  0.80250  0.07826  0.04339  1.0000
  H   H916      1.0  0.75353  0.08091  0.08072  1.0000
  C   C1137     1.0  0.97284  0.11638  0.21246  1.0000
  H   H917      1.0  0.91677  0.13811  0.19856  1.0000
  C   C1138     1.0  0.91079  0.15090  0.04115  1.0000
  H   H918      1.0  0.70869  0.99617  0.03208  1.0000
  H   H919      1.0  0.93146  0.23782  0.16356  1.0000
  C   C1139     1.0  0.71836  0.99354  0.01963  1.0000
  P   P40       1.0  0.82454  0.07663  0.02565  1.0000
  S   S150      1.0  0.96317  0.27319  0.13365  1.0000
  C   C1140     1.0  0.82192  0.99156  0.03032  1.0000
  C   C1141     1.0  0.77637  0.05549  0.04488  1.0000
  H   H920      1.0  0.94165  0.13668  0.01028  1.0000
  H   H921      1.0  0.96826  0.39993  0.14803  1.0000
  C   C1142     1.0  0.91759  0.11132  0.15370  1.0000
  C   C1143     1.0  0.76697  0.08038  0.07007  1.0000
  H   H922      1.0  0.74861  0.01668  0.19194  1.0000
  C   C1144     1.0  0.97062  0.12442  0.19379  1.0000
  C   C1145     1.0  0.89804  0.06407  0.14002  1.0000
  H   H923      1.0  0.95145  0.28603  0.04635  1.0000
  H   H924      1.0  0.91865  0.12293  0.05841  1.0000
  C   C1146     1.0  0.93971  0.27669  0.21762  1.0000
  C   C1147     1.0  0.82198  0.00211  0.01223  1.0000
  C   C1148     1.0  0.93388  0.21931  0.16403  1.0000
  C   C1149     1.0  0.89079  0.10840  0.15375  1.0000
  H   H925      1.0  0.85099  0.13423  0.01456  1.0000
  S   S151      1.0  0.78425  0.00106  0.08987  1.0000
  C   C1150     1.0  0.96712  0.23805  0.01623  1.0000
  H   H926      1.0  0.87324  0.08281  0.04967  1.0000
  Fe  Fe73      1.0  0.96724  0.22841  0.06867  1.0000
  H   H927      1.0  0.91346  0.20344  0.13581  1.0000
  H   H928      1.0  0.94449  0.19655  0.00334  1.0000
  C   C1151     1.0  0.75845  0.05684  0.05780  1.0000
  C   C1152     1.0  0.82455  0.04378  0.02743  1.0000
  C   C1153     1.0  0.81092  0.10200  0.05568  1.0000
  H   H929      1.0  0.84734  0.08172  0.14638  1.0000
  H   H930      1.0  0.90570  0.27347  0.23298  1.0000
  C   C1154     1.0  0.96631  0.30205  0.05660  1.0000
  H   H931      1.0  0.94127  0.09010  0.14756  1.0000
  C   C1155     1.0  0.93509  0.12451  0.22107  1.0000
  C   C1156     1.0  0.97842  0.15296  0.15253  1.0000
  H   H932      1.0  0.82271  0.99863  0.06096  1.0000
  C   C1157     1.0  0.82328  0.02810  0.01076  1.0000
  C   C1158     1.0  0.72607  0.02216  0.23568  1.0000
  C   C1159     1.0  0.74277  0.01206  0.20660  1.0000
  H   H933      1.0  0.92104  0.12414  0.23154  1.0000
  C   C1160     1.0  0.86583  0.13124  0.02370  1.0000
  C   C1161     1.0  0.82321  0.00701  0.04696  1.0000
  C   C1162     1.0  0.94806  0.21536  0.17990  1.0000
  C   C1163     1.0  0.92792  0.28218  0.23340  1.0000
  H   H934      1.0  0.76979  0.03673  0.03593  1.0000
  H   H935      1.0  0.95664  0.23086  0.19174  1.0000
  H   H936      1.0  0.96945  0.15141  0.04166  1.0000
  C   C1164     1.0  0.97360  0.31000  0.24921  1.0000
  C   C1165     1.0  0.97804  0.14364  0.13350  1.0000
  C   C1166     1.0  0.72630  0.99926  0.24419  1.0000
  C   C1167     1.0  0.71278  0.00146  0.00146  1.0000
  H   H937      1.0  0.94992  0.35423  0.24575  1.0000
  C   C1168     1.0  0.81144  0.07856  0.00163  1.0000
  C   C1169     1.0  0.74347  0.98950  0.21505  1.0000
  H   H938      1.0  0.97847  0.41770  0.11537  1.0000
  H   H939      1.0  0.90637  0.26980  0.33432  1.0000
  C   C1170     1.0  0.85740  0.30747  0.25532  1.0000
  C   C1171     1.0  0.88547  0.31591  0.25959  1.0000
  C   C1172     1.0  0.94476  0.15024  0.46498  1.0000
  C   C1173     1.0  0.94946  0.34358  0.27557  1.0000
  C   C1174     1.0  0.76845  0.10381  0.42569  1.0000
  Fe  Fe74      1.0  0.95460  0.19728  0.40182  1.0000
  S   S152      1.0  0.93285  0.15047  0.39530  1.0000
  S   S153      1.0  0.93529  0.22528  0.40459  1.0000
  Fe  Fe75      1.0  0.77565  0.02565  0.40222  1.0000
  S   S154      1.0  0.73003  0.01221  0.39734  1.0000
  S   S155      1.0  0.80349  0.07247  0.40176  1.0000
  H   H940      1.0  0.82473  0.02737  0.47948  1.0000
  C   C1175     1.0  0.74218  0.06042  0.44051  1.0000
  C   C1176     1.0  0.89709  0.12885  0.39813  1.0000
  C   C1177     1.0  0.88575  0.09994  0.39509  1.0000
  C   C1178     1.0  0.85727  0.08224  0.39649  1.0000
  C   C1179     1.0  0.83979  0.09332  0.40088  1.0000
  C   C1180     1.0  0.85122  0.12218  0.40417  1.0000
  C   C1181     1.0  0.87969  0.13984  0.40293  1.0000
  H   H941      1.0  0.89900  0.09121  0.39134  1.0000
  H   H942      1.0  0.84875  0.06012  0.39377  1.0000
  H   H943      1.0  0.83788  0.13099  0.40745  1.0000
  H   H944      1.0  0.88805  0.16200  0.40526  1.0000
  C   C1182     1.0  0.93225  0.28748  0.29026  1.0000
  H   H945      1.0  0.89184  0.21651  0.47740  1.0000
  C   C1183     1.0  0.80956  0.00648  0.48225  1.0000
  C   C1184     1.0  0.84069  0.13739  0.47336  1.0000
  C   C1185     1.0  0.76414  0.06735  0.45431  1.0000
  H   H946      1.0  0.81618  0.27306  0.25249  1.0000
  P   P41       1.0  0.93037  0.30663  0.26993  1.0000
  C   C1186     1.0  0.84184  0.15366  0.48963  1.0000
  H   H947      1.0  0.87253  0.10796  0.48234  1.0000
  C   C1187     1.0  0.65145  0.00268  0.28806  1.0000
  H   H948      1.0  0.88084  0.25292  0.26835  1.0000
  C   C1188     1.0  0.72609  0.99450  0.48413  1.0000
  H   H949      1.0  0.90402  0.29580  0.30633  1.0000
  H   H950      1.0  0.90033  0.08783  0.46869  1.0000
  S   S156      1.0  0.97033  0.28757  0.36853  1.0000
  C   C1189     1.0  0.91766  0.27058  0.32185  1.0000
  H   H951      1.0  0.83296  0.03767  0.42766  1.0000
  H   H952      1.0  0.72762  0.07277  0.41515  1.0000
  H   H953      1.0  0.92463  0.17560  0.46505  1.0000
  C   C1190     1.0  0.83661  0.08386  0.46286  1.0000
  C   C1191     1.0  0.68283  0.99380  0.26934  1.0000
  H   H954      1.0  0.64560  0.00699  0.30185  1.0000
  H   H955      1.0  0.75374  0.01332  0.33521  1.0000
  C   C1192     1.0  0.76142  0.03712  0.28273  1.0000
  H   H956      1.0  0.85797  0.13782  0.44599  1.0000
  C   C1193     1.0  0.94471  0.12787  0.49459  1.0000
  H   H957      1.0  0.97706  0.22033  0.47120  1.0000
  C   C1194     1.0  0.73674  0.00321  0.30575  1.0000
  H   H958      1.0  0.96254  0.24926  0.30650  1.0000
  C   C1195     1.0  0.97291  0.22865  0.48408  1.0000
  C   C1196     1.0  0.84137  0.05244  0.43998  1.0000
  H   H959      1.0  0.88059  0.05264  0.44148  1.0000
  C   C1197     1.0  0.85834  0.14998  0.45864  1.0000
  H   H960      1.0  0.79785  0.07361  0.29447  1.0000
  H   H961      1.0  0.85073  0.32264  0.25174  1.0000
  C   C1198     1.0  0.87756  0.19446  0.47631  1.0000
  C   C1199     1.0  0.87930  0.08081  0.46310  1.0000
  H   H962      1.0  0.68837  0.00369  0.30021  1.0000
  C   C1200     1.0  0.86356  0.09220  0.47070  1.0000
  H   H963      1.0  0.88967  0.18827  0.44849  1.0000
  H   H964      1.0  0.80544  0.05787  0.44071  1.0000
  P   P42       1.0  0.81730  0.10057  0.47128  1.0000
  H   H965      1.0  0.74516  0.00291  0.47702  1.0000
  C   C1201     1.0  0.93389  0.25721  0.32186  1.0000
  C   C1202     1.0  0.64082  0.99107  0.25386  1.0000
  H   H966      1.0  0.95053  0.15455  0.45030  1.0000
  C   C1203     1.0  0.86822  0.06097  0.44772  1.0000
  C   C1204     1.0  0.87635  0.17848  0.46000  1.0000
  C   C1205     1.0  0.77810  0.04533  0.31647  1.0000
  C   C1206     1.0  0.78080  0.05388  0.29757  1.0000
  C   C1207     1.0  0.73917  0.01161  0.28671  1.0000
  C   C1208     1.0  0.63392  0.99776  0.27152  1.0000
  C   C1209     1.0  0.92162  0.15610  0.49202  1.0000
  C   C1210     1.0  0.78839  0.09282  0.45408  1.0000
  H   H967      1.0  0.49522  0.42892  0.32763  1.0000
  C   C1211     1.0  0.97133  0.39060  0.26475  1.0000
  H   H968      1.0  0.94008  0.26418  0.49882  1.0000
  C   C1212     1.0  0.95613  0.36198  0.26063  1.0000
  Fe  Fe76      1.0  0.97217  0.25688  0.38984  1.0000
  C   C1213     1.0  0.92961  0.16173  0.47320  1.0000
  C   C1214     1.0  0.75606  0.01998  0.32054  1.0000
  H   H969      1.0  0.80901  0.13026  0.43852  1.0000
  H   H970      1.0  0.96147  0.27576  0.27880  1.0000
  H   H971      1.0  0.77047  0.11747  0.41420  1.0000
  C   C1215     1.0  0.74436  0.07857  0.42616  1.0000
  H   H972      1.0  0.76383  0.04424  0.26825  1.0000
  H   H973      1.0  0.76229  0.05254  0.46493  1.0000
  C   C1216     1.0  0.95759  0.24292  0.48271  1.0000
  C   C1217     1.0  0.79041  0.11094  0.43957  1.0000
  H   H974      1.0  0.61463  0.99841  0.27249  1.0000
  C   C1218     1.0  0.91663  0.28547  0.30606  1.0000
  H   H975      1.0  0.95375  0.34071  0.30650  1.0000
  S   S157      1.0  0.77045  0.00205  0.42913  1.0000
  H   H976      1.0  0.72363  0.04068  0.44070  1.0000
  C   C1219     1.0  0.82570  0.06391  0.44747  1.0000
  H   H977      1.0  0.77013  0.09861  0.49006  1.0000
  C   C1220     1.0  0.94933  0.25894  0.30616  1.0000
  H   H978      1.0  0.91021  0.16566  0.49805  1.0000
  H   H979      1.0  0.81318  0.98877  0.45519  1.0000
  Fe  Fe77      1.0  0.96211  0.24117  0.43242  1.0000
  S   S158      1.0  0.94498  0.24795  0.46001  1.0000
  H   H980      1.0  0.79296  0.05837  0.32802  1.0000
  C   C1221     1.0  0.95259  0.13355  0.47573  1.0000
  C   C1222     1.0  0.94872  0.27418  0.29047  1.0000
  C   C1223     1.0  0.89426  0.29637  0.26430  1.0000
  H   H981      1.0  0.93524  0.24632  0.33435  1.0000
  C   C1224     1.0  0.67575  0.00063  0.28704  1.0000
  C   C1225     1.0  0.80384  0.08877  0.49437  1.0000
  H   H982      1.0  0.83137  0.23834  0.26086  1.0000
  C   C1226     1.0  0.66508  0.98901  0.25277  1.0000
  C   C1227     1.0  0.84649  0.25999  0.26046  1.0000
  C   C1228     1.0  0.87452  0.26834  0.26472  1.0000
  H   H983      1.0  0.90005  0.33766  0.25927  1.0000
  C   C1229     1.0  0.83792  0.27954  0.25576  1.0000
  C   C1230     1.0  0.79624  0.00114  0.49938  1.0000
  C   C1231     1.0  0.86038  0.18206  0.49113  1.0000
  C   C1232     1.0  0.95823  0.35428  0.29467  1.0000
  H   H984      1.0  0.96470  0.12498  0.46938  1.0000
  C   C1233     1.0  0.95203  0.25317  0.49974  1.0000
  S   S159      1.0  0.77337  0.99110  0.38275  1.0000
  C   C1234     1.0  0.97367  0.38289  0.29871  1.0000
  H   H985      1.0  0.97695  0.40478  0.25319  1.0000
  P   P43       1.0  0.71358  0.98991  0.26778  1.0000
  C   C1235     1.0  0.78029  0.09037  0.49965  1.0000
  H   H986      1.0  0.82852  0.14459  0.50118  1.0000
  Fe  Fe78      1.0  0.91207  0.30383  0.73221  1.0000
  S   S160      1.0  0.87710  0.31077  0.72057  1.0000
  S   S161      1.0  0.94155  0.29420  0.71532  1.0000
  H   H987      1.0  0.49733  0.24847  0.74356  1.0000
  C   C1236     1.0  0.52386  0.40957  0.68444  1.0000
  H   H988      1.0  0.93412  0.11269  0.56390  1.0000
  H   H989      1.0  0.69410  0.99036  0.71733  1.0000
  C   C1237     1.0  0.76941  0.08109  0.51734  1.0000
  H   H990      1.0  0.75930  0.08710  0.62932  1.0000
  C   C1238     1.0  0.92109  0.18132  0.54042  1.0000
  C   C1239     1.0  0.90441  0.15314  0.53520  1.0000
  C   C1240     1.0  0.89597  0.09609  0.53065  1.0000
  H   H991      1.0  0.80533  0.07516  0.62844  1.0000
  C   C1241     1.0  0.48329  0.39738  0.70196  1.0000
  S   S162      1.0  0.62312  0.04095  0.73568  1.0000
  H   H992      1.0  0.74616  0.00483  0.51322  1.0000
  Fe  Fe79      1.0  0.65849  0.07238  0.72001  1.0000
  S   S163      1.0  0.66732  0.06692  0.68850  1.0000
  S   S164      1.0  0.64748  0.10639  0.72729  1.0000
  C   C1242     1.0  0.83384  0.18290  0.60210  1.0000
  S   S165      1.0  0.72739  0.01093  0.64131  1.0000
  Fe  Fe80      1.0  0.78460  0.04373  0.58408  1.0000
  S   S166      1.0  0.81332  0.08848  0.57918  1.0000
  S   S167      1.0  0.74053  0.03485  0.58552  1.0000
  H   H993      1.0  0.80109  0.01784  0.50998  1.0000
  H   H994      1.0  0.86682  0.03202  0.50739  1.0000
  S   S168      1.0  0.94040  0.14753  0.60702  1.0000
  S   S169      1.0  0.94888  0.21900  0.58762  1.0000
  S   S170      1.0  0.77508  0.00852  0.56268  1.0000
  H   H995      1.0  0.90128  0.22947  0.59801  1.0000
  C   C1243     1.0  0.80717  0.24530  0.66673  1.0000
  C   C1244     1.0  0.84801  0.10452  0.58832  1.0000
  C   C1245     1.0  0.86420  0.13289  0.58608  1.0000
  C   C1246     1.0  0.89238  0.14628  0.59212  1.0000
  C   C1247     1.0  0.90466  0.13142  0.60040  1.0000
  C   C1248     1.0  0.88827  0.10311  0.60314  1.0000
  C   C1249     1.0  0.85991  0.08967  0.59722  1.0000
  H   H996      1.0  0.85500  0.14457  0.57952  1.0000
  H   H997      1.0  0.90452  0.16802  0.59011  1.0000
  H   H998      1.0  0.89761  0.09150  0.60966  1.0000
  H   H999      1.0  0.84744  0.06779  0.59918  1.0000
  C   C1250     1.0  0.95169  0.47559  0.65471  1.0000
  S   S171      1.0  0.56841  0.07042  0.73932  1.0000
  H   H1000     1.0  0.54224  0.44997  0.67315  1.0000
  C   C1251     1.0  0.83159  0.11694  0.63962  1.0000
  C   C1252     1.0  0.88233  0.08849  0.54774  1.0000
  C   C1253     1.0  0.68606  0.05303  0.67597  1.0000
  C   C1254     1.0  0.69975  0.04012  0.68532  1.0000
  C   C1255     1.0  0.71266  0.02785  0.67451  1.0000
  C   C1256     1.0  0.71227  0.02842  0.65423  1.0000
  C   C1257     1.0  0.69919  0.04194  0.64496  1.0000
  C   C1258     1.0  0.68627  0.05417  0.65575  1.0000
  H   H1001     1.0  0.69979  0.03899  0.70081  1.0000
  H   H1002     1.0  0.72268  0.01750  0.68191  1.0000
  H   H1003     1.0  0.72669  0.08451  0.60258  1.0000
  H   H1004     1.0  0.86207  0.12061  0.52998  1.0000
  H   H1005     1.0  0.79133  0.13103  0.73444  1.0000
  C   C1259     1.0  0.51652  0.06774  0.73228  1.0000
  H   H1006     1.0  0.51758  0.06075  0.71783  1.0000
  C   C1260     1.0  0.94181  0.28643  0.69031  1.0000
  C   C1261     1.0  0.92697  0.29251  0.67595  1.0000
  S   S172      1.0  0.95076  0.27297  0.62565  1.0000
  C   C1262     1.0  0.94699  0.27700  0.65067  1.0000
  Fe  Fe81      1.0  0.88728  0.34145  0.74613  1.0000
  C   C1263     1.0  0.95883  0.27519  0.68468  1.0000
  C   C1264     1.0  0.88317  0.21339  0.60397  1.0000
  H   H1007     1.0  0.77764  0.27061  0.73498  1.0000
  C   C1265     1.0  0.96298  0.25040  0.51789  1.0000
  C   C1266     1.0  0.48329  0.22755  0.73801  1.0000
  C   C1267     1.0  0.55088  0.47856  0.74964  1.0000
  H   H1008     1.0  0.52217  0.22284  0.66437  1.0000
  H   H1009     1.0  0.70489  0.11517  0.60369  1.0000
  C   C1268     1.0  0.80598  0.06953  0.52514  1.0000
  S   S173      1.0  0.81170  0.24142  0.72587  1.0000
  H   H1010     1.0  0.97828  0.12547  0.58187  1.0000
  Fe  Fe82      1.0  0.61332  0.07554  0.74445  1.0000
  H   H1011     1.0  0.85990  0.46605  0.69371  1.0000
  H   H1012     1.0  0.86120  0.45834  0.72708  1.0000
  C   C1269     1.0  0.50642  0.44266  0.68857  1.0000
  C   C1270     1.0  0.78534  0.28768  0.74575  1.0000
  C   C1271     1.0  0.72084  0.16079  0.67306  1.0000
  P   P44       1.0  0.91987  0.13219  0.52750  1.0000
  H   H1013     1.0  0.84137  0.14978  0.53934  1.0000
  H   H1014     1.0  0.87132  0.19980  0.54839  1.0000
  C   C1272     1.0  0.86265  0.18275  0.62980  1.0000
  H   H1015     1.0  0.82980  0.14192  0.68457  1.0000
  C   C1273     1.0  0.87475  0.21395  0.70478  1.0000
  Fe  Fe83      1.0  0.97291  0.25129  0.61174  1.0000
  H   H1016     1.0  0.79328  0.09382  0.68637  1.0000
  C   C1274     1.0  0.48521  0.42336  0.69899  1.0000
  C   C1275     1.0  0.69644  0.13530  0.67181  1.0000
  H   H1017     1.0  0.75092  0.08182  0.52119  1.0000
  C   C1276     1.0  0.81523  0.24879  0.64787  1.0000
  C   C1277     1.0  0.83647  0.17306  0.62003  1.0000
  C   C1278     1.0  0.87243  0.19382  0.69100  1.0000
  C   C1279     1.0  0.80226  0.16046  0.71229  1.0000
  C   C1280     1.0  0.86306  0.23751  0.67995  1.0000
  H   H1018     1.0  0.90628  0.21178  0.62921  1.0000
  H   H1019     1.0  0.84194  0.12298  0.62639  1.0000
  C   C1281     1.0  0.81088  0.08968  0.64077  1.0000
  H   H1020     1.0  0.80747  0.18659  0.68888  1.0000
  C   C1282     1.0  0.86364  0.15874  0.53940  1.0000
  C   C1283     1.0  0.67179  0.15672  0.68654  1.0000
  C   C1284     1.0  0.86998  0.23572  0.69923  1.0000
  C   C1285     1.0  0.95277  0.12843  0.55843  1.0000
  C   C1286     1.0  0.86036  0.21730  0.66614  1.0000
  C   C1287     1.0  0.87553  0.14210  0.53435  1.0000
  C   C1288     1.0  0.87118  0.04784  0.51865  1.0000
  P   P45       1.0  0.86588  0.17141  0.65351  1.0000
  C   C1289     1.0  0.53897  0.07453  0.74600  1.0000
  H   H1021     1.0  0.77843  0.18243  0.62972  1.0000
  C   C1290     1.0  0.72014  0.18436  0.68083  1.0000
  H   H1022     1.0  0.90022  0.08053  0.50282  1.0000
  C   C1291     1.0  0.80488  0.22594  0.63469  1.0000
  H   H1023     1.0  0.83489  0.07696  0.50372  1.0000
  C   C1292     1.0  0.83889  0.13619  0.65537  1.0000
  H   H1024     1.0  0.82271  0.17390  0.71898  1.0000
  C   C1293     1.0  0.81666  0.07829  0.50728  1.0000
  C   C1294     1.0  0.74880  0.12688  0.69575  1.0000
  H   H1025     1.0  0.86070  0.25517  0.67570  1.0000
  C   C1295     1.0  0.87119  0.42509  0.73275  1.0000
  H   H1026     1.0  0.81594  0.06180  0.53530  1.0000
  C   C1296     1.0  0.82496  0.12763  0.67228  1.0000
  H   H1027     1.0  0.81368  0.17485  0.59444  1.0000
  C   C1297     1.0  0.80421  0.10025  0.67339  1.0000
  C   C1298     1.0  0.80227  0.31472  0.74061  1.0000
  C   C1299     1.0  0.78455  0.13639  0.72104  1.0000
  H   H1028     1.0  0.78081  0.06015  0.65836  1.0000
  H   H1029     1.0  0.72791  0.11362  0.68975  1.0000
  H   H1030     1.0  0.68558  0.00294  0.74975  1.0000
  H   H1031     1.0  0.67582  0.06410  0.64831  1.0000
  S   S174      1.0  0.78458  0.01987  0.60976  1.0000
  S   S175      1.0  0.88211  0.38096  0.74023  1.0000
  H   H1032     1.0  0.81144  0.22859  0.62013  1.0000
  H   H1033     1.0  0.85558  0.21961  0.65124  1.0000
  C   C1300     1.0  0.86507  0.19525  0.67156  1.0000
  C   C1301     1.0  0.79715  0.08128  0.65763  1.0000
  H   H1034     1.0  0.97019  0.27026  0.69566  1.0000
  C   C1302     1.0  0.92962  0.28787  0.65628  1.0000
  H   H1035     1.0  0.69621  0.11661  0.66614  1.0000
  C   C1303     1.0  0.52571  0.43549  0.68127  1.0000
  C   C1304     1.0  0.79333  0.16776  0.69522  1.0000
  H   H1036     1.0  0.91837  0.29305  0.64533  1.0000
  H   H1037     1.0  0.81559  0.26283  0.67718  1.0000
  P   P46       1.0  0.50901  0.47619  0.68407  1.0000
  C   C1305     1.0  0.76623  0.15137  0.68705  1.0000
  C   C1306     1.0  0.48111  0.20500  0.74819  1.0000
  C   C1307     1.0  0.89603  0.47234  0.74781  1.0000
  Fe  Fe84      1.0  0.73962  0.00897  0.61034  1.0000
  H   H1038     1.0  0.51406  0.24977  0.63898  1.0000
  C   C1308     1.0  0.75792  0.11945  0.71265  1.0000
  C   C1309     1.0  0.50262  0.39050  0.69478  1.0000
  C   C1310     1.0  0.63676  0.98743  0.66749  1.0000
  H   H1039     1.0  0.94333  0.19039  0.54092  1.0000
  C   C1311     1.0  0.78883  0.21902  0.67242  1.0000
  H   H1040     1.0  0.85517  0.21093  0.58029  1.0000
  H   H1041     1.0  0.92227  0.21995  0.54873  1.0000
  H   H1042     1.0  0.80792  0.31864  0.72588  1.0000
  C   C1312     1.0  0.76212  0.19449  0.72794  1.0000
  S   S176      1.0  0.88540  0.26884  0.75018  1.0000
  C   C1313     1.0  0.88822  0.41648  0.74331  1.0000
  C   C1314     1.0  0.49282  0.47475  0.66048  1.0000
  C   C1315     1.0  0.87499  0.45259  0.73497  1.0000
  H   H1043     1.0  0.73828  0.20432  0.68218  1.0000
  H   H1044     1.0  0.82980  0.26914  0.64358  1.0000
  C   C1316     1.0  0.90915  0.19812  0.54491  1.0000
  H   H1045     1.0  0.65370  0.11330  0.67808  1.0000
  H   H1046     1.0  0.97502  0.26230  0.66102  1.0000
  H   H1047     1.0  0.85302  0.05523  0.56352  1.0000
  C   C1317     1.0  0.69575  0.18227  0.68758  1.0000
  C   C1318     1.0  0.85787  0.04051  0.53576  1.0000
  C   C1319     1.0  0.97799  0.13551  0.56868  1.0000
  H   H1048     1.0  0.69846  0.04241  0.62943  1.0000
  Fe  Fe85      1.0  0.85105  0.27741  0.73997  1.0000
  H   H1049     1.0  0.69558  0.20038  0.69402  1.0000
  C   C1320     1.0  0.50269  0.22335  0.66294  1.0000
  C   C1321     1.0  0.95196  0.14214  0.54180  1.0000
  C   C1322     1.0  0.89020  0.07548  0.51612  1.0000
  H   H1050     1.0  0.88620  0.10401  0.55912  1.0000
  H   H1051     1.0  0.76254  0.19194  0.71261  1.0000
  C   C1323     1.0  0.49812  0.23850  0.64863  1.0000
  C   C1324     1.0  0.49270  0.06990  0.73695  1.0000
  H   H1052     1.0  0.65308  0.15493  0.69221  1.0000
  H   H1053     1.0  0.72216  0.15837  0.72872  1.0000
  Fe  Fe86      1.0  0.96499  0.19357  0.60306  1.0000
  H   H1054     1.0  0.48604  0.19720  0.68647  1.0000
  C   C1325     1.0  0.49140  0.48598  0.70142  1.0000
  H   H1055     1.0  0.84318  0.01911  0.53780  1.0000
  C   C1326     1.0  0.89914  0.17236  0.65683  1.0000
  C   C1327     1.0  0.90260  0.14952  0.65108  1.0000
  C   C1328     1.0  0.92848  0.15061  0.65375  1.0000
  C   C1329     1.0  0.96148  0.27053  0.66504  1.0000
  C   C1330     1.0  0.94792  0.19741  0.66763  1.0000
  C   C1331     1.0  0.92212  0.19643  0.66496  1.0000
  H   H1056     1.0  0.74397  0.10085  0.71944  1.0000
  H   H1057     1.0  0.81806  0.15787  0.62621  1.0000
  H   H1058     1.0  0.88570  0.13104  0.64414  1.0000
  H   H1059     1.0  0.93116  0.13322  0.64872  1.0000
  S   S177      1.0  0.68921  0.08394  0.74559  1.0000
  H   H1060     1.0  0.51005  0.01045  0.74110  1.0000
  H   H1061     1.0  0.92032  0.21470  0.66897  1.0000
  H   H1062     1.0  0.88100  0.21323  0.71970  1.0000
  H   H1063     1.0  0.87726  0.17767  0.69539  1.0000
  H   H1064     1.0  0.87234  0.25168  0.70975  1.0000
  H   H1065     1.0  0.91394  0.30135  0.68001  1.0000
  C   C1332     1.0  0.88595  0.20325  0.62174  1.0000
  C   C1333     1.0  0.78227  0.07070  0.53009  1.0000
  H   H1066     1.0  0.97097  0.35408  0.68440  1.0000
  H   H1067     1.0  0.50119  0.37046  0.69736  1.0000
  C   C1334     1.0  0.88046  0.18680  0.54462  1.0000
  H   H1068     1.0  0.71611  0.14868  0.63141  1.0000
  H   H1069     1.0  0.49664  0.43968  0.64896  1.0000
  H   H1070     1.0  0.77391  0.06365  0.54387  1.0000
  H   H1071     1.0  0.95987  0.25965  0.53079  1.0000
  C   C1335     1.0  0.54474  0.45053  0.74717  1.0000
  C   C1336     1.0  0.67211  0.13330  0.67854  1.0000
  C   C1337     1.0  0.86350  0.06084  0.55029  1.0000
  C   C1338     1.0  0.77759  0.19597  0.65918  1.0000
  C   C1339     1.0  0.78608  0.19967  0.64026  1.0000
  P   P47       1.0  0.75284  0.16200  0.66639  1.0000
  H   H1072     1.0  0.93921  0.45898  0.64406  1.0000
  C   C1340     1.0  0.74430  0.13702  0.64638  1.0000
  C   C1341     1.0  0.72575  0.13541  0.63110  1.0000
  C   C1342     1.0  0.71945  0.11656  0.61534  1.0000
  C   C1343     1.0  0.73173  0.09933  0.61468  1.0000
  C   C1344     1.0  0.75028  0.10091  0.62977  1.0000
  C   C1345     1.0  0.75662  0.11971  0.64556  1.0000
  H   H1073     1.0  0.77094  0.12060  0.65712  1.0000
  C   C1346     1.0  0.85719  0.20309  0.59408  1.0000
  H   H1074     1.0  0.85467  0.41025  0.72289  1.0000
  H   H1075     1.0  0.78381  0.21682  0.68728  1.0000
  H   H1076     1.0  0.95109  0.11508  0.50283  1.0000
  C   C1347     1.0  0.78415  0.21695  0.73843  1.0000
  C   C1348     1.0  0.73911  0.17533  0.73708  1.0000
  C   C1349     1.0  0.50102  0.46222  0.75026  1.0000
  C   C1350     1.0  0.72668  0.99549  0.50466  1.0000
  H   H1077     1.0  0.55664  0.48286  0.70873  1.0000
  H   H1078     1.0  0.96552  0.21619  0.67365  1.0000
  H   H1079     1.0  0.51314  0.40743  0.74411  1.0000
  C   C1351     1.0  0.92872  0.13869  0.50278  1.0000
  C   C1352     1.0  0.95114  0.17453  0.66198  1.0000
  C   C1353     1.0  0.97488  0.47613  0.66439  1.0000
  H   H1080     1.0  0.53898  0.40433  0.67895  1.0000
  H   H1081     1.0  0.63036  0.00247  0.67211  1.0000
  C   C1354     1.0  0.48219  0.20889  0.67546  1.0000
  C   C1355     1.0  0.87014  0.48593  0.68734  1.0000
  C   C1356     1.0  0.48975  0.45483  0.64613  1.0000
  C   C1357     1.0  0.97675  0.16362  0.53601  1.0000
  H   H1082     1.0  0.97665  0.17542  0.52380  1.0000
  H   H1083     1.0  0.63058  0.99213  0.63730  1.0000
  C   C1358     1.0  0.52862  0.48411  0.75117  1.0000
  H   H1084     1.0  0.82671  0.35732  0.75046  1.0000
  H   H1085     1.0  0.56154  0.44568  0.74593  1.0000
  C   C1359     1.0  0.49487  0.43421  0.74777  1.0000
  Fe  Fe87      1.0  0.73098  0.99773  0.56569  1.0000
  H   H1086     1.0  0.97130  0.17556  0.66344  1.0000
  H   H1087     1.0  0.86140  0.19458  0.50373  1.0000
  C   C1360     1.0  0.51714  0.42863  0.74621  1.0000
  Fe  Fe88      1.0  0.96294  0.18812  0.90031  1.0000
  S   S178      1.0  0.95462  0.22459  0.90278  1.0000
  S   S179      1.0  0.93476  0.14298  0.89190  1.0000
  H   H1088     1.0  0.73389  0.32866  0.82110  1.0000
  H   H1089     1.0  0.73059  0.19095  0.83133  1.0000
  C   C1361     1.0  0.78315  0.06972  0.99738  1.0000
  H   H1090     1.0  0.66606  0.06183  0.81276  1.0000
  C   C1362     1.0  0.53692  0.08363  0.76459  1.0000
  C   C1363     1.0  0.79680  0.35923  0.84616  1.0000
  Fe  Fe89      1.0  0.78105  0.04696  0.91130  1.0000
  S   S180      1.0  0.81201  0.09226  0.91575  1.0000
  S   S181      1.0  0.73972  0.04313  0.91634  1.0000
  C   C1364     1.0  0.66463  0.12046  0.82336  1.0000
  H   H1091     1.0  0.56682  0.47104  0.79232  1.0000
  S   S182      1.0  0.89848  0.28878  0.80516  1.0000
  Fe  Fe90      1.0  0.65366  0.05488  0.76202  1.0000
  S   S183      1.0  0.66293  0.02522  0.77999  1.0000
  S   S184      1.0  0.64152  0.08683  0.77189  1.0000
  H   H1092     1.0  0.69869  0.12571  0.80726  1.0000
  H   H1093     1.0  0.51077  0.01867  0.80260  1.0000
  C   C1365     1.0  0.52781  0.44171  0.80252  1.0000
  H   H1094     1.0  0.87840  0.32288  0.82760  1.0000
  C   C1366     1.0  0.51299  0.08554  0.76932  1.0000
  C   C1367     1.0  0.48163  0.37640  0.80413  1.0000
  C   C1368     1.0  0.96624  0.27906  0.82163  1.0000
  H   H1095     1.0  0.53579  0.02408  0.77301  1.0000
  H   H1096     1.0  0.51193  0.09243  0.78379  1.0000
  C   C1369     1.0  0.82939  0.08761  0.98669  1.0000
  C   C1370     1.0  0.84672  0.20139  0.78092  1.0000
  H   H1097     1.0  0.75143  0.15438  0.79390  1.0000
  S   S185      1.0  0.76596  0.02094  0.88361  1.0000
  C   C1371     1.0  0.75196  0.19924  0.82804  1.0000
  C   C1372     1.0  0.74662  0.09946  0.81861  1.0000
  H   H1098     1.0  0.63421  0.11717  0.84279  1.0000
  C   C1373     1.0  0.69233  0.03141  0.84437  1.0000
  H   H1099     1.0  0.69879  0.01018  0.00010  1.0000
  C   C1374     1.0  0.67536  0.02916  0.80469  1.0000
  C   C1375     1.0  0.68581  0.01168  0.81154  1.0000
  C   C1376     1.0  0.69452  0.01297  0.83120  1.0000
  C   C1377     1.0  0.49030  0.40707  0.88152  1.0000
  C   C1378     1.0  0.90307  0.35498  0.80922  1.0000
  H   H1100     1.0  0.48792  0.31601  0.77844  1.0000
  C   C1379     1.0  0.79329  0.23744  0.81725  1.0000
  C   C1380     1.0  0.77314  0.07028  0.97862  1.0000
  C   C1381     1.0  0.90056  0.12903  0.89830  1.0000
  C   C1382     1.0  0.89209  0.14491  0.90930  1.0000
  C   C1383     1.0  0.86469  0.13337  0.91435  1.0000
  C   C1384     1.0  0.84584  0.10581  0.90870  1.0000
  C   C1385     1.0  0.85423  0.08989  0.89764  1.0000
  C   C1386     1.0  0.88161  0.10157  0.89239  1.0000
  H   H1101     1.0  0.90671  0.16602  0.91400  1.0000
  H   H1102     1.0  0.85820  0.14571  0.92291  1.0000
  H   H1103     1.0  0.83968  0.06864  0.89320  1.0000
  H   H1104     1.0  0.88817  0.08925  0.88388  1.0000
  C   C1387     1.0  0.96104  0.26953  0.84039  1.0000
  C   C1388     1.0  0.75987  0.20091  0.76749  1.0000
  C   C1389     1.0  0.94722  0.28453  0.81052  1.0000
  C   C1390     1.0  0.92273  0.28088  0.81808  1.0000
  C   C1391     1.0  0.91731  0.27097  0.83673  1.0000
  C   C1392     1.0  0.93618  0.26515  0.84776  1.0000
  H   H1105     1.0  0.95180  0.29211  0.79625  1.0000
  H   H1106     1.0  0.89853  0.26812  0.84278  1.0000
  H   H1107     1.0  0.92262  0.43036  0.76450  1.0000
  H   H1108     1.0  0.67920  0.02881  0.93722  1.0000
  C   C1393     1.0  0.50198  0.43735  0.80820  1.0000
  H   H1109     1.0  0.49348  0.20840  0.76161  1.0000
  C   C1394     1.0  0.66532  0.01149  0.92746  1.0000
  H   H1110     1.0  0.49536  0.35740  0.76070  1.0000
  H   H1111     1.0  0.68687  0.99678  0.80162  1.0000
  P   P48       1.0  0.82319  0.35943  0.79225  1.0000
  C   C1395     1.0  0.80163  0.35383  0.81204  1.0000
  C   C1396     1.0  0.85485  0.35897  0.79980  1.0000
  C   C1397     1.0  0.85458  0.33982  0.81295  1.0000
  H   H1112     1.0  0.70213  0.99912  0.83625  1.0000
  C   C1398     1.0  0.80647  0.33174  0.77385  1.0000
  C   C1399     1.0  0.90338  0.37379  0.79590  1.0000
  C   C1400     1.0  0.87935  0.37571  0.79117  1.0000
  C   C1401     1.0  0.77283  0.34180  0.80856  1.0000
  C   C1402     1.0  0.75612  0.33804  0.82386  1.0000
  C   C1403     1.0  0.76809  0.34665  0.84266  1.0000
  C   C1404     1.0  0.65992  0.01593  0.90840  1.0000
  C   C1405     1.0  0.81356  0.36301  0.83089  1.0000
  C   C1406     1.0  0.82901  0.39250  0.78370  1.0000
  H   H1113     1.0  0.52498  0.40025  0.87639  1.0000
  H   H1114     1.0  0.53289  0.42491  0.80177  1.0000
  H   H1115     1.0  0.74847  0.12386  0.76657  1.0000
  C   C1407     1.0  0.95875  0.21786  0.00092  1.0000
  C   C1408     1.0  0.85084  0.41718  0.79214  1.0000
  C   C1409     1.0  0.81061  0.39394  0.76954  1.0000
  C   C1410     1.0  0.50801  0.40276  0.86987  1.0000
  C   C1411     1.0  0.68218  0.04912  0.83747  1.0000
  S   S186      1.0  0.70803  0.15646  0.76857  1.0000
  H   H1116     1.0  0.82788  0.22974  0.81416  1.0000
  H   H1117     1.0  0.83564  0.32580  0.81914  1.0000
  C   C1412     1.0  0.54735  0.46795  0.79746  1.0000
  Fe  Fe91      1.0  0.72399  0.01576  0.88920  1.0000
  H   H1118     1.0  0.66973  0.03668  0.90325  1.0000
  H   H1119     1.0  0.87974  0.38971  0.78038  1.0000
  H   H1120     1.0  0.93174  0.25784  0.86212  1.0000
  C   C1413     1.0  0.91307  0.46373  0.75834  1.0000
  H   H1121     1.0  0.75514  0.34386  0.85449  1.0000
  H   H1122     1.0  0.92147  0.35286  0.81250  1.0000
  H   H1123     1.0  0.83580  0.37332  0.83378  1.0000
  C   C1414     1.0  0.79282  0.19415  0.82413  1.0000
  C   C1415     1.0  0.74871  0.11724  0.78111  1.0000
  C   C1416     1.0  0.67458  0.13258  0.85756  1.0000
  H   H1124     1.0  0.75885  0.20359  0.78280  1.0000
  H   H1125     1.0  0.86490  0.41670  0.80343  1.0000
  C   C1417     1.0  0.80378  0.08234  0.82654  1.0000
  C   C1418     1.0  0.79248  0.07563  0.84438  1.0000
  C   C1419     1.0  0.80287  0.09539  0.85980  1.0000
  C   C1420     1.0  0.82405  0.12208  0.85733  1.0000
  C   C1421     1.0  0.83499  0.12934  0.83929  1.0000
  C   C1422     1.0  0.82517  0.10894  0.82406  1.0000
  P   P49       1.0  0.86307  0.16362  0.83593  1.0000
  C   C1423     1.0  0.86682  0.18726  0.85583  1.0000
  C   C1424     1.0  0.89539  0.16224  0.83671  1.0000
  C   C1425     1.0  0.89580  0.13680  0.83754  1.0000
  C   C1426     1.0  0.92093  0.13617  0.83978  1.0000
  C   C1427     1.0  0.94585  0.16082  0.84107  1.0000
  C   C1428     1.0  0.94565  0.18615  0.84025  1.0000
  C   C1429     1.0  0.92061  0.18691  0.83849  1.0000
  C   C1430     1.0  0.85883  0.20794  0.85354  1.0000
  C   C1431     1.0  0.86231  0.22629  0.86905  1.0000
  C   C1432     1.0  0.87385  0.22419  0.88691  1.0000
  C   C1433     1.0  0.88189  0.20371  0.88929  1.0000
  C   C1434     1.0  0.87861  0.18547  0.87380  1.0000
  C   C1435     1.0  0.85711  0.17733  0.81361  1.0000
  C   C1436     1.0  0.83107  0.16457  0.80321  1.0000
  C   C1437     1.0  0.82599  0.17653  0.78694  1.0000
  C   C1438     1.0  0.87258  0.21427  0.79111  1.0000
  C   C1439     1.0  0.87777  0.20239  0.80734  1.0000
  H   H1126     1.0  0.79606  0.06680  0.81471  1.0000
  H   H1127     1.0  0.77594  0.05502  0.84640  1.0000
  H   H1128     1.0  0.79472  0.08988  0.87382  1.0000
  H   H1129     1.0  0.83188  0.13665  0.86968  1.0000
  H   H1130     1.0  0.83412  0.11362  0.81027  1.0000
  H   H1131     1.0  0.87691  0.11742  0.83732  1.0000
  H   H1132     1.0  0.92106  0.11662  0.84138  1.0000
  C   C1440     1.0  0.49053  0.07871  0.75561  1.0000
  S   S187      1.0  0.92458  0.33649  0.75681  1.0000
  H   H1133     1.0  0.92118  0.20689  0.83944  1.0000
  H   H1134     1.0  0.85045  0.21039  0.83977  1.0000
  H   H1135     1.0  0.85655  0.24250  0.86710  1.0000
  H   H1136     1.0  0.87692  0.23863  0.89887  1.0000
  H   H1137     1.0  0.89102  0.20215  0.90310  1.0000
  H   H1138     1.0  0.88537  0.16997  0.87582  1.0000
  H   H1139     1.0  0.81410  0.14609  0.80799  1.0000
  H   H1140     1.0  0.80574  0.16693  0.77926  1.0000
  H   H1141     1.0  0.89769  0.21352  0.81523  1.0000
  H   H1142     1.0  0.74501  0.09165  0.83284  1.0000
  H   H1143     1.0  0.80328  0.18175  0.82481  1.0000
  H   H1144     1.0  0.74314  0.07696  0.77204  1.0000
  H   H1145     1.0  0.78320  0.07974  0.94941  1.0000
  H   H1146     1.0  0.80399  0.25833  0.81240  1.0000
  H   H1147     1.0  0.79317  0.37528  0.76320  1.0000
  C   C1441     1.0  0.69231  0.12750  0.82146  1.0000
  C   C1442     1.0  0.74571  0.09090  0.78419  1.0000
  H   H1148     1.0  0.65010  0.11326  0.81078  1.0000
  C   C1443     1.0  0.70233  0.13986  0.85571  1.0000
  C   C1444     1.0  0.65572  0.12280  0.84140  1.0000
  C   C1445     1.0  0.78214  0.13245  0.89329  1.0000
  C   C1446     1.0  0.74910  0.12579  0.81563  1.0000
  H   H1149     1.0  0.96524  0.16037  0.84356  1.0000
  H   H1150     1.0  0.80004  0.23695  0.76665  1.0000
  C   C1447     1.0  0.67407  0.04827  0.81775  1.0000
  H   H1151     1.0  0.71672  0.14775  0.86835  1.0000
  H   H1152     1.0  0.74585  0.09246  0.89125  1.0000
  Fe  Fe92      1.0  0.89526  0.30110  0.77394  1.0000
  C   C1448     1.0  0.79687  0.15736  0.88445  1.0000
  C   C1449     1.0  0.76164  0.14122  0.85770  1.0000
  C   C1450     1.0  0.49938  0.01263  0.78862  1.0000
  H   H1153     1.0  0.92202  0.38635  0.78881  1.0000
  C   C1451     1.0  0.81927  0.08820  0.96793  1.0000
  C   C1452     1.0  0.79115  0.07955  0.96393  1.0000
  S   S188      1.0  0.77492  0.01186  0.92999  1.0000
  H   H1154     1.0  0.55369  0.08895  0.77545  1.0000
  P   P50       1.0  0.74732  0.14703  0.83527  1.0000
  H   H1155     1.0  0.75125  0.06305  0.97537  1.0000
  H   H1156     1.0  0.84034  0.46400  0.76656  1.0000
  H   H1157     1.0  0.66770  0.13455  0.87154  1.0000
  H   H1158     1.0  0.88853  0.23393  0.78671  1.0000
  C   C1453     1.0  0.75041  0.13459  0.79674  1.0000
  H   H1159     1.0  0.72724  0.10026  0.86048  1.0000
  C   C1454     1.0  0.87870  0.33806  0.81776  1.0000
  H   H1160     1.0  0.79833  0.18143  0.86047  1.0000
  C   C1455     1.0  0.83680  0.44406  0.77157  1.0000
  H   H1161     1.0  0.81630  0.17315  0.89133  1.0000
  H   H1162     1.0  0.75532  0.23879  0.82112  1.0000
  C   C1456     1.0  0.78669  0.16180  0.86676  1.0000
  C   C1457     1.0  0.74488  0.08212  0.80294  1.0000
  C   C1458     1.0  0.85486  0.44282  0.78592  1.0000
  H   H1163     1.0  0.85115  0.09388  0.98944  1.0000
  C   C1459     1.0  0.75718  0.11193  0.88448  1.0000
  S   S189      1.0  0.85862  0.30775  0.76478  1.0000
  H   H1164     1.0  0.96857  0.09832  0.88527  1.0000
  C   C1460     1.0  0.49891  0.00782  0.75394  1.0000
  C   C1461     1.0  0.71130  0.13684  0.83770  1.0000
  H   H1165     1.0  0.79012  0.12896  0.90695  1.0000
  C   C1462     1.0  0.49671  0.46000  0.80980  1.0000
  C   C1463     1.0  0.76593  0.22645  0.82220  1.0000
  C   C1464     1.0  0.76539  0.18289  0.82910  1.0000
  H   H1166     1.0  0.74173  0.06140  0.80533  1.0000
  C   C1465     1.0  0.80674  0.22129  0.81822  1.0000
  C   C1466     1.0  0.74687  0.11634  0.86686  1.0000
  H   H1167     1.0  0.68018  0.06336  0.84747  1.0000
  C   C1467     1.0  0.64242  0.99350  0.89580  1.0000
  C   C1468     1.0  0.90922  0.43624  0.75617  1.0000
  H   H1168     1.0  0.83310  0.09508  0.95638  1.0000
  C   C1469     1.0  0.97556  0.16342  0.99398  1.0000
  H   H1169     1.0  0.51794  0.39870  0.84091  1.0000
  H   H1170     1.0  0.76329  0.33551  0.79402  1.0000
  C   C1470     1.0  0.78319  0.21981  0.75837  1.0000
  H   H1171     1.0  0.87226  0.46183  0.79197  1.0000
  Fe  Fe93      1.0  0.73236  0.00632  0.93318  1.0000
  H   H1172     1.0  0.84261  0.21100  0.76858  1.0000
  H   H1173     1.0  0.96487  0.20538  0.84185  1.0000
  C   C1471     1.0  0.49072  0.35629  0.77569  1.0000
  H   H1174     1.0  0.80612  0.36630  0.86070  1.0000
  C   C1472     1.0  0.81288  0.33665  0.75460  1.0000
  H   H1175     1.0  0.49055  0.39534  0.77675  1.0000
  H   H1176     1.0  0.49344  0.40777  0.89708  1.0000
  C   C1473     1.0  0.77910  0.28254  0.76492  1.0000
  H   H1177     1.0  0.96040  0.20968  0.97048  1.0000
  C   C1474     1.0  0.51348  0.01548  0.77201  1.0000
  H   H1178     1.0  0.78587  0.29988  0.79387  1.0000
  H   H1179     1.0  0.92937  0.47846  0.76839  1.0000
  C   C1475     1.0  0.50390  0.40176  0.84979  1.0000
  S   S190      1.0  0.70042  0.03224  0.86964  1.0000
  C   C1476     1.0  0.78995  0.30441  0.77898  1.0000
  H   H1180     1.0  0.82275  0.03555  0.99657  1.0000
  C   C1477     1.0  0.72448  0.99743  0.98496  1.0000
  H   H1181     1.0  0.82048  0.98994  0.99930  1.0000
  S   S191      1.0  0.71390  0.00449  0.96210  1.0000
  C   C1478     1.0  0.48179  0.40471  0.84125  1.0000
  C   C1479     1.0  0.81464  0.41964  0.76342  1.0000
  H   H1182     1.0  0.63873  0.99705  0.88091  1.0000
  C   C1480     1.0  0.48642  0.33295  0.78567  1.0000
  C   C1481     1.0  0.73766  0.17876  0.75685  1.0000
  H   H1183     1.0  0.96325  0.15746  0.98032  1.0000
  C   C1482     1.0  0.96760  0.22529  0.98222  1.0000
  C   C1483     1.0  0.48810  0.37782  0.78483  1.0000
  H   H1184     1.0  0.76640  0.26147  0.76891  1.0000
  Fe  Fe94      1.0  0.67585  0.11530  0.75406  1.0000
  C   C1484     1.0  0.51632  0.48623  0.80474  1.0000
  H   H1185     1.0  0.80076  0.42072  0.75224  1.0000
  C   C1485     1.0  0.47913  0.33096  0.80472  1.0000
  H   H1186     1.0  0.48425  0.46707  0.75155  1.0000
  H   H1187     1.0  0.59380  0.73804  0.15913  1.0000
  C   C1486     1.0  0.68615  0.68697  0.01187  1.0000
  H   H1188     1.0  0.81806  0.89271  0.04340  1.0000
  C   C1487     1.0  0.53794  0.72567  0.19601  1.0000
  Fe  Fe95      1.0  0.76631  0.96957  0.11199  1.0000
  H   H1189     1.0  0.97139  0.65478  0.03595  1.0000
  Fe  Fe96      1.0  0.58957  0.92096  0.22795  1.0000
  S   S192      1.0  0.62685  0.94650  0.21015  1.0000
  S   S193      1.0  0.55138  0.87981  0.22166  1.0000
  H   H1190     1.0  0.62590  0.73392  0.22423  1.0000
  C   C1488     1.0  0.72266  0.73409  0.01702  1.0000
  H   H1191     1.0  0.91144  0.71770  0.03517  1.0000
  H   H1192     1.0  0.77872  0.74125  0.15595  1.0000
  H   H1193     1.0  0.69219  0.53868  0.13556  1.0000
  C   C1489     1.0  0.51378  0.71007  0.20519  1.0000
  Fe  Fe97      1.0  0.56914  0.66245  0.22410  1.0000
  S   S194      1.0  0.58486  0.67541  0.19384  1.0000
  S   S195      1.0  0.52358  0.64757  0.22719  1.0000
  Fe  Fe98      1.0  0.71434  0.74133  0.12051  1.0000
  S   S196      1.0  0.75167  0.78369  0.12119  1.0000
  S   S197      1.0  0.69792  0.72871  0.15073  1.0000
  Fe  Fe99      1.0  0.71948  0.73208  0.07681  1.0000
  S   S198      1.0  0.75667  0.77320  0.07541  1.0000
  S   S199      1.0  0.70159  0.70298  0.04980  1.0000
  Fe  Fe100     1.0  0.77156  0.76388  0.10360  1.0000
  S   S200      1.0  0.81711  0.77795  0.11176  1.0000
  Fe  Fe101     1.0  0.73365  0.78905  0.09296  1.0000
  S   S201      1.0  0.73032  0.82552  0.08129  1.0000
  S   S202      1.0  0.73560  0.72121  0.10424  1.0000
  S   S203      1.0  0.69497  0.74815  0.09307  1.0000
  H   H1194     1.0  0.69860  0.97922  0.16344  1.0000
  S   S204      1.0  0.72476  0.94776  0.09615  1.0000
  S   S205      1.0  0.78623  0.94462  0.12369  1.0000
  C   C1490     1.0  0.79446  0.88726  0.01639  1.0000
  H   H1195     1.0  0.57153  0.73987  0.24898  1.0000
  S   S206      1.0  0.73998  0.96709  0.04329  1.0000
  C   C1491     1.0  0.60080  0.82469  0.20319  1.0000
  C   C1492     1.0  0.86866  0.70356  0.03989  1.0000
  H   H1196     1.0  0.71790  0.78632  0.00834  1.0000
  H   H1197     1.0  0.54842  0.71522  0.18972  1.0000
  Fe  Fe102     1.0  0.93820  0.74141  0.09302  1.0000
  S   S207      1.0  0.89118  0.72174  0.09007  1.0000
  S   S208      1.0  0.95689  0.71448  0.08329  1.0000
  H   H1198     1.0  0.87019  0.69612  0.05394  1.0000
  C   C1493     1.0  0.70389  0.70909  0.02468  1.0000
  H   H1199     1.0  0.67168  0.66758  0.01747  1.0000
  H   H1200     1.0  0.80287  0.87521  0.00950  1.0000
  C   C1494     1.0  0.74862  0.85883  0.09272  1.0000
  C   C1495     1.0  0.74784  0.88098  0.08361  1.0000
  C   C1496     1.0  0.75990  0.90741  0.09291  1.0000
  C   C1497     1.0  0.77294  0.91194  0.11141  1.0000
  C   C1498     1.0  0.77485  0.89008  0.12023  1.0000
  C   C1499     1.0  0.76270  0.86350  0.11090  1.0000
  H   H1201     1.0  0.73769  0.87771  0.06935  1.0000
  H   H1202     1.0  0.75919  0.92432  0.08567  1.0000
  H   H1203     1.0  0.78519  0.89358  0.13447  1.0000
  H   H1204     1.0  0.76374  0.84660  0.11791  1.0000
  C   C1500     1.0  0.83743  0.76267  0.10424  1.0000
  C   C1501     1.0  0.82550  0.73564  0.09604  1.0000
  C   C1502     1.0  0.84231  0.72362  0.09146  1.0000
  C   C1503     1.0  0.87119  0.73847  0.09503  1.0000
  C   C1504     1.0  0.88318  0.76571  0.10282  1.0000
  C   C1505     1.0  0.86634  0.77768  0.10747  1.0000
  H   H1205     1.0  0.80330  0.72372  0.09385  1.0000
  H   H1206     1.0  0.83287  0.70251  0.08548  1.0000
  H   H1207     1.0  0.90538  0.77736  0.10563  1.0000
  H   H1208     1.0  0.87577  0.79857  0.11388  1.0000
  S   S209      1.0  0.67047  0.95305  0.12549  1.0000
  C   C1506     1.0  0.79187  0.71610  0.13986  1.0000
  C   C1507     1.0  0.73530  0.98310  0.23378  1.0000
  C   C1508     1.0  0.84367  0.70173  0.03265  1.0000
  C   C1509     1.0  0.61665  0.69028  0.18224  1.0000
  C   C1510     1.0  0.64214  0.69688  0.19192  1.0000
  C   C1511     1.0  0.66664  0.70869  0.18206  1.0000
  C   C1512     1.0  0.66614  0.71399  0.16235  1.0000
  C   C1513     1.0  0.64066  0.70740  0.15265  1.0000
  C   C1514     1.0  0.61618  0.69566  0.16253  1.0000
  H   H1209     1.0  0.64297  0.69289  0.20701  1.0000
  H   H1210     1.0  0.68614  0.71356  0.18974  1.0000
  H   H1211     1.0  0.63977  0.71122  0.13752  1.0000
  H   H1212     1.0  0.59663  0.69052  0.15482  1.0000
  C   C1515     1.0  0.63844  0.94753  0.18647  1.0000
  C   C1516     1.0  0.62056  0.93262  0.17044  1.0000
  C   C1517     1.0  0.63080  0.93450  0.15201  1.0000
  C   C1518     1.0  0.65901  0.95129  0.14925  1.0000
  C   C1519     1.0  0.50986  0.75152  0.21205  1.0000
  C   C1520     1.0  0.66667  0.96426  0.18371  1.0000
  H   H1213     1.0  0.59875  0.92004  0.17217  1.0000
  C   C1521     1.0  0.60618  0.75296  0.20738  1.0000
  C   C1522     1.0  0.53950  0.74999  0.12887  1.0000
  H   H1214     1.0  0.61628  0.86332  0.21998  1.0000
  C   C1523     1.0  0.69406  0.55928  0.13648  1.0000
  H   H1215     1.0  0.78041  0.79077  0.01238  1.0000
  C   C1524     1.0  0.67691  0.96613  0.16528  1.0000
  H   H1216     1.0  0.48142  0.71093  0.22077  1.0000
  H   H1217     1.0  0.88294  0.84526  0.04221  1.0000
  H   H1218     1.0  0.67379  0.78653  0.18088  1.0000
  H   H1219     1.0  0.66870  0.75462  0.20688  1.0000
  C   C1525     1.0  0.67869  0.65238  0.08491  1.0000
  C   C1526     1.0  0.66268  0.66581  0.08683  1.0000
  C   C1527     1.0  0.65808  0.67302  0.10515  1.0000
  C   C1528     1.0  0.66938  0.66671  0.12154  1.0000
  C   C1529     1.0  0.68504  0.65274  0.11977  1.0000
  C   C1530     1.0  0.68999  0.64602  0.10130  1.0000
  P   P51       1.0  0.70188  0.64677  0.14076  1.0000
  C   C1531     1.0  0.68541  0.64696  0.16253  1.0000
  C   C1532     1.0  0.69907  0.61268  0.13870  1.0000
  C   C1533     1.0  0.71853  0.60712  0.14882  1.0000
  C   C1534     1.0  0.71613  0.58054  0.14758  1.0000
  C   C1535     1.0  0.67665  0.59109  0.12789  1.0000
  C   C1536     1.0  0.70109  0.65729  0.18022  1.0000
  C   C1537     1.0  0.68809  0.65664  0.19710  1.0000
  C   C1538     1.0  0.65936  0.64533  0.19648  1.0000
  C   C1539     1.0  0.64356  0.63444  0.17903  1.0000
  C   C1540     1.0  0.65647  0.63486  0.16217  1.0000
  C   C1541     1.0  0.73751  0.67334  0.14140  1.0000
  C   C1542     1.0  0.75672  0.66895  0.13132  1.0000
  C   C1543     1.0  0.78387  0.69019  0.13076  1.0000
  H   H1220     1.0  0.65700  0.54796  0.11827  1.0000
  C   C1544     1.0  0.84158  0.71099  0.01439  1.0000
  C   C1545     1.0  0.74570  0.69952  0.15035  1.0000
  H   H1221     1.0  0.68306  0.64785  0.07064  1.0000
  H   H1222     1.0  0.65461  0.67142  0.07410  1.0000
  H   H1223     1.0  0.64642  0.68421  0.10666  1.0000
  H   H1224     1.0  0.66634  0.67334  0.13553  1.0000
  H   H1225     1.0  0.70310  0.63645  0.09955  1.0000
  H   H1226     1.0  0.73554  0.62331  0.15770  1.0000
  C   C1546     1.0  0.95930  0.72521  0.01243  1.0000
  H   H1227     1.0  0.66089  0.59468  0.12048  1.0000
  H   H1228     1.0  0.72332  0.66574  0.18103  1.0000
  H   H1229     1.0  0.70029  0.66501  0.21065  1.0000
  H   H1230     1.0  0.64924  0.64510  0.20946  1.0000
  H   H1231     1.0  0.62128  0.62592  0.17855  1.0000
  H   H1232     1.0  0.64382  0.62592  0.14885  1.0000
  H   H1233     1.0  0.75068  0.64937  0.12357  1.0000
  H   H1234     1.0  0.79866  0.68687  0.12289  1.0000
  H   H1235     1.0  0.82214  0.70979  0.00938  1.0000
  H   H1236     1.0  0.82601  0.69337  0.04134  1.0000
  H   H1237     1.0  0.73102  0.70375  0.15751  1.0000
  C   C1547     1.0  0.62817  0.74797  0.21295  1.0000
  P   P52       1.0  0.57931  0.77407  0.18274  1.0000
  H   H1238     1.0  0.81271  0.73279  0.13898  1.0000
  C   C1548     1.0  0.54843  0.76235  0.14750  1.0000
  C   C1549     1.0  0.53438  0.76733  0.20328  1.0000
  C   C1550     1.0  0.57068  0.73036  0.13193  1.0000
  C   C1551     1.0  0.72211  0.77597  0.24616  1.0000
  H   H1239     1.0  0.64326  0.66849  0.24050  1.0000
  H   H1240     1.0  0.75001  0.97674  0.20695  1.0000
  S   S210      1.0  0.48478  0.88662  0.23389  1.0000
  C   C1552     1.0  0.89185  0.71545  0.02918  1.0000
  H   H1241     1.0  0.62707  0.98683  0.24103  1.0000
  C   C1553     1.0  0.58858  0.82586  0.16940  1.0000
  C   C1554     1.0  0.79168  0.91167  0.04499  1.0000
  H   H1242     1.0  0.84936  0.75656  0.04410  1.0000
  C   C1555     1.0  0.59033  0.81082  0.18505  1.0000
  H   H1243     1.0  0.59418  0.86558  0.16037  1.0000
  H   H1244     1.0  0.73133  0.57642  0.15531  1.0000
  H   H1245     1.0  0.75024  0.83618  0.01009  1.0000
  C   C1556     1.0  0.89284  0.78070  0.05078  1.0000
  C   C1557     1.0  0.54872  0.75451  0.19533  1.0000
  C   C1558     1.0  0.60870  0.85284  0.20584  1.0000
  H   H1246     1.0  0.89555  0.76282  0.05405  1.0000
  C   C1559     1.0  0.86659  0.77728  0.04513  1.0000
  C   C1560     1.0  0.63328  0.78286  0.18307  1.0000
  C   C1561     1.0  0.74332  0.76947  0.24239  1.0000
  Fe  Fe103     1.0  0.52999  0.89524  0.24246  1.0000
  C   C1562     1.0  0.80295  0.89691  0.03563  1.0000
  C   C1563     1.0  0.57951  0.74256  0.15060  1.0000
  C   C1564     1.0  0.60831  0.76980  0.19198  1.0000
  H   H1247     1.0  0.49916  0.76156  0.21851  1.0000
  H   H1248     1.0  0.57878  0.71733  0.12614  1.0000
  C   C1565     1.0  0.74742  0.97741  0.00499  1.0000
  S   S211      1.0  0.56891  0.62848  0.24199  1.0000
  C   C1566     1.0  0.55084  0.73425  0.12101  1.0000
  H   H1249     1.0  0.69693  0.79353  0.23405  1.0000
  H   H1250     1.0  0.87576  0.78317  0.00289  1.0000
  C   C1567     1.0  0.86276  0.80047  0.04163  1.0000
  C   C1568     1.0  0.76392  0.90785  0.01572  1.0000
  H   H1251     1.0  0.60243  0.81362  0.21542  1.0000
  H   H1252     1.0  0.93571  0.80975  0.05762  1.0000
  C   C1569     1.0  0.64954  0.77927  0.13557  1.0000
  C   C1570     1.0  0.67621  0.78302  0.13379  1.0000
  C   C1571     1.0  0.69647  0.80782  0.12740  1.0000
  C   C1572     1.0  0.68999  0.82871  0.12245  1.0000
  C   C1573     1.0  0.66304  0.82485  0.12356  1.0000
  C   C1574     1.0  0.64297  0.80029  0.13078  1.0000
  P   P53       1.0  0.65595  0.85266  0.11704  1.0000
  C   C1575     1.0  0.61990  0.84403  0.11553  1.0000
  C   C1576     1.0  0.67565  0.88023  0.13506  1.0000
  C   C1577     1.0  0.66441  0.88126  0.15251  1.0000
  C   C1578     1.0  0.67947  0.90282  0.16640  1.0000
  C   C1579     1.0  0.70627  0.92291  0.16322  1.0000
  C   C1580     1.0  0.71809  0.92120  0.14631  1.0000
  C   C1581     1.0  0.70289  0.89990  0.13227  1.0000
  C   C1582     1.0  0.59985  0.81842  0.10701  1.0000
  C   C1583     1.0  0.57210  0.81235  0.10487  1.0000
  C   C1584     1.0  0.66665  0.86348  0.09325  1.0000
  C   C1585     1.0  0.67310  0.84729  0.08063  1.0000
  C   C1586     1.0  0.68095  0.85592  0.06217  1.0000
  C   C1587     1.0  0.68222  0.88059  0.05610  1.0000
  C   C1588     1.0  0.67499  0.89633  0.06834  1.0000
  C   C1589     1.0  0.66719  0.88781  0.08684  1.0000
  C   C1590     1.0  0.67428  0.56453  0.12670  1.0000
  H   H1253     1.0  0.68126  0.76676  0.13740  1.0000
  H   H1254     1.0  0.71718  0.81084  0.12602  1.0000
  H   H1255     1.0  0.70597  0.84782  0.11746  1.0000
  H   H1256     1.0  0.62245  0.79731  0.13288  1.0000
  H   H1257     1.0  0.64390  0.86564  0.15526  1.0000
  H   H1258     1.0  0.67022  0.90428  0.17945  1.0000
  H   H1259     1.0  0.71780  0.93993  0.17377  1.0000
  H   H1260     1.0  0.73897  0.93657  0.14394  1.0000
  H   H1261     1.0  0.71247  0.89889  0.11928  1.0000
  H   H1262     1.0  0.60575  0.80341  0.10160  1.0000
  H   H1263     1.0  0.55678  0.79262  0.09819  1.0000
  H   H1264     1.0  0.67248  0.82818  0.08493  1.0000
  H   H1265     1.0  0.68683  0.84378  0.05281  1.0000
  H   H1266     1.0  0.68915  0.88777  0.04204  1.0000
  H   H1267     1.0  0.67630  0.91565  0.06372  1.0000
  H   H1268     1.0  0.66219  0.90058  0.09630  1.0000
  H   H1269     1.0  0.66029  0.71893  0.24285  1.0000
  H   H1270     1.0  0.76340  0.92855  0.04235  1.0000
  H   H1271     1.0  0.64604  0.92920  0.01003  1.0000
  C   C1591     1.0  0.72760  0.79705  0.21520  1.0000
  C   C1592     1.0  0.74877  0.79066  0.21168  1.0000
  C   C1593     1.0  0.75662  0.77685  0.22526  1.0000
  H   H1272     1.0  0.58750  0.74307  0.21488  1.0000
  H   H1273     1.0  0.63552  0.79649  0.17153  1.0000
  H   H1274     1.0  0.52341  0.75221  0.12068  1.0000
  H   H1275     1.0  0.72121  0.80730  0.20446  1.0000
  H   H1276     1.0  0.75874  0.79597  0.19823  1.0000
  H   H1277     1.0  0.77266  0.77140  0.22229  1.0000
  H   H1278     1.0  0.61151  0.88902  0.19282  1.0000
  C   C1594     1.0  0.79943  0.84264  0.06537  1.0000
  C   C1595     1.0  0.81250  0.84658  0.08378  1.0000
  C   C1596     1.0  0.83059  0.83578  0.08764  1.0000
  C   C1597     1.0  0.83552  0.82086  0.07316  1.0000
  C   C1598     1.0  0.82278  0.81704  0.05448  1.0000
  C   C1599     1.0  0.80457  0.82805  0.05076  1.0000
  C   C1600     1.0  0.80338  0.76056  0.03696  1.0000
  C   C1601     1.0  0.79473  0.74907  0.05470  1.0000
  C   C1602     1.0  0.77462  0.72139  0.05533  1.0000
  C   C1603     1.0  0.76353  0.70483  0.03831  1.0000
  C   C1604     1.0  0.77279  0.71582  0.02063  1.0000
  C   C1605     1.0  0.79282  0.74352  0.01995  1.0000
  H   H1279     1.0  0.78458  0.85016  0.06265  1.0000
  H   H1280     1.0  0.80804  0.85740  0.09517  1.0000
  H   H1281     1.0  0.84004  0.83800  0.10209  1.0000
  H   H1282     1.0  0.84875  0.81173  0.07682  1.0000
  H   H1283     1.0  0.76699  0.71297  0.06897  1.0000
  H   H1284     1.0  0.74716  0.68373  0.03881  1.0000
  H   H1285     1.0  0.59487  0.79008  0.24410  1.0000
  C   C1606     1.0  0.60597  0.86738  0.19046  1.0000
  C   C1607     1.0  0.61203  0.86413  0.12068  1.0000
  H   H1286     1.0  0.61666  0.92324  0.13973  1.0000
  C   C1608     1.0  0.91188  0.83037  0.04960  1.0000
  H   H1287     1.0  0.54375  0.72444  0.10665  1.0000
  H   H1288     1.0  0.62736  0.88484  0.12591  1.0000
  H   H1289     1.0  0.79368  0.82503  0.03687  1.0000
  H   H1290     1.0  0.50611  0.68800  0.20633  1.0000
  C   C1609     1.0  0.59598  0.85397  0.17225  1.0000
  H   H1291     1.0  0.63416  0.76006  0.14077  1.0000
  C   C1610     1.0  0.56428  0.83204  0.11080  1.0000
  H   H1292     1.0  0.95051  0.71213  0.02426  1.0000
  C   C1611     1.0  0.56919  0.75951  0.15827  1.0000
  C   C1612     1.0  0.77275  0.72081  0.14956  1.0000
  H   H1293     1.0  0.54204  0.78947  0.20290  1.0000
  C   C1613     1.0  0.58429  0.85801  0.11853  1.0000
  H   H1294     1.0  0.73676  0.75124  0.02674  1.0000
  C   C1614     1.0  0.82493  0.80829  0.01250  1.0000
  C   C1615     1.0  0.91548  0.80719  0.05293  1.0000
  S   S212      1.0  0.56772  0.93759  0.24697  1.0000
  Fe  Fe104     1.0  0.74158  0.98100  0.07490  1.0000
  C   C1616     1.0  0.65510  0.77754  0.18850  1.0000
  S   S213      1.0  0.96643  0.75837  0.12028  1.0000
  C   C1617     1.0  0.86451  0.72189  0.00315  1.0000
  P   P54       1.0  0.82854  0.79662  0.03612  1.0000
  C   C1618     1.0  0.65237  0.75981  0.20327  1.0000
  H   H1295     1.0  0.54285  0.82750  0.10894  1.0000
  H   H1296     1.0  0.57847  0.87371  0.12251  1.0000
  H   H1297     1.0  0.79787  0.91875  0.06002  1.0000
  C   C1619     1.0  0.66081  0.68148  0.25043  1.0000
  H   H1298     1.0  0.58164  0.81627  0.15506  1.0000
  H   H1299     1.0  0.80312  0.76158  0.06805  1.0000
  C   C1620     1.0  0.77219  0.91713  0.03504  1.0000
  S   S214      1.0  0.96445  0.77678  0.07522  1.0000
  Fe  Fe105     1.0  0.52362  0.61516  0.24666  1.0000
  H   H1300     1.0  0.68071  0.97601  0.19593  1.0000
  C   C1621     1.0  0.88560  0.82707  0.04412  1.0000
  C   C1622     1.0  0.71412  0.78953  0.23227  1.0000
  H   H1301     1.0  0.92938  0.85093  0.05175  1.0000
  C   C1623     1.0  0.88983  0.72469  0.01090  1.0000
  H   H1302     1.0  0.53880  0.77372  0.15366  1.0000
  C   C1624     1.0  0.49974  0.72298  0.21321  1.0000
  C   C1625     1.0  0.56013  0.79594  0.25091  1.0000
  H   H1303     1.0  0.76372  0.70312  0.00743  1.0000
  H   H1304     1.0  0.76050  0.96764  0.00618  1.0000
  Fe  Fe106     1.0  0.71387  0.97543  0.11407  1.0000
  H   H1305     1.0  0.97113  0.69268  0.19191  1.0000
  H   H1306     1.0  0.90801  0.73406  0.00279  1.0000
  S   S215      1.0  0.58223  0.69307  0.24951  1.0000
  H   H1307     1.0  0.73564  0.96530  0.23993  1.0000
  S   S216      1.0  0.48991  0.56854  0.24143  1.0000
  H   H1308     1.0  0.97309  0.70969  0.15887  1.0000
  C   C1626     1.0  0.57385  0.78019  0.24824  1.0000
  H   H1309     1.0  0.91550  0.83044  0.00494  1.0000
  H   H1310     1.0  0.79963  0.75161  0.00611  1.0000
  C   C1627     1.0  0.79856  0.80241  0.00456  1.0000
  H   H1311     1.0  0.96601  0.62837  0.00511  1.0000
  H   H1312     1.0  0.74875  0.91239  0.00844  1.0000
  H   H1313     1.0  0.86827  0.82665  0.00699  1.0000
  Fe  Fe107     1.0  0.56549  0.86554  0.24805  1.0000
  C   C1628     1.0  0.73539  0.98105  0.02143  1.0000
  C   C1629     1.0  0.77496  0.89276  0.00621  1.0000
  H   H1314     1.0  0.66958  0.98308  0.23899  1.0000
  S   S217      1.0  0.57879  0.83199  0.24860  1.0000
  C   C1630     1.0  0.56071  0.75169  0.25107  1.0000
  H   H1315     1.0  0.82053  0.97129  0.03145  1.0000
  C   C1631     1.0  0.84782  0.82229  0.00157  1.0000
  Fe  Fe108     1.0  0.58075  0.91935  0.27176  1.0000
  S   S218      1.0  0.59733  0.94104  0.30167  1.0000
  S   S219      1.0  0.54224  0.87799  0.26840  1.0000
  Fe  Fe109     1.0  0.57982  0.65875  0.26791  1.0000
  S   S220      1.0  0.61942  0.67326  0.28806  1.0000
  S   S221      1.0  0.53504  0.64330  0.27381  1.0000
  Fe  Fe110     1.0  0.95052  0.77015  0.39886  1.0000
  S   S222      1.0  0.92399  0.79192  0.39706  1.0000
  S   S223      1.0  0.93442  0.72427  0.39540  1.0000
  Fe  Fe111     1.0  0.70276  0.73076  0.39220  1.0000
  S   S224      1.0  0.73992  0.75108  0.37513  1.0000
  S   S225      1.0  0.65989  0.70048  0.37803  1.0000
  Fe  Fe112     1.0  0.73569  0.76386  0.43032  1.0000
  S   S226      1.0  0.77462  0.78708  0.41494  1.0000
  S   S227      1.0  0.74293  0.77984  0.46204  1.0000
  Fe  Fe113     1.0  0.74712  0.79026  0.39121  1.0000
  S   S228      1.0  0.75380  0.82691  0.37385  1.0000
  Fe  Fe114     1.0  0.76385  0.74586  0.40062  1.0000
  S   S229      1.0  0.79313  0.72730  0.39965  1.0000
  S   S230      1.0  0.70902  0.77042  0.40729  1.0000
  S   S231      1.0  0.72592  0.72220  0.41688  1.0000
  Fe  Fe115     1.0  0.76413  0.96634  0.40922  1.0000
  S   S232      1.0  0.71835  0.94921  0.40481  1.0000
  S   S233      1.0  0.78095  0.93858  0.42062  1.0000
  P   P55       1.0  0.51217  0.82062  0.32568  1.0000
  C   C1632     1.0  0.70455  0.71476  0.27729  1.0000
  C   C1633     1.0  0.76983  0.80945  0.30645  1.0000
  H   H1316     1.0  0.55715  0.82834  0.30235  1.0000
  C   C1634     1.0  0.76008  0.85732  0.38720  1.0000
  C   C1635     1.0  0.76657  0.86033  0.40712  1.0000
  C   C1636     1.0  0.77280  0.88533  0.41725  1.0000
  C   C1637     1.0  0.77180  0.90711  0.40764  1.0000
  C   C1638     1.0  0.76458  0.90381  0.38782  1.0000
  C   C1639     1.0  0.75915  0.87911  0.37761  1.0000
  H   H1317     1.0  0.76741  0.84366  0.41465  1.0000
  H   H1318     1.0  0.77857  0.88791  0.43255  1.0000
  H   H1319     1.0  0.76390  0.92056  0.38029  1.0000
  H   H1320     1.0  0.75423  0.87690  0.36224  1.0000
  C   C1640     1.0  0.88784  0.77398  0.39931  1.0000
  C   C1641     1.0  0.87269  0.78870  0.39861  1.0000
  C   C1642     1.0  0.84371  0.77486  0.39924  1.0000
  C   C1643     1.0  0.82964  0.74608  0.40038  1.0000
  C   C1644     1.0  0.84486  0.73146  0.40157  1.0000
  C   C1645     1.0  0.87382  0.74535  0.40124  1.0000
  H   H1321     1.0  0.88339  0.81087  0.39728  1.0000
  H   H1322     1.0  0.83222  0.78632  0.39837  1.0000
  H   H1323     1.0  0.83418  0.70920  0.40255  1.0000
  H   H1324     1.0  0.88520  0.73379  0.40203  1.0000
  C   C1646     1.0  0.47934  0.82001  0.27116  1.0000
  C   C1647     1.0  0.49237  0.53139  0.28320  1.0000
  H   H1325     1.0  0.84152  0.83166  0.27924  1.0000
  C   C1648     1.0  0.63091  0.74232  0.49665  1.0000
  C   C1649     1.0  0.72537  0.77880  0.28956  1.0000
  H   H1326     1.0  0.95310  0.77980  0.46669  1.0000
  C   C1650     1.0  0.73594  0.76350  0.48441  1.0000
  C   C1651     1.0  0.71558  0.73610  0.48595  1.0000
  C   C1652     1.0  0.70411  0.95391  0.27067  1.0000
  H   H1327     1.0  0.64080  0.87430  0.48090  1.0000
  H   H1328     1.0  0.70428  0.72356  0.47308  1.0000
  H   H1329     1.0  0.62226  0.96660  0.33916  1.0000
  H   H1330     1.0  0.72150  0.72727  0.28771  1.0000
  C   C1653     1.0  0.62952  0.68141  0.31323  1.0000
  C   C1654     1.0  0.65752  0.69926  0.31895  1.0000
  C   C1655     1.0  0.66703  0.70560  0.33862  1.0000
  C   C1656     1.0  0.64878  0.69348  0.35297  1.0000
  C   C1657     1.0  0.62074  0.67559  0.34729  1.0000
  C   C1658     1.0  0.61109  0.66984  0.32758  1.0000
  H   H1331     1.0  0.67193  0.70823  0.30804  1.0000
  H   H1332     1.0  0.68846  0.71975  0.34277  1.0000
  H   H1333     1.0  0.60635  0.66613  0.35822  1.0000
  H   H1334     1.0  0.58954  0.65588  0.32351  1.0000
  H   H1335     1.0  0.69167  0.75864  0.30806  1.0000
  C   C1659     1.0  0.62844  0.94619  0.31446  1.0000
  C   C1660     1.0  0.63547  0.95924  0.33309  1.0000
  C   C1661     1.0  0.65952  0.96293  0.34395  1.0000
  C   C1662     1.0  0.67680  0.95352  0.33628  1.0000
  C   C1663     1.0  0.66977  0.94054  0.31764  1.0000
  C   C1664     1.0  0.64599  0.93725  0.30670  1.0000
  H   H1336     1.0  0.64640  0.72952  0.27818  1.0000
  C   C1665     1.0  0.62766  0.75592  0.27791  1.0000
  H   H1337     1.0  0.68282  0.93297  0.31159  1.0000
  H   H1338     1.0  0.64101  0.92740  0.29237  1.0000
  C   C1666     1.0  0.68653  0.91687  0.45047  1.0000
  C   C1667     1.0  0.67143  0.90514  0.26416  1.0000
  H   H1339     1.0  0.68699  0.92685  0.43718  1.0000
  S   S234      1.0  0.51712  0.70297  0.26108  1.0000
  C   C1668     1.0  0.67274  0.80294  0.48350  1.0000
  C   C1669     1.0  0.55854  0.84799  0.35141  1.0000
  C   C1670     1.0  0.51987  0.75434  0.25939  1.0000
  C   C1671     1.0  0.74975  0.85475  0.46472  1.0000
  C   C1672     1.0  0.73934  0.87220  0.47104  1.0000
  H   H1340     1.0  0.91797  0.68160  0.48314  1.0000
  H   H1341     1.0  0.72932  0.91272  0.28955  1.0000
  H   H1342     1.0  0.51433  0.73096  0.32133  1.0000
  H   H1343     1.0  0.73781  0.83784  0.45415  1.0000
  H   H1344     1.0  0.71934  0.86866  0.46510  1.0000
  S   S235      1.0  0.94253  0.70356  0.44798  1.0000
  C   C1673     1.0  0.77583  0.85921  0.47178  1.0000
  H   H1345     1.0  0.60142  0.70065  0.48662  1.0000
  H   H1346     1.0  0.55384  0.74850  0.30078  1.0000
  H   H1347     1.0  0.65973  0.83920  0.44885  1.0000
  H   H1348     1.0  0.94402  0.81382  0.44889  1.0000
  C   C1674     1.0  0.75786  0.80317  0.32409  1.0000
  H   H1349     1.0  0.57382  0.92171  0.33758  1.0000
  C   C1675     1.0  0.66430  0.82103  0.47506  1.0000
  C   C1676     1.0  0.54815  0.80737  0.30706  1.0000
  C   C1677     1.0  0.80198  0.76201  0.27106  1.0000
  H   H1350     1.0  0.65623  0.83189  0.48362  1.0000
  C   C1678     1.0  0.83065  0.80990  0.28222  1.0000
  C   C1679     1.0  0.83217  0.80169  0.30094  1.0000
  C   C1680     1.0  0.81834  0.77354  0.30490  1.0000
  C   C1681     1.0  0.80341  0.75374  0.28977  1.0000
  P   P56       1.0  0.82069  0.76254  0.32894  1.0000
  C   C1682     1.0  0.78714  0.73566  0.33452  1.0000
  C   C1683     1.0  0.84590  0.75005  0.33064  1.0000
  C   C1684     1.0  0.85338  0.74077  0.31406  1.0000
  C   C1685     1.0  0.87353  0.73201  0.31552  1.0000
  C   C1686     1.0  0.88648  0.73255  0.33347  1.0000
  C   C1687     1.0  0.87911  0.74162  0.35000  1.0000
  C   C1688     1.0  0.85877  0.75011  0.34864  1.0000
  C   C1689     1.0  0.76290  0.73397  0.32541  1.0000
  C   C1690     1.0  0.73699  0.71345  0.32998  1.0000
  C   C1691     1.0  0.73498  0.69511  0.34417  1.0000
  C   C1692     1.0  0.75895  0.69710  0.35362  1.0000
  C   C1693     1.0  0.78494  0.71720  0.34879  1.0000
  C   C1694     1.0  0.83099  0.79146  0.34623  1.0000
  C   C1695     1.0  0.81105  0.79559  0.35550  1.0000
  C   C1696     1.0  0.81910  0.81822  0.36864  1.0000
  C   C1697     1.0  0.84707  0.83690  0.37262  1.0000
  C   C1698     1.0  0.86706  0.83302  0.36341  1.0000
  C   C1699     1.0  0.85909  0.81043  0.35024  1.0000
  C   C1700     1.0  0.80309  0.98482  0.46859  1.0000
  H   H1351     1.0  0.79069  0.74657  0.25943  1.0000
  H   H1352     1.0  0.79979  0.76538  0.49399  1.0000
  H   H1353     1.0  0.84425  0.81739  0.31222  1.0000
  H   H1354     1.0  0.79310  0.73185  0.29242  1.0000
  H   H1355     1.0  0.84393  0.74037  0.29998  1.0000
  H   H1356     1.0  0.87930  0.72495  0.30271  1.0000
  H   H1357     1.0  0.90232  0.72603  0.33460  1.0000
  H   H1358     1.0  0.88940  0.74230  0.36388  1.0000
  H   H1359     1.0  0.85332  0.75699  0.36164  1.0000
  H   H1360     1.0  0.76387  0.74876  0.31506  1.0000
  H   H1361     1.0  0.71838  0.71209  0.32287  1.0000
  H   H1362     1.0  0.71484  0.67981  0.34818  1.0000
  H   H1363     1.0  0.75746  0.68354  0.36512  1.0000
  H   H1364     1.0  0.80316  0.71871  0.35667  1.0000
  H   H1365     1.0  0.78928  0.78136  0.35273  1.0000
  H   H1366     1.0  0.80363  0.82117  0.37587  1.0000
  H   H1367     1.0  0.85322  0.85428  0.38293  1.0000
  H   H1368     1.0  0.88879  0.84731  0.36666  1.0000
  H   H1369     1.0  0.87489  0.80774  0.34328  1.0000
  H   H1370     1.0  0.66493  0.64722  0.26162  1.0000
  C   C1701     1.0  0.69503  0.68615  0.27567  1.0000
  C   C1702     1.0  0.72263  0.94635  0.28006  1.0000
  H   H1371     1.0  0.75092  0.70909  0.46991  1.0000
  H   H1372     1.0  0.82079  0.70666  0.49833  1.0000
  C   C1703     1.0  0.49276  0.81471  0.28689  1.0000
  H   H1373     1.0  0.55458  0.82751  0.35536  1.0000
  C   C1704     1.0  0.93844  0.69844  0.48702  1.0000
  C   C1705     1.0  0.67591  0.81087  0.44380  1.0000
  C   C1706     1.0  0.52401  0.75246  0.31764  1.0000
  C   C1707     1.0  0.61564  0.87435  0.31730  1.0000
  C   C1708     1.0  0.61262  0.86530  0.29797  1.0000
  C   C1709     1.0  0.62575  0.85030  0.29197  1.0000
  C   C1710     1.0  0.64183  0.84432  0.30532  1.0000
  C   C1711     1.0  0.64451  0.85284  0.32482  1.0000
  C   C1712     1.0  0.63195  0.86864  0.33068  1.0000
  P   P57       1.0  0.66570  0.84478  0.34143  1.0000
  C   C1713     1.0  0.65434  0.80800  0.34043  1.0000
  C   C1714     1.0  0.70044  0.86463  0.33427  1.0000
  C   C1715     1.0  0.71477  0.85176  0.32634  1.0000
  C   C1716     1.0  0.74174  0.86781  0.32099  1.0000
  C   C1717     1.0  0.75444  0.89671  0.32338  1.0000
  C   C1718     1.0  0.74000  0.90961  0.33084  1.0000
  C   C1719     1.0  0.71302  0.89364  0.33606  1.0000
  C   C1720     1.0  0.66995  0.79772  0.35073  1.0000
  C   C1721     1.0  0.66086  0.76919  0.35058  1.0000
  C   C1722     1.0  0.63612  0.75082  0.34026  1.0000
  C   C1723     1.0  0.62030  0.76081  0.33022  1.0000
  C   C1724     1.0  0.62916  0.78926  0.33046  1.0000
  C   C1725     1.0  0.66327  0.85357  0.36618  1.0000
  C   C1726     1.0  0.63727  0.84314  0.37371  1.0000
  C   C1727     1.0  0.63521  0.84905  0.39305  1.0000
  C   C1728     1.0  0.65911  0.86500  0.40506  1.0000
  C   C1729     1.0  0.68506  0.87484  0.39778  1.0000
  C   C1730     1.0  0.68715  0.86914  0.37844  1.0000
  H   H1374     1.0  0.60608  0.88671  0.32170  1.0000
  H   H1375     1.0  0.60033  0.87019  0.28761  1.0000
  H   H1376     1.0  0.62347  0.84346  0.27694  1.0000
  H   H1377     1.0  0.65222  0.83299  0.30058  1.0000
  H   H1378     1.0  0.63513  0.87713  0.34534  1.0000
  H   H1379     1.0  0.70542  0.82946  0.32441  1.0000
  H   H1380     1.0  0.75299  0.85777  0.31539  1.0000
  H   H1381     1.0  0.77553  0.90913  0.31965  1.0000
  H   H1382     1.0  0.74968  0.93201  0.33282  1.0000
  H   H1383     1.0  0.70207  0.90391  0.34183  1.0000
  H   H1384     1.0  0.68905  0.81173  0.35901  1.0000
  H   H1385     1.0  0.67273  0.76120  0.35870  1.0000
  H   H1386     1.0  0.62886  0.72875  0.34029  1.0000
  H   H1387     1.0  0.60094  0.74634  0.32249  1.0000
  H   H1388     1.0  0.61598  0.79630  0.32313  1.0000
  H   H1389     1.0  0.61865  0.83041  0.36461  1.0000
  H   H1390     1.0  0.61511  0.84115  0.39877  1.0000
  H   H1391     1.0  0.65760  0.86971  0.42000  1.0000
  H   H1392     1.0  0.70371  0.88699  0.40708  1.0000
  H   H1393     1.0  0.70746  0.87678  0.37323  1.0000
  C   C1731     1.0  0.82133  0.64445  0.42612  1.0000
  C   C1732     1.0  0.84361  0.64910  0.41526  1.0000
  C   C1733     1.0  0.86931  0.67221  0.41981  1.0000
  C   C1734     1.0  0.87273  0.69088  0.43505  1.0000
  C   C1735     1.0  0.85040  0.68652  0.44593  1.0000
  C   C1736     1.0  0.82474  0.66293  0.44152  1.0000
  P   P58       1.0  0.85477  0.71018  0.46596  1.0000
  C   C1737     1.0  0.82255  0.71129  0.46752  1.0000
  C   C1738     1.0  0.86378  0.69876  0.48811  1.0000
  H   H1394     1.0  0.76333  0.80301  0.27574  1.0000
  Fe  Fe116     1.0  0.72726  0.97607  0.37941  1.0000
  C   C1739     1.0  0.71128  0.92231  0.46075  1.0000
  C   C1740     1.0  0.80817  0.71288  0.45071  1.0000
  C   C1741     1.0  0.78247  0.71205  0.45159  1.0000
  C   C1742     1.0  0.77080  0.70956  0.46925  1.0000
  H   H1395     1.0  0.66465  0.93834  0.25428  1.0000
  C   C1743     1.0  0.81059  0.70860  0.48521  1.0000
  C   C1744     1.0  0.88269  0.74393  0.46161  1.0000
  C   C1745     1.0  0.87771  0.76344  0.45183  1.0000
  C   C1746     1.0  0.89981  0.78869  0.44752  1.0000
  C   C1747     1.0  0.92695  0.79471  0.45296  1.0000
  C   C1748     1.0  0.93207  0.77555  0.46287  1.0000
  C   C1749     1.0  0.91009  0.75022  0.46706  1.0000
  H   H1396     1.0  0.80139  0.62652  0.42261  1.0000
  H   H1397     1.0  0.84100  0.63479  0.40333  1.0000
  H   H1398     1.0  0.88673  0.67570  0.41158  1.0000
  H   H1399     1.0  0.89283  0.70865  0.43820  1.0000
  H   H1400     1.0  0.80730  0.65886  0.44988  1.0000
  H   H1401     1.0  0.59396  0.86878  0.37190  1.0000
  C   C1750     1.0  0.71075  0.91054  0.47851  1.0000
  Fe  Fe117     1.0  0.72529  0.98663  0.42327  1.0000
  H   H1402     1.0  0.81661  0.71438  0.43682  1.0000
  H   H1403     1.0  0.77159  0.71330  0.43850  1.0000
  H   H1404     1.0  0.62422  0.75151  0.48532  1.0000
  C   C1751     1.0  0.78146  0.89897  0.49134  1.0000
  C   C1752     1.0  0.86370  0.81487  0.48359  1.0000
  H   H1405     1.0  0.85700  0.75902  0.44692  1.0000
  H   H1406     1.0  0.89595  0.80312  0.43919  1.0000
  H   H1407     1.0  0.79159  0.82397  0.30618  1.0000
  C   C1753     1.0  0.78302  0.95795  0.47193  1.0000
  H   H1408     1.0  0.91460  0.73514  0.47396  1.0000
  C   C1754     1.0  0.52547  0.79753  0.31846  1.0000
  C   C1755     1.0  0.54746  0.87792  0.33187  1.0000
  H   H1409     1.0  0.81222  0.88520  0.49017  1.0000
  H   H1410     1.0  0.77024  0.81287  0.33744  1.0000
  H   H1411     1.0  0.71972  0.98378  0.30927  1.0000
  P   P59       1.0  0.74239  0.91768  0.49241  1.0000
  C   C1756     1.0  0.48537  0.80448  0.34209  1.0000
  H   H1412     1.0  0.77814  0.94145  0.46113  1.0000
  C   C1757     1.0  0.85807  0.81636  0.46393  1.0000
  C   C1758     1.0  0.83176  0.79918  0.45517  1.0000
  C   C1759     1.0  0.81091  0.78098  0.46615  1.0000
  H   H1413     1.0  0.70422  0.67673  0.28504  1.0000
  H   H1414     1.0  0.69820  0.81416  0.26423  1.0000
  C   C1760     1.0  0.75501  0.89428  0.48457  1.0000
  C   C1761     1.0  0.66598  0.82503  0.45528  1.0000
  C   C1762     1.0  0.64945  0.75007  0.27538  1.0000
  C   C1763     1.0  0.58610  0.89782  0.35602  1.0000
  Fe  Fe118     1.0  0.96120  0.73000  0.42263  1.0000
  H   H1415     1.0  0.73058  0.93621  0.45493  1.0000
  H   H1416     1.0  0.68406  0.88261  0.49875  1.0000
  C   C1764     1.0  0.71353  0.77260  0.30740  1.0000
  C   C1765     1.0  0.66045  0.88738  0.47513  1.0000
  C   C1766     1.0  0.70068  0.98319  0.47296  1.0000
  H   H1417     1.0  0.50637  0.55346  0.28335  1.0000
  C   C1767     1.0  0.75368  0.79739  0.28921  1.0000
  C   C1768     1.0  0.96426  0.63577  0.46005  1.0000
  C   C1769     1.0  0.54647  0.76239  0.30618  1.0000
  C   C1770     1.0  0.67839  0.79752  0.26751  1.0000
  S   S236      1.0  0.97548  0.77533  0.42669  1.0000
  C   C1771     1.0  0.81649  0.77926  0.48578  1.0000
  C   C1772     1.0  0.54142  0.85114  0.33703  1.0000
  H   H1418     1.0  0.87403  0.83097  0.45548  1.0000
  H   H1419     1.0  0.82736  0.80021  0.43992  1.0000
  H   H1420     1.0  0.79023  0.76836  0.45946  1.0000
  C   C1773     1.0  0.69165  0.72677  0.26585  1.0000
  H   H1421     1.0  0.95869  0.66618  0.43068  1.0000
  C   C1774     1.0  0.63100  0.78236  0.27484  1.0000
  H   H1422     1.0  0.78366  0.84548  0.46682  1.0000
  C   C1775     1.0  0.51362  0.76998  0.32390  1.0000
  H   H1423     1.0  0.84838  0.65607  0.47778  1.0000
  C   C1776     1.0  0.68401  0.79262  0.45211  1.0000
  H   H1424     1.0  0.64222  0.89677  0.45009  1.0000
  S   S237      1.0  0.70758  0.95775  0.34905  1.0000
  C   C1777     1.0  0.55872  0.78993  0.30109  1.0000
  C   C1778     1.0  0.72976  0.78471  0.32457  1.0000
  H   H1425     1.0  0.69180  0.78161  0.44336  1.0000
  C   C1779     1.0  0.79179  0.88145  0.48499  1.0000
  H   H1426     1.0  0.53572  0.88131  0.32027  1.0000
  C   C1780     1.0  0.68251  0.78871  0.47184  1.0000
  C   C1781     1.0  0.65627  0.80308  0.26944  1.0000
  H   H1427     1.0  0.52221  0.79488  0.25808  1.0000
  C   C1782     1.0  0.76898  0.95250  0.48886  1.0000
  C   C1783     1.0  0.58076  0.87125  0.36087  1.0000
  H   H1428     1.0  0.57567  0.79745  0.29180  1.0000
  H   H1429     1.0  0.67745  0.81404  0.42848  1.0000
  C   C1784     1.0  0.68509  0.89241  0.48532  1.0000
  H   H1430     1.0  0.60347  0.91593  0.36315  1.0000
  H   H1431     1.0  0.68900  0.77453  0.47801  1.0000
  C   C1785     1.0  0.66119  0.89984  0.45777  1.0000
  C   C1786     1.0  0.56941  0.90109  0.34158  1.0000
  H   H1432     1.0  0.74275  0.96197  0.28601  1.0000
  H   H1433     1.0  0.95794  0.66146  0.36907  1.0000
  Fe  Fe119     1.0  0.97232  0.73392  0.37916  1.0000
  H   H1434     1.0  0.92704  0.60933  0.47353  1.0000
  H   H1435     1.0  0.93555  0.66299  0.39878  1.0000
  S   S238      1.0  0.60443  0.90578  0.25333  1.0000
  C   C1787     1.0  0.95489  0.71384  0.47247  1.0000
  C   C1788     1.0  0.78483  0.70775  0.48605  1.0000
  H   H1436     1.0  0.60811  0.73981  0.28220  1.0000
  P   P60       1.0  0.70361  0.76361  0.26758  1.0000
  C   C1789     1.0  0.53375  0.73864  0.25679  1.0000
  C   C1790     1.0  0.49582  0.82805  0.30503  1.0000
  C   C1791     1.0  0.49036  0.51429  0.26735  1.0000
  H   H1437     1.0  0.68374  0.87623  0.27577  1.0000
  H   H1438     1.0  0.66472  0.97313  0.35820  1.0000
  C   C1792     1.0  0.85811  0.67113  0.48979  1.0000
  C   C1793     1.0  0.95554  0.64324  0.49286  1.0000
  H   H1439     1.0  0.61403  0.78677  0.27680  1.0000
  H   H1440     1.0  0.72053  0.78008  0.33832  1.0000
  C   C1794     1.0  0.68953  0.89782  0.27415  1.0000
  C   C1795     1.0  0.53294  0.78290  0.25623  1.0000
  H   H1441     1.0  0.65158  0.88926  0.25788  1.0000
  H   H1442     1.0  0.72719  0.82266  0.49695  1.0000
  C   C1796     1.0  0.71519  0.91840  0.28197  1.0000
  C   C1797     1.0  0.67486  0.77067  0.26975  1.0000
  C   C1798     1.0  0.67879  0.93307  0.26227  1.0000
  H   H1443     1.0  0.76624  0.80047  0.50030  1.0000
  H   H1444     1.0  0.50280  0.52325  0.25530  1.0000
  H   H1445     1.0  0.65657  0.96392  0.47415  1.0000
  H   H1446     1.0  0.50867  0.83124  0.36719  1.0000
  C   C1799     1.0  0.96791  0.66218  0.38312  1.0000
  H   H1447     1.0  0.96833  0.69361  0.31057  1.0000
  C   C1800     1.0  0.95525  0.66292  0.39984  1.0000
  H   H1448     1.0  0.50065  0.80022  0.28477  1.0000
  C   C1801     1.0  0.84318  0.79563  0.49457  1.0000
  H   H1449     1.0  0.74913  0.75814  0.25257  1.0000
  C   C1802     1.0  0.67627  0.97255  0.48248  1.0000
  C   C1803     1.0  0.94702  0.62767  0.47530  1.0000
  H   H1450     1.0  0.88401  0.82889  0.49022  1.0000
  S   S239      1.0  0.96900  0.71282  0.34951  1.0000
  H   H1451     1.0  0.49895  0.74433  0.26379  1.0000
  C   C1804     1.0  0.96843  0.66458  0.41796  1.0000
  H   H1452     1.0  0.95757  0.62323  0.44664  1.0000
  C   C1805     1.0  0.61788  0.71347  0.49734  1.0000
  H   H1453     1.0  0.81472  0.79650  0.25276  1.0000
  H   H1454     1.0  0.89100  0.78832  0.49747  1.0000
  Fe  Fe120     1.0  0.53718  0.67609  0.25386  1.0000
  C   C1806     1.0  0.48406  0.84572  0.30735  1.0000
  C   C1807     1.0  0.67301  0.66950  0.26237  1.0000
  C   C1808     1.0  0.81555  0.79009  0.26729  1.0000
  H   H1455     1.0  0.48532  0.85553  0.32133  1.0000
  H   H1456     1.0  0.65875  0.82352  0.26690  1.0000
  H   H1457     1.0  0.49623  0.76174  0.33275  1.0000
  H   H1458     1.0  0.77564  0.70561  0.49970  1.0000
  S   S240      1.0  0.69711  0.98265  0.44725  1.0000
  C   C1809     1.0  0.48936  0.81402  0.36151  1.0000
  C   C1810     1.0  0.75018  0.77943  0.50136  1.0000
  C   C1811     1.0  0.67026  0.71005  0.25202  1.0000
  Fe  Fe121     1.0  0.89483  0.58812  0.71557  1.0000
  S   S241      1.0  0.86402  0.54325  0.71892  1.0000
  S   S242      1.0  0.90099  0.60120  0.68413  1.0000
  Fe  Fe122     1.0  0.84417  0.55977  0.73935  1.0000
  H   H1459     1.0  0.93452  0.52895  0.71871  1.0000
  C   C1812     1.0  0.96046  0.59482  0.66555  1.0000
  S   S243      1.0  0.87318  0.60404  0.73456  1.0000
  S   S244      1.0  0.92339  0.58764  0.74003  1.0000
  Fe  Fe123     1.0  0.65005  0.60437  0.72747  1.0000
  H   H1460     1.0  0.71362  0.93923  0.51588  1.0000
  S   S245      1.0  0.64651  0.61842  0.69686  1.0000
  C   C1813     1.0  0.74588  0.96909  0.67549  1.0000
  C   C1814     1.0  0.88526  0.80114  0.52593  1.0000
  H   H1461     1.0  0.83918  0.87939  0.52521  1.0000
  C   C1815     1.0  0.96587  0.55991  0.70231  1.0000
  S   S246      1.0  0.65412  0.56559  0.73138  1.0000
  Fe  Fe124     1.0  0.73348  0.73959  0.61843  1.0000
  S   S247      1.0  0.76498  0.78453  0.62408  1.0000
  S   S248      1.0  0.72911  0.71708  0.64674  1.0000
  Fe  Fe125     1.0  0.73231  0.74814  0.57404  1.0000
  S   S249      1.0  0.76410  0.79297  0.57754  1.0000
  S   S250      1.0  0.71333  0.72696  0.54417  1.0000
  Fe  Fe126     1.0  0.78585  0.77838  0.59905  1.0000
  S   S251      1.0  0.83241  0.79627  0.60207  1.0000
  Fe  Fe127     1.0  0.74026  0.79490  0.60225  1.0000
  S   S252      1.0  0.72650  0.82753  0.60812  1.0000
  S   S253      1.0  0.75573  0.73323  0.59404  1.0000
  S   S254      1.0  0.70691  0.75041  0.59800  1.0000
  H   H1462     1.0  0.60935  0.90359  0.68007  1.0000
  H   H1463     1.0  0.65757  0.96463  0.50954  1.0000
  H   H1464     1.0  0.58248  0.85344  0.67157  1.0000
  H   H1465     1.0  0.83434  0.60437  0.64418  1.0000
  C   C1816     1.0  0.65445  0.94969  0.65560  1.0000
  C   C1817     1.0  0.60068  0.54246  0.68917  1.0000
  S   S255      1.0  0.78995  0.95451  0.58831  1.0000
  S   S256      1.0  0.72544  0.97024  0.59073  1.0000
  Fe  Fe128     1.0  0.92663  0.73346  0.57969  1.0000
  S   S257      1.0  0.94037  0.70078  0.57890  1.0000
  S   S258      1.0  0.88108  0.71854  0.57395  1.0000
  C   C1818     1.0  0.68851  0.83856  0.64693  1.0000
  C   C1819     1.0  0.96768  0.56471  0.64313  1.0000
  C   C1820     1.0  0.72287  0.74141  0.52132  1.0000
  C   C1821     1.0  0.74354  0.76863  0.51969  1.0000
  H   H1466     1.0  0.75429  0.78145  0.53257  1.0000
  C   C1822     1.0  0.84613  0.77419  0.59553  1.0000
  C   C1823     1.0  0.87485  0.78476  0.59542  1.0000
  C   C1824     1.0  0.88600  0.76764  0.58943  1.0000
  C   C1825     1.0  0.86840  0.73989  0.58357  1.0000
  C   C1826     1.0  0.83987  0.72913  0.58448  1.0000
  C   C1827     1.0  0.82877  0.74625  0.59026  1.0000
  H   H1467     1.0  0.88845  0.80631  0.59967  1.0000
  H   H1468     1.0  0.90811  0.77599  0.58897  1.0000
  H   H1469     1.0  0.82623  0.70754  0.58038  1.0000
  H   H1470     1.0  0.80678  0.73775  0.59044  1.0000
  C   C1828     1.0  0.74468  0.86271  0.60241  1.0000
  C   C1829     1.0  0.73335  0.88029  0.60660  1.0000
  C   C1830     1.0  0.74712  0.90847  0.60256  1.0000
  C   C1831     1.0  0.77221  0.91927  0.59392  1.0000
  C   C1832     1.0  0.78358  0.90169  0.58964  1.0000
  C   C1833     1.0  0.76988  0.87350  0.59386  1.0000
  H   H1471     1.0  0.71383  0.87208  0.61304  1.0000
  H   H1472     1.0  0.73825  0.92180  0.60603  1.0000
  H   H1473     1.0  0.80309  0.90996  0.58308  1.0000
  H   H1474     1.0  0.77893  0.86023  0.59072  1.0000
  C   C1834     1.0  0.66997  0.64605  0.68325  1.0000
  C   C1835     1.0  0.66078  0.64989  0.66481  1.0000
  C   C1836     1.0  0.67842  0.67138  0.65345  1.0000
  C   C1837     1.0  0.70568  0.68938  0.66032  1.0000
  C   C1838     1.0  0.71493  0.68548  0.67873  1.0000
  C   C1839     1.0  0.69727  0.66402  0.69011  1.0000
  H   H1475     1.0  0.63977  0.63617  0.65929  1.0000
  H   H1476     1.0  0.67089  0.67397  0.63937  1.0000
  H   H1477     1.0  0.73591  0.69922  0.68429  1.0000
  H   H1478     1.0  0.70477  0.66144  0.70420  1.0000
  C   C1840     1.0  0.94875  0.70380  0.50650  1.0000
  C   C1841     1.0  0.91876  0.63211  0.67150  1.0000
  C   C1842     1.0  0.91147  0.63170  0.65171  1.0000
  C   C1843     1.0  0.92642  0.65470  0.64060  1.0000
  C   C1844     1.0  0.94929  0.67839  0.64905  1.0000
  C   C1845     1.0  0.88378  0.70940  0.52120  1.0000
  C   C1846     1.0  0.94091  0.65622  0.68014  1.0000
  H   H1479     1.0  0.89448  0.61319  0.64481  1.0000
  H   H1480     1.0  0.92092  0.65368  0.62534  1.0000
  H   H1481     1.0  0.94688  0.65694  0.69529  1.0000
  H   H1482     1.0  0.88354  0.67552  0.53629  1.0000
  C   C1847     1.0  0.96856  0.61517  0.65203  1.0000
  H   H1483     1.0  0.64604  0.95845  0.62668  1.0000
  H   H1484     1.0  0.80316  0.90575  0.72490  1.0000
  H   H1485     1.0  0.70753  0.96490  0.66351  1.0000
  C   C1848     1.0  0.74222  0.89839  0.52948  1.0000
  C   C1849     1.0  0.80036  0.75369  0.53226  1.0000
  H   H1486     1.0  0.84736  0.69027  0.73098  1.0000
  H   H1487     1.0  0.71875  0.88680  0.73055  1.0000
  H   H1488     1.0  0.82872  0.83535  0.57692  1.0000
  C   C1850     1.0  0.70731  0.76762  0.65978  1.0000
  C   C1851     1.0  0.70118  0.75717  0.67800  1.0000
  C   C1852     1.0  0.70531  0.77512  0.69390  1.0000
  C   C1853     1.0  0.71577  0.80356  0.69160  1.0000
  C   C1854     1.0  0.72231  0.81427  0.67331  1.0000
  C   C1855     1.0  0.71790  0.79598  0.65745  1.0000
  P   P61       1.0  0.73680  0.85111  0.67003  1.0000
  C   C1856     1.0  0.74686  0.86987  0.69325  1.0000
  C   C1857     1.0  0.78187  0.89637  0.71902  1.0000
  C   C1858     1.0  0.77444  0.88225  0.70089  1.0000
  C   C1859     1.0  0.76723  0.86266  0.65654  1.0000
  C   C1860     1.0  0.74617  0.95392  0.70782  1.0000
  C   C1861     1.0  0.83301  0.83742  0.56184  1.0000
  H   H1489     1.0  0.89382  0.72422  0.53338  1.0000
  H   H1490     1.0  0.83737  0.80058  0.55996  1.0000
  H   H1491     1.0  0.94218  0.63716  0.50468  1.0000
  H   H1492     1.0  0.70425  0.75370  0.64747  1.0000
  H   H1493     1.0  0.69348  0.73517  0.67976  1.0000
  H   H1494     1.0  0.70062  0.76692  0.70804  1.0000
  H   H1495     1.0  0.71904  0.81697  0.70418  1.0000
  H   H1496     1.0  0.72303  0.80368  0.64328  1.0000
  H   H1497     1.0  0.93743  0.79421  0.50622  1.0000
  H   H1498     1.0  0.79023  0.88087  0.69299  1.0000
  H   H1499     1.0  0.68527  0.81756  0.64533  1.0000
  C   C1862     1.0  0.79314  0.70911  0.54280  1.0000
  S   S259      1.0  0.95076  0.75480  0.60735  1.0000
  C   C1863     1.0  0.78172  0.84730  0.65590  1.0000
  H   H1500     1.0  0.76680  0.90002  0.64733  1.0000
  H   H1501     1.0  0.82718  0.57264  0.70058  1.0000
  H   H1502     1.0  0.92616  0.49539  0.65147  1.0000
  C   C1864     1.0  0.89897  0.49997  0.68748  1.0000
  P   P62       1.0  0.77283  0.62132  0.68607  1.0000
  C   C1865     1.0  0.78626  0.64177  0.70852  1.0000
  C   C1866     1.0  0.76959  0.64188  0.66718  1.0000
  C   C1867     1.0  0.77648  0.66976  0.67089  1.0000
  C   C1868     1.0  0.77132  0.68448  0.65651  1.0000
  C   C1869     1.0  0.75956  0.67172  0.63836  1.0000
  C   C1870     1.0  0.75263  0.64400  0.63456  1.0000
  C   C1871     1.0  0.75733  0.62903  0.64897  1.0000
  C   C1872     1.0  0.76905  0.63854  0.72351  1.0000
  H   H1503     1.0  0.70539  0.86175  0.69857  1.0000
  H   H1504     1.0  0.76221  0.72261  0.54231  1.0000
  C   C1873     1.0  0.65260  0.75909  0.51031  1.0000
  C   C1874     1.0  0.81452  0.66074  0.71126  1.0000
  C   C1875     1.0  0.73824  0.59367  0.68823  1.0000
  C   C1876     1.0  0.64961  0.81119  0.51883  1.0000
  H   H1505     1.0  0.58967  0.56280  0.66696  1.0000
  C   C1877     1.0  0.68406  0.55158  0.69162  1.0000
  C   C1878     1.0  0.68897  0.57848  0.68818  1.0000
  C   C1879     1.0  0.71590  0.59946  0.68659  1.0000
  H   H1506     1.0  0.78482  0.67995  0.68499  1.0000
  H   H1507     1.0  0.77528  0.70551  0.65960  1.0000
  H   H1508     1.0  0.75503  0.68318  0.62750  1.0000
  H   H1509     1.0  0.74281  0.63391  0.62064  1.0000
  H   H1510     1.0  0.75088  0.60723  0.64607  1.0000
  H   H1511     1.0  0.74727  0.62371  0.72207  1.0000
  C   C1880     1.0  0.73471  0.91435  0.51747  1.0000
  C   C1881     1.0  0.61889  0.83531  0.53363  1.0000
  H   H1512     1.0  0.73325  0.90270  0.66713  1.0000
  H   H1513     1.0  0.82813  0.66330  0.69993  1.0000
  Fe  Fe129     1.0  0.97486  0.73159  0.56231  1.0000
  C   C1882     1.0  0.64740  0.85123  0.53265  1.0000
  H   H1514     1.0  0.67200  0.58333  0.68707  1.0000
  H   H1515     1.0  0.71921  0.62027  0.68429  1.0000
  C   C1883     1.0  0.49244  0.51610  0.72804  1.0000
  C   C1884     1.0  0.50632  0.50811  0.71509  1.0000
  C   C1885     1.0  0.55458  0.52451  0.67367  1.0000
  H   H1516     1.0  0.71272  0.54994  0.73825  1.0000
  H   H1517     1.0  0.83318  0.88802  0.62807  1.0000
  C   C1886     1.0  0.60421  0.86238  0.67626  1.0000
  H   H1518     1.0  0.81593  0.84402  0.64470  1.0000
  C   C1887     1.0  0.63685  0.98159  0.64787  1.0000
  H   H1519     1.0  0.67817  0.75849  0.53506  1.0000
  H   H1520     1.0  0.84580  0.57826  0.66842  1.0000
  C   C1888     1.0  0.83889  0.86219  0.53272  1.0000
  H   H1521     1.0  0.71439  0.90525  0.57051  1.0000
  P   P63       1.0  0.94973  0.54337  0.67895  1.0000
  S   S260      1.0  0.79752  0.54174  0.73385  1.0000
  C   C1889     1.0  0.48379  0.49423  0.65615  1.0000
  C   C1890     1.0  0.83771  0.74204  0.53257  1.0000
  C   C1891     1.0  0.59134  0.51983  0.70079  1.0000
  H   H1522     1.0  0.93633  0.69087  0.51740  1.0000
  H   H1523     1.0  0.74079  0.88296  0.55787  1.0000
  C   C1892     1.0  0.82775  0.76094  0.52871  1.0000
  H   H1524     1.0  0.80863  0.91604  0.62979  1.0000
  C   C1893     1.0  0.66934  0.84508  0.63755  1.0000
  H   H1525     1.0  0.75363  0.88840  0.52426  1.0000
  H   H1526     1.0  0.77990  0.68933  0.54856  1.0000
  C   C1894     1.0  0.60568  0.80736  0.52726  1.0000
  C   C1895     1.0  0.80417  0.59459  0.69424  1.0000
  C   C1896     1.0  0.71973  0.92687  0.52486  1.0000
  H   H1527     1.0  0.87389  0.63724  0.69362  1.0000
  H   H1528     1.0  0.74980  0.56141  0.69329  1.0000
  C   C1897     1.0  0.73432  0.88573  0.72219  1.0000
  C   C1898     1.0  0.64561  0.96265  0.64192  1.0000
  C   C1899     1.0  0.67335  0.87223  0.63868  1.0000
  C   C1900     1.0  0.64782  0.71761  0.52533  1.0000
  H   H1529     1.0  0.65768  0.87289  0.53764  1.0000
  C   C1901     1.0  0.67803  0.97476  0.72522  1.0000
  C   C1902     1.0  0.90019  0.70251  0.71390  1.0000
  C   C1903     1.0  0.89181  0.67416  0.71235  1.0000
  C   C1904     1.0  0.87971  0.65910  0.69489  1.0000
  C   C1905     1.0  0.87585  0.67231  0.67894  1.0000
  C   C1906     1.0  0.88395  0.70078  0.68043  1.0000
  C   C1907     1.0  0.89640  0.71582  0.69799  1.0000
  P   P64       1.0  0.88109  0.71877  0.65967  1.0000
  C   C1908     1.0  0.91554  0.74617  0.65646  1.0000
  C   C1909     1.0  0.86851  0.69503  0.63868  1.0000
  C   C1910     1.0  0.88692  0.69132  0.62725  1.0000
  C   C1911     1.0  0.87688  0.67298  0.61099  1.0000
  C   C1912     1.0  0.84850  0.65827  0.60599  1.0000
  C   C1913     1.0  0.83001  0.66146  0.61748  1.0000
  C   C1914     1.0  0.83993  0.67959  0.63386  1.0000
  C   C1915     1.0  0.91996  0.77196  0.65000  1.0000
  C   C1916     1.0  0.96003  0.56943  0.66124  1.0000
  C   C1917     1.0  0.72684  0.87164  0.70406  1.0000
  C   C1918     1.0  0.73314  0.56657  0.69166  1.0000
  C   C1919     1.0  0.93843  0.74176  0.66056  1.0000
  C   C1920     1.0  0.85740  0.73276  0.66240  1.0000
  C   C1921     1.0  0.84869  0.74238  0.64624  1.0000
  C   C1922     1.0  0.83076  0.75365  0.64809  1.0000
  C   C1923     1.0  0.82118  0.75525  0.66601  1.0000
  C   C1924     1.0  0.82914  0.74510  0.68206  1.0000
  C   C1925     1.0  0.84711  0.73380  0.68028  1.0000
  H   H1530     1.0  0.91001  0.71419  0.72739  1.0000
  H   H1531     1.0  0.75661  0.97833  0.66281  1.0000
  H   H1532     1.0  0.95005  0.81253  0.64235  1.0000
  H   H1533     1.0  0.86717  0.66029  0.66546  1.0000
  H   H1534     1.0  0.90363  0.73795  0.69925  1.0000
  H   H1535     1.0  0.90902  0.70259  0.63072  1.0000
  H   H1536     1.0  0.89121  0.67063  0.60202  1.0000
  H   H1537     1.0  0.84094  0.64468  0.59307  1.0000
  H   H1538     1.0  0.80802  0.65018  0.61356  1.0000
  H   H1539     1.0  0.82528  0.68174  0.64262  1.0000
  H   H1540     1.0  0.90292  0.77606  0.64647  1.0000
  C   C1926     1.0  0.82546  0.67612  0.72879  1.0000
  C   C1927     1.0  0.81508  0.88117  0.63625  1.0000
  H   H1541     1.0  0.77480  0.82817  0.66319  1.0000
  H   H1542     1.0  0.93565  0.72190  0.66512  1.0000
  H   H1543     1.0  0.85590  0.74135  0.63218  1.0000
  H   H1544     1.0  0.82419  0.76108  0.63556  1.0000
  H   H1545     1.0  0.80700  0.76371  0.66730  1.0000
  H   H1546     1.0  0.82118  0.74580  0.69586  1.0000
  H   H1547     1.0  0.85268  0.72582  0.69286  1.0000
  C   C1928     1.0  0.73481  0.89507  0.54854  1.0000
  C   C1929     1.0  0.71547  0.88637  0.65895  1.0000
  C   C1930     1.0  0.70614  0.54566  0.69339  1.0000
  S   S261      1.0  0.95906  0.76241  0.56132  1.0000
  S   S262      1.0  0.61426  0.59026  0.74667  1.0000
  C   C1931     1.0  0.67684  0.97303  0.50264  1.0000
  H   H1548     1.0  0.85896  0.74726  0.53079  1.0000
  C   C1932     1.0  0.66157  0.94784  0.71694  1.0000
  S   S263      1.0  0.58651  0.50551  0.75091  1.0000
  C   C1933     1.0  0.64769  0.90257  0.68717  1.0000
  C   C1934     1.0  0.65540  0.95619  0.67538  1.0000
  C   C1935     1.0  0.71785  0.96150  0.67594  1.0000
  C   C1936     1.0  0.64489  0.85704  0.68358  1.0000
  C   C1937     1.0  0.94679  0.79291  0.64774  1.0000
  C   C1938     1.0  0.92285  0.81078  0.54997  1.0000
  C   C1939     1.0  0.71250  0.92360  0.54391  1.0000
  C   C1940     1.0  0.61951  0.89079  0.68108  1.0000
  H   H1549     1.0  0.66320  0.53547  0.69324  1.0000
  H   H1550     1.0  0.96882  0.63470  0.65543  1.0000
  Fe  Fe130     1.0  0.77044  0.98316  0.58865  1.0000
  C   C1941     1.0  0.66025  0.88544  0.68848  1.0000
  C   C1942     1.0  0.91248  0.52588  0.67937  1.0000
  C   C1943     1.0  0.70186  0.98459  0.51398  1.0000
  H   H1551     1.0  0.79239  0.76810  0.52984  1.0000
  H   H1552     1.0  0.74075  0.52861  0.72644  1.0000
  H   H1553     1.0  0.95803  0.55028  0.75029  1.0000
  H   H1554     1.0  0.95423  0.59881  0.67931  1.0000
  C   C1944     1.0  0.82038  0.71614  0.53935  1.0000
  C   C1945     1.0  0.87799  0.68188  0.52283  1.0000
  C   C1946     1.0  0.66106  0.74646  0.52462  1.0000
  C   C1947     1.0  0.79645  0.60829  0.68032  1.0000
  H   H1555     1.0  0.70243  0.52494  0.69645  1.0000
  C   C1948     1.0  0.70369  0.95006  0.69230  1.0000
  H   H1556     1.0  0.86092  0.64146  0.50838  1.0000
  C   C1949     1.0  0.83218  0.58676  0.67172  1.0000
  C   C1950     1.0  0.61690  0.84552  0.67747  1.0000
  C   C1951     1.0  0.94434  0.49622  0.65897  1.0000
  H   H1557     1.0  0.88111  0.73909  0.50296  1.0000
  C   C1952     1.0  0.86520  0.66276  0.50713  1.0000
  P   P65       1.0  0.66722  0.93944  0.69290  1.0000
  C   C1953     1.0  0.93768  0.80619  0.53593  1.0000
  C   C1954     1.0  0.84382  0.82029  0.53269  1.0000
  H   H1558     1.0  0.65877  0.87734  0.63109  1.0000
  H   H1559     1.0  0.61033  0.77366  0.51503  1.0000
  C   C1955     1.0  0.76183  0.89809  0.72967  1.0000
  C   C1956     1.0  0.97561  0.58510  0.62960  1.0000
  C   C1957     1.0  0.83345  0.85962  0.55216  1.0000
  H   H1560     1.0  0.88549  0.81138  0.55627  1.0000
  H   H1561     1.0  0.82956  0.87479  0.55976  1.0000
  C   C1958     1.0  0.73018  0.82602  0.55273  1.0000
  C   C1959     1.0  0.75452  0.83744  0.54325  1.0000
  C   C1960     1.0  0.75325  0.83642  0.52314  1.0000
  H   H1562     1.0  0.66108  0.93501  0.65071  1.0000
  C   C1961     1.0  0.70307  0.81236  0.52199  1.0000
  C   C1962     1.0  0.70458  0.81376  0.54221  1.0000
  H   H1563     1.0  0.60706  0.84463  0.53938  1.0000
  H   H1564     1.0  0.54069  0.52695  0.66327  1.0000
  H   H1565     1.0  0.65175  0.82913  0.62897  1.0000
  H   H1566     1.0  0.84822  0.84511  0.50797  1.0000
  P   P66       1.0  0.85016  0.79470  0.52020  1.0000
  H   H1567     1.0  0.93143  0.81584  0.56481  1.0000
  H   H1568     1.0  0.75724  0.95121  0.72023  1.0000
  C   C1963     1.0  0.89683  0.80842  0.54501  1.0000
  C   C1964     1.0  0.63598  0.93549  0.74567  1.0000
  C   C1965     1.0  0.62095  0.79531  0.51986  1.0000
  C   C1966     1.0  0.54505  0.50173  0.68539  1.0000
  C   C1967     1.0  0.85456  0.49770  0.67929  1.0000
  C   C1968     1.0  0.66272  0.83923  0.52532  1.0000
  C   C1969     1.0  0.71177  0.85916  0.65774  1.0000
  H   H1569     1.0  0.96752  0.54538  0.63937  1.0000
  H   H1570     1.0  0.52869  0.51911  0.71604  1.0000
  C   C1970     1.0  0.96750  0.55969  0.73728  1.0000
  Fe  Fe131     1.0  0.89065  0.54327  0.74466  1.0000
  C   C1971     1.0  0.89659  0.53735  0.67107  1.0000
  H   H1571     1.0  0.73107  0.82638  0.56829  1.0000
  H   H1572     1.0  0.77429  0.84670  0.55154  1.0000
  C   C1972     1.0  0.86780  0.52340  0.67116  1.0000
  C   C1973     1.0  0.75039  0.54692  0.73610  1.0000
  H   H1573     1.0  0.68596  0.80502  0.54991  1.0000
  H   H1574     1.0  0.82847  0.70196  0.54263  1.0000
  C   C1974     1.0  0.69649  0.89289  0.64930  1.0000
  Fe  Fe132     1.0  0.96635  0.72350  0.60608  1.0000
  C   C1975     1.0  0.64047  0.92822  0.72729  1.0000
  C   C1976     1.0  0.64603  0.97487  0.68121  1.0000
  H   H1575     1.0  0.95790  0.80823  0.53986  1.0000
  H   H1576     1.0  0.60505  0.82351  0.67366  1.0000
  C   C1977     1.0  0.62634  0.70112  0.51169  1.0000
  H   H1577     1.0  0.68480  0.85189  0.52467  1.0000
  H   H1578     1.0  0.65472  0.84394  0.68436  1.0000
  H   H1579     1.0  0.68190  0.89387  0.69303  1.0000
  S   S264      1.0  0.97126  0.70670  0.63535  1.0000
  H   H1580     1.0  0.65471  0.70802  0.53630  1.0000
  C   C1978     1.0  0.84410  0.84266  0.52301  1.0000
  H   H1581     1.0  0.70769  0.93773  0.72116  1.0000
  C   C1979     1.0  0.95618  0.67903  0.66894  1.0000
  H   H1582     1.0  0.77212  0.84478  0.51579  1.0000
  C   C1980     1.0  0.71995  0.90764  0.55573  1.0000
  C   C1981     1.0  0.80534  0.85639  0.64561  1.0000
  H   H1583     1.0  0.70125  0.93365  0.54955  1.0000
  C   C1982     1.0  0.80128  0.89696  0.63725  1.0000
  C   C1983     1.0  0.77738  0.88770  0.64724  1.0000
  C   C1984     1.0  0.89998  0.79566  0.51202  1.0000
  H   H1584     1.0  0.79642  0.59208  0.70847  1.0000
  H   H1585     1.0  0.89513  0.66390  0.72460  1.0000
  H   H1586     1.0  0.69988  0.91403  0.64985  1.0000
  C   C1985     1.0  0.73447  0.55896  0.74276  1.0000
  C   C1986     1.0  0.82553  0.60131  0.65804  1.0000
  C   C1987     1.0  0.78003  0.65411  0.74096  1.0000
  C   C1988     1.0  0.78319  0.72792  0.53932  1.0000
  H   H1587     1.0  0.85585  0.53290  0.66529  1.0000
  H   H1588     1.0  0.91067  0.49062  0.69405  1.0000
  C   C1989     1.0  0.58233  0.54484  0.67564  1.0000
  C   C1990     1.0  0.83807  0.81778  0.55217  1.0000
  C   C1991     1.0  0.82169  0.58360  0.68985  1.0000
  H   H1589     1.0  0.80319  0.62342  0.65149  1.0000
  C   C1992     1.0  0.80774  0.61205  0.66228  1.0000
  C   C1993     1.0  0.95409  0.54768  0.71925  1.0000
  H   H1590     1.0  0.48629  0.51003  0.66691  1.0000
  H   H1591     1.0  0.90619  0.55719  0.66468  1.0000
  C   C1994     1.0  0.71813  0.94641  0.70831  1.0000
  C   C1995     1.0  0.92622  0.79854  0.51697  1.0000
  H   H1592     1.0  0.62202  0.55846  0.69089  1.0000
  H   H1593     1.0  0.58358  0.79500  0.52810  1.0000
  C   C1996     1.0  0.96940  0.78829  0.65184  1.0000
  C   C1997     1.0  0.96519  0.76271  0.65823  1.0000
  C   C1998     1.0  0.80821  0.67276  0.74366  1.0000
  H   H1594     1.0  0.76611  0.97089  0.51609  1.0000
  C   C1999     1.0  0.77860  0.55816  0.74209  1.0000
  H   H1595     1.0  0.95406  0.87714  0.55616  1.0000
  C   C2000     1.0  0.72762  0.82382  0.51250  1.0000
  C   C2001     1.0  0.97605  0.61031  0.63405  1.0000
  H   H1596     1.0  0.62735  0.90739  0.72126  1.0000
  H   H1597     1.0  0.95856  0.88528  0.52129  1.0000
  S   S265      1.0  0.69977  0.98396  0.53952  1.0000
  H   H1598     1.0  0.64607  0.98025  0.69626  1.0000
  H   H1599     1.0  0.50416  0.53296  0.73870  1.0000
  H   H1600     1.0  0.76760  0.90876  0.74382  1.0000
  H   H1601     1.0  0.69309  0.70407  0.50534  1.0000
  C   C2002     1.0  0.76004  0.96522  0.69139  1.0000
  H   H1602     1.0  0.97382  0.69714  0.67569  1.0000
  C   C2003     1.0  0.77613  0.97428  0.50274  1.0000
  P   P67       1.0  0.66962  0.79633  0.50878  1.0000
  C   C2004     1.0  0.97038  0.87576  0.54894  1.0000
  C   C2005     1.0  0.87660  0.71777  0.50396  1.0000
  H   H1603     1.0  0.78183  0.97129  0.69104  1.0000
  H   H1604     1.0  0.61650  0.67876  0.51215  1.0000
  C   C2006     1.0  0.97291  0.88027  0.52929  1.0000
  C   C2007     1.0  0.97596  0.72407  0.51155  1.0000
  H   H1605     1.0  0.60540  0.51813  0.71152  1.0000
  C   C2008     1.0  0.70915  0.72515  0.50431  1.0000
  C   C2009     1.0  0.56361  0.49970  0.69907  1.0000
  C   C2010     1.0  0.96016  0.51756  0.67298  1.0000
  H   H1606     1.0  0.83228  0.48716  0.67967  1.0000
  C   C2011     1.0  0.67333  0.98197  0.74353  1.0000
  H   H1607     1.0  0.79412  0.91631  0.50143  1.0000
  H   H1608     1.0  0.83615  0.79287  0.82361  1.0000
  C   C2012     1.0  0.94196  0.76656  0.82463  1.0000
  C   C2013     1.0  0.89055  0.76842  0.97948  1.0000
  C   C2014     1.0  0.76441  0.92168  0.95952  1.0000
  C   C2015     1.0  0.70130  0.78585  0.97953  1.0000
  C   C2016     1.0  0.73059  0.62154  0.83848  1.0000
  H   H1609     1.0  0.56915  0.55053  0.93848  1.0000
  S   S266      1.0  0.76894  0.95221  0.89477  1.0000
  H   H1610     1.0  0.81258  0.59070  0.75929  1.0000
  Fe  Fe133     1.0  0.73420  0.79372  0.91173  1.0000
  S   S267      1.0  0.70332  0.74802  0.90849  1.0000
  S   S268      1.0  0.71680  0.82423  0.91304  1.0000
  Fe  Fe134     1.0  0.78239  0.78184  0.91979  1.0000
  S   S269      1.0  0.75503  0.73603  0.91746  1.0000
  S   S270      1.0  0.82747  0.79856  0.93013  1.0000
  Fe  Fe135     1.0  0.73436  0.74329  0.89094  1.0000
  S   S271      1.0  0.72998  0.71425  0.86482  1.0000
  Fe  Fe136     1.0  0.72634  0.74421  0.93511  1.0000
  S   S272      1.0  0.70268  0.71514  0.95837  1.0000
  S   S273      1.0  0.76393  0.78947  0.89240  1.0000
  S   S274      1.0  0.75507  0.78964  0.93924  1.0000
  Fe  Fe137     1.0  0.95561  0.74066  0.92631  1.0000
  C   C2017     1.0  0.77488  0.59358  0.76150  1.0000
  H   H1611     1.0  0.66805  0.86471  0.89245  1.0000
  Fe  Fe138     1.0  0.96053  0.72250  0.88443  1.0000
  C   C2018     1.0  0.74659  0.58212  0.75572  1.0000
  S   S275      1.0  0.95438  0.68301  0.86779  1.0000
  Fe  Fe139     1.0  0.93840  0.76336  0.89177  1.0000
  S   S276      1.0  0.90415  0.77086  0.87854  1.0000
  S   S277      1.0  0.92541  0.72025  0.90058  1.0000
  H   H1612     1.0  0.78896  0.76244  0.83365  1.0000
  C   C2019     1.0  0.96757  0.76874  0.82075  1.0000
  S   S278      1.0  0.91955  0.64249  0.77846  1.0000
  C   C2020     1.0  0.75484  0.64149  0.84861  1.0000
  C   C2021     1.0  0.93563  0.82205  0.98196  1.0000
  S   S279      1.0  0.64273  0.64009  0.79496  1.0000
  H   H1613     1.0  0.80354  0.68857  0.93244  1.0000
  H   H1614     1.0  0.86021  0.73105  0.83728  1.0000
  C   C2022     1.0  0.94473  0.67223  0.84289  1.0000
  C   C2023     1.0  0.93793  0.64492  0.83679  1.0000
  C   C2024     1.0  0.92974  0.63528  0.81728  1.0000
  C   C2025     1.0  0.92873  0.65301  0.80348  1.0000
  C   C2026     1.0  0.93584  0.68045  0.80958  1.0000
  C   C2027     1.0  0.94356  0.68994  0.82914  1.0000
  H   H1615     1.0  0.92449  0.61420  0.81289  1.0000
  C   C2028     1.0  0.57132  0.92521  0.92523  1.0000
  C   C2029     1.0  0.66226  0.93520  0.98209  1.0000
  C   C2030     1.0  0.84805  0.78951  0.91603  1.0000
  C   C2031     1.0  0.84129  0.78278  0.89631  1.0000
  C   C2032     1.0  0.85870  0.77710  0.88507  1.0000
  C   C2033     1.0  0.88258  0.77736  0.89347  1.0000
  C   C2034     1.0  0.88904  0.78344  0.91333  1.0000
  C   C2035     1.0  0.87198  0.78985  0.92453  1.0000
  H   H1616     1.0  0.82300  0.78261  0.88960  1.0000
  H   H1617     1.0  0.85365  0.77263  0.86978  1.0000
  H   H1618     1.0  0.90745  0.78381  0.91996  1.0000
  H   H1619     1.0  0.87739  0.79517  0.93978  1.0000
  C   C2036     1.0  0.70577  0.69525  0.84488  1.0000
  C   C2037     1.0  0.68011  0.69464  0.84185  1.0000
  C   C2038     1.0  0.66141  0.67835  0.82622  1.0000
  C   C2039     1.0  0.66808  0.66256  0.81331  1.0000
  C   C2040     1.0  0.69408  0.66393  0.81598  1.0000
  C   C2041     1.0  0.71259  0.67989  0.83173  1.0000
  H   H1620     1.0  0.67465  0.70662  0.85159  1.0000
  H   H1621     1.0  0.64154  0.67781  0.82419  1.0000
  H   H1622     1.0  0.69970  0.65232  0.80604  1.0000
  H   H1623     1.0  0.73232  0.68021  0.83374  1.0000
  H   H1624     1.0  0.93516  0.69439  0.79908  1.0000
  C   C2042     1.0  0.79089  0.58183  0.75460  1.0000
  C   C2043     1.0  0.68646  0.68960  0.99189  1.0000
  H   H1625     1.0  0.84348  0.77439  0.96917  1.0000
  H   H1626     1.0  0.96400  0.82640  0.85197  1.0000
  H   H1627     1.0  0.77723  0.71653  0.84536  1.0000
  H   H1628     1.0  0.81552  0.83080  0.96119  1.0000
  C   C2044     1.0  0.70486  0.71428  0.98403  1.0000
  H   H1629     1.0  0.92092  0.78550  0.83918  1.0000
  C   C2045     1.0  0.72550  0.93038  0.95339  1.0000
  H   H1630     1.0  0.67212  0.67224  0.98240  1.0000
  C   C2046     1.0  0.63680  0.96185  0.92115  1.0000
  C   C2047     1.0  0.75488  0.91700  0.90090  1.0000
  C   C2048     1.0  0.76892  0.90196  0.89645  1.0000
  C   C2049     1.0  0.75802  0.87373  0.90047  1.0000
  C   C2050     1.0  0.73289  0.86024  0.90900  1.0000
  C   C2051     1.0  0.71927  0.87547  0.91391  1.0000
  C   C2052     1.0  0.72997  0.90356  0.90968  1.0000
  H   H1631     1.0  0.78818  0.91212  0.88961  1.0000
  H   H1632     1.0  0.76875  0.86231  0.89658  1.0000
  H   H1633     1.0  0.70013  0.86535  0.92086  1.0000
  H   H1634     1.0  0.71887  0.91477  0.91305  1.0000
  H   H1635     1.0  0.92660  0.69844  0.99145  1.0000
  C   C2053     1.0  0.72050  0.89194  0.97231  1.0000
  H   H1636     1.0  0.71690  0.94262  0.94680  1.0000
  H   H1637     1.0  0.80382  0.64863  0.91512  1.0000
  H   H1638     1.0  0.64858  0.96818  0.76787  1.0000
  H   H1639     1.0  0.87153  0.77683  0.82545  1.0000
  Fe  Fe140     1.0  0.68375  0.58939  0.75672  1.0000
  H   H1640     1.0  0.76120  0.68142  0.96728  1.0000
  S   S280      1.0  0.94002  0.72247  0.95499  1.0000
  H   H1641     1.0  0.64571  0.85005  0.92311  1.0000
  H   H1642     1.0  0.71451  0.60556  0.84609  1.0000
  C   C2054     1.0  0.63603  0.88382  0.92568  1.0000
  C   C2055     1.0  0.66157  0.90046  0.89123  1.0000
  H   H1643     1.0  0.96818  0.75189  0.81270  1.0000
  C   C2056     1.0  0.52875  0.88519  0.91314  1.0000
  H   H1644     1.0  0.68779  0.90213  0.96548  1.0000
  C   C2057     1.0  0.70919  0.90762  0.96388  1.0000
  C   C2058     1.0  0.87179  0.67213  0.95097  1.0000
  S   S281      1.0  0.71217  0.97760  0.90661  1.0000
  C   C2059     1.0  0.94595  0.71737  0.99379  1.0000
  H   H1645     1.0  0.58197  0.94656  0.93090  1.0000
  Fe  Fe141     1.0  0.64710  0.61245  0.77131  1.0000
  H   H1646     1.0  0.53174  0.92439  0.92236  1.0000
  H   H1647     1.0  0.94129  0.67284  0.93502  1.0000
  C   C2060     1.0  0.70173  0.80172  0.96401  1.0000
  C   C2061     1.0  0.71955  0.83025  0.96507  1.0000
  C   C2062     1.0  0.96509  0.81072  0.84281  1.0000
  C   C2063     1.0  0.60841  0.91997  0.96738  1.0000
  P   P68       1.0  0.76321  0.87926  0.98154  1.0000
  C   C2064     1.0  0.79131  0.88214  0.96767  1.0000
  C   C2065     1.0  0.81873  0.90188  0.97320  1.0000
  C   C2066     1.0  0.84022  0.90454  0.96207  1.0000
  C   C2067     1.0  0.83447  0.88795  0.94514  1.0000
  C   C2068     1.0  0.80721  0.86886  0.93924  1.0000
  C   C2069     1.0  0.78573  0.86599  0.95040  1.0000
  C   C2070     1.0  0.79529  0.81116  0.98637  1.0000
  H   H1648     1.0  0.58746  0.91412  0.96206  1.0000
  Fe  Fe142     1.0  0.89995  0.60162  0.75952  1.0000
  H   H1649     1.0  0.68865  0.79188  0.95094  1.0000
  H   H1650     1.0  0.71969  0.84214  0.95282  1.0000
  H   H1651     1.0  0.65283  0.93437  0.89351  1.0000
  C   C2071     1.0  0.64684  0.86833  0.91666  1.0000
  C   C2072     1.0  0.74243  0.98602  0.98693  1.0000
  H   H1652     1.0  0.80263  0.85627  0.92593  1.0000
  H   H1653     1.0  0.76483  0.85146  0.94519  1.0000
  H   H1654     1.0  0.92307  0.74818  0.81962  1.0000
  C   C2073     1.0  0.54156  0.49015  0.79846  1.0000
  C   C2074     1.0  0.86804  0.70177  0.92705  1.0000
  C   C2075     1.0  0.86917  0.68856  0.96558  1.0000
  C   C2076     1.0  0.86610  0.71181  0.96096  1.0000
  C   C2077     1.0  0.86512  0.71802  0.94157  1.0000
  H   H1655     1.0  0.95765  0.66162  0.90519  1.0000
  H   H1656     1.0  0.80770  0.68611  0.97506  1.0000
  Fe  Fe143     1.0  0.75555  0.98468  0.90269  1.0000
  H   H1657     1.0  0.80548  0.72778  0.91433  1.0000
  C   C2078     1.0  0.65234  0.96236  0.75376  1.0000
  C   C2079     1.0  0.65646  0.93474  0.96224  1.0000
  H   H1658     1.0  0.86190  0.84051  0.97448  1.0000
  H   H1659     1.0  0.70862  0.60641  0.81049  1.0000
  H   H1660     1.0  0.86132  0.91977  0.96640  1.0000
  H   H1661     1.0  0.78443  0.61151  0.77151  1.0000
  C   C2080     1.0  0.82895  0.73072  0.97354  1.0000
  C   C2081     1.0  0.77927  0.70164  0.96792  1.0000
  H   H1662     1.0  0.91275  0.76014  0.95744  1.0000
  C   C2082     1.0  0.77624  0.72502  0.96428  1.0000
  C   C2083     1.0  0.79943  0.75108  0.96484  1.0000
  C   C2084     1.0  0.82579  0.75403  0.96935  1.0000
  H   H1663     1.0  0.86794  0.70721  0.91217  1.0000
  H   H1664     1.0  0.58226  0.87058  0.91327  1.0000
  H   H1665     1.0  0.86252  0.73573  0.93769  1.0000
  C   C2085     1.0  0.91236  0.77534  0.96745  1.0000
  C   C2086     1.0  0.62948  0.92701  0.95471  1.0000
  H   H1666     1.0  0.61641  0.55550  0.93881  1.0000
  C   C2087     1.0  0.63761  0.90764  0.91739  1.0000
  H   H1667     1.0  0.67316  0.94110  0.95277  1.0000
  C   C2088     1.0  0.95757  0.73368  0.97815  1.0000
  H   H1668     1.0  0.95309  0.84270  0.98293  1.0000
  C   C2089     1.0  0.73683  0.82704  0.99714  1.0000
  S   S282      1.0  0.72726  0.59694  0.76575  1.0000
  H   H1669     1.0  0.75598  0.72297  0.96076  1.0000
  C   C2090     1.0  0.93463  0.80213  0.96858  1.0000
  S   S283      1.0  0.96621  0.78392  0.91861  1.0000
  C   C2091     1.0  0.72878  0.66204  0.89853  1.0000
  C   C2092     1.0  0.73121  0.66822  0.91836  1.0000
  C   C2093     1.0  0.70758  0.66060  0.92836  1.0000
  C   C2094     1.0  0.68145  0.64613  0.91862  1.0000
  C   C2095     1.0  0.67878  0.63875  0.89884  1.0000
  C   C2096     1.0  0.70267  0.64747  0.88875  1.0000
  P   P69       1.0  0.64495  0.62049  0.88629  1.0000
  C   C2097     1.0  0.64620  0.59975  0.86611  1.0000
  C   C2098     1.0  0.62069  0.59804  0.90263  1.0000
  C   C2099     1.0  0.62862  0.58354  0.91577  1.0000
  C   C2100     1.0  0.61008  0.56645  0.92862  1.0000
  H   H1670     1.0  0.80624  0.64788  0.87978  1.0000
  C   C2101     1.0  0.57535  0.57787  0.91536  1.0000
  C   C2102     1.0  0.59385  0.59499  0.90248  1.0000
  C   C2103     1.0  0.65456  0.61176  0.84846  1.0000
  C   C2104     1.0  0.65498  0.59588  0.83259  1.0000
  C   C2105     1.0  0.64758  0.56796  0.83428  1.0000
  C   C2106     1.0  0.63966  0.55587  0.85188  1.0000
  C   C2107     1.0  0.63892  0.57165  0.86775  1.0000
  C   C2108     1.0  0.63440  0.64530  0.87794  1.0000
  C   C2109     1.0  0.64507  0.67161  0.88741  1.0000
  C   C2110     1.0  0.63624  0.69042  0.88118  1.0000
  C   C2111     1.0  0.61684  0.68319  0.86544  1.0000
  C   C2112     1.0  0.60606  0.65704  0.85598  1.0000
  C   C2113     1.0  0.61473  0.63812  0.86222  1.0000
  H   H1671     1.0  0.74708  0.66948  0.89055  1.0000
  H   H1672     1.0  0.75139  0.68010  0.92584  1.0000
  H   H1673     1.0  0.70947  0.66673  0.94352  1.0000
  H   H1674     1.0  0.66341  0.64128  0.92651  1.0000
  H   H1675     1.0  0.70132  0.64381  0.87328  1.0000
  H   H1676     1.0  0.64920  0.58554  0.91610  1.0000
  H   H1677     1.0  0.55474  0.57578  0.91525  1.0000
  H   H1678     1.0  0.58714  0.60589  0.89255  1.0000
  H   H1679     1.0  0.66062  0.63342  0.84695  1.0000
  H   H1680     1.0  0.66086  0.60523  0.81890  1.0000
  H   H1681     1.0  0.64790  0.55574  0.82190  1.0000
  H   H1682     1.0  0.63393  0.53420  0.85316  1.0000
  H   H1683     1.0  0.63256  0.56176  0.88114  1.0000
  H   H1684     1.0  0.66040  0.67788  0.89948  1.0000
  H   H1685     1.0  0.64489  0.71085  0.88835  1.0000
  H   H1686     1.0  0.61050  0.69804  0.86039  1.0000
  H   H1687     1.0  0.59142  0.65161  0.84354  1.0000
  H   H1688     1.0  0.60626  0.61801  0.85463  1.0000
  C   C2114     1.0  0.77570  0.66224  0.83873  1.0000
  C   C2115     1.0  0.77170  0.66298  0.81869  1.0000
  P   P70       1.0  0.80854  0.68640  0.85091  1.0000
  C   C2116     1.0  0.80625  0.68710  0.87672  1.0000
  C   C2117     1.0  0.83411  0.67558  0.84609  1.0000
  C   C2118     1.0  0.85986  0.68803  0.85677  1.0000
  C   C2119     1.0  0.87942  0.67914  0.85354  1.0000
  C   C2120     1.0  0.87333  0.65771  0.83977  1.0000
  C   C2121     1.0  0.84793  0.64537  0.82902  1.0000
  C   C2122     1.0  0.82833  0.65416  0.83216  1.0000
  C   C2123     1.0  0.80559  0.66519  0.88715  1.0000
  C   C2124     1.0  0.80416  0.66551  0.90715  1.0000
  C   C2125     1.0  0.80400  0.68799  0.91692  1.0000
  C   C2126     1.0  0.80507  0.71006  0.90672  1.0000
  C   C2127     1.0  0.80583  0.70950  0.88667  1.0000
  C   C2128     1.0  0.81769  0.72014  0.84204  1.0000
  C   C2129     1.0  0.79778  0.72933  0.84080  1.0000
  C   C2130     1.0  0.80442  0.75543  0.83416  1.0000
  C   C2131     1.0  0.83094  0.77249  0.82851  1.0000
  C   C2132     1.0  0.85083  0.76341  0.82950  1.0000
  C   C2133     1.0  0.84430  0.73734  0.83627  1.0000
  H   H1689     1.0  0.78750  0.67873  0.81075  1.0000
  H   H1690     1.0  0.86487  0.70469  0.86753  1.0000
  H   H1691     1.0  0.89935  0.68880  0.86169  1.0000
  H   H1692     1.0  0.88825  0.65054  0.83739  1.0000
  H   H1693     1.0  0.84345  0.62889  0.81824  1.0000
  H   H1694     1.0  0.80874  0.64391  0.82374  1.0000
  C   C2134     1.0  0.74758  0.64291  0.80863  1.0000
  C   C2135     1.0  0.58346  0.56365  0.92844  1.0000
  S   S284      1.0  0.86896  0.55770  0.76561  1.0000
  H   H1695     1.0  0.94859  0.71090  0.83363  1.0000
  H   H1696     1.0  0.78576  0.92742  0.95746  1.0000
  C   C2136     1.0  0.87141  0.67884  0.93173  1.0000
  C   C2137     1.0  0.74821  0.89885  0.97016  1.0000
  H   H1697     1.0  0.51189  0.50349  0.80548  1.0000
  H   H1698     1.0  0.93873  0.63098  0.84725  1.0000
  C   C2138     1.0  0.65062  0.91589  0.90012  1.0000
  H   H1699     1.0  0.80633  0.72672  0.87915  1.0000
  C   C2139     1.0  0.72715  0.62204  0.81847  1.0000
  H   H1700     1.0  0.75718  0.64049  0.86402  1.0000
  C   C2140     1.0  0.65942  0.87655  0.89937  1.0000
  C   C2141     1.0  0.73763  0.84311  0.98148  1.0000
  H   H1701     1.0  0.87513  0.65479  0.95462  1.0000
  C   C2142     1.0  0.54312  0.87017  0.91064  1.0000
  H   H1702     1.0  0.87433  0.66666  0.92048  1.0000
  C   C2143     1.0  0.75307  0.93735  0.95120  1.0000
  P   P71       1.0  0.86252  0.73347  0.97929  1.0000
  H   H1703     1.0  0.76552  0.95460  0.94266  1.0000
  S   S285      1.0  0.65044  0.57396  0.77770  1.0000
  H   H1704     1.0  0.75186  0.98314  0.97445  1.0000
  C   C2144     1.0  0.57160  0.88261  0.91541  1.0000
  H   H1705     1.0  0.82355  0.91562  0.98588  1.0000
  C   C2145     1.0  0.84437  0.83041  0.98315  1.0000
  P   P72       1.0  0.62268  0.92686  0.92898  1.0000
  C   C2146     1.0  0.63065  0.96657  0.90217  1.0000
  C   C2147     1.0  0.54285  0.91270  0.92044  1.0000
  H   H1706     1.0  0.85104  0.89007  0.93642  1.0000
  C   C2148     1.0  0.81817  0.82501  0.97562  1.0000
  H   H1707     1.0  0.67212  0.90727  0.87812  1.0000
  H   H1708     1.0  0.81668  0.68429  0.75737  1.0000
  H   H1709     1.0  0.79694  0.76897  0.96143  1.0000
  H   H1710     1.0  0.87012  0.68333  0.98039  1.0000
  H   H1711     1.0  0.55656  0.51028  0.79405  1.0000
  H   H1712     1.0  0.59814  0.91547  0.99704  1.0000
  C   C2149     1.0  0.72335  0.73657  0.99668  1.0000
  C   C2150     1.0  0.94073  0.78757  0.83562  1.0000
  H   H1713     1.0  0.73785  0.75565  0.99080  1.0000
  C   C2151     1.0  0.61435  0.92063  0.98727  1.0000
  H   H1714     1.0  0.62630  0.87711  0.93906  1.0000
  H   H1715     1.0  0.70771  0.87456  0.98059  1.0000
  H   H1716     1.0  0.50669  0.87554  0.90940  1.0000
  C   C2152     1.0  0.80555  0.70443  0.97238  1.0000
  H   H1717     1.0  0.53219  0.84885  0.90493  1.0000
  H   H1718     1.0  0.74470  0.64340  0.79314  1.0000
  C   C2153     1.0  0.58592  0.91026  0.92274  1.0000
  H   H1719     1.0  0.76666  0.65112  0.75257  1.0000
  H   H1720     1.0  0.77489  0.80659  0.98039  1.0000
  H   H1721     1.0  0.95129  0.80723  0.95921  1.0000
  H   H1722     1.0  0.53271  0.50534  0.75330  1.0000
  H   H1723     1.0  0.61733  0.94940  0.89216  1.0000
  C   C2154     1.0  0.89188  0.78845  0.99305  1.0000
  H   H1724     1.0  0.68776  0.76364  0.97858  1.0000
  C   C2155     1.0  0.96249  0.67669  0.93475  1.0000
  Fe  Fe144     1.0  0.61978  0.55250  0.75187  1.0000
  H   H1725     1.0  0.97329  0.69372  0.96390  1.0000
  H   H1726     1.0  0.61959  0.92045  0.75363  1.0000
  C   C2156     1.0  0.64127  0.92828  0.99461  1.0000
  C   C2157     1.0  0.71853  0.79860  0.99620  1.0000
  S   S286      1.0  0.97231  0.76487  0.87401  1.0000
  H   H1727     1.0  0.68322  0.94153  0.98782  1.0000
  C   C2158     1.0  0.91435  0.81517  0.99427  1.0000
  C   C2159     1.0  0.97175  0.67051  0.91794  1.0000
  H   H1728     1.0  0.65805  0.98186  0.94872  1.0000
  C   C2160     1.0  0.65359  0.98461  0.93387  1.0000
  S   S287      1.0  0.68180  0.62891  0.75162  1.0000
  S   S288      1.0  0.90161  0.50756  0.75164  1.0000
