data_image0
_chemical_formula_structural       PHSH2SCSH2CSCHFeHSHFeCS2FeS2FeS2Fe2S3H3FeCHSC3HFeS2FeS2FeSFeS3H2C7H4C3H2C6H4CHCH3C3HC11H4C6H2CHC6H2CHCHC3HC6H4CFeHC4HCHPH4CHCHC2H2C8HCHCHPHC5HC3SH2CH5CHCHSC2HC6PC5HC12H7CH12C2HC3HPCSCH4C2H2CHC8PC18H20CHCHSC6PC9H2CSH2C3H9CHFeC2H3CSC2H2FeCH5CHCHCH2CHCH6C2HSH3C5H2CHCH2CHCHCHC2HC4HC2H2CSC2H2C2Fe2SHFeS2FeSFeCS2HFeS2FeS2FeSFeS4C3HCHC7H5C7H2C6H5C4HCH3C2H2C2H2C6H4CSH3CH2C2HC2HC6H4CHC2HCHSC4HC2H3C2HC2H2CHSCHPH7CHC3HFeCHCH2C3PC2H2C6H2C2H4CHC3H3CHC4PC7SC12H2CH5CH2C2H5C2HCSHC3FeSC4HC3H3PC2H4PH3CHC2HC2H2C2HCHCH2CHC3HC2H2CHCHC3HC2HFeHC2HC3H5C3HSHC3H4CHC4PC2H3C2H5C7HCH3C2HC2FeHC2HC2HSH3CH2CHCSHC3HCHC4H4C3H5CHP2CH2C4HC2SC2HC6H2SC5HCH2CH2SH2C3PH3CHC3HFeS2FeH2CHSC2HSC2HPSFeS2FeS2FeSFeS3C2S2FeS2FeS2FeSFeS4C6H4C6H4C6H4FeHC6H4C6H4CH4C3SHCHC3HCHC6H7C3HCHCHC5H2C7PC18H16CHC2HC5HCH2C3PC3H2C13H4CH11FeH3C2FeH6FeH2C2HCHCHC5H2CH2CSCH2C5HSC2H2C2HCSC3HCHC3HC3HSC2HCHPC3HCHC2HCHCH2CH3SCH2CHC2HCH2C2FeHFeCHC7PCHCHC5HCHCHCH13C10PC18H20C6PC18H21SHC5H2C2HC3PCFeH2C2HC2H3C2HPH2C3HCH2CSHPC2HCHCHC4SCHC4HC2HSHCHSCHC4H2CH6FeC5FeH4SH3CSCSFeHSFeH3SC2SHFeSCSH2SCHFeS2FeSFeSH2FeS2FeS2FeHC2S2PHCH2CHSH2C6HC3H2CH3C3HC3H2CHC2HC7H7C6H2C6H4C2HCH6C3H2C2HSHC6PC2H2SC2HC10H5C3H2CHC2HCHC2H6FeCH2CSC4HCSC4HCH4PCH2CH2CH2C2HCPCHCFeC2FeCH3C2H2CHC3HC4HCH2C2H3CHC2HCHC2H5CHCHCHCHCHCHC2HCH3CH4C2H2C2HC2HCHC2HCH4C7PC5HC4SCHC3H2FeC5HC2HCHCHCH2CH3C2SHCHCSCHFeS2FeS2FeCFeS3FeS2H2FeSCHFeS2FeS2FeSFeS3FeS2FeS2FeSFeS3CSFeS2FeS2FeSFeS3HCH2C3H2CSC3HC7H4C6HCH2C6H10C4HC2H2C8H4C6H4C5H3C6H2CHCH2C8H4C6H5CH2C6PC3H3C3H3C4HCH6C3H4C2H3CHCHCHC4HCH4SH2CFeCSC2HSC5H9SC6PC18H21CHC7PC16FeCH9CH8CHCH3CSCHCHPH2FeCFeCH4C5HC2H2CHC10PC18H17C3H2CH2C3PC9FeC9H11CH7FeC4PC3HC3HC6H7CH2C2HC2PC3HC2H2FeH2SC2HCH2CHC2HCHCHC3H3C2SCH2CH2C3H3C2HC2H5CHC3H2C4SH2SC2H2C3H3C2HC2HC2H2CH2C2HCHPCSCH4C4HSC4HCHCHCH2C2HC4H2CHCPSHC4H2CH3C4HC3H2C4HCHC2H3C2HC2H3CH3C3HCHPH2C2HCHC2HCH6CHCHC2H2C4HCHCHPCHC6HC2HC2HC2H6CH3CHCHC2HCHSHC2H4C2HC2HC2SPHC2FeSCFeS2FeSFeS7FeS2HSCFeSFeCSC2FeS2FeS2FeSFeS3FeS2FeS2HCFeS2FeSFeC3FeSHFeS2FeCFeHS2HSHSC2PC3H2CH3C7H4C6H4PHC4HC6H4FeSC7H4C8H4CHCHC6H4C6H4CH2C6H6C9PC18HCH18C5HC10HCH5C6PC3HCSC9H15CHCHC2HCH2C5HCHC2H2C3PC2HC2HC12SCH4CH6CH6C6PC18H21C2HC2HCH3C2HSC4H3CH2C4H2C3HC2HCH2C6PCH3C3HC2HC7H3CH2CHCHCH2C2H6C5PC11H9C2H3CHCHC3HFeC3H4CHCH3CFeH5PHCHCH3CH2C2HC10HC2HCH2CHSH4C3H3CH2FeH3C2H3CH2C2HC3H2SC3HC9H2CSCHCSC2H2C2HCH5CHCHCHCHCSC2HCH3C7H3CH4SC3H2CH5CH3SPCHC2H3CHCHC2H2CHC2HC6PC18H7CHSH3C6PC2H4CSHC2FeHCHC2SHC6H2CH2C2SC3HCH4SC7H2C4H9CHC2PHPC2SHFeS2FeS2FeSFeS3FeS2FeSCFeSFeCS2H2FeS2H2SCS3FeS2FeS2FeSFeS3HSCFeSCFeSFeSHSC6H3C4HCHC6H2PHC6H4C3H2C6H4C6H2CH3C7H2CH2CH7CHCHPC7H6C3H2C7H6CHFeHC7H5CHCPC9HCHSH8FeC6PC10H7CH2CH2C6PC6HC11H6C2SH13C2HC9H2CH5CH2CHC2PC2H2CH4CH2C2HSC4PC13H2CHC2H3CFeSH9PCH2CHCH2C2SHCH2CHC2FeH2C2H2CHC2HCSHCHCH2PC11HC2HCHSH4CH4CH3C2FeC2HFeC2HC2H3C6PCH2C2HC6HC3HCH3CH6CH5C10PC18H20C6PC18H20C6PC8SFeCH5CH3C2HCSH2C2H2SC2H5CHCHC2HSH2FeCSFeC2SHFeC3H2SC2SC2HC4H4SC3H2CH2SC2HC6HC6HC2HCHCH2C3H2CH5CHSHCHSCHFeCH3C2HCH2C3HCHCHC3HC3HCHCSC2H5CHCHC2H3CHC4HC4SC6HCH4C4HCSH3C2HFeC3H2C3HC2SFeSCSCHFeC2FeS2HFeS4C3HSH3CSFeS2FeS2FeSFeS3C2HC2FeS2FeS2FeSFeS3HFe2S2HFeS2HC3H2C4HC2HC2H2C4H7C7H4C6H4C6H6CHCHC7H4C6H4C6H4C5H3CH2SCPCH6C2HC3SC2HCH4C2FeC4HCHC2FeCPC2HCH2SH4SC2HC2HCH3C6PC18H8CH12CH3CHC3H3C6H3SH3C6PC5PC12H7CH11C2H2C4H2C4PC18H19C3H3CHC4HSHSCHC2FePC9PC2H3C7HC3H6C5H6Fe2H4C2HC4HCH2C2HC3HC8HC2HC2H4C3HC4SHCSH3CH2C2HPH3C7HCH2C2SHSCH3FeH2CPHC2HC2HC7SCHCHCHC2HCH2C5HC3HCH3C2H4C3H2SHCHC2H3FeC6PHC3PCHCHC4H2CHC2H2C2H5CHSHC5FeCH7SC2HCH2SH2C3HC2H2C4H3CH2CHCH2CH3C3H3CHC3HC3HCHFeS2FeSCFeSFeS2CHCSCHC2H4CHFeSHFeSCFeSFeS3FeS2FeS2FeSFeHS2C6H5CHSHC3HC2PCHCHC3HCH2FeCH2C2HC6H5CHC6H4C7H3C6H4CHCHPC2HC2SH4C3PHC3H2CHC10H2C2HCHC2HCH4CPHCHC3H4CHC2HC4H2CHC3H3CH4C3HCH2C3HCSCSC3H3C3HCHCHC4PC10H3CHCHSH3CHC3H4C2PHCHCSCHSC3H2CH4C3H3C2HSC3H2C2HCH5CHCH2C3H2C3FeCH2CH3C4HC5HCHCHSHSC2FeHC2FeCSH4S2CHS2C3H3SHSHCHFeCHC6H5C2H4CH2C2HC7PC9HC7H11CH6C2FeH2PHCH2CHCH3C2HC2HCH2CH2CH5CHSC2HCFeH2C2SCHC3FeH3C3H2C2H2SC4PHCH2C3H2C2H2C2HC2HCSC7HC3HCHC2PSCFeCHC2PC14H4CFeH2C4H3CS2H3CH4CHC2HCH2C4HCHFeH5CSHCHC2H2CHSC2SFeS4FeSFeSFeS2FeS2FeHFePS2H3PC6H4C5H2C7SH3CHCFeC2H3C6H5SHC4H2C2HCHC3H2CH2C4H2CHCH2C2H4C3HCH2C4SHC3SHCHC2SC4HC2HCS2H3PC2HCH3C4HCHC3FeHC3HC2HFeH2CHCHC4PC2H3CHC2HCH3C2HCHC2HC2H2C2H2C3H6C2PH2CH6C2H2C2HC3HCHC3HFeSC6PC18H21C2HC2HC2HC5HCFeH9CHC5HCH3CH3SFeHSCHC2H4CH2CHCH2C3HCSHFeS2FeS2FeSFeS3FeS2FeS2FeSFeS3HCHCHCSPHC3SHCSCHCFeSCHFeS2FeS2FeCFeS3C4H7CHC9H4C6H4C2HC3HC2HC6H4C6H4C6H4C3H2C7H4C3HC6H3C2H2CH2CH2C2H2CH4CPHCH2C12H2CH7C2HCHSCHC7H2CH3C4HPH6CH2C2HC4HC4H3CHC2H2C3H3C6PC18HCH18C2HC3HCHCHFeH3C3HC2H2CPC2HC6HCH2C3HCHC2HC2HC2HC3H3C2HCH2C7PC18H20C4HCH3CPC3HC2H2PH3CHCHC2HC2HC3HC2HC2H6CSH3C2H3C2HC2HCHCH2CH3FeCHSCHC3SC3FeS2HC3FeSCSCSC2SFeSFeSH2CHFeCHFeCSCH2S2CHSHC5H2SCHSHFeS2FeS2FeSFeS3HC3HC6H4C6H4C6H4CH3CHCH2CHC6HCH2C6H4C6H4C2H2CH2CFeC2HC3FeC4H3C6HC5HC4HC2SH2C2H3SHFeH2FeCHC2HPH3C5H3CSCHFeCHC5HCHCHCHCHC4HC2HC3H2C7HCH3SFeHCHCHSCSCHCHC3HCFeH2C2SCHCHC6PC7HCH2CH3C2H9SHFeHCPH2CHC3SH3C6HSC2HCHCH7CH4C2H3CH2CHCHCSC3FeSHCHCHCH3CHCH4CHC4HCH5CH2CHCH3C2H2CHCHCH2FeC3HCHCHCHCHPHCH2CSPHC2SHCSHC2HCPC16FeC2SH6CH3C3PCHC4HCSHC3H3CH3CH2C2H4CSPCFeCH4C2HC2H3C2HSFeS2FeSFeSFeS3FeS2FeS2FeSFeS3HCHC2FeS2FeS2FeSFeS3FeSCFeS2FeSFeS3HS2FeS2FeS2FeSFeS3C6H3C7H4C6H4C6H4C6H4C6H2C8H3C6H4C6H4C6H4C6H4C3HCH4PC6H4CHC3H9C3H3C5PC18HCH2PH11C2H2C6PC18H8CH11C3H2C3HCHC8PHCH2C2HC3H4CHCH2C6PC18H20CHC2HC5H3C6PC4HC8HCH15C2HC2H2CH2CHC7PC12SH7CH4CH5C6PC3H2C3HC4HCHCSH6PH3C3H3SCHC6SHCH2C2HC2HCHC2HC9HCH3C2H2CFeHC3H3PC3HC2H2C3H2FeHCHC7H3C3H4CHC3SCHCH2CH2CH2C2H2CHPCH2CHCHCHC2H3C3SC2SHCHCHFeHC2HSH2C2HC2HC3H3PCFeCH2SC4HCHC6H2CHFeHFeH4CHCHCFeC3H2CH2CSHCH3CHCHCH4C2HC2H2SHC3SH3C2H2C3H2C2HCHCH2CFeCHC2H2C2H4CH2C2HC2HC2HCH4SC3HC2HC2SH2FeC2HC2HC5H2CPC2H4CHSHCHC7HCHC6HSCHCHCHCHC2H2CHCHCH2CPHS2CH3CH2CH2C2HCPC3H2FeHSH2FeS2FeS2FeSFeS3FeS2FeS2FeSFeS3C3HCHFeSCFeSCFeS2FeS2FeSFeS3HSFeS2FeS2FeSFeS3C7H3C6H5SH3C6H4C3PC3PH2CSHC3H4C2H2C3H3CHCH2C2HC7H4C6H4C3H5C4H3C8H4CHCHC9HC3H8CH2C2HSC2HCFeCHSC5PC3HSC14H3SH12C4PC15H15C6PC17H7CH10C2H2C2P2H2C6HC2H2C2H6C6PC18H21CH2C2H2FeC4H5C2H3C4HCH3CSC2H2C2H3CHC4H2C3SC3H3C7PC7H2C4H2CH12C2HCH4C2HCHCPC12H2C5HPH5C2H5C2H2C3H2C12H7C2H2C2SC4HCSH3C2H2CH9CH2CFeCH2C2HC3H2CHC3H3CHC3HCPCH2C3SC4HPCHC2SC3HCHCHC4HCHCHC4HCHPH3C6HC2SCSCH3CHC4H2CHC5HCH3C2H3C2H3CPCH2C3H2FeHCH2C7HC3H2C5H2C3HCH2C4HC2H2C2H2CH3C2H2C3H2CHC2HC6HCHC3HCHCHC4HC2HC3S2HFeHSC3SFe2S2FeS3FeHSFeS2FeSH2S2C2SPHC4HSHCSHCFeSCHC2S2C2HSH2C6H5SH2C4SH3SC2HC2H2C8H4CHC7H7FeC3HC2HC7H3C3H4C5H2S2FeH2CHCFeCHCHCHC3HSC2HC2H4CHCH5C2H3CFeC2HC6H3CHC2H3CHCFeCH5CHSHCHCHCH2C7H5C4PC19H4CFeH10PC8H2C7H14C2HC2H2PSH2CHC6H2FeSCSHSC2HCHFeC2H8CH2SHCH5C2HC4H3PHCHC3H4CH3SHCH2CHC4HSH2C3HCHC4HCHCH2FeC3HC8PC18H20CSC2HC6SCH3C3HFeC3PC4HCHC5H3CHC5H4CH5CHCH2C2HCHFeCH3CH4CFeCFeS2HFeS2FeS2FeS2FeSFeS3FeS2FeS2FeSFeS3HFeS2FeS2FeSFeS3CHCHCSC3HC3S2HCFeSHSC2HC7H2PHCH2C2HSHC7H4C3H2CFeC6H4C3HC2H2CH2C6H2PC6H4C6H5C3PH2C6H3C6SCHC11HC3H6CH3CH5CH2C4PC12H2C2H9CH2C2H4C4PC4HC7HCHCH9CH3CH2SCH3C3HPC2H2C2HC3HC12HC3H4SH2CH3C6PC18H22CH2C3H3C5H3CHC5HC3HC3HC3HCH2CHCHC3HC3H2CHC3HFeHC4H3C2H2C3H3C4PC4HC8H3C4H2CHC2H10C4H2CH3C5HC2H2CHCHC6PHCH2C3H4FeCH2CH3CFeCH2CH4CH2C3H3C2H3C2H4C2SC2FeH3C3HCHCHCHCHCH2PH3CHC2H2C3HSC2H2CHC2PHC3PC2H2CH3CH4C3HC3H2C3H2CHC2HC2H2C2PC2HCSCHCHC2HC2H2C3PH2CHCH2C2FeC4PCH7CH2C2H3CHCHC2HC5FeS2HSHFeSFeS3CSCFeSHFeSFeSHSHSHFeSCFeSFeCHC2SFe2S2FeSFeS3FeSCHCSCHCH2C6H4C6H4C9H4C6H4CH2C6H2PHSH2CHC2HCH5C2HCH2CHC4HC5SC11H2CFePH3CH5CHCH4C2H3SCH2C2HCHCHCH2CH7SCSH3SH2C3HCH2C4H3SH4CHFeCH4C2PH2C3HCHCHC9SHCH3C2H2C6H8C3HCH2CHCH2C4HC3HP2C3HCHC2HC4HCHSH5CH4C6PC18H5SHC2H2CH4FeC5HCH3C6H2C3SFeC2HPHSCHCHCHCHC2SHC2HFeCSH7CHCHCFeSFeSHS2HFeHSFeHSHC2HS2FeS2H2C5FePSFeC4FeSCSC4H3CHC4FeSCH2CH3PC3SC3H4CHCSHC3SCH2C6H4C6H6CH3C4HCFeSCSHCHCHCHCHSHFeC5H3CH3SCH3CH2CHCHSHC8PC5HC12H7CSH11CHC4HCSCHC3HCHCPH3CHC2H2PC3H2FeC3H2C2H2CH2C2HCHC3HC2H4C4HCFeCHC2SHSCFeHSC2PC3H3C5HC7HCH2C2HCSH4CH5CH2C2H2C2H2FeC4HC2HC2SHCH2CH3CFeCHCHCHCHCHCH2CSHC3S2C3H3C2H2SCHSC3SH4C4H2CHCFeS2FeSCFeSFeS3FeS2FeS2FeSFeS3FeSCFeS2Fe2S3C2HSFeSHFeSFeS3H2C2HCFeS2FeS2FeSFeS3C6H4C3HC2HC6H4CH2CH2CH2CHCH2CHC6H4C6HCH2C6H4C6H2C5H3C6H5C5H3CFeHC2HC4H3C10PC18H18CHC2H3CH3CH5C6HC3HC2HC2HC3H4CHC2H2C2HCHC3HPCHC4HCFeCHC8SCH6CHC4H7C4HC6SC2HSH5C8HCHSHC5HSC7H4C2HC2HC4PC2HC6H4CH2CHC6PC18H19CPH3C2H5C2H4CH2C3HC2H3CH2PHC2FeC3PH3C2H4CPHPHC2H2C2H2C12FeC2H2C2H10C2H3CPCHC5H4CHCHCHCHCH2CHC3H4
_chemical_formula_sum              "P192 H4608 S768 C5760 Fe384"
_cell_length_a       133.858
_cell_length_b       66.4728
_cell_length_c       67.3995
_cell_angle_alpha    74.0581
_cell_angle_beta     74.0103
_cell_angle_gamma    74.0311

_space_group_name_H-M_alt    "P 1"
_space_group_IT_number       1

loop_
  _space_group_symop_operation_xyz
  'x, y, z'

loop_
  _atom_site_type_symbol
  _atom_site_label
  _atom_site_symmetry_multiplicity
  _atom_site_fract_x
  _atom_site_fract_y
  _atom_site_fract_z
  _atom_site_occupancy
  P   P1        1.0  0.04784  0.35757  0.44655  1.0000
  H   H1        1.0  0.13070  0.31194  0.47783  1.0000
  S   S1        1.0  0.16997  0.30962  0.45996  1.0000
  H   H2        1.0  0.08428  0.46200  0.27068  1.0000
  H   H3        1.0  0.09266  0.48576  0.20432  1.0000
  S   S2        1.0  0.99382  0.43801  0.17746  1.0000
  C   C1        1.0  0.99625  0.46166  0.18054  1.0000
  S   S3        1.0  0.17279  0.02624  0.33414  1.0000
  H   H4        1.0  0.12932  0.38758  0.48838  1.0000
  H   H5        1.0  0.14176  0.11622  0.37812  1.0000
  C   C2        1.0  0.17952  0.05294  0.11221  1.0000
  S   S4        1.0  0.17219  0.08741  0.33402  1.0000
  C   C3        1.0  0.00924  0.48052  0.18207  1.0000
  H   H6        1.0  0.10594  0.22917  0.40421  1.0000
  Fe  Fe1       1.0  0.16767  0.19622  0.39550  1.0000
  H   H7        1.0  0.09655  0.46970  0.28800  1.0000
  S   S5        1.0  0.15805  0.21988  0.37295  1.0000
  H   H8        1.0  0.16785  0.08189  0.10470  1.0000
  Fe  Fe2       1.0  0.17664  0.14952  0.41303  1.0000
  C   C4        1.0  0.13158  0.16428  0.45370  1.0000
  S   S6        1.0  0.17489  0.20832  0.41497  1.0000
  S   S7        1.0  0.16089  0.17176  0.42243  1.0000
  Fe  Fe3       1.0  0.11832  0.33911  0.42236  1.0000
  S   S8        1.0  0.11635  0.30902  0.44705  1.0000
  S   S9        1.0  0.13241  0.35492  0.41203  1.0000
  Fe  Fe4       1.0  0.09673  0.34576  0.41179  1.0000
  S   S10       1.0  0.09299  0.31631  0.43553  1.0000
  S   S11       1.0  0.08616  0.36894  0.39050  1.0000
  Fe  Fe5       1.0  0.09964  0.32708  0.45708  1.0000
  Fe  Fe6       1.0  0.10997  0.30078  0.42355  1.0000
  S   S12       1.0  0.11367  0.26725  0.41827  1.0000
  S   S13       1.0  0.10205  0.35796  0.43432  1.0000
  S   S14       1.0  0.11322  0.32930  0.39803  1.0000
  H   H9        1.0  0.99151  0.42923  0.13082  1.0000
  H   H10       1.0  0.07454  0.43529  0.11882  1.0000
  H   H11       1.0  0.10846  0.19504  0.43032  1.0000
  Fe  Fe7       1.0  0.18655  0.31465  0.44442  1.0000
  C   C5        1.0  0.05311  0.33156  0.43981  1.0000
  H   H12       1.0  0.18271  0.05165  0.09587  1.0000
  S   S15       1.0  0.05509  0.46741  0.18506  1.0000
  C   C6        1.0  0.06689  0.29897  0.43882  1.0000
  C   C7        1.0  0.16607  0.44014  0.00651  1.0000
  C   C8        1.0  0.99740  0.37094  0.33632  1.0000
  H   H13       1.0  0.04192  0.38344  0.37383  1.0000
  Fe  Fe8       1.0  0.04455  0.35803  0.33548  1.0000
  S   S16       1.0  0.04639  0.39154  0.32032  1.0000
  S   S17       1.0  0.05428  0.33589  0.35889  1.0000
  Fe  Fe9       1.0  0.02803  0.36137  0.30980  1.0000
  S   S18       1.0  0.02868  0.39530  0.29297  1.0000
  S   S19       1.0  0.01914  0.34008  0.30356  1.0000
  Fe  Fe10      1.0  0.04635  0.38397  0.29008  1.0000
  S   S20       1.0  0.05975  0.38870  0.26181  1.0000
  Fe  Fe11      1.0  0.02857  0.39946  0.32514  1.0000
  S   S21       1.0  0.02040  0.42872  0.33865  1.0000
  S   S22       1.0  0.04576  0.34967  0.30481  1.0000
  S   S23       1.0  0.02665  0.36627  0.34239  1.0000
  H   H14       1.0  0.17573  0.15361  0.48551  1.0000
  H   H15       1.0  0.01913  0.47323  0.25873  1.0000
  C   C9        1.0  0.18540  0.03410  0.18961  1.0000
  C   C10       1.0  0.01084  0.34468  0.28560  1.0000
  C   C11       1.0  0.00628  0.36510  0.27494  1.0000
  C   C12       1.0  0.99945  0.36712  0.26137  1.0000
  C   C13       1.0  0.99732  0.34872  0.25831  1.0000
  C   C14       1.0  0.00202  0.32857  0.26882  1.0000
  C   C15       1.0  0.00861  0.32659  0.28244  1.0000
  H   H16       1.0  0.00795  0.37923  0.27722  1.0000
  H   H17       1.0  0.06411  0.27557  0.42545  1.0000
  H   H18       1.0  0.00044  0.31430  0.26661  1.0000
  H   H19       1.0  0.01204  0.31079  0.29058  1.0000
  C   C16       1.0  0.00036  0.41984  0.34977  1.0000
  C   C17       1.0  0.00643  0.43527  0.34526  1.0000
  C   C18       1.0  0.00131  0.45648  0.34625  1.0000
  H   H20       1.0  0.00428  0.40332  0.34957  1.0000
  H   H21       1.0  0.00599  0.46810  0.34403  1.0000
  C   C19       1.0  0.05728  0.40990  0.24035  1.0000
  C   C20       1.0  0.04872  0.42749  0.24245  1.0000
  C   C21       1.0  0.04767  0.44506  0.22524  1.0000
  C   C22       1.0  0.05518  0.44492  0.20607  1.0000
  C   C23       1.0  0.06345  0.42697  0.20385  1.0000
  C   C24       1.0  0.06455  0.40962  0.22099  1.0000
  H   H22       1.0  0.04316  0.42785  0.25749  1.0000
  H   H23       1.0  0.04127  0.45890  0.22700  1.0000
  H   H24       1.0  0.06924  0.42678  0.18907  1.0000
  H   H25       1.0  0.07118  0.39608  0.21936  1.0000
  C   C25       1.0  0.03836  0.35527  0.47159  1.0000
  H   H26       1.0  0.99586  0.38277  0.25331  1.0000
  C   C26       1.0  0.18240  0.26521  0.36782  1.0000
  H   H27       1.0  0.17722  0.01389  0.21699  1.0000
  H   H28       1.0  0.10992  0.23120  0.45849  1.0000
  H   H29       1.0  0.00402  0.48502  0.28701  1.0000
  C   C27       1.0  0.07573  0.46069  0.09089  1.0000
  C   C28       1.0  0.06321  0.47520  0.23146  1.0000
  C   C29       1.0  0.99019  0.46278  0.34979  1.0000
  H   H30       1.0  0.07312  0.42528  0.25783  1.0000
  C   C30       1.0  0.04729  0.32348  0.43048  1.0000
  C   C31       1.0  0.05647  0.48356  0.24857  1.0000
  C   C32       1.0  0.03014  0.40157  0.39504  1.0000
  C   C33       1.0  0.18499  0.05771  0.21872  1.0000
  C   C34       1.0  0.13525  0.13459  0.40246  1.0000
  C   C35       1.0  0.07748  0.35944  0.38159  1.0000
  C   C36       1.0  0.07610  0.33840  0.38913  1.0000
  C   C37       1.0  0.06914  0.33126  0.38168  1.0000
  C   C38       1.0  0.06339  0.34519  0.36689  1.0000
  C   C39       1.0  0.06486  0.36622  0.35919  1.0000
  C   C40       1.0  0.07182  0.37335  0.36665  1.0000
  H   H31       1.0  0.08034  0.32769  0.40082  1.0000
  H   H32       1.0  0.06814  0.31494  0.38752  1.0000
  H   H33       1.0  0.06057  0.37708  0.34772  1.0000
  H   H34       1.0  0.07283  0.38968  0.36077  1.0000
  C   C41       1.0  0.14649  0.23529  0.38601  1.0000
  C   C42       1.0  0.14036  0.25270  0.37434  1.0000
  C   C43       1.0  0.13059  0.26382  0.38448  1.0000
  C   C44       1.0  0.12691  0.25738  0.40630  1.0000
  C   C45       1.0  0.13323  0.24050  0.41804  1.0000
  C   C46       1.0  0.14305  0.22962  0.40793  1.0000
  H   H35       1.0  0.14304  0.25719  0.35739  1.0000
  H   H36       1.0  0.12567  0.27665  0.37531  1.0000
  C   C47       1.0  0.03925  0.38600  0.38983  1.0000
  H   H37       1.0  0.14784  0.21644  0.41703  1.0000
  C   C48       1.0  0.17808  0.10730  0.38942  1.0000
  C   C49       1.0  0.17318  0.12250  0.37405  1.0000
  C   C50       1.0  0.17146  0.11615  0.35717  1.0000
  C   C51       1.0  0.17477  0.09464  0.35527  1.0000
  C   C52       1.0  0.16641  0.00473  0.18193  1.0000
  C   C53       1.0  0.08409  0.48508  0.18198  1.0000
  H   H38       1.0  0.17051  0.13907  0.37542  1.0000
  H   H39       1.0  0.16752  0.12796  0.34556  1.0000
  C   C54       1.0  0.98915  0.48135  0.17631  1.0000
  H   H40       1.0  0.01192  0.44627  0.18603  1.0000
  C   C55       1.0  0.06104  0.29107  0.42959  1.0000
  H   H41       1.0  0.10015  0.11478  0.44581  1.0000
  C   C56       1.0  0.00105  0.42972  0.24200  1.0000
  C   C57       1.0  0.17138  0.47408  0.99125  1.0000
  C   C58       1.0  0.07089  0.36833  0.46921  1.0000
  H   H42       1.0  0.04022  0.38391  0.47837  1.0000
  C   C59       1.0  0.15973  0.32256  0.44623  1.0000
  C   C60       1.0  0.15925  0.34339  0.43399  1.0000
  C   C61       1.0  0.15080  0.35337  0.42357  1.0000
  C   C62       1.0  0.14289  0.34245  0.42524  1.0000
  C   C63       1.0  0.14348  0.32160  0.43731  1.0000
  C   C64       1.0  0.15174  0.31189  0.44808  1.0000
  H   H43       1.0  0.16532  0.35184  0.43276  1.0000
  H   H44       1.0  0.15037  0.36954  0.41422  1.0000
  H   H45       1.0  0.13763  0.31284  0.43825  1.0000
  H   H46       1.0  0.15204  0.29586  0.45749  1.0000
  C   C65       1.0  0.07271  0.48265  0.08259  1.0000
  Fe  Fe12      1.0  0.16917  0.18241  0.44149  1.0000
  H   H47       1.0  0.11698  0.12607  0.42802  1.0000
  C   C66       1.0  0.05127  0.30338  0.42530  1.0000
  C   C67       1.0  0.17716  0.00019  0.18306  1.0000
  C   C68       1.0  0.03299  0.33834  0.47899  1.0000
  C   C69       1.0  0.02062  0.47755  0.27182  1.0000
  H   H48       1.0  0.08221  0.38830  0.45354  1.0000
  C   C70       1.0  0.07555  0.38280  0.45230  1.0000
  H   H49       1.0  0.14029  0.17650  0.39409  1.0000
  P   P2        1.0  0.12679  0.15849  0.43375  1.0000
  H   H50       1.0  0.01952  0.41656  0.41979  1.0000
  H   H51       1.0  0.02905  0.39387  0.44747  1.0000
  H   H52       1.0  0.08788  0.46861  0.18105  1.0000
  H   H53       1.0  0.12879  0.14443  0.39504  1.0000
  C   C71       1.0  0.06944  0.45444  0.23488  1.0000
  H   H54       1.0  0.11738  0.20394  0.48725  1.0000
  C   C72       1.0  0.18074  0.02782  0.21113  1.0000
  H   H55       1.0  0.06295  0.45941  0.14230  1.0000
  C   C73       1.0  0.08740  0.47645  0.26426  1.0000
  C   C74       1.0  0.05745  0.45392  0.34564  1.0000
  H   H56       1.0  0.99141  0.47586  0.22942  1.0000
  H   H57       1.0  0.07582  0.48899  0.06607  1.0000
  C   C75       1.0  0.06296  0.31914  0.44391  1.0000
  C   C76       1.0  0.16514  0.46143  0.00715  1.0000
  C   C77       1.0  0.12127  0.22137  0.38386  1.0000
  C   C78       1.0  0.05580  0.47102  0.26919  1.0000
  C   C79       1.0  0.07214  0.45228  0.11235  1.0000
  C   C80       1.0  0.18140  0.08578  0.38751  1.0000
  C   C81       1.0  0.17136  0.05641  0.15433  1.0000
  C   C82       1.0  0.06345  0.38200  0.43170  1.0000
  H   H58       1.0  0.05185  0.36146  0.40106  1.0000
  C   C83       1.0  0.13636  0.13790  0.42141  1.0000
  H   H59       1.0  0.13039  0.23547  0.43488  1.0000
  C   C84       1.0  0.15226  0.10934  0.42062  1.0000
  H   H60       1.0  0.05379  0.42583  0.36895  1.0000
  P   P3        1.0  0.18529  0.01974  0.17045  1.0000
  H   H61       1.0  0.17841  0.28606  0.41615  1.0000
  C   C85       1.0  0.02659  0.40447  0.41581  1.0000
  C   C86       1.0  0.03204  0.39154  0.43147  1.0000
  C   C87       1.0  0.14504  0.12535  0.43023  1.0000
  C   C88       1.0  0.13254  0.18730  0.39605  1.0000
  C   C89       1.0  0.17978  0.03923  0.14947  1.0000
  H   H62       1.0  0.15906  0.09994  0.42727  1.0000
  C   C90       1.0  0.11322  0.21712  0.40165  1.0000
  C   C91       1.0  0.16707  0.07171  0.13823  1.0000
  C   C92       1.0  0.06190  0.44997  0.27247  1.0000
  S   S24       1.0  0.18416  0.15787  0.43496  1.0000
  H   H63       1.0  0.14627  0.36735  0.46995  1.0000
  H   H64       1.0  0.06100  0.38683  0.41676  1.0000
  C   C93       1.0  0.12436  0.18256  0.41365  1.0000
  H   H65       1.0  0.12985  0.13427  0.47585  1.0000
  H   H66       1.0  0.07444  0.44781  0.22155  1.0000
  H   H67       1.0  0.07456  0.28961  0.44184  1.0000
  H   H68       1.0  0.04172  0.41991  0.35007  1.0000
  H   H69       1.0  0.06266  0.45665  0.35396  1.0000
  C   C94       1.0  0.99438  0.36313  0.35804  1.0000
  H   H70       1.0  0.10356  0.26913  0.46156  1.0000
  C   C95       1.0  0.03305  0.48297  0.28931  1.0000
  H   H71       1.0  0.03971  0.33280  0.42697  1.0000
  S   S25       1.0  0.18283  0.17330  0.38471  1.0000
  C   C96       1.0  0.05853  0.36791  0.44882  1.0000
  C   C97       1.0  0.00629  0.46137  0.18340  1.0000
  H   H72       1.0  0.16277  0.02004  0.17333  1.0000
  C   C98       1.0  0.01318  0.35033  0.20608  1.0000
  C   C99       1.0  0.00816  0.36056  0.18924  1.0000
  C   C100      1.0  0.00927  0.38123  0.17826  1.0000
  C   C101      1.0  0.01535  0.39171  0.18418  1.0000
  C   C102      1.0  0.02056  0.38144  0.20092  1.0000
  C   C103      1.0  0.01933  0.36071  0.21198  1.0000
  P   P4        1.0  0.02785  0.39584  0.20909  1.0000
  C   C104      1.0  0.03402  0.41312  0.18592  1.0000
  C   C105      1.0  0.01884  0.41157  0.22727  1.0000
  C   C106      1.0  0.02285  0.41817  0.24102  1.0000
  C   C107      1.0  0.01601  0.43053  0.25509  1.0000
  C   C108      1.0  0.00512  0.43627  0.25561  1.0000
  H   H73       1.0  0.13419  0.19550  0.43573  1.0000
  C   C109      1.0  0.00788  0.41745  0.22781  1.0000
  C   C110      1.0  0.03399  0.43419  0.18617  1.0000
  C   C111      1.0  0.03813  0.44782  0.16770  1.0000
  C   C112      1.0  0.04252  0.44043  0.14899  1.0000
  C   C113      1.0  0.04285  0.41930  0.14875  1.0000
  C   C114      1.0  0.03863  0.40567  0.16715  1.0000
  C   C115      1.0  0.03784  0.37752  0.22258  1.0000
  C   C116      1.0  0.04874  0.37561  0.21338  1.0000
  C   C117      1.0  0.05631  0.36162  0.22437  1.0000
  C   C118      1.0  0.05306  0.34941  0.24452  1.0000
  C   C119      1.0  0.04224  0.35129  0.25374  1.0000
  C   C120      1.0  0.03468  0.36556  0.24301  1.0000
  H   H74       1.0  0.01193  0.33468  0.21517  1.0000
  H   H75       1.0  0.00310  0.35274  0.18524  1.0000
  H   H76       1.0  0.00506  0.38952  0.16569  1.0000
  H   H77       1.0  0.01569  0.40809  0.17605  1.0000
  H   H78       1.0  0.02283  0.35255  0.22545  1.0000
  H   H79       1.0  0.03127  0.41364  0.24095  1.0000
  H   H80       1.0  0.01914  0.43532  0.26587  1.0000
  C   C121      1.0  0.06243  0.36087  0.46749  1.0000
  H   H81       1.0  0.99261  0.43398  0.24243  1.0000
  H   H82       1.0  0.00454  0.41263  0.21737  1.0000
  H   H83       1.0  0.03062  0.44035  0.20043  1.0000
  H   H84       1.0  0.12018  0.23658  0.37270  1.0000
  H   H85       1.0  0.06771  0.32497  0.45083  1.0000
  H   H86       1.0  0.04624  0.41355  0.13425  1.0000
  H   H87       1.0  0.03879  0.38941  0.16669  1.0000
  H   H88       1.0  0.05145  0.38516  0.19799  1.0000
  H   H89       1.0  0.06471  0.36059  0.21751  1.0000
  H   H90       1.0  0.05891  0.33887  0.25320  1.0000
  H   H91       1.0  0.03964  0.34190  0.26937  1.0000
  H   H92       1.0  0.02635  0.36725  0.25071  1.0000
  C   C122      1.0  0.98919  0.42585  0.35489  1.0000
  C   C123      1.0  0.04480  0.37337  0.40535  1.0000
  H   H93       1.0  0.03441  0.32636  0.46987  1.0000
  C   C124      1.0  0.15097  0.10586  0.40206  1.0000
  C   C125      1.0  0.05247  0.43658  0.35412  1.0000
  C   C126      1.0  0.04572  0.43312  0.34346  1.0000
  H   H94       1.0  0.13736  0.21010  0.36772  1.0000
  P   P5        1.0  0.04654  0.48170  0.29080  1.0000
  C   C127      1.0  0.07186  0.38954  0.43354  1.0000
  S   S26       1.0  0.16701  0.01743  0.28344  1.0000
  C   C128      1.0  0.04113  0.37566  0.42637  1.0000
  H   H95       1.0  0.17062  0.35573  0.39239  1.0000
  H   H96       1.0  0.07893  0.48749  0.23925  1.0000
  H   H97       1.0  0.18554  0.21726  0.35519  1.0000
  H   H98       1.0  0.04686  0.29755  0.41759  1.0000
  C   C129      1.0  0.11445  0.14980  0.44653  1.0000
  C   C130      1.0  0.17424  0.34488  0.38174  1.0000
  H   H99       1.0  0.08096  0.45022  0.08071  1.0000
  H   H100      1.0  0.06119  0.43959  0.28805  1.0000
  C   C131      1.0  0.17115  0.06998  0.11718  1.0000
  H   H101      1.0  0.02579  0.41126  0.38299  1.0000
  C   C132      1.0  0.18383  0.03760  0.12827  1.0000
  C   C133      1.0  0.13092  0.20645  0.38106  1.0000
  C   C134      1.0  0.09185  0.33371  0.27553  1.0000
  C   C135      1.0  0.08088  0.34108  0.28210  1.0000
  C   C136      1.0  0.07636  0.34029  0.30352  1.0000
  C   C137      1.0  0.08278  0.33225  0.31834  1.0000
  C   C138      1.0  0.09382  0.32503  0.31193  1.0000
  C   C139      1.0  0.09832  0.32575  0.29036  1.0000
  P   P6        1.0  0.10198  0.31665  0.33139  1.0000
  C   C140      1.0  0.10402  0.34012  0.33705  1.0000
  C   C141      1.0  0.09535  0.30059  0.35494  1.0000
  C   C142      1.0  0.09697  0.29984  0.37484  1.0000
  C   C143      1.0  0.09229  0.28641  0.39283  1.0000
  C   C144      1.0  0.08605  0.27352  0.39111  1.0000
  C   C145      1.0  0.08438  0.27418  0.37136  1.0000
  C   C146      1.0  0.08907  0.28754  0.35331  1.0000
  C   C147      1.0  0.09679  0.35990  0.33375  1.0000
  C   C148      1.0  0.09862  0.37803  0.33767  1.0000
  C   C149      1.0  0.10768  0.37660  0.34487  1.0000
  C   C150      1.0  0.11494  0.35705  0.34810  1.0000
  C   C151      1.0  0.11306  0.33881  0.34447  1.0000
  C   C152      1.0  0.11499  0.30081  0.32218  1.0000
  C   C153      1.0  0.11794  0.27901  0.33164  1.0000
  C   C154      1.0  0.12829  0.26739  0.32548  1.0000
  C   C155      1.0  0.13574  0.27735  0.30979  1.0000
  C   C156      1.0  0.13288  0.29899  0.30026  1.0000
  C   C157      1.0  0.12258  0.31073  0.30653  1.0000
  H   H102      1.0  0.09532  0.33435  0.25889  1.0000
  H   H103      1.0  0.07586  0.34756  0.27064  1.0000
  H   H104      1.0  0.06788  0.34611  0.30870  1.0000
  H   H105      1.0  0.07913  0.33198  0.33484  1.0000
  H   H106      1.0  0.10677  0.32029  0.28488  1.0000
  H   H107      1.0  0.10181  0.30961  0.37658  1.0000
  H   H108      1.0  0.09350  0.28605  0.40817  1.0000
  H   H109      1.0  0.08250  0.26308  0.40508  1.0000
  H   H110      1.0  0.07944  0.26438  0.37000  1.0000
  H   H111      1.0  0.08780  0.28758  0.33811  1.0000
  H   H112      1.0  0.08959  0.36144  0.32863  1.0000
  H   H113      1.0  0.09280  0.39300  0.33590  1.0000
  H   H114      1.0  0.10889  0.39048  0.34862  1.0000
  H   H115      1.0  0.12183  0.35589  0.35419  1.0000
  H   H116      1.0  0.11853  0.32362  0.34792  1.0000
  H   H117      1.0  0.11238  0.27095  0.34402  1.0000
  H   H118      1.0  0.13057  0.25067  0.33305  1.0000
  H   H119      1.0  0.14376  0.26828  0.30515  1.0000
  H   H120      1.0  0.13869  0.30674  0.28818  1.0000
  H   H121      1.0  0.12054  0.32763  0.29939  1.0000
  C   C158      1.0  0.05566  0.46781  0.32654  1.0000
  H   H122      1.0  0.16811  0.05800  0.17058  1.0000
  C   C159      1.0  0.11473  0.19777  0.41648  1.0000
  H   H123      1.0  0.07580  0.40000  0.42011  1.0000
  S   S27       1.0  0.17973  0.11442  0.41164  1.0000
  C   C160      1.0  0.14231  0.30900  0.36470  1.0000
  C   C161      1.0  0.14380  0.30515  0.34460  1.0000
  C   C162      1.0  0.15388  0.29554  0.33444  1.0000
  C   C163      1.0  0.16244  0.28961  0.34444  1.0000
  C   C164      1.0  0.16091  0.29282  0.36491  1.0000
  C   C165      1.0  0.15083  0.30299  0.37479  1.0000
  P   P7        1.0  0.17194  0.28611  0.37768  1.0000
  C   C166      1.0  0.17616  0.31090  0.37266  1.0000
  C   C167      1.0  0.16763  0.27457  0.40530  1.0000
  C   C168      1.0  0.16003  0.26183  0.41149  1.0000
  C   C169      1.0  0.15727  0.25124  0.43257  1.0000
  C   C170      1.0  0.16215  0.25311  0.44757  1.0000
  C   C171      1.0  0.16962  0.26595  0.44159  1.0000
  C   C172      1.0  0.17246  0.27650  0.42050  1.0000
  C   C173      1.0  0.17975  0.24775  0.36418  1.0000
  C   C174      1.0  0.06875  0.44180  0.25534  1.0000
  H   H124      1.0  0.15951  0.46831  0.01981  1.0000
  H   H125      1.0  0.04563  0.45111  0.13470  1.0000
  C   C175      1.0  0.17136  0.32513  0.38625  1.0000
  S   S28       1.0  0.16146  0.19433  0.47175  1.0000
  H   H126      1.0  0.03743  0.47163  0.26011  1.0000
  H   H127      1.0  0.18492  0.06661  0.23006  1.0000
  C   C176      1.0  0.11040  0.23582  0.47238  1.0000
  C   C177      1.0  0.04405  0.44673  0.32423  1.0000
  C   C178      1.0  0.18059  0.03957  0.22556  1.0000
  H   H128      1.0  0.13455  0.31659  0.37259  1.0000
  H   H129      1.0  0.13718  0.30961  0.33691  1.0000
  H   H130      1.0  0.15506  0.29265  0.31884  1.0000
  H   H131      1.0  0.17023  0.28251  0.33621  1.0000
  H   H132      1.0  0.14955  0.30629  0.39031  1.0000
  H   H133      1.0  0.15642  0.25961  0.39995  1.0000
  H   H134      1.0  0.15155  0.24112  0.43721  1.0000
  H   H135      1.0  0.16017  0.24448  0.46378  1.0000
  H   H136      1.0  0.00575  0.36898  0.32866  1.0000
  C   C179      1.0  0.08444  0.49082  0.24630  1.0000
  H   H137      1.0  0.03894  0.44352  0.31601  1.0000
  Fe  Fe13      1.0  0.17992  0.05537  0.32450  1.0000
  C   C180      1.0  0.04890  0.46432  0.31569  1.0000
  C   C181      1.0  0.17981  0.07948  0.37045  1.0000
  H   H138      1.0  0.16534  0.32105  0.40022  1.0000
  H   H139      1.0  0.17150  0.24701  0.36691  1.0000
  H   H140      1.0  0.17704  0.03462  0.24214  1.0000
  C   C182      1.0  0.06558  0.46584  0.12556  1.0000
  S   S29       1.0  0.18390  0.05472  0.28987  1.0000
  C   C183      1.0  0.10686  0.25723  0.47401  1.0000
  C   C184      1.0  0.06248  0.48776  0.11730  1.0000
  H   H141      1.0  0.03791  0.46418  0.16794  1.0000
  H   H142      1.0  0.18515  0.07390  0.39936  1.0000
  Fe  Fe14      1.0  0.17822  0.02372  0.29995  1.0000
  C   C185      1.0  0.13453  0.18380  0.45038  1.0000
  H   H143      1.0  0.18231  0.06288  0.36921  1.0000
  H   H144      1.0  0.99219  0.38733  0.30758  1.0000
  H   H145      1.0  0.99989  0.44564  0.26670  1.0000
  H   H146      1.0  0.00043  0.35508  0.36715  1.0000
  H   H147      1.0  0.15669  0.09364  0.39448  1.0000
  C   C186      1.0  0.98969  0.38138  0.32441  1.0000
  H   H148      1.0  0.16060  0.08495  0.14210  1.0000
  C   C187      1.0  0.14253  0.11861  0.39286  1.0000
  H   H149      1.0  0.07402  0.36251  0.48347  1.0000
  C   C188      1.0  0.03104  0.47691  0.27259  1.0000
  H   H150      1.0  0.17305  0.26808  0.45342  1.0000
  H   H151      1.0  0.16119  0.43038  0.01881  1.0000
  C   C189      1.0  0.09427  0.48082  0.27405  1.0000
  H   H152      1.0  0.14061  0.20326  0.46305  1.0000
  C   C190      1.0  0.03624  0.37061  0.48384  1.0000
  H   H153      1.0  0.10283  0.35618  0.48272  1.0000
  H   H154      1.0  0.05909  0.34929  0.48062  1.0000
  H   H155      1.0  0.18111  0.21398  0.45653  1.0000
  H   H156      1.0  0.07425  0.48879  0.16013  1.0000
  H   H157      1.0  0.05954  0.48116  0.32048  1.0000
  H   H158      1.0  0.06339  0.48456  0.21548  1.0000
  C   C191      1.0  0.14337  0.36216  0.48681  1.0000
  C   C192      1.0  0.01212  0.48420  0.28770  1.0000
  H   H159      1.0  0.14643  0.12799  0.44427  1.0000
  S   S30       1.0  0.98889  0.34932  0.24186  1.0000
  H   H160      1.0  0.01704  0.48004  0.18408  1.0000
  H   H161      1.0  0.15097  0.26968  0.48793  1.0000
  H   H162      1.0  0.17041  0.49069  0.99174  1.0000
  C   C193      1.0  0.18349  0.31712  0.35400  1.0000
  C   C194      1.0  0.18190  0.35054  0.36367  1.0000
  C   C195      1.0  0.10742  0.15916  0.46293  1.0000
  C   C196      1.0  0.13816  0.18827  0.46589  1.0000
  C   C197      1.0  0.11175  0.13372  0.44046  1.0000
  H   H163      1.0  0.08781  0.13155  0.47464  1.0000
  H   H164      1.0  0.18426  0.36564  0.36052  1.0000
  C   C198      1.0  0.13213  0.14942  0.47295  1.0000
  H   H165      1.0  0.18556  0.38145  0.47309  1.0000
  C   C199      1.0  0.10217  0.12720  0.45057  1.0000
  H   H166      1.0  0.02576  0.49338  0.31878  1.0000
  H   H167      1.0  0.09247  0.15991  0.48562  1.0000
  C   C200      1.0  0.09523  0.13663  0.46682  1.0000
  H   H168      1.0  0.98843  0.46763  0.13103  1.0000
  C   C201      1.0  0.02445  0.48926  0.30538  1.0000
  H   H169      1.0  0.15354  0.00140  0.35264  1.0000
  C   C202      1.0  0.01402  0.49051  0.30418  1.0000
  H   H170      1.0  0.10931  0.17159  0.46791  1.0000
  C   C203      1.0  0.09785  0.15260  0.47300  1.0000
  C   C204      1.0  0.98887  0.49298  0.22848  1.0000
  H   H171      1.0  0.17374  0.41522  0.98914  1.0000
  C   C205      1.0  0.17317  0.43159  0.98983  1.0000
  C   C206      1.0  0.08668  0.49479  0.19532  1.0000
  C   C207      1.0  0.13888  0.17329  0.48486  1.0000
  C   C208      1.0  0.18648  0.33672  0.34971  1.0000
  H   H172      1.0  0.18491  0.46033  0.30735  1.0000
  C   C209      1.0  0.11468  0.22055  0.48847  1.0000
  C   C210      1.0  0.13584  0.15389  0.48843  1.0000
  H   H173      1.0  0.00795  0.44825  0.69592  1.0000
  H   H174      1.0  0.05382  0.44190  0.79972  1.0000
  C   C211      1.0  0.17633  0.13287  0.87960  1.0000
  S   S31       1.0  0.16429  0.37849  0.58706  1.0000
  C   C212      1.0  0.07280  0.43664  0.57778  1.0000
  C   C213      1.0  0.12588  0.38760  0.66201  1.0000
  H   H175      1.0  0.08517  0.39130  0.71836  1.0000
  H   H176      1.0  0.17321  0.99605  0.88823  1.0000
  C   C214      1.0  0.16220  0.27083  0.53463  1.0000
  C   C215      1.0  0.00296  0.46365  0.86687  1.0000
  Fe  Fe15      1.0  0.03776  0.45637  0.72006  1.0000
  Fe  Fe16      1.0  0.17809  0.20893  0.58602  1.0000
  S   S32       1.0  0.17466  0.20089  0.62127  1.0000
  H   H177      1.0  0.07956  0.44799  0.74193  1.0000
  Fe  Fe17      1.0  0.17160  0.16943  0.58347  1.0000
  S   S33       1.0  0.16764  0.15797  0.61892  1.0000
  S   S34       1.0  0.17298  0.14853  0.56091  1.0000
  Fe  Fe18      1.0  0.15992  0.19273  0.61889  1.0000
  S   S35       1.0  0.14560  0.20428  0.64310  1.0000
  Fe  Fe19      1.0  0.18261  0.16725  0.61847  1.0000
  C   C216      1.0  0.16601  0.19803  0.67437  1.0000
  S   S36       1.0  0.16268  0.20355  0.58347  1.0000
  S   S37       1.0  0.18554  0.34483  0.62441  1.0000
  H   H178      1.0  0.18384  0.45319  0.82860  1.0000
  Fe  Fe20      1.0  0.11223  0.33656  0.62381  1.0000
  S   S38       1.0  0.10067  0.31627  0.64440  1.0000
  S   S39       1.0  0.12514  0.33694  0.63932  1.0000
  Fe  Fe21      1.0  0.10149  0.34829  0.58630  1.0000
  S   S40       1.0  0.08928  0.32887  0.60404  1.0000
  S   S41       1.0  0.10245  0.36669  0.55237  1.0000
  Fe  Fe22      1.0  0.08822  0.34312  0.63138  1.0000
  S   S42       1.0  0.07167  0.35746  0.64819  1.0000
  Fe  Fe23      1.0  0.10293  0.30404  0.61524  1.0000
  S   S43       1.0  0.10550  0.26963  0.61307  1.0000
  S   S44       1.0  0.09962  0.36440  0.61283  1.0000
  S   S45       1.0  0.11524  0.32255  0.59548  1.0000
  S   S46       1.0  0.06309  0.38401  0.73580  1.0000
  C   C217      1.0  0.10401  0.32141  0.71567  1.0000
  C   C218      1.0  0.05405  0.45600  0.80446  1.0000
  C   C219      1.0  0.00375  0.39559  0.85225  1.0000
  H   H179      1.0  0.15955  0.04083  0.89149  1.0000
  C   C220      1.0  0.99940  0.42440  0.82291  1.0000
  H   H180      1.0  0.10070  0.32942  0.74604  1.0000
  C   C221      1.0  0.14665  0.31408  0.57772  1.0000
  C   C222      1.0  0.06931  0.36390  0.67298  1.0000
  C   C223      1.0  0.05989  0.37835  0.67958  1.0000
  C   C224      1.0  0.05799  0.38479  0.69871  1.0000
  C   C225      1.0  0.06535  0.37630  0.71167  1.0000
  C   C226      1.0  0.07459  0.36124  0.70547  1.0000
  C   C227      1.0  0.07660  0.35511  0.68611  1.0000
  H   H181      1.0  0.05413  0.38487  0.66966  1.0000
  H   H182      1.0  0.05080  0.39619  0.70354  1.0000
  H   H183      1.0  0.08026  0.35442  0.71557  1.0000
  H   H184      1.0  0.08380  0.34370  0.68128  1.0000
  H   H185      1.0  0.16967  0.28621  0.57160  1.0000
  C   C228      1.0  0.17063  0.03716  0.82291  1.0000
  C   C229      1.0  0.10246  0.36117  0.51335  1.0000
  C   C230      1.0  0.09922  0.35456  0.53536  1.0000
  C   C231      1.0  0.09359  0.33816  0.54351  1.0000
  C   C232      1.0  0.09112  0.32858  0.52984  1.0000
  C   C233      1.0  0.05584  0.47446  0.78922  1.0000
  C   C234      1.0  0.03572  0.48289  0.62951  1.0000
  H   H186      1.0  0.09106  0.33289  0.56036  1.0000
  H   H187      1.0  0.08664  0.31613  0.53635  1.0000
  C   C235      1.0  0.13478  0.22294  0.63399  1.0000
  C   C236      1.0  0.12912  0.23933  0.64477  1.0000
  C   C237      1.0  0.12018  0.25390  0.63831  1.0000
  C   C238      1.0  0.11667  0.25167  0.62148  1.0000
  C   C239      1.0  0.12219  0.23493  0.61103  1.0000
  C   C240      1.0  0.13136  0.22088  0.61699  1.0000
  H   H188      1.0  0.13169  0.24078  0.65809  1.0000
  H   H189      1.0  0.11591  0.26664  0.64654  1.0000
  H   H190      1.0  0.11950  0.23309  0.59806  1.0000
  H   H191      1.0  0.13560  0.20803  0.60891  1.0000
  H   H192      1.0  0.99963  0.35917  0.83717  1.0000
  C   C241      1.0  0.16065  0.19130  0.51327  1.0000
  C   C242      1.0  0.16336  0.18171  0.53295  1.0000
  C   C243      1.0  0.17024  0.16161  0.53581  1.0000
  C   C244      1.0  0.17465  0.15144  0.51866  1.0000
  H   H193      1.0  0.05605  0.48475  0.65103  1.0000
  C   C245      1.0  0.12680  0.30682  0.49410  1.0000
  H   H194      1.0  0.15985  0.18950  0.54611  1.0000
  H   H195      1.0  0.16143  0.23641  0.50629  1.0000
  H   H196      1.0  0.09620  0.45690  0.71772  1.0000
  C   C246      1.0  0.02010  0.44419  0.87452  1.0000
  C   C247      1.0  0.17738  0.22924  0.66944  1.0000
  H   H197      1.0  0.03322  0.45938  0.85734  1.0000
  H   H198      1.0  0.02738  0.38072  0.51267  1.0000
  C   C248      1.0  0.14536  0.33667  0.51986  1.0000
  C   C249      1.0  0.99947  0.46172  0.72301  1.0000
  H   H199      1.0  0.17614  0.29693  0.51941  1.0000
  H   H200      1.0  0.10745  0.43303  0.69385  1.0000
  C   C250      1.0  0.15373  0.36573  0.60099  1.0000
  C   C251      1.0  0.14436  0.37145  0.59337  1.0000
  C   C252      1.0  0.13558  0.36236  0.60478  1.0000
  C   C253      1.0  0.13609  0.34795  0.62414  1.0000
  C   C254      1.0  0.14549  0.34206  0.63169  1.0000
  C   C255      1.0  0.15436  0.35071  0.62000  1.0000
  H   H201      1.0  0.14387  0.38302  0.57863  1.0000
  H   H202      1.0  0.12838  0.36681  0.59882  1.0000
  H   H203      1.0  0.14592  0.33076  0.64660  1.0000
  H   H204      1.0  0.16156  0.34624  0.62596  1.0000
  C   C256      1.0  0.16390  0.26356  0.59922  1.0000
  S   S47       1.0  0.18499  0.23709  0.56587  1.0000
  H   H205      1.0  0.01499  0.46640  0.80659  1.0000
  H   H206      1.0  0.13184  0.26810  0.59004  1.0000
  H   H207      1.0  0.04354  0.43692  0.67948  1.0000
  C   C257      1.0  0.18496  0.06183  0.69884  1.0000
  H   H208      1.0  0.02158  0.32356  0.50405  1.0000
  H   H209      1.0  0.16885  0.13792  0.89016  1.0000
  C   C258      1.0  0.12419  0.39513  0.69614  1.0000
  C   C259      1.0  0.13677  0.38718  0.65723  1.0000
  H   H210      1.0  0.00101  0.39539  0.94926  1.0000
  C   C260      1.0  0.11946  0.39213  0.68129  1.0000
  C   C261      1.0  0.01431  0.39107  0.84088  1.0000
  H   H211      1.0  0.08347  0.39447  0.63859  1.0000
  C   C262      1.0  0.16509  0.32244  0.53343  1.0000
  C   C263      1.0  0.03966  0.42418  0.63686  1.0000
  C   C264      1.0  0.03225  0.41139  0.64745  1.0000
  C   C265      1.0  0.02889  0.40798  0.66942  1.0000
  C   C266      1.0  0.03293  0.41739  0.68081  1.0000
  C   C267      1.0  0.17228  0.16147  0.49868  1.0000
  H   H212      1.0  0.04220  0.42664  0.61982  1.0000
  H   H213      1.0  0.02920  0.40396  0.63861  1.0000
  H   H214      1.0  0.02322  0.39794  0.67766  1.0000
  H   H215      1.0  0.03035  0.41475  0.69784  1.0000
  C   C268      1.0  0.01100  0.49409  0.78227  1.0000
  H   H216      1.0  0.99588  0.32675  0.74999  1.0000
  C   C269      1.0  0.09448  0.33490  0.50790  1.0000
  C   C270      1.0  0.02568  0.33670  0.49841  1.0000
  H   H217      1.0  0.17070  0.31119  0.59188  1.0000
  C   C271      1.0  0.00130  0.48095  0.91859  1.0000
  H   H218      1.0  0.15650  0.35105  0.54534  1.0000
  S   S48       1.0  0.05134  0.47274  0.85942  1.0000
  C   C272      1.0  0.99636  0.41251  0.84335  1.0000
  C   C273      1.0  0.17522  0.31112  0.52511  1.0000
  C   C274      1.0  0.17329  0.06736  0.79336  1.0000
  C   C275      1.0  0.08458  0.43736  0.73166  1.0000
  H   H219      1.0  0.16824  0.23696  0.53688  1.0000
  C   C276      1.0  0.03803  0.44139  0.94009  1.0000
  C   C277      1.0  0.99218  0.46325  0.96019  1.0000
  H   H220      1.0  0.12276  0.37554  0.52697  1.0000
  H   H221      1.0  0.00477  0.34621  0.76395  1.0000
  H   H222      1.0  0.04039  0.39772  0.92088  1.0000
  C   C278      1.0  0.14600  0.30584  0.56117  1.0000
  C   C279      1.0  0.16254  0.27172  0.63295  1.0000
  H   H223      1.0  0.17262  0.36288  0.54389  1.0000
  C   C280      1.0  0.00113  0.37316  0.80384  1.0000
  C   C281      1.0  0.07639  0.41443  0.58286  1.0000
  H   H224      1.0  0.15886  0.24338  0.62914  1.0000
  H   H225      1.0  0.15488  0.20630  0.51149  1.0000
  C   C282      1.0  0.13386  0.37356  0.49718  1.0000
  H   H226      1.0  0.10175  0.36722  0.73120  1.0000
  S   S49       1.0  0.05472  0.44557  0.72340  1.0000
  C   C283      1.0  0.04964  0.40573  0.87158  1.0000
  H   H227      1.0  0.18057  0.17510  0.67866  1.0000
  P   P8        1.0  0.16027  0.26370  0.66142  1.0000
  H   H228      1.0  0.15668  0.33557  0.49002  1.0000
  H   H229      1.0  0.04007  0.44592  0.95249  1.0000
  H   H230      1.0  0.16522  0.27069  0.54802  1.0000
  H   H231      1.0  0.98874  0.45650  0.97636  1.0000
  H   H232      1.0  0.02492  0.46356  0.90015  1.0000
  H   H233      1.0  0.99452  0.46499  0.87016  1.0000
  H   H234      1.0  0.03743  0.35440  0.72268  1.0000
  C   C284      1.0  0.16296  0.00133  0.85571  1.0000
  H   H235      1.0  0.99401  0.43365  0.77348  1.0000
  C   C285      1.0  0.01856  0.47810  0.84895  1.0000
  C   C286      1.0  0.09745  0.40976  0.70508  1.0000
  C   C287      1.0  0.04107  0.42013  0.93789  1.0000
  H   H236      1.0  0.10362  0.30476  0.72220  1.0000
  Fe  Fe24      1.0  0.04884  0.45455  0.75489  1.0000
  C   C288      1.0  0.17713  0.02369  0.86408  1.0000
  H   H237      1.0  0.15084  0.32666  0.57493  1.0000
  C   C289      1.0  0.15419  0.27006  0.50084  1.0000
  H   H238      1.0  0.12702  0.33531  0.50280  1.0000
  H   H239      1.0  0.98816  0.41573  0.85179  1.0000
  C   C290      1.0  0.04508  0.39971  0.83577  1.0000
  C   C291      1.0  0.05560  0.39455  0.83810  1.0000
  C   C292      1.0  0.05788  0.39752  0.85600  1.0000
  P   P9        1.0  0.15323  0.31386  0.53443  1.0000
  C   C293      1.0  0.03904  0.41081  0.86940  1.0000
  C   C294      1.0  0.03683  0.40781  0.85134  1.0000
  H   H240      1.0  0.15294  0.22408  0.66814  1.0000
  H   H241      1.0  0.03096  0.47168  0.63966  1.0000
  C   C295      1.0  0.02048  0.40218  0.90460  1.0000
  C   C296      1.0  0.01299  0.40655  0.92297  1.0000
  C   C297      1.0  0.00697  0.39162  0.93543  1.0000
  C   C298      1.0  0.00841  0.37217  0.92972  1.0000
  C   C299      1.0  0.10469  0.36472  0.69859  1.0000
  C   C300      1.0  0.02182  0.38269  0.89885  1.0000
  H   H242      1.0  0.04330  0.39777  0.82175  1.0000
  H   H243      1.0  0.06199  0.38866  0.82582  1.0000
  C   C301      1.0  0.00917  0.44572  0.87757  1.0000
  C   C302      1.0  0.03828  0.41437  0.92200  1.0000
  H   H244      1.0  0.02872  0.41202  0.84919  1.0000
  H   H245      1.0  0.15155  0.28804  0.69545  1.0000
  H   H246      1.0  0.00533  0.43335  0.88839  1.0000
  H   H247      1.0  0.01166  0.42170  0.92747  1.0000
  C   C303      1.0  0.14139  0.39070  0.67185  1.0000
  H   H248      1.0  0.17991  0.13579  0.52086  1.0000
  C   C304      1.0  0.10624  0.32899  0.69379  1.0000
  C   C305      1.0  0.12416  0.27098  0.68887  1.0000
  C   C306      1.0  0.13138  0.25674  0.70053  1.0000
  H   H249      1.0  0.11568  0.27221  0.69488  1.0000
  H   H250      1.0  0.12850  0.24694  0.71568  1.0000
  H   H251      1.0  0.14784  0.24362  0.70155  1.0000
  C   C307      1.0  0.17835  0.00740  0.88222  1.0000
  H   H252      1.0  0.00359  0.36077  0.93912  1.0000
  C   C308      1.0  0.11991  0.31338  0.52942  1.0000
  C   C309      1.0  0.11638  0.29421  0.53606  1.0000
  C   C310      1.0  0.11791  0.28136  0.52161  1.0000
  C   C311      1.0  0.16519  0.18139  0.49602  1.0000
  P   P10       1.0  0.11327  0.25670  0.53023  1.0000
  C   C312      1.0  0.11210  0.24830  0.50772  1.0000
  C   C313      1.0  0.12250  0.23653  0.54434  1.0000
  C   C314      1.0  0.11942  0.21785  0.55751  1.0000
  C   C315      1.0  0.12656  0.20214  0.56837  1.0000
  C   C316      1.0  0.13678  0.20501  0.56626  1.0000
  C   C317      1.0  0.13986  0.22365  0.55338  1.0000
  C   C318      1.0  0.13279  0.23932  0.54235  1.0000
  S   S50       1.0  0.05765  0.47515  0.76220  1.0000
  C   C319      1.0  0.17602  0.28340  0.66220  1.0000
  C   C320      1.0  0.99564  0.45747  0.74487  1.0000
  C   C321      1.0  0.10020  0.35119  0.49964  1.0000
  C   C322      1.0  0.05618  0.49263  0.79557  1.0000
  C   C323      1.0  0.10026  0.26181  0.54751  1.0000
  C   C324      1.0  0.09102  0.27020  0.53927  1.0000
  C   C325      1.0  0.08105  0.27478  0.55270  1.0000
  C   C326      1.0  0.08020  0.27121  0.57445  1.0000
  C   C327      1.0  0.08933  0.26304  0.58277  1.0000
  C   C328      1.0  0.09932  0.25848  0.56938  1.0000
  C   C329      1.0  0.02479  0.46034  0.85991  1.0000
  C   C330      1.0  0.05287  0.47388  0.83236  1.0000
  H   H253      1.0  0.11846  0.32354  0.54050  1.0000
  H   H254      1.0  0.11230  0.28971  0.55237  1.0000
  C   C331      1.0  0.05276  0.45564  0.82592  1.0000
  H   H255      1.0  0.11149  0.21551  0.55941  1.0000
  H   H256      1.0  0.12414  0.18783  0.57865  1.0000
  H   H257      1.0  0.14229  0.19288  0.57479  1.0000
  H   H258      1.0  0.14773  0.22600  0.55202  1.0000
  H   H259      1.0  0.13538  0.25358  0.53243  1.0000
  C   C332      1.0  0.00304  0.48733  0.93541  1.0000
  H   H260      1.0  0.07540  0.44543  0.56187  1.0000
  H   H261      1.0  0.08182  0.40597  0.57103  1.0000
  C   C333      1.0  0.17335  0.34850  0.53847  1.0000
  C   C334      1.0  0.10034  0.42870  0.70463  1.0000
  H   H262      1.0  0.09143  0.27389  0.52248  1.0000
  H   H263      1.0  0.07402  0.28167  0.54612  1.0000
  H   H264      1.0  0.07252  0.27516  0.58483  1.0000
  H   H265      1.0  0.08873  0.26073  0.59959  1.0000
  H   H266      1.0  0.10630  0.25289  0.57615  1.0000
  C   C335      1.0  0.99488  0.46582  0.92275  1.0000
  C   C336      1.0  0.13512  0.39455  0.69135  1.0000
  H   H267      1.0  0.13874  0.39696  0.70280  1.0000
  C   C337      1.0  0.02956  0.45126  0.91028  1.0000
  S   S51       1.0  0.01305  0.43530  0.78579  1.0000
  H   H268      1.0  0.12233  0.29449  0.66015  1.0000
  C   C338      1.0  0.10663  0.35050  0.68529  1.0000
  C   C339      1.0  0.01746  0.40357  0.82064  1.0000
  C   C340      1.0  0.15993  0.25122  0.51141  1.0000
  Fe  Fe25      1.0  0.02952  0.43483  0.76538  1.0000
  S   S52       1.0  0.04576  0.42222  0.77290  1.0000
  C   C341      1.0  0.13720  0.28828  0.60315  1.0000
  C   C342      1.0  0.02894  0.36890  0.50326  1.0000
  C   C343      1.0  0.10285  0.35682  0.72057  1.0000
  C   C344      1.0  0.06581  0.44746  0.59310  1.0000
  H   H269      1.0  0.10948  0.42770  0.65111  1.0000
  C   C345      1.0  0.10384  0.42029  0.64845  1.0000
  C   C346      1.0  0.01581  0.36775  0.91143  1.0000
  C   C347      1.0  0.06105  0.46987  0.65727  1.0000
  H   H270      1.0  0.99117  0.47383  0.81037  1.0000
  H   H271      1.0  0.07685  0.41677  0.68547  1.0000
  H   H272      1.0  0.13913  0.28371  0.55336  1.0000
  P   P11       1.0  0.10544  0.39242  0.68738  1.0000
  C   C348      1.0  0.13602  0.28080  0.58669  1.0000
  C   C349      1.0  0.13883  0.28167  0.66116  1.0000
  H   H273      1.0  0.03190  0.47492  0.80649  1.0000
  H   H274      1.0  0.18220  0.25189  0.49808  1.0000
  H   H275      1.0  0.06669  0.41607  0.66056  1.0000
  H   H276      1.0  0.05165  0.40873  0.88480  1.0000
  P   P12       1.0  0.02820  0.42171  0.88894  1.0000
  H   H277      1.0  0.05153  0.44130  0.83761  1.0000
  H   H278      1.0  0.17716  0.31737  0.69072  1.0000
  H   H279      1.0  0.04776  0.35745  0.74661  1.0000
  C   C350      1.0  0.18013  0.29673  0.66916  1.0000
  H   H280      1.0  0.18206  0.24087  0.66715  1.0000
  C   C351      1.0  0.16147  0.25819  0.62128  1.0000
  C   C352      1.0  0.14234  0.25483  0.69242  1.0000
  H   H281      1.0  0.14986  0.39020  0.66809  1.0000
  C   C353      1.0  0.06249  0.43617  0.61385  1.0000
  C   C354      1.0  0.13846  0.07157  0.85794  1.0000
  H   H282      1.0  0.02733  0.37908  0.88457  1.0000
  H   H283      1.0  0.14587  0.01338  0.86316  1.0000
  C   C355      1.0  0.09306  0.39371  0.65968  1.0000
  C   C356      1.0  0.17711  0.03170  0.78693  1.0000
  H   H284      1.0  0.01802  0.35061  0.52562  1.0000
  C   C357      1.0  0.14919  0.34398  0.49816  1.0000
  H   H285      1.0  0.06300  0.46449  0.58839  1.0000
  C   C358      1.0  0.14733  0.05696  0.84976  1.0000
  H   H286      1.0  0.99959  0.48326  0.96920  1.0000
  H   H287      1.0  0.06605  0.39409  0.85753  1.0000
  C   C359      1.0  0.02367  0.35194  0.51055  1.0000
  H   H288      1.0  0.16587  0.30263  0.63062  1.0000
  C   C360      1.0  0.03266  0.42996  0.90784  1.0000
  C   C361      1.0  0.13586  0.34834  0.53025  1.0000
  C   C362      1.0  0.16810  0.29642  0.60012  1.0000
  H   H289      1.0  0.13253  0.08014  0.84865  1.0000
  C   C363      1.0  0.11559  0.22674  0.50603  1.0000
  C   C364      1.0  0.17028  0.05920  0.81507  1.0000
  H   H290      1.0  0.18361  0.38568  0.50950  1.0000
  H   H291      1.0  0.18079  0.27629  0.64899  1.0000
  C   C365      1.0  0.15253  0.28941  0.50696  1.0000
  H   H292      1.0  0.07552  0.38571  0.60699  1.0000
  C   C366      1.0  0.16744  0.28241  0.58867  1.0000
  H   H293      1.0  0.14803  0.30373  0.49857  1.0000
  C   C367      1.0  0.13723  0.07510  0.87807  1.0000
  C   C368      1.0  0.14486  0.06398  0.89006  1.0000
  C   C369      1.0  0.15375  0.04937  0.88192  1.0000
  H   H294      1.0  0.12540  0.27725  0.48957  1.0000
  C   C370      1.0  0.06724  0.47024  0.67077  1.0000
  C   C371      1.0  0.16547  0.29130  0.62218  1.0000
  H   H295      1.0  0.06332  0.40439  0.63411  1.0000
  Fe  Fe26      1.0  0.05058  0.41404  0.74074  1.0000
  H   H296      1.0  0.02220  0.49078  0.83808  1.0000
  C   C372      1.0  0.12360  0.28732  0.50081  1.0000
  C   C373      1.0  0.16382  0.25155  0.52850  1.0000
  H   H297      1.0  0.16777  0.07007  0.82574  1.0000
  C   C374      1.0  0.12484  0.31995  0.50831  1.0000
  C   C375      1.0  0.99570  0.37008  0.82500  1.0000
  C   C376      1.0  0.08154  0.41883  0.73179  1.0000
  H   H298      1.0  0.07417  0.41512  0.74210  1.0000
  H   H299      1.0  0.17892  0.10023  0.89733  1.0000
  H   H300      1.0  0.18144  0.48830  0.83943  1.0000
  H   H301      1.0  0.13035  0.08642  0.88440  1.0000
  H   H302      1.0  0.14389  0.06663  0.90571  1.0000
  C   C377      1.0  0.99671  0.43633  0.75649  1.0000
  C   C378      1.0  0.17665  0.05364  0.77930  1.0000
  C   C379      1.0  0.01727  0.48086  0.79633  1.0000
  H   H303      1.0  0.01942  0.39130  0.78190  1.0000
  S   S53       1.0  0.03224  0.46787  0.75008  1.0000
  H   H304      1.0  0.17907  0.06002  0.76250  1.0000
  C   C380      1.0  0.07288  0.40301  0.60317  1.0000
  C   C381      1.0  0.09260  0.41908  0.62627  1.0000
  C   C382      1.0  0.09991  0.42842  0.62994  1.0000
  H   H305      1.0  0.08962  0.42515  0.61187  1.0000
  H   H306      1.0  0.10259  0.44184  0.61836  1.0000
  H   H307      1.0  0.10768  0.31826  0.68329  1.0000
  H   H308      1.0  0.10843  0.35603  0.66830  1.0000
  C   C383      1.0  0.18340  0.33702  0.53029  1.0000
  H   H309      1.0  0.06713  0.48523  0.67434  1.0000
  C   C384      1.0  0.00462  0.44485  0.71275  1.0000
  C   C385      1.0  0.00566  0.42367  0.72431  1.0000
  C   C386      1.0  0.00158  0.41922  0.74624  1.0000
  C   C387      1.0  0.16423  0.34148  0.53968  1.0000
  P   P13       1.0  0.00301  0.39161  0.76056  1.0000
  C   C388      1.0  0.10773  0.26346  0.49152  1.0000
  C   C389      1.0  0.99663  0.37765  0.74988  1.0000
  H   H310      1.0  0.14198  0.17664  0.49662  1.0000
  H   H311      1.0  0.01660  0.35305  0.90656  1.0000
  H   H312      1.0  0.10509  0.28023  0.49226  1.0000
  C   C390      1.0  0.13015  0.36674  0.51891  1.0000
  C   C391      1.0  0.02676  0.48572  0.79636  1.0000
  H   H313      1.0  0.17317  0.08430  0.78733  1.0000
  H   H314      1.0  0.14813  0.05426  0.83420  1.0000
  H   H315      1.0  0.10686  0.37377  0.50691  1.0000
  H   H316      1.0  0.99350  0.43666  0.81568  1.0000
  H   H317      1.0  0.15890  0.31144  0.70762  1.0000
  C   C392      1.0  0.01716  0.38027  0.75647  1.0000
  C   C393      1.0  0.02238  0.37022  0.73942  1.0000
  C   C394      1.0  0.03338  0.36198  0.73593  1.0000
  C   C395      1.0  0.03923  0.36375  0.74937  1.0000
  C   C396      1.0  0.03415  0.37415  0.76605  1.0000
  C   C397      1.0  0.02318  0.38265  0.76940  1.0000
  C   C398      1.0  0.18235  0.20750  0.67341  1.0000
  H   H318      1.0  0.99331  0.46124  0.90995  1.0000
  C   C399      1.0  0.15227  0.99947  0.86164  1.0000
  H   H319      1.0  0.00970  0.41076  0.71617  1.0000
  H   H320      1.0  0.11909  0.21468  0.51807  1.0000
  H   H321      1.0  0.01601  0.48454  0.72642  1.0000
  C   C400      1.0  0.18088  0.12189  0.69293  1.0000
  C   C401      1.0  0.98888  0.38894  0.73806  1.0000
  H   H322      1.0  0.18635  0.10714  0.58571  1.0000
  C   C402      1.0  0.18201  0.11166  0.88365  1.0000
  C   C403      1.0  0.18638  0.00540  0.89269  1.0000
  Fe  Fe27      1.0  0.18053  0.36290  0.59407  1.0000
  H   H323      1.0  0.17623  0.14242  0.66444  1.0000
  C   C404      1.0  0.17400  0.30680  0.68557  1.0000
  C   C405      1.0  0.00761  0.47986  0.85252  1.0000
  H   H324      1.0  0.01802  0.36893  0.72866  1.0000
  C   C406      1.0  0.16571  0.27991  0.67159  1.0000
  C   C407      1.0  0.15958  0.29007  0.68812  1.0000
  H   H325      1.0  0.03877  0.37614  0.77603  1.0000
  S   S54       1.0  0.99958  0.37919  0.87686  1.0000
  H   H326      1.0  0.13650  0.14223  0.50308  1.0000
  H   H327      1.0  0.13280  0.34334  0.54706  1.0000
  H   H328      1.0  0.99862  0.47813  0.71412  1.0000
  C   C408      1.0  0.99629  0.38824  0.78818  1.0000
  H   H329      1.0  0.09012  0.38065  0.67119  1.0000
  H   H330      1.0  0.04545  0.40807  0.94868  1.0000
  C   C409      1.0  0.17666  0.19190  0.67597  1.0000
  H   H331      1.0  0.02003  0.37789  0.84773  1.0000
  C   C410      1.0  0.15508  0.04586  0.86164  1.0000
  S   S55       1.0  0.03326  0.47738  0.68987  1.0000
  H   H332      1.0  0.02558  0.40012  0.81186  1.0000
  C   C411      1.0  0.04043  0.43000  0.67030  1.0000
  C   C412      1.0  0.00993  0.42013  0.81158  1.0000
  C   C413      1.0  0.99902  0.35517  0.75435  1.0000
  H   H333      1.0  0.17375  0.48050  0.92501  1.0000
  C   C414      1.0  0.04389  0.43340  0.64824  1.0000
  H   H334      1.0  0.14164  0.38391  0.64220  1.0000
  C   C415      1.0  0.08915  0.40180  0.64123  1.0000
  C   C416      1.0  0.10059  0.40254  0.66326  1.0000
  C   C417      1.0  0.12790  0.28350  0.66927  1.0000
  C   C418      1.0  0.09395  0.44234  0.71800  1.0000
  H   H335      1.0  0.18002  0.02096  0.77608  1.0000
  H   H336      1.0  0.12253  0.38414  0.65069  1.0000
  H   H337      1.0  0.16325  0.25287  0.59029  1.0000
  H   H338      1.0  0.11948  0.39771  0.71146  1.0000
  C   C419      1.0  0.06112  0.45043  0.65263  1.0000
  C   C420      1.0  0.07280  0.43168  0.67695  1.0000
  C   C421      1.0  0.14614  0.26698  0.67245  1.0000
  H   H339      1.0  0.13397  0.28131  0.61937  1.0000
  H   H340      1.0  0.00471  0.48792  0.90246  1.0000
  H   H341      1.0  0.06140  0.48803  0.60896  1.0000
  H   H342      1.0  0.17583  0.16394  0.85862  1.0000
  H   H343      1.0  0.14315  0.31109  0.61129  1.0000
  C   C422      1.0  0.07325  0.45116  0.68037  1.0000
  H   H344      1.0  0.17278  0.12163  0.70157  1.0000
  P   P14       1.0  0.16647  0.02691  0.85103  1.0000
  P   P15       1.0  0.05360  0.44961  0.63436  1.0000
  C   C423      1.0  0.06690  0.43133  0.66295  1.0000
  H   H345      1.0  0.14154  0.29165  0.64606  1.0000
  H   H346      1.0  0.00275  0.49378  0.84428  1.0000
  C   C424      1.0  0.99837  0.47845  0.95612  1.0000
  C   C425      1.0  0.14229  0.30522  0.59860  1.0000
  C   C426      1.0  0.15660  0.28999  0.52383  1.0000
  C   C427      1.0  0.04687  0.47661  0.62407  1.0000
  H   H347      1.0  0.16167  0.18601  0.67556  1.0000
  C   C428      1.0  0.17874  0.46548  0.97475  1.0000
  C   C429      1.0  0.03221  0.45687  0.92641  1.0000
  S   S56       1.0  0.03401  0.42397  0.73467  1.0000
  C   C430      1.0  0.14021  0.28979  0.56580  1.0000
  C   C431      1.0  0.06598  0.41376  0.61857  1.0000
  H   H348      1.0  0.00908  0.36371  0.79994  1.0000
  C   C432      1.0  0.16372  0.30345  0.69506  1.0000
  C   C433      1.0  0.08787  0.40522  0.71842  1.0000
  C   C434      1.0  0.16106  0.21975  0.67020  1.0000
  C   C435      1.0  0.16663  0.23560  0.66805  1.0000
  C   C436      1.0  0.05444  0.49252  0.81714  1.0000
  C   C437      1.0  0.10237  0.33530  0.72906  1.0000
  H   H349      1.0  0.07780  0.45137  0.69129  1.0000
  H   H350      1.0  0.02960  0.47323  0.92847  1.0000
  S   S57       1.0  0.18678  0.09575  0.72910  1.0000
  C   C438      1.0  0.18432  0.31838  0.52357  1.0000
  C   C439      1.0  0.18281  0.13369  0.67194  1.0000
  C   C440      1.0  0.18027  0.14753  0.86186  1.0000
  C   C441      1.0  0.99037  0.45681  0.94364  1.0000
  C   C442      1.0  0.99397  0.34411  0.74653  1.0000
  H   H351      1.0  0.17770  0.07336  0.70324  1.0000
  C   C443      1.0  0.17412  0.02346  0.80863  1.0000
  H   H352      1.0  0.18314  0.05101  0.84323  1.0000
  H   H353      1.0  0.18584  0.46289  0.61074  1.0000
  C   C444      1.0  0.18379  0.03842  0.85720  1.0000
  H   H354      1.0  0.17478  0.00636  0.81407  1.0000
  H   H355      1.0  0.99201  0.47059  0.75297  1.0000
  S   S58       1.0  0.09112  0.32245  0.49139  1.0000
  H   H356      1.0  0.00403  0.48953  0.78119  1.0000
  H   H357      1.0  0.18280  0.03989  0.72903  1.0000
  C   C445      1.0  0.05279  0.49213  0.61222  1.0000
  C   C446      1.0  0.17942  0.44427  0.97386  1.0000
  C   C447      1.0  0.98702  0.48302  0.82236  1.0000
  P   P16       1.0  0.18606  0.48276  0.95369  1.0000
  H   H358      1.0  0.18459  0.43756  0.96074  1.0000
  H   H359      1.0  0.04990  0.49432  0.70463  1.0000
  H   H360      1.0  0.15380  0.94830  0.32791  1.0000
  C   C448      1.0  0.14385  0.88701  0.15353  1.0000
  H   H361      1.0  0.10387  0.54416  0.14586  1.0000
  C   C449      1.0  0.12097  0.95168  0.15046  1.0000
  C   C450      1.0  0.08148  0.51588  0.19712  1.0000
  C   C451      1.0  0.14853  0.53989  0.99082  1.0000
  H   H362      1.0  0.00051  0.57348  0.20618  1.0000
  Fe  Fe28      1.0  0.17196  0.58331  0.17175  1.0000
  S   S59       1.0  0.15479  0.58452  0.18897  1.0000
  S   S60       1.0  0.17711  0.59595  0.13688  1.0000
  Fe  Fe29      1.0  0.18155  0.58479  0.00179  1.0000
  H   H363      1.0  0.14808  0.55163  0.03471  1.0000
  H   H364      1.0  0.15055  0.95530  0.13886  1.0000
  C   C452      1.0  0.16020  0.98947  0.19226  1.0000
  H   H365      1.0  0.18024  0.94389  0.15714  1.0000
  S   S61       1.0  0.18181  0.87640  0.24938  1.0000
  C   C453      1.0  0.04901  0.50755  0.28932  1.0000
  C   C454      1.0  0.15724  0.98541  0.34994  1.0000
  H   H366      1.0  0.04316  0.50692  0.10017  1.0000
  S   S62       1.0  0.16651  0.93371  0.25532  1.0000
  C   C455      1.0  0.11679  0.53977  0.09560  1.0000
  C   C456      1.0  0.12890  0.51972  0.03133  1.0000
  H   H367      1.0  0.10763  0.55583  0.01512  1.0000
  P   P17       1.0  0.12752  0.56640  0.06183  1.0000
  S   S63       1.0  0.12674  0.78437  0.02252  1.0000
  Fe  Fe30      1.0  0.16184  0.74528  0.15206  1.0000
  S   S64       1.0  0.15009  0.77142  0.16659  1.0000
  S   S65       1.0  0.17008  0.71703  0.17335  1.0000
  Fe  Fe31      1.0  0.15828  0.76687  0.10782  1.0000
  S   S66       1.0  0.14653  0.79504  0.11874  1.0000
  S   S67       1.0  0.16277  0.76163  0.07454  1.0000
  Fe  Fe32      1.0  0.15790  0.79374  0.13876  1.0000
  S   S68       1.0  0.16355  0.82333  0.13885  1.0000
  Fe  Fe33      1.0  0.14001  0.76984  0.14536  1.0000
  S   S69       1.0  0.12240  0.77010  0.15608  1.0000
  S   S70       1.0  0.17027  0.76736  0.12536  1.0000
  S   S71       1.0  0.15119  0.74201  0.13327  1.0000
  C   C457      1.0  0.17190  0.95449  0.35167  1.0000
  C   C458      1.0  0.06958  0.53994  0.11250  1.0000
  S   S72       1.0  0.08660  0.58921  0.03832  1.0000
  S   S73       1.0  0.02772  0.53518  0.25050  1.0000
  Fe  Fe34      1.0  0.09195  0.65555  0.10919  1.0000
  S   S74       1.0  0.08268  0.66836  0.13791  1.0000
  S   S75       1.0  0.08484  0.66447  0.08034  1.0000
  Fe  Fe35      1.0  0.11005  0.63004  0.13088  1.0000
  S   S76       1.0  0.10194  0.64019  0.16164  1.0000
  S   S77       1.0  0.12557  0.60666  0.12350  1.0000
  Fe  Fe36      1.0  0.08717  0.63469  0.15588  1.0000
  S   S78       1.0  0.07494  0.61792  0.18046  1.0000
  Fe  Fe37      1.0  0.09827  0.67296  0.14068  1.0000
  S   S79       1.0  0.09716  0.70451  0.14899  1.0000
  S   S80       1.0  0.09571  0.62179  0.12707  1.0000
  S   S81       1.0  0.10717  0.66309  0.11017  1.0000
  S   S82       1.0  0.04912  0.56865  0.15016  1.0000
  C   C459      1.0  0.06782  0.60421  0.17183  1.0000
  C   C460      1.0  0.05973  0.59487  0.18638  1.0000
  C   C461      1.0  0.05407  0.58354  0.18011  1.0000
  C   C462      1.0  0.05628  0.58198  0.15899  1.0000
  C   C463      1.0  0.06425  0.59161  0.14436  1.0000
  C   C464      1.0  0.07009  0.60236  0.15081  1.0000
  H   H368      1.0  0.05776  0.59668  0.20249  1.0000
  H   H369      1.0  0.04787  0.57638  0.19152  1.0000
  H   H370      1.0  0.06601  0.59066  0.12797  1.0000
  H   H371      1.0  0.07619  0.60955  0.13932  1.0000
  C   C465      1.0  0.08524  0.61045  0.05030  1.0000
  C   C466      1.0  0.08671  0.60581  0.07094  1.0000
  C   C467      1.0  0.08620  0.62230  0.08061  1.0000
  C   C468      1.0  0.08409  0.64362  0.06978  1.0000
  C   C469      1.0  0.08182  0.64838  0.04969  1.0000
  C   C470      1.0  0.08262  0.63182  0.03972  1.0000
  H   H372      1.0  0.08863  0.58942  0.07921  1.0000
  H   H373      1.0  0.08753  0.61838  0.09633  1.0000
  H   H374      1.0  0.07969  0.66490  0.04169  1.0000
  H   H375      1.0  0.08121  0.63556  0.02393  1.0000
  C   C471      1.0  0.11625  0.75073  0.15335  1.0000
  C   C472      1.0  0.12183  0.73239  0.14521  1.0000
  C   C473      1.0  0.11625  0.71772  0.14367  1.0000
  C   C474      1.0  0.10509  0.72150  0.15015  1.0000
  C   C475      1.0  0.09967  0.73969  0.15834  1.0000
  C   C476      1.0  0.10518  0.75408  0.15997  1.0000
  H   H376      1.0  0.13038  0.72955  0.14011  1.0000
  H   H377      1.0  0.12057  0.70372  0.13736  1.0000
  H   H378      1.0  0.09110  0.74278  0.16346  1.0000
  H   H379      1.0  0.10078  0.76805  0.16631  1.0000
  Fe  Fe38      1.0  0.03995  0.54488  0.17371  1.0000
  H   H380      1.0  0.05155  0.56610  0.09709  1.0000
  C   C477      1.0  0.13646  0.77644  0.03797  1.0000
  C   C478      1.0  0.14679  0.76591  0.03009  1.0000
  C   C479      1.0  0.15469  0.76107  0.04172  1.0000
  C   C480      1.0  0.15233  0.76632  0.06148  1.0000
  C   C481      1.0  0.14186  0.77589  0.06992  1.0000
  C   C482      1.0  0.13395  0.78108  0.05811  1.0000
  H   H381      1.0  0.14876  0.76164  0.01494  1.0000
  H   H382      1.0  0.16270  0.75346  0.03523  1.0000
  H   H383      1.0  0.13991  0.77975  0.08531  1.0000
  H   H384      1.0  0.12593  0.78891  0.06449  1.0000
  C   C483      1.0  0.17059  0.84185  0.19409  1.0000
  C   C484      1.0  0.16592  0.82420  0.19791  1.0000
  C   C485      1.0  0.16414  0.81770  0.18114  1.0000
  C   C486      1.0  0.16678  0.82914  0.16034  1.0000
  C   C487      1.0  0.17169  0.84647  0.15650  1.0000
  C   C488      1.0  0.17372  0.85262  0.17323  1.0000
  H   H385      1.0  0.09816  0.52863  0.24197  1.0000
  H   H386      1.0  0.16033  0.80440  0.18438  1.0000
  H   H387      1.0  0.17382  0.85534  0.14048  1.0000
  H   H388      1.0  0.17741  0.86606  0.17008  1.0000
  C   C489      1.0  0.16749  0.95650  0.26297  1.0000
  H   H389      1.0  0.18331  0.95534  0.31040  1.0000
  H   H390      1.0  0.10761  0.51393  0.20432  1.0000
  H   H391      1.0  0.13257  0.94801  0.19551  1.0000
  H   H392      1.0  0.09327  0.66377  0.99759  1.0000
  C   C490      1.0  0.17429  0.77691  0.99459  1.0000
  C   C491      1.0  0.00296  0.58551  0.23052  1.0000
  C   C492      1.0  0.08851  0.50943  0.23770  1.0000
  S   S83       1.0  0.17180  0.85043  0.21598  1.0000
  H   H393      1.0  0.17879  0.94992  0.21395  1.0000
  C   C493      1.0  0.09814  0.49963  0.26591  1.0000
  H   H394      1.0  0.16388  0.89337  0.14105  1.0000
  C   C494      1.0  0.16447  0.90532  0.33285  1.0000
  C   C495      1.0  0.17536  0.96508  0.20479  1.0000
  C   C496      1.0  0.18418  0.54624  0.29253  1.0000
  H   H395      1.0  0.16631  0.78053  0.00393  1.0000
  C   C497      1.0  0.07686  0.54781  0.11804  1.0000
  H   H396      1.0  0.17998  0.72440  0.05125  1.0000
  C   C498      1.0  0.13332  0.59776  0.14270  1.0000
  C   C499      1.0  0.14418  0.58889  0.13683  1.0000
  C   C500      1.0  0.15074  0.58364  0.15136  1.0000
  C   C501      1.0  0.14643  0.58699  0.17190  1.0000
  C   C502      1.0  0.13539  0.59413  0.17825  1.0000
  C   C503      1.0  0.12888  0.59998  0.16355  1.0000
  H   H397      1.0  0.14764  0.58703  0.12075  1.0000
  H   H398      1.0  0.15917  0.57739  0.14651  1.0000
  H   H399      1.0  0.13189  0.59596  0.19426  1.0000
  H   H400      1.0  0.12049  0.60647  0.16832  1.0000
  H   H401      1.0  0.13943  0.83646  0.17165  1.0000
  H   H402      1.0  0.16236  0.81237  0.04750  1.0000
  H   H403      1.0  0.14365  0.57141  0.99775  1.0000
  C   C504      1.0  0.17661  0.69559  0.16086  1.0000
  C   C505      1.0  0.17921  0.69894  0.13881  1.0000
  C   C506      1.0  0.10122  0.84732  0.99789  1.0000
  H   H404      1.0  0.10958  0.51814  0.12247  1.0000
  C   C507      1.0  0.12462  0.96870  0.13534  1.0000
  H   H405      1.0  0.17708  0.71481  0.12929  1.0000
  C   C508      1.0  0.06588  0.49627  0.09566  1.0000
  H   H406      1.0  0.05672  0.50514  0.05723  1.0000
  C   C509      1.0  0.16689  0.97476  0.35583  1.0000
  C   C510      1.0  0.11908  0.56028  0.08769  1.0000
  C   C511      1.0  0.14182  0.86752  0.15338  1.0000
  C   C512      1.0  0.15254  0.97569  0.34004  1.0000
  C   C513      1.0  0.99500  0.54681  0.29468  1.0000
  H   H407      1.0  0.16502  0.92129  0.30008  1.0000
  H   H408      1.0  0.14344  0.93123  0.25336  1.0000
  C   C514      1.0  0.17483  0.54976  0.28541  1.0000
  C   C515      1.0  0.16215  0.62420  0.05514  1.0000
  C   C516      1.0  0.15304  0.61566  0.06259  1.0000
  C   C517      1.0  0.14372  0.62709  0.07344  1.0000
  C   C518      1.0  0.14344  0.64727  0.07646  1.0000
  C   C519      1.0  0.15247  0.65633  0.06836  1.0000
  C   C520      1.0  0.16193  0.64429  0.05824  1.0000
  P   P18       1.0  0.15214  0.68220  0.07278  1.0000
  C   C521      1.0  0.13922  0.69947  0.07100  1.0000
  C   C522      1.0  0.15497  0.67801  0.09845  1.0000
  C   C523      1.0  0.14977  0.69258  0.11168  1.0000
  C   C524      1.0  0.15234  0.68932  0.13121  1.0000
  C   C525      1.0  0.16053  0.67236  0.13712  1.0000
  C   C526      1.0  0.16598  0.65830  0.12371  1.0000
  C   C527      1.0  0.16318  0.66097  0.10453  1.0000
  C   C528      1.0  0.13770  0.71450  0.05226  1.0000
  C   C529      1.0  0.12788  0.72873  0.05144  1.0000
  C   C530      1.0  0.11961  0.72840  0.06934  1.0000
  C   C531      1.0  0.12088  0.71292  0.08777  1.0000
  C   C532      1.0  0.13061  0.69832  0.08850  1.0000
  C   C533      1.0  0.16238  0.69466  0.05385  1.0000
  C   C534      1.0  0.16521  0.69255  0.03273  1.0000
  C   C535      1.0  0.17355  0.70128  0.01860  1.0000
  C   C536      1.0  0.16129  0.91749  0.15909  1.0000
  C   C537      1.0  0.17603  0.71518  0.04609  1.0000
  C   C538      1.0  0.16772  0.70646  0.06028  1.0000
  H   H409      1.0  0.15328  0.60006  0.06017  1.0000
  H   H410      1.0  0.13673  0.62020  0.07968  1.0000
  H   H411      1.0  0.13618  0.65566  0.08516  1.0000
  H   H412      1.0  0.16921  0.65019  0.05284  1.0000
  H   H413      1.0  0.14388  0.70668  0.10690  1.0000
  H   H414      1.0  0.14807  0.70008  0.14167  1.0000
  H   H415      1.0  0.16264  0.67004  0.15212  1.0000
  H   H416      1.0  0.17226  0.64505  0.12834  1.0000
  H   H417      1.0  0.16755  0.64987  0.09441  1.0000
  H   H418      1.0  0.14409  0.71563  0.03836  1.0000
  H   H419      1.0  0.12678  0.74043  0.03704  1.0000
  H   H420      1.0  0.11226  0.74028  0.06898  1.0000
  H   H421      1.0  0.11441  0.71252  0.10162  1.0000
  H   H422      1.0  0.13150  0.68663  0.10299  1.0000
  H   H423      1.0  0.16105  0.68405  0.02717  1.0000
  H   H424      1.0  0.17581  0.69933  0.00244  1.0000
  C   C539      1.0  0.07168  0.53544  0.09239  1.0000
  H   H425      1.0  0.16546  0.70917  0.07620  1.0000
  C   C540      1.0  0.14329  0.56109  0.08400  1.0000
  C   C541      1.0  0.18479  0.77762  0.04036  1.0000
  H   H426      1.0  0.16943  0.61514  0.04708  1.0000
  C   C542      1.0  0.17654  0.93317  0.15342  1.0000
  C   C543      1.0  0.18250  0.91986  0.13955  1.0000
  C   C544      1.0  0.17784  0.90572  0.13503  1.0000
  C   C545      1.0  0.16725  0.90462  0.14463  1.0000
  C   C546      1.0  0.16596  0.93209  0.16309  1.0000
  H   H427      1.0  0.16857  0.91615  0.38167  1.0000
  C   C547      1.0  0.99221  0.50057  0.17437  1.0000
  H   H428      1.0  0.18247  0.89535  0.12430  1.0000
  H   H429      1.0  0.16152  0.94234  0.17403  1.0000
  C   C548      1.0  0.08226  0.72104  0.00848  1.0000
  C   C549      1.0  0.09072  0.70742  0.01739  1.0000
  C   C550      1.0  0.09456  0.68664  0.01359  1.0000
  P   P19       1.0  0.09662  0.71661  0.03348  1.0000
  C   C551      1.0  0.10970  0.69964  0.03438  1.0000
  C   C552      1.0  0.09832  0.74367  0.02127  1.0000
  C   C553      1.0  0.15883  0.98408  0.28341  1.0000
  H   H430      1.0  0.18053  0.80084  0.23025  1.0000
  H   H431      1.0  0.00425  0.49667  0.22867  1.0000
  C   C554      1.0  0.10054  0.77788  0.02393  1.0000
  C   C555      1.0  0.09892  0.75719  0.03348  1.0000
  C   C556      1.0  0.11121  0.68199  0.05123  1.0000
  C   C557      1.0  0.12129  0.66867  0.05160  1.0000
  C   C558      1.0  0.12990  0.67253  0.03489  1.0000
  C   C559      1.0  0.12840  0.68961  0.01773  1.0000
  C   C560      1.0  0.11833  0.70308  0.01740  1.0000
  C   C561      1.0  0.08828  0.71652  0.05970  1.0000
  C   C562      1.0  0.07728  0.71799  0.06333  1.0000
  C   C563      1.0  0.07087  0.71844  0.08355  1.0000
  C   C564      1.0  0.07537  0.71765  0.10024  1.0000
  C   C565      1.0  0.08628  0.71635  0.09674  1.0000
  C   C566      1.0  0.09271  0.71569  0.07661  1.0000
  H   H432      1.0  0.07916  0.73710  0.01127  1.0000
  H   H433      1.0  0.10092  0.67567  0.02052  1.0000
  H   H434      1.0  0.03632  0.55711  0.29877  1.0000
  H   H435      1.0  0.06884  0.57106  0.01376  1.0000
  C   C567      1.0  0.05982  0.52510  0.02617  1.0000
  H   H436      1.0  0.10141  0.78792  0.03333  1.0000
  H   H437      1.0  0.09827  0.75178  0.05031  1.0000
  H   H438      1.0  0.10458  0.67822  0.06392  1.0000
  H   H439      1.0  0.12233  0.65498  0.06458  1.0000
  H   H440      1.0  0.13769  0.66199  0.03491  1.0000
  H   H441      1.0  0.00330  0.59638  0.25758  1.0000
  H   H442      1.0  0.11727  0.71594  0.00374  1.0000
  H   H443      1.0  0.07366  0.71820  0.05078  1.0000
  H   H444      1.0  0.06246  0.71894  0.08639  1.0000
  H   H445      1.0  0.08978  0.71555  0.10973  1.0000
  H   H446      1.0  0.10115  0.71435  0.07431  1.0000
  Fe  Fe39      1.0  0.02970  0.52735  0.21916  1.0000
  H   H447      1.0  0.15692  0.90068  0.24132  1.0000
  H   H448      1.0  0.03774  0.71548  0.05581  1.0000
  H   H449      1.0  0.15546  0.55706  0.10100  1.0000
  C   C568      1.0  0.09936  0.75125  0.99937  1.0000
  C   C569      1.0  0.17898  0.71252  0.02528  1.0000
  Fe  Fe40      1.0  0.08991  0.59839  0.00286  1.0000
  H   H450      1.0  0.12505  0.92270  0.17317  1.0000
  H   H451      1.0  0.11141  0.57591  0.03673  1.0000
  H   H452      1.0  0.06609  0.49718  0.28030  1.0000
  H   H453      1.0  0.06567  0.52657  0.16191  1.0000
  H   H454      1.0  0.13295  0.83208  0.02696  1.0000
  H   H455      1.0  0.01120  0.58594  0.22306  1.0000
  Fe  Fe41      1.0  0.02112  0.52286  0.18396  1.0000
  H   H456      1.0  0.07045  0.71769  0.11597  1.0000
  H   H457      1.0  0.11944  0.52801  0.08584  1.0000
  C   C570      1.0  0.04881  0.53529  0.09774  1.0000
  C   C571      1.0  0.13528  0.96991  0.13129  1.0000
  H   H458      1.0  0.09176  0.55778  0.10776  1.0000
  C   C572      1.0  0.01334  0.55071  0.28280  1.0000
  H   H459      1.0  0.16811  0.55412  0.25844  1.0000
  C   C573      1.0  0.05335  0.54613  0.29060  1.0000
  H   H460      1.0  0.16648  0.54122  0.03987  1.0000
  C   C574      1.0  0.04109  0.52287  0.10327  1.0000
  C   C575      1.0  0.03064  0.53084  0.11324  1.0000
  C   C576      1.0  0.02781  0.55133  0.11752  1.0000
  C   C577      1.0  0.03538  0.56399  0.11147  1.0000
  C   C578      1.0  0.04580  0.55610  0.10146  1.0000
  H   H461      1.0  0.07506  0.55190  0.13330  1.0000
  H   H462      1.0  0.06226  0.53761  0.12385  1.0000
  C   C579      1.0  0.06596  0.55099  0.04505  1.0000
  H   H463      1.0  0.01980  0.55719  0.12583  1.0000
  H   H464      1.0  0.03330  0.57975  0.11493  1.0000
  C   C580      1.0  0.12799  0.93583  0.16151  1.0000
  S   S84       1.0  0.04658  0.52272  0.20072  1.0000
  C   C581      1.0  0.10807  0.54861  0.12963  1.0000
  H   H465      1.0  0.06356  0.54804  0.99701  1.0000
  H   H466      1.0  0.13389  0.50424  0.02932  1.0000
  C   C582      1.0  0.14954  0.55230  0.04948  1.0000
  C   C583      1.0  0.13703  0.94122  0.22523  1.0000
  C   C584      1.0  0.09522  0.51397  0.24788  1.0000
  C   C585      1.0  0.18157  0.98024  0.19463  1.0000
  C   C586      1.0  0.08188  0.69347  0.99166  1.0000
  H   H467      1.0  0.14520  0.98421  0.33502  1.0000
  S   S85       1.0  0.16009  0.53223  0.00111  1.0000
  C   C587      1.0  0.17932  0.67496  0.17310  1.0000
  C   C588      1.0  0.11033  0.56899  0.12185  1.0000
  H   H468      1.0  0.17957  0.62188  0.25061  1.0000
  H   H469      1.0  0.16719  0.55136  0.29641  1.0000
  C   C589      1.0  0.06171  0.52936  0.28496  1.0000
  C   C590      1.0  0.06286  0.53202  0.05742  1.0000
  H   H470      1.0  0.14460  0.87705  0.20562  1.0000
  C   C591      1.0  0.18464  0.68169  0.12903  1.0000
  S   S86       1.0  0.03724  0.51847  0.16235  1.0000
  C   C592      1.0  0.14499  0.89078  0.17224  1.0000
  C   C593      1.0  0.00651  0.53262  0.26447  1.0000
  C   C594      1.0  0.16714  0.94446  0.34199  1.0000
  H   H471      1.0  0.16342  0.81579  0.21399  1.0000
  C   C595      1.0  0.14389  0.92801  0.23817  1.0000
  H   H472      1.0  0.14099  0.84309  0.20501  1.0000
  C   C596      1.0  0.08636  0.55081  0.10377  1.0000
  C   C597      1.0  0.13280  0.60226  0.03198  1.0000
  C   C598      1.0  0.14558  0.92016  0.19835  1.0000
  H   H473      1.0  0.11771  0.59055  0.09551  1.0000
  C   C599      1.0  0.15152  0.91079  0.23137  1.0000
  C   C600      1.0  0.18448  0.65762  0.16330  1.0000
  C   C601      1.0  0.11574  0.57490  0.10097  1.0000
  H   H474      1.0  0.17958  0.94690  0.35565  1.0000
  S   S87       1.0  0.16397  0.58718  0.00757  1.0000
  C   C602      1.0  0.06325  0.54363  0.01389  1.0000
  C   C603      1.0  0.08153  0.53738  0.07857  1.0000
  H   H475      1.0  0.15164  0.95926  0.28237  1.0000
  C   C604      1.0  0.13053  0.62296  0.01973  1.0000
  H   H476      1.0  0.00222  0.56299  0.30876  1.0000
  P   P20       1.0  0.06237  0.52476  0.08552  1.0000
  C   C605      1.0  0.12043  0.52862  0.02104  1.0000
  C   C606      1.0  0.00229  0.50025  0.17711  1.0000
  C   C607      1.0  0.10139  0.78539  0.00218  1.0000
  H   H477      1.0  0.10846  0.60154  0.06498  1.0000
  C   C608      1.0  0.16210  0.54813  0.07094  1.0000
  H   H478      1.0  0.11887  0.52014  0.01099  1.0000
  C   C609      1.0  0.15823  0.82460  0.99736  1.0000
  C   C610      1.0  0.15243  0.88082  0.34719  1.0000
  H   H479      1.0  0.15986  0.95792  0.21216  1.0000
  C   C611      1.0  0.99691  0.57826  0.22112  1.0000
  H   H480      1.0  0.02478  0.52098  0.11813  1.0000
  C   C612      1.0  0.05955  0.51019  0.28424  1.0000
  H   H481      1.0  0.13661  0.62883  0.00673  1.0000
  H   H482      1.0  0.08360  0.53313  0.06332  1.0000
  C   C613      1.0  0.14106  0.55914  0.06546  1.0000
  H   H483      1.0  0.18182  0.64915  0.26698  1.0000
  H   H484      1.0  0.17063  0.98242  0.36322  1.0000
  H   H485      1.0  0.16169  0.88729  0.36521  1.0000
  S   S88       1.0  0.17786  0.90952  0.20492  1.0000
  C   C614      1.0  0.07163  0.51775  0.17106  1.0000
  H   H486      1.0  0.10463  0.63824  0.04366  1.0000
  H   H487      1.0  0.05737  0.51522  0.01879  1.0000
  C   C615      1.0  0.10075  0.77210  0.98993  1.0000
  H   H488      1.0  0.13114  0.95460  0.23053  1.0000
  C   C616      1.0  0.05954  0.51938  0.04790  1.0000
  C   C617      1.0  0.11642  0.56028  0.03536  1.0000
  H   H489      1.0  0.17019  0.54384  0.07310  1.0000
  C   C618      1.0  0.04283  0.54394  0.29491  1.0000
  H   H490      1.0  0.13811  0.98307  0.11951  1.0000
  H   H491      1.0  0.06822  0.56145  0.05203  1.0000
  C   C619      1.0  0.00340  0.55433  0.29655  1.0000
  C   C620      1.0  0.15868  0.96592  0.27682  1.0000
  Fe  Fe42      1.0  0.04266  0.49677  0.19098  1.0000
  H   H492      1.0  0.05501  0.56099  0.29118  1.0000
  Fe  Fe43      1.0  0.18132  0.87385  0.21695  1.0000
  C   C621      1.0  0.11476  0.60748  0.05276  1.0000
  H   H493      1.0  0.00782  0.52393  0.25230  1.0000
  C   C622      1.0  0.16467  0.96966  0.20374  1.0000
  C   C623      1.0  0.05355  0.55634  0.23794  1.0000
  C   C624      1.0  0.05457  0.57437  0.24340  1.0000
  C   C625      1.0  0.06466  0.57831  0.24053  1.0000
  C   C626      1.0  0.07372  0.56441  0.23184  1.0000
  C   C627      1.0  0.07272  0.54672  0.22554  1.0000
  C   C628      1.0  0.06259  0.54240  0.22932  1.0000
  P   P21       1.0  0.08441  0.52834  0.21494  1.0000
  C   C629      1.0  0.09489  0.54185  0.19920  1.0000
  H   H494      1.0  0.15233  0.90337  0.29530  1.0000
  C   C630      1.0  0.18261  0.73295  0.20651  1.0000
  H   H495      1.0  0.06986  0.53120  0.28112  1.0000
  C   C631      1.0  0.10556  0.53070  0.19683  1.0000
  C   C632      1.0  0.11371  0.54119  0.18468  1.0000
  C   C633      1.0  0.11123  0.56279  0.17475  1.0000
  C   C634      1.0  0.10062  0.57385  0.17672  1.0000
  C   C635      1.0  0.09246  0.56331  0.18853  1.0000
  H   H496      1.0  0.10286  0.80126  0.99474  1.0000
  C   C636      1.0  0.07421  0.52753  0.18432  1.0000
  H   H497      1.0  0.99895  0.53582  0.22412  1.0000
  C   C637      1.0  0.15999  0.54659  0.05230  1.0000
  H   H498      1.0  0.14415  0.87737  0.32542  1.0000
  C   C638      1.0  0.11415  0.54881  0.02321  1.0000
  H   H499      1.0  0.04574  0.55314  0.24044  1.0000
  H   H500      1.0  0.04752  0.58526  0.24985  1.0000
  H   H501      1.0  0.06546  0.59238  0.24460  1.0000
  H   H502      1.0  0.08147  0.56773  0.22974  1.0000
  H   H503      1.0  0.06162  0.52837  0.22551  1.0000
  H   H504      1.0  0.18332  0.76651  0.03294  1.0000
  H   H505      1.0  0.15854  0.89384  0.20626  1.0000
  H   H506      1.0  0.18328  0.95874  0.24470  1.0000
  H   H507      1.0  0.12196  0.53265  0.18289  1.0000
  H   H508      1.0  0.11754  0.57082  0.16517  1.0000
  H   H509      1.0  0.09867  0.59058  0.16895  1.0000
  H   H510      1.0  0.08428  0.57199  0.18934  1.0000
  H   H511      1.0  0.07038  0.54409  0.18479  1.0000
  C   C639      1.0  0.15973  0.89089  0.34989  1.0000
  C   C640      1.0  0.18033  0.90213  0.35706  1.0000
  C   C641      1.0  0.06625  0.55662  0.02335  1.0000
  C   C642      1.0  0.07791  0.71411  0.99555  1.0000
  C   C643      1.0  0.13859  0.64089  0.25369  1.0000
  C   C644      1.0  0.14331  0.61938  0.25345  1.0000
  C   C645      1.0  0.14270  0.61059  0.23734  1.0000
  C   C646      1.0  0.13742  0.62331  0.22146  1.0000
  C   C647      1.0  0.13295  0.64508  0.22115  1.0000
  C   C648      1.0  0.13339  0.65369  0.23767  1.0000
  P   P22       1.0  0.12627  0.66173  0.20038  1.0000
  C   C649      1.0  0.12805  0.68849  0.19706  1.0000
  C   C650      1.0  0.13233  0.65397  0.17529  1.0000
  C   C651      1.0  0.14301  0.64307  0.17100  1.0000
  C   C652      1.0  0.14740  0.63613  0.15207  1.0000
  C   C653      1.0  0.14141  0.64094  0.13676  1.0000
  C   C654      1.0  0.13088  0.65227  0.14061  1.0000
  C   C655      1.0  0.12634  0.65879  0.15975  1.0000
  C   C656      1.0  0.11984  0.70429  0.20537  1.0000
  C   C657      1.0  0.12162  0.72459  0.20336  1.0000
  C   C658      1.0  0.13167  0.72902  0.19374  1.0000
  C   C659      1.0  0.13995  0.71320  0.18602  1.0000
  C   C660      1.0  0.13816  0.69304  0.18761  1.0000
  C   C661      1.0  0.11250  0.65949  0.20715  1.0000
  C   C662      1.0  0.10959  0.64050  0.21991  1.0000
  C   C663      1.0  0.09914  0.63797  0.22373  1.0000
  C   C664      1.0  0.09153  0.65432  0.21477  1.0000
  C   C665      1.0  0.09436  0.67324  0.20206  1.0000
  C   C666      1.0  0.10480  0.67577  0.19819  1.0000
  H   H512      1.0  0.13902  0.64774  0.26621  1.0000
  H   H513      1.0  0.14745  0.60952  0.26570  1.0000
  H   H514      1.0  0.14641  0.59397  0.23686  1.0000
  H   H515      1.0  0.13704  0.61622  0.20918  1.0000
  H   H516      1.0  0.12980  0.67033  0.23811  1.0000
  H   H517      1.0  0.14797  0.63946  0.18231  1.0000
  H   H518      1.0  0.15545  0.62666  0.14941  1.0000
  H   H519      1.0  0.14485  0.63529  0.12220  1.0000
  H   H520      1.0  0.12614  0.65540  0.12900  1.0000
  H   H521      1.0  0.11815  0.66745  0.16229  1.0000
  H   H522      1.0  0.11209  0.70107  0.21352  1.0000
  H   H523      1.0  0.11518  0.73707  0.20897  1.0000
  H   H524      1.0  0.13299  0.74485  0.19199  1.0000
  H   H525      1.0  0.14777  0.71661  0.17872  1.0000
  H   H526      1.0  0.14472  0.68094  0.18170  1.0000
  H   H527      1.0  0.11542  0.62740  0.22651  1.0000
  H   H528      1.0  0.09699  0.62316  0.23327  1.0000
  H   H529      1.0  0.08350  0.65219  0.21728  1.0000
  H   H530      1.0  0.08856  0.68575  0.19461  1.0000
  H   H531      1.0  0.10691  0.69019  0.18757  1.0000
  C   C667      1.0  0.05084  0.62675  0.04595  1.0000
  C   C668      1.0  0.05893  0.60905  0.05082  1.0000
  C   C669      1.0  0.06042  0.60173  0.07154  1.0000
  C   C670      1.0  0.05390  0.61229  0.08736  1.0000
  C   C671      1.0  0.04604  0.63063  0.08242  1.0000
  C   C672      1.0  0.04433  0.63741  0.06173  1.0000
  P   P23       1.0  0.03773  0.64415  0.10297  1.0000
  C   C673      1.0  0.02827  0.62782  0.11804  1.0000
  C   C674      1.0  0.04545  0.64799  0.11921  1.0000
  C   C675      1.0  0.04039  0.65267  0.13916  1.0000
  C   C676      1.0  0.04627  0.65564  0.15192  1.0000
  C   C677      1.0  0.05718  0.65465  0.14458  1.0000
  C   C678      1.0  0.06217  0.65093  0.12440  1.0000
  C   C679      1.0  0.05636  0.64767  0.11168  1.0000
  C   C680      1.0  0.01998  0.62703  0.10946  1.0000
  C   C681      1.0  0.01283  0.61382  0.12085  1.0000
  C   C682      1.0  0.01399  0.60121  0.14080  1.0000
  C   C683      1.0  0.02233  0.60170  0.14921  1.0000
  C   C684      1.0  0.02954  0.61464  0.13777  1.0000
  C   C685      1.0  0.03144  0.67103  0.09184  1.0000
  C   C686      1.0  0.03760  0.68427  0.07624  1.0000
  C   C687      1.0  0.03294  0.70540  0.06791  1.0000
  C   C688      1.0  0.02214  0.71356  0.07533  1.0000
  C   C689      1.0  0.01601  0.70064  0.09122  1.0000
  C   C690      1.0  0.02065  0.67948  0.09958  1.0000
  H   H532      1.0  0.04970  0.63228  0.02986  1.0000
  H   H533      1.0  0.06412  0.60115  0.03844  1.0000
  H   H534      1.0  0.06677  0.58808  0.07524  1.0000
  H   H535      1.0  0.05507  0.60632  0.10339  1.0000
  H   H536      1.0  0.03804  0.65095  0.05765  1.0000
  H   H537      1.0  0.03191  0.65373  0.14498  1.0000
  H   H538      1.0  0.04244  0.65852  0.16758  1.0000
  H   H539      1.0  0.06177  0.65650  0.15467  1.0000
  H   H540      1.0  0.07063  0.65014  0.11871  1.0000
  H   H541      1.0  0.06045  0.64493  0.09607  1.0000
  H   H542      1.0  0.01914  0.63642  0.09386  1.0000
  H   H543      1.0  0.00653  0.61307  0.11407  1.0000
  H   H544      1.0  0.00864  0.59058  0.14955  1.0000
  H   H545      1.0  0.02348  0.59160  0.16434  1.0000
  H   H546      1.0  0.03626  0.61375  0.14423  1.0000
  H   H547      1.0  0.04604  0.67826  0.07062  1.0000
  H   H548      1.0  0.01855  0.72998  0.06893  1.0000
  H   H549      1.0  0.00769  0.70711  0.09721  1.0000
  H   H550      1.0  0.01586  0.66992  0.11227  1.0000
  H   H551      1.0  0.13503  0.69225  0.00456  1.0000
  H   H552      1.0  0.10818  0.58010  0.13213  1.0000
  S   S89       1.0  0.02322  0.55155  0.19277  1.0000
  H   H553      1.0  0.14472  0.89898  0.13894  1.0000
  C   C691      1.0  0.13871  0.93691  0.15750  1.0000
  C   C692      1.0  0.14380  0.87487  0.19090  1.0000
  C   C693      1.0  0.15241  0.90697  0.21151  1.0000
  C   C694      1.0  0.13785  0.93735  0.20537  1.0000
  C   C695      1.0  0.14232  0.95408  0.14232  1.0000
  H   H554      1.0  0.13703  0.56711  0.09635  1.0000
  H   H555      1.0  0.01976  0.55659  0.28447  1.0000
  C   C696      1.0  0.14163  0.85551  0.19071  1.0000
  C   C697      1.0  0.08877  0.54538  0.08413  1.0000
  H   H556      1.0  0.14282  0.83414  0.98966  1.0000
  C   C698      1.0  0.15746  0.95528  0.33606  1.0000
  C   C699      1.0  0.04066  0.52477  0.29422  1.0000
  C   C700      1.0  0.99851  0.59143  0.24996  1.0000
  P   P24       1.0  0.14762  0.91621  0.17190  1.0000
  C   C701      1.0  0.12036  0.63587  0.02384  1.0000
  Fe  Fe44      1.0  0.17956  0.91202  0.23641  1.0000
  H   H557      1.0  0.17730  0.67234  0.19016  1.0000
  H   H558      1.0  0.18650  0.64171  0.17278  1.0000
  C   C702      1.0  0.15434  0.89983  0.31061  1.0000
  C   C703      1.0  0.18596  0.64825  0.25089  1.0000
  H   H559      1.0  0.00737  0.49654  0.31596  1.0000
  C   C704      1.0  0.13113  0.53106  0.04368  1.0000
  C   C705      1.0  0.11252  0.62823  0.04049  1.0000
  H   H560      1.0  0.09611  0.54792  0.07292  1.0000
  H   H561      1.0  0.15184  0.99146  0.29364  1.0000
  H   H562      1.0  0.14062  0.59232  0.02795  1.0000
  C   C706      1.0  0.99612  0.50474  0.22801  1.0000
  C   C707      1.0  0.12495  0.59434  0.04866  1.0000
  H   H563      1.0  0.03247  0.52357  0.29746  1.0000
  P   P25       1.0  0.17385  0.91859  0.33597  1.0000
  H   H564      1.0  0.09428  0.85015  0.01047  1.0000
  H   H565      1.0  0.11860  0.65178  0.01406  1.0000
  C   C708      1.0  0.98803  0.59001  0.26004  1.0000
  C   C709      1.0  0.15376  0.55551  0.08672  1.0000
  C   C710      1.0  0.16785  0.99295  0.27668  1.0000
  H   H566      1.0  0.05146  0.49949  0.24574  1.0000
  C   C711      1.0  0.01494  0.53982  0.26678  1.0000
  H   H567      1.0  0.11171  0.83015  0.01922  1.0000
  H   H568      1.0  0.14288  0.82166  0.05560  1.0000
  C   C712      1.0  0.14976  0.88524  0.32754  1.0000
  S   S90       1.0  0.00618  0.52466  0.17341  1.0000
  H   H569      1.0  0.11271  0.95070  0.15356  1.0000
  P   P26       1.0  0.17828  0.81013  0.00719  1.0000
  C   C713      1.0  0.16393  0.81867  0.01347  1.0000
  C   C714      1.0  0.12502  0.55163  0.04548  1.0000
  H   H570      1.0  0.17435  0.73747  0.20514  1.0000
  C   C715      1.0  0.17664  0.98385  0.26248  1.0000
  H   H571      1.0  0.14885  0.86956  0.36033  1.0000
  C   C716      1.0  0.17647  0.96565  0.25559  1.0000
  H   H572      1.0  0.14137  0.86430  0.13876  1.0000
  C   C717      1.0  0.15829  0.81776  0.03453  1.0000
  C   C718      1.0  0.14716  0.82296  0.03927  1.0000
  C   C719      1.0  0.14157  0.82882  0.02313  1.0000
  C   C720      1.0  0.14712  0.82976  0.00217  1.0000
  S   S91       1.0  0.02636  0.49903  0.21206  1.0000
  C   C721      1.0  0.11128  0.53399  0.11647  1.0000
  H   H573      1.0  0.13766  0.52377  0.05167  1.0000
  C   C722      1.0  0.14070  0.85179  0.17196  1.0000
  C   C723      1.0  0.11102  0.83616  0.00286  1.0000
  C   C724      1.0  0.16160  0.90993  0.31331  1.0000
  C   C725      1.0  0.09016  0.67974  0.00076  1.0000
  H   H574      1.0  0.99002  0.53028  0.27689  1.0000
  C   C726      1.0  0.99653  0.53588  0.27861  1.0000
  C   C727      1.0  0.18305  0.79967  0.03140  1.0000
  H   H575      1.0  0.05753  0.49807  0.12789  1.0000
  S   S92       1.0  0.18281  0.59831  0.18066  1.0000
  H   H576      1.0  0.18276  0.83090  0.03582  1.0000
  C   C728      1.0  0.18467  0.63293  0.24169  1.0000
  H   H577      1.0  0.18358  0.54537  0.30907  1.0000
  S   S93       1.0  0.18334  0.55152  0.17216  1.0000
  C   C729      1.0  0.07648  0.49648  0.17004  1.0000
  H   H578      1.0  0.18429  0.79510  0.12283  1.0000
  C   C730      1.0  0.99302  0.52699  0.22564  1.0000
  C   C731      1.0  0.17591  0.90458  0.37797  1.0000
  C   C732      1.0  0.18349  0.92231  0.31127  1.0000
  C   C733      1.0  0.18173  0.78908  0.99266  1.0000
  H   H579      1.0  0.18461  0.70106  0.20255  1.0000
  H   H580      1.0  0.18538  0.71937  0.01426  1.0000
  C   C734      1.0  0.18437  0.81377  0.04217  1.0000
  H   H581      1.0  0.10339  0.50313  0.27361  1.0000
  H   H582      1.0  0.17763  0.89443  0.41032  1.0000
  H   H583      1.0  0.98807  0.59951  0.13019  1.0000
  H   H584      1.0  0.18347  0.99107  0.25656  1.0000
  H   H585      1.0  0.11919  0.98093  0.12673  1.0000
  H   H586      1.0  0.18276  0.76368  0.21089  1.0000
  Fe  Fe45      1.0  0.13279  0.77394  0.99132  1.0000
  C   C735      1.0  0.17532  0.55132  0.26406  1.0000
  C   C736      1.0  0.18454  0.83216  0.99167  1.0000
  C   C737      1.0  0.18517  0.54937  0.24986  1.0000
  C   C738      1.0  0.14191  0.56033  0.99069  1.0000
  C   C739      1.0  0.18098  0.89220  0.39430  1.0000
  Fe  Fe46      1.0  0.16856  0.55944  0.99164  1.0000
  H   H587      1.0  0.18540  0.89044  0.30635  1.0000
  H   H588      1.0  0.09931  0.74096  0.98944  1.0000
  H   H589      1.0  0.98682  0.51568  0.17027  1.0000
  H   H590      1.0  0.18557  0.55075  0.23325  1.0000
  S   S94       1.0  0.13482  0.73979  0.98975  1.0000
  H   H591      1.0  0.12741  0.82269  0.99057  1.0000
  H   H592      1.0  0.15188  0.99309  0.19166  1.0000
  H   H593      1.0  0.18661  0.68430  0.11196  1.0000
  C   C740      1.0  0.18648  0.94207  0.30250  1.0000
  S   S95       1.0  0.18616  0.55486  0.98905  1.0000
  C   C741      1.0  0.14792  0.64462  0.86252  1.0000
  S   S96       1.0  0.18264  0.60653  0.96973  1.0000
  Fe  Fe47      1.0  0.16540  0.60685  0.97467  1.0000
  H   H594      1.0  0.98841  0.69062  0.91547  1.0000
  S   S97       1.0  0.15253  0.63574  0.96804  1.0000
  Fe  Fe48      1.0  0.12789  0.75258  0.96077  1.0000
  H   H595      1.0  0.17127  0.77889  0.93148  1.0000
  H   H596      1.0  0.07870  0.68815  0.98130  1.0000
  H   H597      1.0  0.13406  0.71323  0.93440  1.0000
  S   S98       1.0  0.16857  0.57950  0.95897  1.0000
  C   C742      1.0  0.14181  0.59059  0.87570  1.0000
  C   C743      1.0  0.16361  0.65953  0.85336  1.0000
  S   S99       1.0  0.14353  0.75536  0.93814  1.0000
  H   H598      1.0  0.10172  0.77763  0.97296  1.0000
  Fe  Fe49      1.0  0.14065  0.78823  0.94399  1.0000
  S   S100      1.0  0.14458  0.81444  0.91585  1.0000
  C   C744      1.0  0.13819  0.87957  0.88912  1.0000
  S   S101      1.0  0.11537  0.74242  0.95073  1.0000
  H   H599      1.0  0.03186  0.59496  0.82621  1.0000
  H   H600      1.0  0.02734  0.53997  0.94430  1.0000
  S   S102      1.0  0.16789  0.87967  0.92792  1.0000
  C   C745      1.0  0.00603  0.59118  0.92962  1.0000
  H   H601      1.0  0.14114  0.67924  0.96296  1.0000
  Fe  Fe50      1.0  0.10629  0.58504  0.96545  1.0000
  S   S103      1.0  0.09694  0.60769  0.94197  1.0000
  S   S104      1.0  0.12136  0.56118  0.95568  1.0000
  Fe  Fe51      1.0  0.08241  0.59676  0.96409  1.0000
  S   S105      1.0  0.06815  0.58547  0.96092  1.0000
  Fe  Fe52      1.0  0.09466  0.63124  0.96244  1.0000
  S   S106      1.0  0.09563  0.66614  0.94744  1.0000
  H   H602      1.0  0.16798  0.72928  0.88035  1.0000
  H   H603      1.0  0.16646  0.80640  0.95243  1.0000
  Fe  Fe53      1.0  0.04081  0.54221  0.88666  1.0000
  S   S107      1.0  0.04009  0.50795  0.90250  1.0000
  S   S108      1.0  0.05233  0.56053  0.89064  1.0000
  Fe  Fe54      1.0  0.02577  0.54395  0.85772  1.0000
  S   S109      1.0  0.02413  0.51011  0.87175  1.0000
  S   S110      1.0  0.01875  0.56384  0.82940  1.0000
  Fe  Fe55      1.0  0.02254  0.51793  0.90274  1.0000
  H   H604      1.0  0.07876  0.90083  0.89834  1.0000
  C   C746      1.0  0.18462  0.63023  0.91657  1.0000
  C   C747      1.0  0.04028  0.51563  0.72488  1.0000
  S   S111      1.0  0.02298  0.55286  0.88903  1.0000
  S   S112      1.0  0.04357  0.53629  0.85384  1.0000
  P   P27       1.0  0.17194  0.57734  0.83915  1.0000
  H   H605      1.0  0.13624  0.52154  0.96351  1.0000
  C   C748      1.0  0.14657  0.62225  0.92734  1.0000
  H   H606      1.0  0.15985  0.55142  0.94419  1.0000
  H   H607      1.0  0.99968  0.50712  0.66660  1.0000
  C   C749      1.0  0.13236  0.64803  0.91249  1.0000
  H   H608      1.0  0.15493  0.58946  0.77924  1.0000
  S   S113      1.0  0.16498  0.71977  0.96929  1.0000
  H   H609      1.0  0.99640  0.54472  0.79359  1.0000
  H   H610      1.0  0.04378  0.60804  0.95687  1.0000
  C   C750      1.0  0.03789  0.59904  0.85105  1.0000
  C   C751      1.0  0.15836  0.53030  0.92655  1.0000
  C   C752      1.0  0.03868  0.63355  0.90046  1.0000
  C   C753      1.0  0.01686  0.59198  0.92350  1.0000
  C   C754      1.0  0.17776  0.64866  0.92255  1.0000
  C   C755      1.0  0.01064  0.63937  0.90948  1.0000
  H   H611      1.0  0.12377  0.87814  0.93932  1.0000
  C   C756      1.0  0.98892  0.53286  0.86953  1.0000
  C   C757      1.0  0.17936  0.50526  0.83923  1.0000
  C   C758      1.0  0.14727  0.68382  0.89715  1.0000
  H   H612      1.0  0.04741  0.55558  0.72943  1.0000
  H   H613      1.0  0.99335  0.58000  0.73011  1.0000
  C   C759      1.0  0.13923  0.61043  0.94070  1.0000
  H   H614      1.0  0.16998  0.64214  0.98174  1.0000
  H   H615      1.0  0.16584  0.53977  0.87136  1.0000
  H   H616      1.0  0.00382  0.54095  0.86682  1.0000
  C   C760      1.0  0.12850  0.61713  0.93976  1.0000
  C   C761      1.0  0.00384  0.53175  0.69878  1.0000
  C   C762      1.0  0.01113  0.53221  0.67935  1.0000
  H   H617      1.0  0.18453  0.55229  0.80757  1.0000
  C   C763      1.0  0.16850  0.96285  0.85815  1.0000
  C   C764      1.0  0.99888  0.57974  0.73933  1.0000
  C   C765      1.0  0.17358  0.60877  0.80163  1.0000
  H   H618      1.0  0.00978  0.54549  0.66617  1.0000
  H   H619      1.0  0.17128  0.75051  0.98608  1.0000
  C   C766      1.0  0.10033  0.85434  0.97674  1.0000
  H   H620      1.0  0.00909  0.52236  0.75797  1.0000
  C   C767      1.0  0.17880  0.76446  0.89185  1.0000
  C   C768      1.0  0.00634  0.56345  0.82500  1.0000
  H   H621      1.0  0.05756  0.50696  0.78381  1.0000
  C   C769      1.0  0.04244  0.52422  0.68686  1.0000
  C   C770      1.0  0.06473  0.57686  0.94112  1.0000
  C   C771      1.0  0.05696  0.56437  0.94736  1.0000
  C   C772      1.0  0.05331  0.55863  0.93230  1.0000
  C   C773      1.0  0.05716  0.56580  0.91063  1.0000
  C   C774      1.0  0.06499  0.57815  0.90441  1.0000
  C   C775      1.0  0.06883  0.58347  0.91948  1.0000
  H   H622      1.0  0.05368  0.55920  0.96400  1.0000
  H   H623      1.0  0.04745  0.54883  0.93749  1.0000
  H   H624      1.0  0.06807  0.58377  0.88775  1.0000
  H   H625      1.0  0.07472  0.59321  0.91431  1.0000
  H   H626      1.0  0.13718  0.59013  0.90905  1.0000
  H   H627      1.0  0.14415  0.63650  0.83702  1.0000
  H   H628      1.0  0.00500  0.50153  0.62981  1.0000
  C   C776      1.0  0.11067  0.71964  0.95103  1.0000
  C   C777      1.0  0.10255  0.72355  0.94023  1.0000
  C   C778      1.0  0.09831  0.70685  0.93933  1.0000
  C   C779      1.0  0.10198  0.68570  0.94938  1.0000
  C   C780      1.0  0.11020  0.68141  0.96029  1.0000
  C   C781      1.0  0.11453  0.69841  0.96116  1.0000
  H   H629      1.0  0.09949  0.73972  0.93235  1.0000
  H   H630      1.0  0.09202  0.71044  0.93086  1.0000
  C   C782      1.0  0.15148  0.83157  0.91965  1.0000
  C   C783      1.0  0.14951  0.83687  0.93928  1.0000
  C   C784      1.0  0.15452  0.85183  0.94157  1.0000
  C   C785      1.0  0.16184  0.86085  0.92453  1.0000
  C   C786      1.0  0.16400  0.85514  0.90506  1.0000
  C   C787      1.0  0.15871  0.84077  0.90255  1.0000
  H   H631      1.0  0.14403  0.82969  0.95257  1.0000
  H   H632      1.0  0.15278  0.85641  0.95656  1.0000
  H   H633      1.0  0.16954  0.86220  0.89179  1.0000
  H   H634      1.0  0.16018  0.83687  0.88730  1.0000
  C   C788      1.0  0.99633  0.53821  0.87718  1.0000
  C   C789      1.0  0.16796  0.67620  0.97628  1.0000
  H   H635      1.0  0.18120  0.56110  0.92447  1.0000
  C   C790      1.0  0.13112  0.55277  0.97099  1.0000
  H   H636      1.0  0.17911  0.82907  0.94900  1.0000
  H   H637      1.0  0.15873  0.57096  0.81433  1.0000
  H   H638      1.0  0.17153  0.79819  0.89001  1.0000
  H   H639      1.0  0.04276  0.55289  0.80568  1.0000
  H   H640      1.0  0.99223  0.66294  0.94730  1.0000
  H   H641      1.0  0.05249  0.64668  0.89509  1.0000
  C   C791      1.0  0.15556  0.65857  0.97095  1.0000
  C   C792      1.0  0.18179  0.61982  0.90423  1.0000
  C   C793      1.0  0.15166  0.69713  0.96570  1.0000
  H   H642      1.0  0.17079  0.57662  0.88337  1.0000
  H   H643      1.0  0.14540  0.88417  0.87900  1.0000
  C   C794      1.0  0.14871  0.67838  0.96626  1.0000
  C   C795      1.0  0.18112  0.54147  0.82140  1.0000
  H   H644      1.0  0.06108  0.56418  0.74191  1.0000
  S   S114      1.0  0.14881  0.77805  0.97108  1.0000
  H   H645      1.0  0.04166  0.60302  0.87836  1.0000
  C   C796      1.0  0.09445  0.80977  0.93370  1.0000
  C   C797      1.0  0.10311  0.79476  0.92560  1.0000
  C   C798      1.0  0.11327  0.79918  0.91915  1.0000
  C   C799      1.0  0.11478  0.81866  0.92067  1.0000
  C   C800      1.0  0.10611  0.83401  0.92842  1.0000
  C   C801      1.0  0.09595  0.82923  0.93534  1.0000
  P   P28       1.0  0.10822  0.85778  0.93323  1.0000
  C   C802      1.0  0.10932  0.85053  0.96045  1.0000
  C   C803      1.0  0.12003  0.86603  0.91603  1.0000
  H   H646      1.0  0.14645  0.71232  0.96134  1.0000
  H   H647      1.0  0.14121  0.63921  0.87387  1.0000
  S   S115      1.0  0.01045  0.50695  0.93205  1.0000
  C   C804      1.0  0.13214  0.87037  0.88162  1.0000
  C   C805      1.0  0.12303  0.86381  0.89494  1.0000
  H   H648      1.0  0.01830  0.57816  0.77334  1.0000
  C   C806      1.0  0.15484  0.65322  0.86852  1.0000
  C   C807      1.0  0.00292  0.57218  0.94151  1.0000
  C   C808      1.0  0.02981  0.50416  0.78289  1.0000
  C   C809      1.0  0.17149  0.61904  0.78164  1.0000
  C   C810      1.0  0.09748  0.88052  0.92839  1.0000
  C   C811      1.0  0.09550  0.89770  0.93826  1.0000
  C   C812      1.0  0.08736  0.91564  0.93415  1.0000
  C   C813      1.0  0.08126  0.91669  0.91991  1.0000
  C   C814      1.0  0.03655  0.51926  0.61037  1.0000
  C   C815      1.0  0.09151  0.88190  0.91371  1.0000
  H   H649      1.0  0.08663  0.80604  0.93919  1.0000
  H   H650      1.0  0.10204  0.77939  0.92490  1.0000
  H   H651      1.0  0.12005  0.78714  0.91372  1.0000
  H   H652      1.0  0.12278  0.82134  0.91647  1.0000
  H   H653      1.0  0.08923  0.84032  0.94241  1.0000
  C   C816      1.0  0.02461  0.61099  0.88063  1.0000
  C   C817      1.0  0.18384  0.86769  0.96878  1.0000
  C   C818      1.0  0.03529  0.60461  0.87068  1.0000
  H   H654      1.0  0.13462  0.86802  0.86556  1.0000
  H   H655      1.0  0.11842  0.85677  0.88886  1.0000
  C   C819      1.0  0.13508  0.88241  0.90990  1.0000
  H   H656      1.0  0.05461  0.50663  0.82195  1.0000
  C   C820      1.0  0.99656  0.55408  0.80427  1.0000
  C   C821      1.0  0.04764  0.51329  0.60523  1.0000
  H   H657      1.0  0.10029  0.89729  0.94903  1.0000
  C   C822      1.0  0.17882  0.85095  0.98062  1.0000
  H   H658      1.0  0.09320  0.86923  0.90525  1.0000
  C   C823      1.0  0.98996  0.51915  0.62207  1.0000
  C   C824      1.0  0.99416  0.53990  0.89819  1.0000
  H   H659      1.0  0.00001  0.54366  0.90414  1.0000
  H   H660      1.0  0.04616  0.59329  0.84393  1.0000
  H   H661      1.0  0.15120  0.50983  0.98189  1.0000
  H   H662      1.0  0.01328  0.65371  0.87596  1.0000
  H   H663      1.0  0.12079  0.69507  0.96964  1.0000
  H   H664      1.0  0.13367  0.59399  0.87388  1.0000
  Fe  Fe56      1.0  0.18581  0.57707  0.95728  1.0000
  C   C825      1.0  0.04224  0.61538  0.94122  1.0000
  H   H665      1.0  0.03735  0.64087  0.88468  1.0000
  H   H666      1.0  0.98891  0.60608  0.75313  1.0000
  C   C826      1.0  0.01919  0.60615  0.85095  1.0000
  S   S116      1.0  0.12441  0.78681  0.96426  1.0000
  C   C827      1.0  0.16883  0.74432  0.88231  1.0000
  C   C828      1.0  0.02450  0.57335  0.92875  1.0000
  C   C829      1.0  0.04720  0.63707  0.90635  1.0000
  C   C830      1.0  0.18199  0.60389  0.84882  1.0000
  H   H667      1.0  0.02866  0.60193  0.94689  1.0000
  C   C831      1.0  0.00862  0.65532  0.89159  1.0000
  S   S117      1.0  0.99249  0.55281  0.70105  1.0000
  C   C832      1.0  0.99709  0.51034  0.63554  1.0000
  C   C833      1.0  0.99645  0.59457  0.75206  1.0000
  C   C834      1.0  0.99749  0.57954  0.83034  1.0000
  C   C835      1.0  0.00359  0.59409  0.76397  1.0000
  H   H668      1.0  0.18412  0.73095  0.89022  1.0000
  C   C836      1.0  0.11907  0.83909  0.96561  1.0000
  H   H669      1.0  0.14502  0.73494  0.86766  1.0000
  H   H670      1.0  0.16278  0.67071  0.92138  1.0000
  H   H671      1.0  0.15136  0.54090  0.92140  1.0000
  H   H672      1.0  0.17521  0.63218  0.77224  1.0000
  P   P29       1.0  0.02110  0.61585  0.90700  1.0000
  C   C837      1.0  0.13766  0.53226  0.97144  1.0000
  H   H673      1.0  0.04223  0.50447  0.73903  1.0000
  H   H674      1.0  0.12594  0.83501  0.95330  1.0000
  C   C838      1.0  0.17056  0.53454  0.85712  1.0000
  H   H675      1.0  0.17897  0.61419  0.80736  1.0000
  H   H676      1.0  0.17533  0.67520  0.98053  1.0000
  C   C839      1.0  0.12601  0.87580  0.92328  1.0000
  H   H677      1.0  0.02917  0.54405  0.79350  1.0000
  H   H678      1.0  0.02574  0.51605  0.66183  1.0000
  C   C840      1.0  0.14976  0.97939  0.86585  1.0000
  C   C841      1.0  0.17791  0.74528  0.88817  1.0000
  H   H679      1.0  0.16988  0.61915  0.88887  1.0000
  C   C842      1.0  0.15031  0.58782  0.85838  1.0000
  P   P30       1.0  0.15269  0.65619  0.89534  1.0000
  C   C843      1.0  0.14428  0.72197  0.88143  1.0000
  H   H680      1.0  0.17974  0.65620  0.93290  1.0000
  C   C844      1.0  0.08338  0.89986  0.90963  1.0000
  Fe  Fe57      1.0  0.15019  0.74499  0.96726  1.0000
  C   C845      1.0  0.17286  0.51272  0.85701  1.0000
  C   C846      1.0  0.16528  0.64659  0.90332  1.0000
  Fe  Fe58      1.0  0.04166  0.50294  0.87003  1.0000
  C   C847      1.0  0.00567  0.51454  0.71577  1.0000
  H   H681      1.0  0.09261  0.86234  0.97318  1.0000
  H   H682      1.0  0.05226  0.52516  0.59617  1.0000
  H   H683      1.0  0.00005  0.51380  0.73074  1.0000
  C   C848      1.0  0.17188  0.52226  0.94691  1.0000
  C   C849      1.0  0.16317  0.53628  0.93933  1.0000
  H   H684      1.0  0.05888  0.56274  0.78007  1.0000
  H   H685      1.0  0.07498  0.93064  0.91667  1.0000
  C   C850      1.0  0.17100  0.49622  0.92874  1.0000
  H   H686      1.0  0.17943  0.88197  0.95995  1.0000
  C   C851      1.0  0.16219  0.58461  0.80550  1.0000
  C   C852      1.0  0.17698  0.78833  0.93000  1.0000
  C   C853      1.0  0.15424  0.58385  0.89807  1.0000
  H   H687      1.0  0.00826  0.61541  0.87849  1.0000
  C   C854      1.0  0.16086  0.58293  0.86084  1.0000
  C   C855      1.0  0.04903  0.62783  0.92667  1.0000
  C   C856      1.0  0.17101  0.98287  0.85392  1.0000
  C   C857      1.0  0.11992  0.83205  0.98671  1.0000
  H   H688      1.0  0.14092  0.67572  0.93074  1.0000
  C   C858      1.0  0.16274  0.58093  0.88087  1.0000
  H   H689      1.0  0.13581  0.74291  0.90303  1.0000
  H   H690      1.0  0.00001  0.60498  0.92482  1.0000
  C   C859      1.0  0.15788  0.96108  0.86416  1.0000
  C   C860      1.0  0.03061  0.50409  0.62258  1.0000
  H   H691      1.0  0.15569  0.79637  0.87939  1.0000
  H   H692      1.0  0.00646  0.63051  0.94361  1.0000
  H   H693      1.0  0.15477  0.61687  0.92884  1.0000
  C   C861      1.0  0.02137  0.55443  0.94071  1.0000
  H   H694      1.0  0.00820  0.53900  0.95596  1.0000
  C   C862      1.0  0.17088  0.78302  0.88796  1.0000
  C   C863      1.0  0.01478  0.49793  0.71333  1.0000
  H   H695      1.0  0.15598  0.94548  0.86752  1.0000
  C   C864      1.0  0.13909  0.72650  0.90127  1.0000
  H   H696      1.0  0.17196  0.66301  0.82074  1.0000
  C   C865      1.0  0.16499  0.65742  0.97676  1.0000
  C   C866      1.0  0.00479  0.64239  0.92960  1.0000
  H   H697      1.0  0.02205  0.50895  0.62730  1.0000
  H   H698      1.0  0.99789  0.59000  0.83972  1.0000
  H   H699      1.0  0.02617  0.56577  0.70792  1.0000
  H   H700      1.0  0.03256  0.53573  0.60529  1.0000
  H   H701      1.0  0.00983  0.55235  0.72940  1.0000
  C   C867      1.0  0.02985  0.59988  0.84115  1.0000
  H   H702      1.0  0.15933  0.64876  0.81020  1.0000
  C   C868      1.0  0.00573  0.55032  0.81238  1.0000
  H   H703      1.0  0.01299  0.60601  0.84353  1.0000
  C   C869      1.0  0.14197  0.68855  0.91691  1.0000
  H   H704      1.0  0.01248  0.53787  0.80801  1.0000
  C   C870      1.0  0.01551  0.56333  0.75097  1.0000
  H   H705      1.0  0.15369  0.76199  0.87502  1.0000
  C   C871      1.0  0.01058  0.55386  0.94715  1.0000
  H   H706      1.0  0.12953  0.66283  0.90198  1.0000
  C   C872      1.0  0.17214  0.62788  0.89771  1.0000
  H   H707      1.0  0.17415  0.61399  0.85219  1.0000
  C   C873      1.0  0.14845  0.70069  0.87937  1.0000
  C   C874      1.0  0.13801  0.70978  0.91899  1.0000
  H   H708      1.0  0.13989  0.88924  0.91577  1.0000
  C   C875      1.0  0.16007  0.59498  0.78555  1.0000
  H   H709      1.0  0.14193  0.59617  0.95190  1.0000
  H   H710      1.0  0.05581  0.62996  0.93111  1.0000
  H   H711      1.0  0.03288  0.57333  0.92300  1.0000
  C   C876      1.0  0.03213  0.62020  0.91468  1.0000
  H   H712      1.0  0.17957  0.54007  0.90074  1.0000
  H   H713      1.0  0.16912  0.66593  0.85776  1.0000
  H   H714      1.0  0.98968  0.51301  0.80212  1.0000
  H   H715      1.0  0.16239  0.82482  0.98112  1.0000
  C   C877      1.0  0.01656  0.61148  0.87071  1.0000
  C   C878      1.0  0.12503  0.63608  0.92587  1.0000
  H   H716      1.0  0.11662  0.64161  0.92569  1.0000
  H   H717      1.0  0.14856  0.58914  0.84330  1.0000
  C   C879      1.0  0.17422  0.80394  0.94198  1.0000
  C   C880      1.0  0.00058  0.67368  0.89376  1.0000
  H   H718      1.0  0.12788  0.58218  0.98157  1.0000
  C   C881      1.0  0.14959  0.64295  0.84156  1.0000
  C   C882      1.0  0.16525  0.65788  0.83240  1.0000
  H   H719      1.0  0.11317  0.66513  0.96807  1.0000
  C   C883      1.0  0.14378  0.58849  0.89555  1.0000
  H   H720      1.0  0.12288  0.60768  0.94988  1.0000
  C   C884      1.0  0.14323  0.64091  0.91282  1.0000
  C   C885      1.0  0.16811  0.65685  0.91596  1.0000
  H   H721      1.0  0.15578  0.58202  0.91351  1.0000
  C   C886      1.0  0.98783  0.57063  0.80919  1.0000
  H   H722      1.0  0.03384  0.55532  0.67362  1.0000
  H   H723      1.0  0.17482  0.94869  0.85679  1.0000
  H   H724      1.0  0.14152  0.97799  0.87051  1.0000
  H   H725      1.0  0.15244  0.69757  0.86391  1.0000
  C   C887      1.0  0.03377  0.61169  0.93534  1.0000
  C   C888      1.0  0.04378  0.55356  0.78899  1.0000
  C   C889      1.0  0.05282  0.55914  0.77456  1.0000
  C   C890      1.0  0.05405  0.55993  0.75310  1.0000
  C   C891      1.0  0.04627  0.55498  0.74609  1.0000
  C   C892      1.0  0.03724  0.54899  0.76057  1.0000
  C   C893      1.0  0.03603  0.54857  0.78203  1.0000
  P   P31       1.0  0.02727  0.54194  0.75177  1.0000
  C   C894      1.0  0.03321  0.53540  0.72618  1.0000
  C   C895      1.0  0.02333  0.51809  0.76937  1.0000
  C   C896      1.0  0.04481  0.51000  0.70533  1.0000
  C   C897      1.0  0.00830  0.56408  0.73890  1.0000
  C   C898      1.0  0.15818  0.64974  0.82648  1.0000
  H   H726      1.0  0.00156  0.60516  0.77435  1.0000
  C   C899      1.0  0.01310  0.57860  0.76339  1.0000
  C   C900      1.0  0.03123  0.55004  0.70748  1.0000
  C   C901      1.0  0.03573  0.54433  0.68791  1.0000
  C   C902      1.0  0.01397  0.51266  0.76893  1.0000
  S   S118      1.0  0.09212  0.57239  0.98592  1.0000
  C   C903      1.0  0.16135  0.69610  0.97043  1.0000
  H   H727      1.0  0.99459  0.57144  0.94596  1.0000
  C   C904      1.0  0.17709  0.75978  0.98450  1.0000
  C   C905      1.0  0.17591  0.50217  0.94152  1.0000
  C   C906      1.0  0.17475  0.54908  0.83934  1.0000
  H   H728      1.0  0.17926  0.98402  0.84930  1.0000
  H   H729      1.0  0.04563  0.51944  0.67184  1.0000
  Fe  Fe59      1.0  0.18323  0.88488  0.90473  1.0000
  C   C907      1.0  0.16190  0.78208  0.88179  1.0000
  C   C908      1.0  0.16079  0.76270  0.87927  1.0000
  C   C909      1.0  0.99407  0.51327  0.65629  1.0000
  C   C910      1.0  0.13300  0.56649  0.98140  1.0000
  C   C911      1.0  0.02012  0.51549  0.67683  1.0000
  H   H730      1.0  0.15847  0.50558  0.91149  1.0000
  C   C912      1.0  0.18334  0.58478  0.84235  1.0000
  C   C913      1.0  0.16887  0.59158  0.81381  1.0000
  H   H731      1.0  0.17522  0.52693  0.95746  1.0000
  C   C914      1.0  0.16232  0.51033  0.92112  1.0000
  H   H732      1.0  0.08583  0.92883  0.94188  1.0000
  C   C915      1.0  0.16471  0.61220  0.77363  1.0000
  H   H733      1.0  0.16313  0.62008  0.75809  1.0000
  C   C916      1.0  0.99676  0.66076  0.93173  1.0000
  H   H734      1.0  0.18029  0.73148  0.92950  1.0000
  H   H735      1.0  0.16993  0.50149  0.87100  1.0000
  C   C917      1.0  0.99463  0.67637  0.91381  1.0000
  H   H736      1.0  0.99901  0.68588  0.87988  1.0000
  H   H737      1.0  0.17051  0.85294  0.98087  1.0000
  H   H738      1.0  0.03734  0.50719  0.78274  1.0000
  C   C918      1.0  0.98826  0.58290  0.82273  1.0000
  C   C919      1.0  0.14613  0.52561  0.98187  1.0000
  S   S119      1.0  0.07930  0.62233  0.98275  1.0000
  H   H739      1.0  0.99083  0.53179  0.85316  1.0000
  C   C920      1.0  0.18139  0.81644  0.94030  1.0000
  H   H740      1.0  0.99242  0.51748  0.60578  1.0000
  C   C921      1.0  0.02200  0.49831  0.69380  1.0000
  S   S120      1.0  0.10491  0.60911  0.98430  1.0000
  C   C922      1.0  0.18344  0.51964  0.82141  1.0000
  H   H741      1.0  0.07157  0.72479  0.98828  1.0000
  Fe  Fe60      1.0  0.27415  0.41405  0.39607  1.0000
  S   S121      1.0  0.26301  0.42107  0.42593  1.0000
  S   S122      1.0  0.28945  0.38975  0.39741  1.0000
  Fe  Fe61      1.0  0.25932  0.44393  0.36895  1.0000
  S   S123      1.0  0.24663  0.45356  0.39641  1.0000
  S   S124      1.0  0.25875  0.45604  0.33483  1.0000
  Fe  Fe62      1.0  0.26043  0.45523  0.40836  1.0000
  C   C923      1.0  0.37740  0.17759  0.16651  1.0000
  Fe  Fe63      1.0  0.25030  0.41865  0.41159  1.0000
  S   S125      1.0  0.23917  0.39866  0.43381  1.0000
  S   S126      1.0  0.27278  0.44854  0.37958  1.0000
  S   S127      1.0  0.26167  0.40869  0.38305  1.0000
  Fe  Fe64      1.0  0.20222  0.34261  0.42011  1.0000
  S   S128      1.0  0.21644  0.31575  0.42414  1.0000
  S   S129      1.0  0.20445  0.37563  0.40185  1.0000
  H   H742      1.0  0.21346  0.34006  0.47210  1.0000
  H   H743      1.0  0.19182  0.17715  0.46324  1.0000
  Fe  Fe65      1.0  0.20734  0.29615  0.41664  1.0000
  S   S130      1.0  0.21735  0.27420  0.39502  1.0000
  C   C924      1.0  0.31470  0.26325  0.04011  1.0000
  H   H744      1.0  0.22277  0.24861  0.48557  1.0000
  Fe  Fe66      1.0  0.32010  0.24627  0.15050  1.0000
  S   S131      1.0  0.33264  0.24617  0.12080  1.0000
  S   S132      1.0  0.31167  0.21892  0.16504  1.0000
  Fe  Fe67      1.0  0.32356  0.28733  0.15707  1.0000
  S   S133      1.0  0.33659  0.29035  0.12774  1.0000
  S   S134      1.0  0.31537  0.31004  0.17958  1.0000
  Fe  Fe68      1.0  0.32599  0.28132  0.11239  1.0000
  S   S135      1.0  0.32558  0.29743  0.07835  1.0000
  Fe  Fe69      1.0  0.34232  0.25473  0.13814  1.0000
  S   S136      1.0  0.35977  0.23955  0.12984  1.0000
  S   S137      1.0  0.31243  0.28094  0.14081  1.0000
  S   S138      1.0  0.33028  0.25221  0.16885  1.0000
  Fe  Fe70      1.0  0.29809  0.42592  0.25428  1.0000
  S   S139      1.0  0.31342  0.43284  0.23266  1.0000
  S   S140      1.0  0.28163  0.44425  0.25037  1.0000
  Fe  Fe71      1.0  0.30914  0.38884  0.28343  1.0000
  S   S141      1.0  0.32528  0.39322  0.26443  1.0000
  S   S142      1.0  0.30848  0.36043  0.31078  1.0000
  Fe  Fe72      1.0  0.31858  0.42851  0.26303  1.0000
  S   S143      1.0  0.32914  0.44830  0.26695  1.0000
  Fe  Fe73      1.0  0.31858  0.39695  0.23616  1.0000
  S   S144      1.0  0.32885  0.37994  0.20982  1.0000
  S   S145      1.0  0.30294  0.42367  0.28438  1.0000
  S   S146      1.0  0.30277  0.39049  0.25546  1.0000
  C   C925      1.0  0.22657  0.15926  0.45705  1.0000
  S   S147      1.0  0.30067  0.05725  0.02839  1.0000
  Fe  Fe74      1.0  0.32051  0.12223  0.11583  1.0000
  S   S148      1.0  0.31734  0.10495  0.14976  1.0000
  S   S149      1.0  0.31868  0.15777  0.10261  1.0000
  Fe  Fe75      1.0  0.32825  0.08104  0.09999  1.0000
  S   S150      1.0  0.32603  0.05999  0.13245  1.0000
  S   S151      1.0  0.33487  0.06895  0.07014  1.0000
  Fe  Fe76      1.0  0.31058  0.08368  0.13856  1.0000
  S   S152      1.0  0.29585  0.07240  0.15858  1.0000
  Fe  Fe77      1.0  0.33303  0.08285  0.14073  1.0000
  S   S153      1.0  0.34389  0.07197  0.16369  1.0000
  S   S154      1.0  0.31228  0.10304  0.10534  1.0000
  S   S155      1.0  0.33676  0.10172  0.10755  1.0000
  H   H745      1.0  0.20626  0.23822  0.46376  1.0000
  C   C926      1.0  0.36733  0.02148  0.17339  1.0000
  H   H746      1.0  0.38006  0.24759  0.11462  1.0000
  H   H747      1.0  0.33705  0.34087  0.01228  1.0000
  C   C927      1.0  0.36729  0.17562  0.10242  1.0000
  C   C928      1.0  0.23064  0.46346  0.44382  1.0000
  C   C929      1.0  0.20975  0.45781  0.45403  1.0000
  H   H748      1.0  0.20457  0.21776  0.35019  1.0000
  H   H749      1.0  0.20006  0.46851  0.27782  1.0000
  C   C930      1.0  0.33719  0.19757  0.03361  1.0000
  S   S156      1.0  0.20644  0.18613  0.39944  1.0000
  C   C931      1.0  0.26582  0.08395  0.05438  1.0000
  C   C932      1.0  0.22409  0.02702  0.21035  1.0000
  C   C933      1.0  0.23207  0.02487  0.22090  1.0000
  H   H750      1.0  0.31624  0.39074  0.37776  1.0000
  C   C934      1.0  0.21696  0.44478  0.46650  1.0000
  C   C935      1.0  0.35689  0.07628  0.15406  1.0000
  C   C936      1.0  0.36151  0.07924  0.13246  1.0000
  C   C937      1.0  0.37235  0.07965  0.12542  1.0000
  C   C938      1.0  0.22742  0.23272  0.48401  1.0000
  C   C939      1.0  0.37377  0.07599  0.16131  1.0000
  C   C940      1.0  0.36300  0.07495  0.16844  1.0000
  H   H751      1.0  0.35686  0.08044  0.12127  1.0000
  H   H752      1.0  0.25539  0.01175  0.38615  1.0000
  H   H753      1.0  0.32094  0.28598  0.01317  1.0000
  H   H754      1.0  0.35947  0.07257  0.18517  1.0000
  C   C941      1.0  0.29137  0.05494  0.14921  1.0000
  C   C942      1.0  0.28584  0.04003  0.16376  1.0000
  C   C943      1.0  0.28169  0.02665  0.15675  1.0000
  C   C944      1.0  0.28279  0.02844  0.13513  1.0000
  C   C945      1.0  0.28848  0.04314  0.12054  1.0000
  C   C946      1.0  0.29278  0.05635  0.12755  1.0000
  H   H755      1.0  0.28476  0.03880  0.18053  1.0000
  C   C947      1.0  0.19306  0.22843  0.45957  1.0000
  H   H756      1.0  0.28935  0.04463  0.10381  1.0000
  H   H757      1.0  0.29693  0.06800  0.11623  1.0000
  C   C948      1.0  0.30986  0.06171  0.03996  1.0000
  C   C949      1.0  0.32003  0.06342  0.02800  1.0000
  C   C950      1.0  0.32761  0.06581  0.03740  1.0000
  C   C951      1.0  0.32497  0.06729  0.05855  1.0000
  C   C952      1.0  0.31467  0.06630  0.07042  1.0000
  C   C953      1.0  0.30713  0.06330  0.06116  1.0000
  H   H758      1.0  0.32221  0.06197  0.01171  1.0000
  H   H759      1.0  0.33559  0.06626  0.02831  1.0000
  H   H760      1.0  0.31262  0.06715  0.08686  1.0000
  H   H761      1.0  0.29921  0.06226  0.07037  1.0000
  H   H762      1.0  0.30730  0.01632  0.08501  1.0000
  H   H763      1.0  0.19550  0.11734  0.34946  1.0000
  H   H764      1.0  0.21647  0.10434  0.21516  1.0000
  H   H765      1.0  0.26284  0.10068  0.05509  1.0000
  H   H766      1.0  0.20020  0.09147  0.29497  1.0000
  H   H767      1.0  0.19755  0.10022  0.44976  1.0000
  C   C954      1.0  0.25558  0.49427  0.30661  1.0000
  C   C955      1.0  0.36578  0.21481  0.14408  1.0000
  C   C956      1.0  0.36167  0.20687  0.16544  1.0000
  C   C957      1.0  0.36755  0.18839  0.17669  1.0000
  H   H768      1.0  0.24438  0.08322  0.38976  1.0000
  C   C958      1.0  0.35207  0.28795  0.99409  1.0000
  C   C959      1.0  0.29617  0.43895  0.39827  1.0000
  H   H769      1.0  0.35418  0.21534  0.17342  1.0000
  H   H770      1.0  0.36454  0.18262  0.19335  1.0000
  C   C960      1.0  0.31885  0.25331  0.27020  1.0000
  C   C961      1.0  0.35289  0.29081  0.01345  1.0000
  C   C962      1.0  0.31943  0.32929  0.18762  1.0000
  C   C963      1.0  0.32964  0.33357  0.17995  1.0000
  C   C964      1.0  0.33239  0.34919  0.18681  1.0000
  C   C965      1.0  0.32501  0.36057  0.20145  1.0000
  C   C966      1.0  0.31486  0.35607  0.20927  1.0000
  C   C967      1.0  0.31210  0.34056  0.20235  1.0000
  H   H771      1.0  0.33535  0.32505  0.16859  1.0000
  H   H772      1.0  0.34026  0.35254  0.18070  1.0000
  H   H773      1.0  0.30912  0.36462  0.22055  1.0000
  H   H774      1.0  0.30418  0.33743  0.20832  1.0000
  C   C968      1.0  0.31340  0.20207  0.14766  1.0000
  C   C969      1.0  0.31548  0.20985  0.12575  1.0000
  C   C970      1.0  0.31687  0.19621  0.11211  1.0000
  C   C971      1.0  0.31640  0.17460  0.12026  1.0000
  C   C972      1.0  0.31428  0.16682  0.14217  1.0000
  C   C973      1.0  0.31266  0.18059  0.15583  1.0000
  H   H775      1.0  0.31578  0.22651  0.11931  1.0000
  H   H776      1.0  0.31835  0.20243  0.09520  1.0000
  H   H777      1.0  0.31388  0.15024  0.14861  1.0000
  H   H778      1.0  0.31097  0.17451  0.17272  1.0000
  C   C974      1.0  0.31263  0.25700  0.06228  1.0000
  C   C975      1.0  0.31595  0.26731  0.07424  1.0000
  C   C976      1.0  0.32102  0.28439  0.06412  1.0000
  C   C977      1.0  0.32258  0.29127  0.04211  1.0000
  C   C978      1.0  0.35803  0.11715  0.05599  1.0000
  H   H779      1.0  0.30879  0.24370  0.07017  1.0000
  H   H780      1.0  0.31459  0.26205  0.09125  1.0000
  H   H781      1.0  0.32619  0.30483  0.03431  1.0000
  C   C979      1.0  0.21407  0.24941  0.39851  1.0000
  C   C980      1.0  0.22192  0.23309  0.39044  1.0000
  C   C981      1.0  0.21948  0.21363  0.39140  1.0000
  C   C982      1.0  0.20912  0.21043  0.40002  1.0000
  C   C983      1.0  0.22939  0.02930  0.24111  1.0000
  C   C984      1.0  0.20377  0.24605  0.40785  1.0000
  H   H782      1.0  0.22987  0.23566  0.38311  1.0000
  H   H783      1.0  0.22557  0.20123  0.38487  1.0000
  C   C985      1.0  0.37007  0.13714  0.11470  1.0000
  H   H784      1.0  0.38494  0.08021  0.03669  1.0000
  C   C986      1.0  0.19714  0.10660  0.32113  1.0000
  H   H785      1.0  0.19327  0.05776  0.16630  1.0000
  H   H786      1.0  0.19764  0.25869  0.41390  1.0000
  C   C987      1.0  0.32847  0.38193  0.32873  1.0000
  C   C988      1.0  0.21870  0.03517  0.25108  1.0000
  C   C989      1.0  0.29418  0.38119  0.37350  1.0000
  C   C990      1.0  0.29059  0.39356  0.35537  1.0000
  C   C991      1.0  0.29494  0.38727  0.33599  1.0000
  C   C992      1.0  0.30259  0.36820  0.33493  1.0000
  C   C993      1.0  0.30564  0.35511  0.35336  1.0000
  C   C994      1.0  0.30163  0.36184  0.37254  1.0000
  H   H787      1.0  0.28470  0.40836  0.35610  1.0000
  H   H788      1.0  0.29234  0.39711  0.32191  1.0000
  H   H789      1.0  0.31145  0.34022  0.35260  1.0000
  H   H790      1.0  0.30432  0.35213  0.38661  1.0000
  C   C995      1.0  0.22974  0.39263  0.42407  1.0000
  C   C996      1.0  0.22604  0.37387  0.43421  1.0000
  C   C997      1.0  0.21832  0.36873  0.42725  1.0000
  C   C998      1.0  0.21413  0.38243  0.41033  1.0000
  C   C999      1.0  0.21761  0.40156  0.40046  1.0000
  C   C1000     1.0  0.22554  0.40655  0.40718  1.0000
  H   H791      1.0  0.22913  0.36323  0.44753  1.0000
  H   H792      1.0  0.21545  0.35434  0.43534  1.0000
  H   H793      1.0  0.21430  0.41223  0.38746  1.0000
  H   H794      1.0  0.22833  0.42118  0.39956  1.0000
  H   H795      1.0  0.26432  0.48017  0.25778  1.0000
  C   C1001     1.0  0.28064  0.47202  0.24121  1.0000
  H   H796      1.0  0.31134  0.47219  0.38346  1.0000
  H   H797      1.0  0.23559  0.02757  0.24928  1.0000
  C   C1002     1.0  0.29276  0.15116  0.10397  1.0000
  C   C1003     1.0  0.28727  0.13469  0.11368  1.0000
  C   C1004     1.0  0.28522  0.12308  0.10137  1.0000
  C   C1005     1.0  0.28857  0.12806  0.07934  1.0000
  C   C1006     1.0  0.29396  0.14483  0.06939  1.0000
  C   C1007     1.0  0.29620  0.15607  0.08197  1.0000
  P   P32       1.0  0.29891  0.15046  0.04099  1.0000
  C   C1008     1.0  0.31259  0.13638  0.03470  1.0000
  C   C1009     1.0  0.29096  0.14211  0.02831  1.0000
  C   C1010     1.0  0.28326  0.15726  0.01823  1.0000
  H   H798      1.0  0.26366  0.07273  0.08817  1.0000
  H   H799      1.0  0.35605  0.03232  0.00094  1.0000
  H   H800      1.0  0.37914  0.09065  0.20673  1.0000
  C   C1011     1.0  0.29259  0.12041  0.02797  1.0000
  C   C1012     1.0  0.31920  0.13220  0.04893  1.0000
  C   C1013     1.0  0.32977  0.12127  0.04411  1.0000
  H   H801      1.0  0.32834  0.03019  0.08898  1.0000
  H   H802      1.0  0.29587  0.02386  0.01448  1.0000
  H   H803      1.0  0.19909  0.39654  0.44390  1.0000
  C   C1014     1.0  0.29839  0.17867  0.03012  1.0000
  C   C1015     1.0  0.29105  0.19417  0.04048  1.0000
  C   C1016     1.0  0.29048  0.21597  0.03150  1.0000
  C   C1017     1.0  0.29700  0.22243  0.01190  1.0000
  H   H804      1.0  0.38112  0.20374  0.00508  1.0000
  C   C1018     1.0  0.30485  0.18533  0.01032  1.0000
  H   H805      1.0  0.29474  0.15965  0.11350  1.0000
  H   H806      1.0  0.28494  0.13040  0.13076  1.0000
  H   H807      1.0  0.28130  0.10979  0.10896  1.0000
  H   H808      1.0  0.28711  0.11848  0.07025  1.0000
  H   H809      1.0  0.30084  0.16829  0.07488  1.0000
  H   H810      1.0  0.27494  0.12434  0.99846  1.0000
  C   C1019     1.0  0.31754  0.48962  0.22425  1.0000
  C   C1020     1.0  0.29887  0.47669  0.34781  1.0000
  C   C1021     1.0  0.37652  0.28631  0.03728  1.0000
  H   H811      1.0  0.29856  0.10842  0.03543  1.0000
  H   H812      1.0  0.31626  0.13718  0.06385  1.0000
  H   H813      1.0  0.33465  0.11751  0.05555  1.0000
  H   H814      1.0  0.31035  0.17380  0.00164  1.0000
  C   C1022     1.0  0.18771  0.23085  0.35754  1.0000
  C   C1023     1.0  0.23259  0.22917  0.46384  1.0000
  H   H815      1.0  0.28576  0.18952  0.05543  1.0000
  H   H816      1.0  0.28509  0.22792  0.03983  1.0000
  H   H817      1.0  0.20827  0.12408  0.42258  1.0000
  C   C1024     1.0  0.27742  0.15079  0.00773  1.0000
  H   H818      1.0  0.21678  0.20148  0.47170  1.0000
  C   C1025     1.0  0.18972  0.05250  0.18282  1.0000
  H   H819      1.0  0.18689  0.30688  0.34272  1.0000
  C   C1026     1.0  0.38648  0.00983  0.16876  1.0000
  H   H820      1.0  0.38631  0.16119  0.06007  1.0000
  C   C1027     1.0  0.22321  0.09632  0.22242  1.0000
  C   C1028     1.0  0.33637  0.18238  0.05262  1.0000
  C   C1029     1.0  0.20691  0.03500  0.37205  1.0000
  C   C1030     1.0  0.33744  0.47370  0.36462  1.0000
  H   H821      1.0  0.35090  0.07453  0.00574  1.0000
  C   C1031     1.0  0.21345  0.03440  0.21969  1.0000
  H   H822      1.0  0.22885  0.07108  0.27050  1.0000
  H   H823      1.0  0.37164  0.12301  0.12699  1.0000
  H   H824      1.0  0.29132  0.45052  0.38813  1.0000
  H   H825      1.0  0.24003  0.04729  0.40383  1.0000
  S   S157      1.0  0.19946  0.28535  0.45033  1.0000
  H   H826      1.0  0.30222  0.13550  0.21804  1.0000
  H   H827      1.0  0.23310  0.12788  0.47418  1.0000
  C   C1032     1.0  0.34143  0.32628  0.00697  1.0000
  Fe  Fe78      1.0  0.19948  0.03401  0.29608  1.0000
  C   C1033     1.0  0.28603  0.48110  0.43993  1.0000
  S   S158      1.0  0.37314  0.07269  0.99416  1.0000
  C   C1034     1.0  0.31958  0.28058  0.03011  1.0000
  C   C1035     1.0  0.36613  0.17372  0.08306  1.0000
  H   H828      1.0  0.24235  0.20604  0.44563  1.0000
  S   S159      1.0  0.19388  0.33583  0.45435  1.0000
  C   C1036     1.0  0.23317  0.04906  0.37782  1.0000
  C   C1037     1.0  0.31942  0.46826  0.37462  1.0000
  C   C1038     1.0  0.20812  0.14098  0.46614  1.0000
  C   C1039     1.0  0.21036  0.13957  0.44488  1.0000
  C   C1040     1.0  0.20679  0.12456  0.43911  1.0000
  H   H829      1.0  0.35951  0.02523  0.18347  1.0000
  H   H830      1.0  0.38472  0.11499  0.04323  1.0000
  H   H831      1.0  0.38415  0.19971  0.05772  1.0000
  H   H832      1.0  0.21353  0.08987  0.25390  1.0000
  H   H833      1.0  0.28515  0.44884  0.32237  1.0000
  H   H834      1.0  0.21470  0.15037  0.43262  1.0000
  H   H835      1.0  0.27853  0.48721  0.32262  1.0000
  H   H836      1.0  0.33665  0.17045  0.99195  1.0000
  H   H837      1.0  0.38146  0.23892  0.05229  1.0000
  S   S160      1.0  0.19376  0.32368  0.40973  1.0000
  C   C1041     1.0  0.28883  0.27999  0.34288  1.0000
  C   C1042     1.0  0.29863  0.28596  0.33417  1.0000
  C   C1043     1.0  0.29930  0.30715  0.33161  1.0000
  C   C1044     1.0  0.29018  0.32239  0.33757  1.0000
  C   C1045     1.0  0.28028  0.31664  0.34620  1.0000
  C   C1046     1.0  0.27969  0.29524  0.34895  1.0000
  P   P33       1.0  0.26859  0.33687  0.35340  1.0000
  C   C1047     1.0  0.25660  0.32839  0.35478  1.0000
  C   C1048     1.0  0.26828  0.34180  0.37875  1.0000
  C   C1049     1.0  0.25854  0.34678  0.39298  1.0000
  C   C1050     1.0  0.25821  0.35204  0.41187  1.0000
  C   C1051     1.0  0.26763  0.35223  0.41686  1.0000
  C   C1052     1.0  0.27736  0.34692  0.40306  1.0000
  C   C1053     1.0  0.27770  0.34197  0.38396  1.0000
  C   C1054     1.0  0.25079  0.33728  0.33880  1.0000
  C   C1055     1.0  0.24137  0.33102  0.34045  1.0000
  C   C1056     1.0  0.23763  0.31602  0.35811  1.0000
  C   C1057     1.0  0.24336  0.30708  0.37404  1.0000
  C   C1058     1.0  0.25284  0.31312  0.37236  1.0000
  C   C1059     1.0  0.26984  0.36089  0.33305  1.0000
  C   C1060     1.0  0.27356  0.35958  0.31169  1.0000
  C   C1061     1.0  0.27546  0.37781  0.29610  1.0000
  C   C1062     1.0  0.27358  0.39747  0.30168  1.0000
  C   C1063     1.0  0.26967  0.39899  0.32280  1.0000
  C   C1064     1.0  0.26785  0.38077  0.33842  1.0000
  H   H838      1.0  0.28830  0.26356  0.34489  1.0000
  H   H839      1.0  0.30570  0.27421  0.32941  1.0000
  H   H840      1.0  0.30687  0.31197  0.32494  1.0000
  H   H841      1.0  0.29086  0.33879  0.33523  1.0000
  H   H842      1.0  0.27220  0.29026  0.35555  1.0000
  H   H843      1.0  0.25112  0.34705  0.38946  1.0000
  H   H844      1.0  0.25064  0.35641  0.42249  1.0000
  H   H845      1.0  0.26736  0.35689  0.43124  1.0000
  H   H846      1.0  0.28464  0.34733  0.40689  1.0000
  H   H847      1.0  0.28531  0.33881  0.37319  1.0000
  H   H848      1.0  0.25338  0.34926  0.32522  1.0000
  H   H849      1.0  0.23686  0.33805  0.32818  1.0000
  H   H850      1.0  0.23025  0.31133  0.35959  1.0000
  H   H851      1.0  0.24036  0.29558  0.38779  1.0000
  H   H852      1.0  0.25714  0.30613  0.38496  1.0000
  H   H853      1.0  0.27529  0.34437  0.30714  1.0000
  H   H854      1.0  0.27863  0.37668  0.27972  1.0000
  H   H855      1.0  0.27533  0.41148  0.28968  1.0000
  H   H856      1.0  0.26838  0.41419  0.32712  1.0000
  H   H857      1.0  0.26517  0.38216  0.35470  1.0000
  H   H858      1.0  0.19545  0.27770  0.36947  1.0000
  C   C1065     1.0  0.20125  0.22664  0.40832  1.0000
  H   H859      1.0  0.36472  0.18800  0.07084  1.0000
  C   C1066     1.0  0.30683  0.43021  0.39009  1.0000
  C   C1067     1.0  0.26991  0.01556  0.22610  1.0000
  C   C1068     1.0  0.27548  0.01800  0.23970  1.0000
  C   C1069     1.0  0.27497  0.03846  0.24227  1.0000
  C   C1070     1.0  0.26897  0.05648  0.23104  1.0000
  C   C1071     1.0  0.26355  0.05415  0.21694  1.0000
  C   C1072     1.0  0.26389  0.03353  0.21495  1.0000
  P   P34       1.0  0.25550  0.07724  0.20287  1.0000
  C   C1073     1.0  0.24225  0.08232  0.21917  1.0000
  C   C1074     1.0  0.26149  0.10012  0.19665  1.0000
  C   C1075     1.0  0.25516  0.12083  0.19672  1.0000
  C   C1076     1.0  0.25993  0.13850  0.19095  1.0000
  C   C1077     1.0  0.27101  0.13562  0.18497  1.0000
  C   C1078     1.0  0.27734  0.11505  0.18490  1.0000
  C   C1079     1.0  0.27260  0.09739  0.19083  1.0000
  C   C1080     1.0  0.24051  0.07467  0.24117  1.0000
  C   C1081     1.0  0.23020  0.07770  0.25363  1.0000
  C   C1082     1.0  0.23353  0.09347  0.20991  1.0000
  C   C1083     1.0  0.25505  0.07162  0.17833  1.0000
  C   C1084     1.0  0.24733  0.06118  0.17786  1.0000
  C   C1085     1.0  0.24736  0.05561  0.15929  1.0000
  C   C1086     1.0  0.25508  0.06037  0.14104  1.0000
  C   C1087     1.0  0.26264  0.07115  0.14120  1.0000
  C   C1088     1.0  0.26270  0.07663  0.15977  1.0000
  Fe  Fe79      1.0  0.32008  0.25059  0.99120  1.0000
  C   C1089     1.0  0.30416  0.20712  0.00131  1.0000
  H   H860      1.0  0.27933  0.04035  0.25274  1.0000
  H   H861      1.0  0.26861  0.07221  0.23325  1.0000
  H   H862      1.0  0.25959  0.03131  0.20462  1.0000
  H   H863      1.0  0.24657  0.12343  0.20099  1.0000
  H   H864      1.0  0.25502  0.15447  0.19089  1.0000
  H   H865      1.0  0.27470  0.14932  0.18022  1.0000
  H   H866      1.0  0.28594  0.11271  0.17992  1.0000
  H   H867      1.0  0.27762  0.08159  0.19038  1.0000
  H   H868      1.0  0.24703  0.06595  0.24877  1.0000
  C   C1090     1.0  0.34044  0.45831  0.35233  1.0000
  H   H869      1.0  0.23468  0.09954  0.19297  1.0000
  H   H870      1.0  0.24144  0.05681  0.19193  1.0000
  H   H871      1.0  0.24155  0.04706  0.15921  1.0000
  H   H872      1.0  0.25537  0.05519  0.12694  1.0000
  H   H873      1.0  0.26877  0.07445  0.12716  1.0000
  H   H874      1.0  0.26894  0.08413  0.15959  1.0000
  H   H875      1.0  0.20205  0.05103  0.36941  1.0000
  H   H876      1.0  0.33541  0.30353  0.22740  1.0000
  C   C1091     1.0  0.22866  0.38855  0.48559  1.0000
  H   H877      1.0  0.19034  0.02465  0.12399  1.0000
  C   C1092     1.0  0.23879  0.17402  0.42581  1.0000
  H   H878      1.0  0.23879  0.46549  0.43973  1.0000
  H   H879      1.0  0.19370  0.02168  0.39231  1.0000
  H   H880      1.0  0.28025  0.00401  0.24809  1.0000
  C   C1093     1.0  0.25649  0.00097  0.37587  1.0000
  S   S161      1.0  0.27674  0.01327  0.12597  1.0000
  C   C1094     1.0  0.35531  0.01635  0.08305  1.0000
  H   H881      1.0  0.22498  0.38681  0.47395  1.0000
  C   C1095     1.0  0.21300  0.47353  0.43656  1.0000
  H   H882      1.0  0.36397  0.18796  0.01658  1.0000
  P   P35       1.0  0.36101  0.27006  0.02960  1.0000
  H   H883      1.0  0.31198  0.13356  0.00373  1.0000
  H   H884      1.0  0.20162  0.45582  0.45785  1.0000
  Fe  Fe80      1.0  0.24318  0.99756  0.17900  1.0000
  C   C1096     1.0  0.27792  0.99774  0.99734  1.0000
  Fe  Fe81      1.0  0.18933  0.00756  0.33666  1.0000
  C   C1097     1.0  0.32631  0.48487  0.43025  1.0000
  H   H885      1.0  0.37861  0.11935  0.17429  1.0000
  H   H886      1.0  0.36248  0.24386  0.07199  1.0000
  H   H887      1.0  0.36809  0.06865  0.04253  1.0000
  H   H888      1.0  0.24158  0.48483  0.24559  1.0000
  C   C1098     1.0  0.32744  0.11917  0.01045  1.0000
  C   C1099     1.0  0.20526  0.18668  0.46731  1.0000
  C   C1100     1.0  0.35589  0.24117  0.06746  1.0000
  C   C1101     1.0  0.19846  0.00543  0.15987  1.0000
  C   C1102     1.0  0.27585  0.99949  0.01840  1.0000
  H   H889      1.0  0.37585  0.15402  0.00776  1.0000
  C   C1103     1.0  0.20381  0.41185  0.48428  1.0000
  C   C1104     1.0  0.23894  0.19182  0.47898  1.0000
  H   H890      1.0  0.19353  0.10237  0.48745  1.0000
  H   H891      1.0  0.29661  0.46930  0.22241  1.0000
  C   C1105     1.0  0.35973  0.28860  0.06291  1.0000
  H   H892      1.0  0.24022  0.18652  0.41179  1.0000
  C   C1106     1.0  0.23483  0.49527  0.25352  1.0000
  C   C1107     1.0  0.35046  0.14491  0.99516  1.0000
  C   C1108     1.0  0.25411  0.00904  0.35587  1.0000
  C   C1109     1.0  0.20072  0.11116  0.45444  1.0000
  C   C1110     1.0  0.37130  0.11662  0.18537  1.0000
  C   C1111     1.0  0.37157  0.10050  0.20369  1.0000
  C   C1112     1.0  0.36209  0.09721  0.21804  1.0000
  C   C1113     1.0  0.35234  0.11010  0.21406  1.0000
  C   C1114     1.0  0.35205  0.12613  0.19551  1.0000
  C   C1115     1.0  0.36160  0.12952  0.18138  1.0000
  P   P36       1.0  0.33963  0.14385  0.19104  1.0000
  C   C1116     1.0  0.34089  0.15353  0.16284  1.0000
  C   C1117     1.0  0.32912  0.12900  0.20002  1.0000
  C   C1118     1.0  0.33142  0.10763  0.19805  1.0000
  C   C1119     1.0  0.32329  0.09647  0.20308  1.0000
  C   C1120     1.0  0.31277  0.10649  0.21027  1.0000
  C   C1121     1.0  0.31039  0.12762  0.21268  1.0000
  C   C1122     1.0  0.31852  0.13884  0.20763  1.0000
  C   C1123     1.0  0.34169  0.17482  0.15327  1.0000
  C   C1124     1.0  0.34199  0.18247  0.13173  1.0000
  C   C1125     1.0  0.34196  0.16879  0.11933  1.0000
  C   C1126     1.0  0.34172  0.14734  0.12847  1.0000
  C   C1127     1.0  0.34116  0.13969  0.15014  1.0000
  C   C1128     1.0  0.33690  0.16605  0.20380  1.0000
  C   C1129     1.0  0.34352  0.16663  0.21650  1.0000
  C   C1130     1.0  0.34175  0.18455  0.22510  1.0000
  C   C1131     1.0  0.33339  0.20199  0.22107  1.0000
  C   C1132     1.0  0.32678  0.20153  0.20845  1.0000
  C   C1133     1.0  0.32855  0.18369  0.19983  1.0000
  H   H893      1.0  0.36230  0.08476  0.23227  1.0000
  H   H894      1.0  0.34507  0.10765  0.22546  1.0000
  H   H895      1.0  0.36160  0.14230  0.16741  1.0000
  H   H896      1.0  0.33948  0.09971  0.19200  1.0000
  H   H897      1.0  0.32516  0.08022  0.20075  1.0000
  H   H898      1.0  0.30646  0.09795  0.21366  1.0000
  H   H899      1.0  0.31640  0.15523  0.20931  1.0000
  H   H900      1.0  0.34195  0.18578  0.16227  1.0000
  H   H901      1.0  0.34202  0.19915  0.12483  1.0000
  H   H902      1.0  0.34198  0.17483  0.10272  1.0000
  H   H903      1.0  0.34168  0.13680  0.11882  1.0000
  H   H904      1.0  0.34085  0.12305  0.15686  1.0000
  H   H905      1.0  0.35021  0.15357  0.21943  1.0000
  H   H906      1.0  0.34701  0.18505  0.23455  1.0000
  H   H907      1.0  0.33213  0.21598  0.22744  1.0000
  H   H908      1.0  0.32042  0.21516  0.20478  1.0000
  H   H909      1.0  0.32363  0.18401  0.18937  1.0000
  C   C1134     1.0  0.36923  0.15736  0.11824  1.0000
  C   C1135     1.0  0.31915  0.41585  0.34982  1.0000
  C   C1136     1.0  0.31981  0.39453  0.36111  1.0000
  H   H910      1.0  0.37015  0.15889  0.13319  1.0000
  H   H911      1.0  0.36672  0.19121  0.10525  1.0000
  C   C1137     1.0  0.22474  0.47298  0.36571  1.0000
  H   H912      1.0  0.38165  0.28184  0.02301  1.0000
  H   H913      1.0  0.37861  0.20968  0.11739  1.0000
  C   C1138     1.0  0.22852  0.47940  0.32174  1.0000
  C   C1139     1.0  0.22699  0.45938  0.33440  1.0000
  C   C1140     1.0  0.22482  0.45648  0.35647  1.0000
  P   P37       1.0  0.22680  0.43841  0.32232  1.0000
  C   C1141     1.0  0.21363  0.44454  0.31724  1.0000
  C   C1142     1.0  0.23730  0.43704  0.29900  1.0000
  C   C1143     1.0  0.24653  0.44399  0.29729  1.0000
  C   C1144     1.0  0.25503  0.44173  0.28008  1.0000
  C   C1145     1.0  0.25445  0.43244  0.26433  1.0000
  C   C1146     1.0  0.24534  0.42510  0.26601  1.0000
  C   C1147     1.0  0.23683  0.42714  0.28345  1.0000
  C   C1148     1.0  0.21177  0.45495  0.29705  1.0000
  C   C1149     1.0  0.20145  0.46058  0.29349  1.0000
  Fe  Fe82      1.0  0.30491  0.06975  0.99337  1.0000
  C   C1150     1.0  0.38031  0.29666  0.12008  1.0000
  C   C1151     1.0  0.20499  0.44038  0.33397  1.0000
  C   C1152     1.0  0.22972  0.41252  0.33956  1.0000
  C   C1153     1.0  0.22392  0.39694  0.34219  1.0000
  C   C1154     1.0  0.22591  0.37734  0.35642  1.0000
  C   C1155     1.0  0.23384  0.37299  0.36773  1.0000
  C   C1156     1.0  0.23997  0.38805  0.36446  1.0000
  C   C1157     1.0  0.23801  0.40767  0.35024  1.0000
  C   C1158     1.0  0.19995  0.10572  0.33989  1.0000
  H   H914      1.0  0.34879  0.14230  0.01223  1.0000
  H   H915      1.0  0.36823  0.22367  0.03032  1.0000
  H   H916      1.0  0.27182  0.16259  0.99923  1.0000
  H   H917      1.0  0.22331  0.44143  0.36658  1.0000
  H   H918      1.0  0.24730  0.45077  0.30946  1.0000
  H   H919      1.0  0.26218  0.44677  0.27936  1.0000
  H   H920      1.0  0.26118  0.43061  0.25108  1.0000
  H   H921      1.0  0.24500  0.41747  0.25400  1.0000
  H   H922      1.0  0.22998  0.42073  0.28496  1.0000
  H   H923      1.0  0.21827  0.45890  0.28412  1.0000
  H   H924      1.0  0.30256  0.48485  0.35467  1.0000
  C   C1159     1.0  0.23841  0.20875  0.46132  1.0000
  H   H925      1.0  0.19925  0.00631  0.24117  1.0000
  H   H926      1.0  0.20621  0.43285  0.34983  1.0000
  H   H927      1.0  0.21772  0.39993  0.33366  1.0000
  H   H928      1.0  0.22104  0.36578  0.35936  1.0000
  H   H929      1.0  0.23494  0.35820  0.37947  1.0000
  H   H930      1.0  0.24594  0.38501  0.37358  1.0000
  H   H931      1.0  0.24278  0.41926  0.34803  1.0000
  Fe  Fe83      1.0  0.18935  0.18309  0.40712  1.0000
  C   C1160     1.0  0.24063  0.07708  0.38101  1.0000
  C   C1161     1.0  0.23810  0.08954  0.36194  1.0000
  C   C1162     1.0  0.23311  0.08179  0.35078  1.0000
  C   C1163     1.0  0.23055  0.06154  0.35869  1.0000
  P   P38       1.0  0.22390  0.05191  0.34433  1.0000
  C   C1164     1.0  0.21772  0.03066  0.36195  1.0000
  C   C1165     1.0  0.21368  0.07376  0.33485  1.0000
  C   C1166     1.0  0.20810  0.08925  0.34688  1.0000
  H   H932      1.0  0.32578  0.01449  0.02541  1.0000
  C   C1167     1.0  0.26928  0.07804  0.03483  1.0000
  C   C1168     1.0  0.20262  0.09122  0.30914  1.0000
  C   C1169     1.0  0.21091  0.07497  0.31587  1.0000
  H   H933      1.0  0.36429  0.11909  0.99354  1.0000
  C   C1170     1.0  0.23319  0.04203  0.32215  1.0000
  C   C1171     1.0  0.24240  0.05017  0.31214  1.0000
  C   C1172     1.0  0.24928  0.04303  0.29444  1.0000
  C   C1173     1.0  0.24699  0.02782  0.28655  1.0000
  C   C1174     1.0  0.23788  0.01961  0.29647  1.0000
  C   C1175     1.0  0.23098  0.02673  0.31411  1.0000
  H   H934      1.0  0.23988  0.10534  0.35592  1.0000
  H   H935      1.0  0.23109  0.09176  0.33614  1.0000
  H   H936      1.0  0.20981  0.08835  0.36193  1.0000
  H   H937      1.0  0.35102  0.09166  0.05568  1.0000
  H   H938      1.0  0.18806  0.44246  0.34331  1.0000
  H   H939      1.0  0.20744  0.48343  0.42691  1.0000
  H   H940      1.0  0.21486  0.06299  0.30657  1.0000
  C   C1176     1.0  0.37741  0.26536  0.99409  1.0000
  H   H941      1.0  0.24423  0.06221  0.31773  1.0000
  H   H942      1.0  0.25630  0.04952  0.28662  1.0000
  C   C1177     1.0  0.36601  0.01605  0.07274  1.0000
  C   C1178     1.0  0.37392  0.30184  0.06741  1.0000
  H   H943      1.0  0.22373  0.02077  0.32096  1.0000
  C   C1179     1.0  0.35028  0.02571  0.01416  1.0000
  C   C1180     1.0  0.32233  0.45285  0.36219  1.0000
  P   P39       1.0  0.31269  0.43833  0.36240  1.0000
  C   C1181     1.0  0.30249  0.45465  0.34827  1.0000
  C   C1182     1.0  0.29753  0.44481  0.33879  1.0000
  C   C1183     1.0  0.28904  0.45664  0.32934  1.0000
  H   H944      1.0  0.29110  0.03111  0.07134  1.0000
  C   C1184     1.0  0.37632  0.27933  0.12011  1.0000
  C   C1185     1.0  0.32467  0.37767  0.35063  1.0000
  H   H945      1.0  0.30010  0.42789  0.33893  1.0000
  H   H946      1.0  0.32507  0.36127  0.35935  1.0000
  Fe  Fe84      1.0  0.20740  0.30728  0.45743  1.0000
  H   H947      1.0  0.28327  0.43904  0.42563  1.0000
  H   H948      1.0  0.34470  0.15745  0.07374  1.0000
  S   S162      1.0  0.21557  0.03886  0.27700  1.0000
  C   C1186     1.0  0.34555  0.16885  0.05873  1.0000
  C   C1187     1.0  0.21775  0.99968  0.15230  1.0000
  H   H949      1.0  0.33547  0.43627  0.34126  1.0000
  C   C1188     1.0  0.29164  0.43281  0.41971  1.0000
  H   H950      1.0  0.28954  0.28272  0.19996  1.0000
  H   H951      1.0  0.32860  0.18125  0.06271  1.0000
  C   C1189     1.0  0.21071  0.03802  0.24027  1.0000
  H   H952      1.0  0.20732  0.03621  0.21139  1.0000
  C   C1190     1.0  0.23818  0.05685  0.38892  1.0000
  C   C1191     1.0  0.31314  0.41640  0.40400  1.0000
  H   H953      1.0  0.32150  0.41015  0.39812  1.0000
  C   C1192     1.0  0.29543  0.28043  0.20909  1.0000
  H   H954      1.0  0.28761  0.30832  0.22217  1.0000
  C   C1193     1.0  0.29784  0.41832  0.43330  1.0000
  H   H955      1.0  0.26892  0.09013  0.02039  1.0000
  C   C1194     1.0  0.33293  0.44795  0.35105  1.0000
  C   C1195     1.0  0.32301  0.41991  0.32784  1.0000
  C   C1196     1.0  0.30862  0.41029  0.42550  1.0000
  H   H956      1.0  0.33544  0.33648  0.23724  1.0000
  H   H957      1.0  0.33176  0.36889  0.32048  1.0000
  H   H958      1.0  0.29426  0.41324  0.44982  1.0000
  C   C1197     1.0  0.27406  0.04069  0.05241  1.0000
  C   C1198     1.0  0.22154  0.08833  0.24425  1.0000
  S   S163      1.0  0.31133  0.24891  0.02530  1.0000
  C   C1199     1.0  0.32765  0.40308  0.31735  1.0000
  H   H959      1.0  0.34851  0.45482  0.34326  1.0000
  H   H960      1.0  0.19303  0.07818  0.19208  1.0000
  C   C1200     1.0  0.29434  0.29483  0.22164  1.0000
  H   H961      1.0  0.30530  0.25278  0.19740  1.0000
  H   H962      1.0  0.33005  0.20827  0.02912  1.0000
  C   C1201     1.0  0.28926  0.48011  0.22750  1.0000
  C   C1202     1.0  0.30434  0.26357  0.20763  1.0000
  C   C1203     1.0  0.35831  0.09699  0.05296  1.0000
  H   H963      1.0  0.28449  0.29230  0.99160  1.0000
  H   H964      1.0  0.27938  0.48115  0.47279  1.0000
  H   H965      1.0  0.32223  0.43619  0.31876  1.0000
  C   C1204     1.0  0.32937  0.32743  0.24593  1.0000
  C   C1205     1.0  0.30220  0.29248  0.23267  1.0000
  H   H966      1.0  0.32137  0.34982  0.26606  1.0000
  C   C1206     1.0  0.34722  0.19964  0.02097  1.0000
  C   C1207     1.0  0.36917  0.13511  0.09517  1.0000
  H   H967      1.0  0.35039  0.12707  0.06102  1.0000
  H   H968      1.0  0.31343  0.39908  0.43603  1.0000
  H   H969      1.0  0.20245  0.04284  0.24782  1.0000
  H   H970      1.0  0.25483  0.15536  0.42031  1.0000
  H   H971      1.0  0.33042  0.40654  0.30031  1.0000
  C   C1208     1.0  0.32930  0.30871  0.24036  1.0000
  H   H972      1.0  0.20168  0.47911  0.34796  1.0000
  C   C1209     1.0  0.31221  0.26121  0.21860  1.0000
  C   C1210     1.0  0.36723  0.15342  0.07920  1.0000
  C   C1211     1.0  0.35563  0.16991  0.04550  1.0000
  H   H973      1.0  0.37018  0.11930  0.09247  1.0000
  H   H974      1.0  0.19233  0.34120  0.33556  1.0000
  C   C1212     1.0  0.31821  0.49209  0.30552  1.0000
  C   C1213     1.0  0.19468  0.44597  0.33037  1.0000
  C   C1214     1.0  0.20113  0.24852  0.35828  1.0000
  C   C1215     1.0  0.35639  0.18584  0.02679  1.0000
  S   S164      1.0  0.25912  0.47943  0.42699  1.0000
  H   H975      1.0  0.33139  0.28457  0.20076  1.0000
  H   H976      1.0  0.34831  0.26970  0.17846  1.0000
  S   S165      1.0  0.38517  0.15562  0.18104  1.0000
  C   C1216     1.0  0.28225  0.00901  0.02482  1.0000
  C   C1217     1.0  0.20491  0.40920  0.46374  1.0000
  H   H977      1.0  0.31916  0.24838  0.21689  1.0000
  H   H978      1.0  0.20941  0.24844  0.35673  1.0000
  C   C1218     1.0  0.20814  0.99743  0.38880  1.0000
  C   C1219     1.0  0.34455  0.24807  0.04278  1.0000
  C   C1220     1.0  0.29030  0.48847  0.33842  1.0000
  H   H979      1.0  0.32946  0.00251  0.06107  1.0000
  H   H980      1.0  0.33194  0.23086  0.05309  1.0000
  H   H981      1.0  0.33653  0.21248  0.08755  1.0000
  C   C1221     1.0  0.32141  0.33506  0.26210  1.0000
  C   C1222     1.0  0.19840  0.23122  0.35459  1.0000
  H   H982      1.0  0.37608  0.28269  0.99028  1.0000
  C   C1223     1.0  0.24697  0.15643  0.43055  1.0000
  C   C1224     1.0  0.35232  0.01943  0.03449  1.0000
  H   H983      1.0  0.27762  0.01502  0.16814  1.0000
  C   C1225     1.0  0.34646  0.26264  0.19523  1.0000
  C   C1226     1.0  0.31124  0.27567  0.23117  1.0000
  H   H984      1.0  0.30132  0.30426  0.24166  1.0000
  H   H985      1.0  0.18852  0.24462  0.45618  1.0000
  C   C1227     1.0  0.33685  0.27101  0.20790  1.0000
  H   H986      1.0  0.27626  0.05250  0.01843  1.0000
  H   H987      1.0  0.33064  0.11409  0.99556  1.0000
  C   C1228     1.0  0.34136  0.22304  0.07637  1.0000
  C   C1229     1.0  0.22372  0.00955  0.36576  1.0000
  H   H988      1.0  0.23125  0.03345  0.38439  1.0000
  C   C1230     1.0  0.33871  0.23357  0.05696  1.0000
  H   H989      1.0  0.36095  0.23837  0.19410  1.0000
  P   P40       1.0  0.36738  0.15129  0.05302  1.0000
  C   C1231     1.0  0.33603  0.99699  0.09756  1.0000
  S   S166      1.0  0.19599  0.03675  0.32983  1.0000
  C   C1232     1.0  0.35358  0.24501  0.20406  1.0000
  H   H990      1.0  0.34792  0.21205  0.00666  1.0000
  H   H991      1.0  0.27490  0.48835  0.38724  1.0000
  H   H992      1.0  0.23329  0.43744  0.47004  1.0000
  H   H993      1.0  0.35198  0.21910  0.09673  1.0000
  C   C1233     1.0  0.38630  0.22844  0.06312  1.0000
  C   C1234     1.0  0.35002  0.22674  0.08153  1.0000
  C   C1235     1.0  0.32133  0.29720  0.25130  1.0000
  C   C1236     1.0  0.28533  0.47838  0.32940  1.0000
  H   H994      1.0  0.37963  0.02955  0.06776  1.0000
  S   S167      1.0  0.22724  0.02013  0.18571  1.0000
  C   C1237     1.0  0.22747  0.44758  0.46111  1.0000
  C   C1238     1.0  0.19821  0.39861  0.45972  1.0000
  C   C1239     1.0  0.22650  0.49270  0.35296  1.0000
  C   C1240     1.0  0.27104  0.48624  0.24734  1.0000
  H   H995      1.0  0.19047  0.11876  0.31628  1.0000
  C   C1241     1.0  0.36362  0.29809  0.07448  1.0000
  H   H996      1.0  0.25122  0.02607  0.35056  1.0000
  C   C1242     1.0  0.38157  0.15786  0.01403  1.0000
  H   H997      1.0  0.29388  0.48434  0.40714  1.0000
  C   C1243     1.0  0.31823  0.47775  0.29325  1.0000
  H   H998      1.0  0.34231  0.02993  0.10628  1.0000
  H   H999      1.0  0.35195  0.05315  0.11227  1.0000
  C   C1244     1.0  0.33731  0.48060  0.30060  1.0000
  C   C1245     1.0  0.32692  0.47876  0.37566  1.0000
  H   H1000     1.0  0.34231  0.25609  0.02784  1.0000
  C   C1246     1.0  0.30466  0.00664  0.07778  1.0000
  C   C1247     1.0  0.33427  0.26186  0.22954  1.0000
  C   C1248     1.0  0.22861  0.17535  0.43885  1.0000
  C   C1249     1.0  0.37640  0.01393  0.18197  1.0000
  H   H1001     1.0  0.32451  0.49122  0.38457  1.0000
  H   H1002     1.0  0.27035  0.99972  0.22396  1.0000
  C   C1250     1.0  0.26958  0.99842  0.06930  1.0000
  H   H1003     1.0  0.22316  0.48309  0.24658  1.0000
  C   C1251     1.0  0.35304  0.25234  0.04818  1.0000
  P   P41       1.0  0.32150  0.27215  0.24536  1.0000
  S   S168      1.0  0.19426  0.00298  0.30327  1.0000
  H   H1004     1.0  0.24029  0.01975  0.21347  1.0000
  C   C1252     1.0  0.25906  0.00451  0.06651  1.0000
  C   C1253     1.0  0.22344  0.47641  0.43152  1.0000
  C   C1254     1.0  0.35045  0.02939  0.09782  1.0000
  C   C1255     1.0  0.35596  0.04267  0.10136  1.0000
  H   H1005     1.0  0.23928  0.47044  0.47949  1.0000
  H   H1006     1.0  0.23000  0.48213  0.30470  1.0000
  C   C1256     1.0  0.37547  0.20367  0.13389  1.0000
  H   H1007     1.0  0.22232  0.18870  0.43426  1.0000
  H   H1008     1.0  0.37560  0.01146  0.19885  1.0000
  H   H1009     1.0  0.34489  0.45783  0.28082  1.0000
  C   C1257     1.0  0.36751  0.12420  0.05208  1.0000
  C   C1258     1.0  0.31291  0.23800  0.27268  1.0000
  C   C1259     1.0  0.34741  0.31004  0.01989  1.0000
  C   C1260     1.0  0.18895  0.21117  0.45969  1.0000
  H   H1010     1.0  0.37599  0.08121  0.10877  1.0000
  C   C1261     1.0  0.35116  0.23596  0.22567  1.0000
  C   C1262     1.0  0.31338  0.30493  0.26770  1.0000
  C   C1263     1.0  0.36645  0.04287  0.09044  1.0000
  H   H1011     1.0  0.27059  0.03466  0.08655  1.0000
  H   H1012     1.0  0.37058  0.05365  0.09280  1.0000
  C   C1264     1.0  0.36616  0.28253  0.04424  1.0000
  C   C1265     1.0  0.27916  0.12921  0.00734  1.0000
  C   C1266     1.0  0.20214  0.01839  0.38526  1.0000
  C   C1267     1.0  0.20215  0.12722  0.48152  1.0000
  H   H1013     1.0  0.36782  0.27999  0.12474  1.0000
  C   C1268     1.0  0.34156  0.24437  0.23842  1.0000
  H   H1014     1.0  0.35672  0.22236  0.23249  1.0000
  C   C1269     1.0  0.28667  0.11404  0.01759  1.0000
  C   C1270     1.0  0.26628  0.06825  0.07298  1.0000
  H   H1015     1.0  0.25687  0.01760  0.05371  1.0000
  H   H1016     1.0  0.30712  0.29640  0.27634  1.0000
  H   H1017     1.0  0.20728  0.02351  0.16858  1.0000
  C   C1271     1.0  0.19839  0.11251  0.47563  1.0000
  C   C1272     1.0  0.34077  0.02379  0.01084  1.0000
  H   H1018     1.0  0.31082  0.47651  0.29065  1.0000
  C   C1273     1.0  0.38328  0.26092  0.11433  1.0000
  C   C1274     1.0  0.20314  0.22486  0.46364  1.0000
  H   H1019     1.0  0.33984  0.23704  0.25506  1.0000
  H   H1020     1.0  0.23194  0.24228  0.45015  1.0000
  H   H1021     1.0  0.24328  0.17592  0.47691  1.0000
  C   C1275     1.0  0.24491  0.13993  0.44813  1.0000
  H   H1022     1.0  0.30960  0.23748  0.25992  1.0000
  H   H1023     1.0  0.21109  0.41485  0.45089  1.0000
  H   H1024     1.0  0.36126  0.03050  0.14509  1.0000
  C   C1276     1.0  0.31683  0.13007  0.01524  1.0000
  C   C1277     1.0  0.27025  0.04668  0.07202  1.0000
  C   C1278     1.0  0.31338  0.32389  0.27292  1.0000
  H   H1025     1.0  0.31401  0.21181  0.32338  1.0000
  C   C1279     1.0  0.27344  0.05653  0.03380  1.0000
  H   H1026     1.0  0.35858  0.30260  0.08889  1.0000
  P   P42       1.0  0.21323  0.16004  0.47307  1.0000
  H   H1027     1.0  0.20008  0.99875  0.20672  1.0000
  H   H1028     1.0  0.34316  0.48228  0.36495  1.0000
  C   C1280     1.0  0.33386  0.11452  0.02502  1.0000
  C   C1281     1.0  0.36797  0.08379  0.04584  1.0000
  H   H1029     1.0  0.29665  0.23932  0.00512  1.0000
  C   C1282     1.0  0.29084  0.01639  0.00992  1.0000
  H   H1030     1.0  0.19321  0.22441  0.41474  1.0000
  C   C1283     1.0  0.31115  0.22316  0.29184  1.0000
  C   C1284     1.0  0.37294  0.23234  0.01661  1.0000
  H   H1031     1.0  0.34198  0.10552  0.02159  1.0000
  C   C1285     1.0  0.34282  0.49089  0.40579  1.0000
  H   H1032     1.0  0.37006  0.00578  0.06165  1.0000
  H   H1033     1.0  0.32109  0.48578  0.19222  1.0000
  H   H1034     1.0  0.28188  0.17412  0.01801  1.0000
  H   H1035     1.0  0.32543  0.48890  0.47015  1.0000
  H   H1036     1.0  0.30651  0.21146  0.29368  1.0000
  H   H1037     1.0  0.37688  0.30936  0.07632  1.0000
  C   C1286     1.0  0.32792  0.46548  0.28401  1.0000
  H   H1038     1.0  0.34748  0.31244  0.03507  1.0000
  C   C1287     1.0  0.33536  0.00892  0.04821  1.0000
  H   H1039     1.0  0.35165  0.28608  0.06857  1.0000
  C   C1288     1.0  0.20769  0.01092  0.16090  1.0000
  C   C1289     1.0  0.32317  0.25323  0.28700  1.0000
  H   H1040     1.0  0.32475  0.23844  0.31902  1.0000
  H   H1041     1.0  0.31199  0.02737  0.11645  1.0000
  C   C1290     1.0  0.37848  0.07804  0.13983  1.0000
  C   C1291     1.0  0.19508  0.19030  0.46338  1.0000
  C   C1292     1.0  0.33739  0.46716  0.28779  1.0000
  C   C1293     1.0  0.32763  0.01489  0.09943  1.0000
  H   H1042     1.0  0.30715  0.33014  0.28524  1.0000
  C   C1294     1.0  0.37725  0.11025  0.04604  1.0000
  H   H1043     1.0  0.35970  0.02135  0.03646  1.0000
  C   C1295     1.0  0.37745  0.09032  0.04259  1.0000
  H   H1044     1.0  0.32796  0.26464  0.28526  1.0000
  P   P43       1.0  0.27944  0.01277  0.05158  1.0000
  C   C1296     1.0  0.20911  0.20403  0.46798  1.0000
  H   H1045     1.0  0.28811  0.09738  0.01706  1.0000
  C   C1297     1.0  0.31537  0.22336  0.30857  1.0000
  C   C1298     1.0  0.23470  0.14116  0.46112  1.0000
  C   C1299     1.0  0.34490  0.01080  0.05174  1.0000
  C   C1300     1.0  0.25525  0.48404  0.32785  1.0000
  C   C1301     1.0  0.32140  0.23837  0.30613  1.0000
  C   C1302     1.0  0.38036  0.29598  0.04881  1.0000
  H   H1046     1.0  0.22348  0.47034  0.38272  1.0000
  C   C1303     1.0  0.37141  0.25476  0.01258  1.0000
  C   C1304     1.0  0.37948  0.15820  0.03553  1.0000
  H   H1047     1.0  0.18983  0.47895  0.99624  1.0000
  C   C1305     1.0  0.31833  0.01329  0.11495  1.0000
  C   C1306     1.0  0.37152  0.02935  0.07632  1.0000
  H   H1048     1.0  0.37490  0.31088  0.12471  1.0000
  C   C1307     1.0  0.19290  0.45603  0.31013  1.0000
  C   C1308     1.0  0.38122  0.18506  0.14497  1.0000
  H   H1049     1.0  0.37856  0.07424  0.17248  1.0000
  H   H1050     1.0  0.25321  0.00116  0.32753  1.0000
  H   H1051     1.0  0.25165  0.48843  0.35975  1.0000
  H   H1052     1.0  0.34476  0.48141  0.30338  1.0000
  H   H1053     1.0  0.33910  0.02925  0.99513  1.0000
  H   H1054     1.0  0.25117  0.12598  0.45144  1.0000
  C   C1309     1.0  0.36833  0.02456  0.15166  1.0000
  H   H1055     1.0  0.22486  0.00375  0.15334  1.0000
  H   H1056     1.0  0.35057  0.48471  0.39672  1.0000
  H   H1057     1.0  0.25846  0.48492  0.29456  1.0000
  C   C1310     1.0  0.28548  0.48580  0.45920  1.0000
  H   H1058     1.0  0.31944  0.47259  0.23087  1.0000
  C   C1311     1.0  0.37840  0.02064  0.13840  1.0000
  H   H1059     1.0  0.33910  0.45977  0.41948  1.0000
  C   C1312     1.0  0.22445  0.49423  0.25422  1.0000
  C   C1313     1.0  0.19316  0.26524  0.36532  1.0000
  H   H1060     1.0  0.23587  0.00829  0.29007  1.0000
  C   C1314     1.0  0.29369  0.48753  0.42218  1.0000
  H   H1061     1.0  0.25215  0.02268  0.27252  1.0000
  S   S169      1.0  0.25838  0.00233  0.18265  1.0000
  H   H1062     1.0  0.24321  0.99847  0.07795  1.0000
  C   C1315     1.0  0.32781  0.49338  0.30934  1.0000
  C   C1316     1.0  0.29180  0.00284  0.06048  1.0000
  H   H1063     1.0  0.23202  0.00572  0.35806  1.0000
  H   H1064     1.0  0.37891  0.02294  0.12170  1.0000
  H   H1065     1.0  0.22603  0.48849  0.41796  1.0000
  H   H1066     1.0  0.24125  0.36098  0.48122  1.0000
  C   C1317     1.0  0.29538  0.01504  0.06998  1.0000
  C   C1318     1.0  0.33331  0.01540  0.02788  1.0000
  H   H1067     1.0  0.28034  0.47291  0.43861  1.0000
  C   C1319     1.0  0.18953  0.06421  0.19734  1.0000
  C   C1320     1.0  0.19053  0.39017  0.47617  1.0000
  H   H1068     1.0  0.32137  0.47382  0.44008  1.0000
  C   C1321     1.0  0.38031  0.22084  0.00233  1.0000
  C   C1322     1.0  0.33636  0.47685  0.41866  1.0000
  S   S170      1.0  0.21495  0.29450  0.48554  1.0000
  P   P44       1.0  0.34811  0.99972  0.07758  1.0000
  H   H1069     1.0  0.35592  0.27304  0.98898  1.0000
  C   C1323     1.0  0.21327  0.33548  0.48884  1.0000
  C   C1324     1.0  0.29287  0.01465  0.98889  1.0000
  Fe  Fe85      1.0  0.23278  0.41934  0.70793  1.0000
  S   S171      1.0  0.24463  0.42889  0.67823  1.0000
  C   C1325     1.0  0.22807  0.21593  0.50194  1.0000
  Fe  Fe86      1.0  0.24685  0.37547  0.72093  1.0000
  S   S172      1.0  0.25978  0.38094  0.69210  1.0000
  S   S173      1.0  0.24740  0.34512  0.74615  1.0000
  Fe  Fe87      1.0  0.25665  0.41378  0.69866  1.0000
  S   S174      1.0  0.26968  0.42567  0.70393  1.0000
  Fe  Fe88      1.0  0.24650  0.39531  0.67443  1.0000
  S   S175      1.0  0.24658  0.38711  0.64386  1.0000
  S   S176      1.0  0.24450  0.40722  0.72862  1.0000
  S   S177      1.0  0.23390  0.38684  0.70284  1.0000
  S   S178      1.0  0.23256  0.43757  0.85312  1.0000
  S   S179      1.0  0.21042  0.33853  0.59653  1.0000
  S   S180      1.0  0.20147  0.37958  0.63619  1.0000
  S   S181      1.0  0.21200  0.36475  0.53504  1.0000
  Fe  Fe89      1.0  0.32473  0.23025  0.95355  1.0000
  S   S182      1.0  0.33635  0.25059  0.93385  1.0000
  S   S183      1.0  0.32348  0.20573  0.93778  1.0000
  H   H1070     1.0  0.20979  0.14778  0.56163  1.0000
  S   S184      1.0  0.33115  0.27264  0.97428  1.0000
  C   C1326     1.0  0.19243  0.22375  0.51267  1.0000
  Fe  Fe90      1.0  0.32413  0.27732  0.94623  1.0000
  S   S185      1.0  0.31877  0.31042  0.92699  1.0000
  Fe  Fe91      1.0  0.34231  0.24368  0.96358  1.0000
  C   C1327     1.0  0.36098  0.18427  0.91045  1.0000
  S   S186      1.0  0.31201  0.25747  0.96406  1.0000
  C   C1328     1.0  0.35928  0.13202  0.98459  1.0000
  C   C1329     1.0  0.29852  0.45914  0.81098  1.0000
  Fe  Fe92      1.0  0.28375  0.35880  0.81043  1.0000
  S   S187      1.0  0.30013  0.35109  0.79046  1.0000
  S   S188      1.0  0.27142  0.33914  0.81704  1.0000
  Fe  Fe93      1.0  0.28908  0.39308  0.82496  1.0000
  S   S189      1.0  0.30601  0.38802  0.80688  1.0000
  S   S190      1.0  0.28220  0.41858  0.84371  1.0000
  Fe  Fe94      1.0  0.29881  0.38684  0.78097  1.0000
  S   S191      1.0  0.30337  0.40453  0.74723  1.0000
  Fe  Fe95      1.0  0.30590  0.35292  0.81813  1.0000
  S   S192      1.0  0.31922  0.32651  0.82949  1.0000
  S   S193      1.0  0.28182  0.39425  0.79833  1.0000
  S   S194      1.0  0.28960  0.35829  0.83871  1.0000
  Fe  Fe96      1.0  0.25472  0.02798  0.85790  1.0000
  S   S195      1.0  0.24249  0.03316  0.88734  1.0000
  S   S196      1.0  0.25841  0.05593  0.83130  1.0000
  Fe  Fe97      1.0  0.25529  0.01395  0.90482  1.0000
  S   S197      1.0  0.25678  0.02604  0.93217  1.0000
  S   S198      1.0  0.26777  0.01063  0.87527  1.0000
  H   H1071     1.0  0.19577  0.08850  0.87342  1.0000
  C   C1330     1.0  0.24600  0.37397  0.57503  1.0000
  Fe  Fe98      1.0  0.30075  0.11052  0.96085  1.0000
  S   S199      1.0  0.31114  0.09547  0.93416  1.0000
  S   S200      1.0  0.29209  0.14522  0.95676  1.0000
  Fe  Fe99      1.0  0.30348  0.06727  0.95010  1.0000
  S   S201      1.0  0.30033  0.04904  0.92935  1.0000
  Fe  Fe100     1.0  0.32259  0.08031  0.95569  1.0000
  C   C1331     1.0  0.24260  0.39586  0.57498  1.0000
  C   C1332     1.0  0.36666  0.22404  0.89182  1.0000
  C   C1333     1.0  0.38652  0.20114  0.93881  1.0000
  Fe  Fe101     1.0  0.22021  0.03840  0.73766  1.0000
  S   S202      1.0  0.20283  0.03887  0.75069  1.0000
  H   H1072     1.0  0.22690  0.47244  0.76302  1.0000
  Fe  Fe102     1.0  0.22020  0.07271  0.75920  1.0000
  S   S203      1.0  0.20276  0.07650  0.77390  1.0000
  S   S204      1.0  0.23066  0.09281  0.76180  1.0000
  Fe  Fe103     1.0  0.20618  0.04053  0.78090  1.0000
  C   C1334     1.0  0.31338  0.47933  0.81503  1.0000
  Fe  Fe104     1.0  0.20092  0.07469  0.74235  1.0000
  H   H1073     1.0  0.21582  0.24894  0.74925  1.0000
  S   S205      1.0  0.22375  0.03700  0.76858  1.0000
  S   S206      1.0  0.21813  0.07395  0.72697  1.0000
  H   H1074     1.0  0.24865  0.43265  0.53681  1.0000
  S   S207      1.0  0.21649  0.43970  0.71627  1.0000
  H   H1075     1.0  0.20135  0.46965  0.49185  1.0000
  S   S208      1.0  0.25031  0.99810  0.85685  1.0000
  C   C1335     1.0  0.25412  0.42610  0.77902  1.0000
  C   C1336     1.0  0.36893  0.21535  0.95820  1.0000
  P   P45       1.0  0.22869  0.43585  0.56810  1.0000
  C   C1337     1.0  0.34889  0.07919  0.95537  1.0000
  C   C1338     1.0  0.35946  0.08017  0.94516  1.0000
  C   C1339     1.0  0.36690  0.07934  0.95672  1.0000
  H   H1076     1.0  0.19946  0.01807  0.89330  1.0000
  H   H1077     1.0  0.23578  0.24914  0.50652  1.0000
  C   C1340     1.0  0.23372  0.19533  0.49921  1.0000
  H   H1078     1.0  0.36195  0.08106  0.92832  1.0000
  H   H1079     1.0  0.37509  0.07960  0.94881  1.0000
  H   H1080     1.0  0.33463  0.40419  0.73683  1.0000
  C   C1341     1.0  0.22974  0.37449  0.56563  1.0000
  C   C1342     1.0  0.25095  0.06484  0.81159  1.0000
  C   C1343     1.0  0.24345  0.05406  0.81097  1.0000
  C   C1344     1.0  0.23740  0.06221  0.79528  1.0000
  C   C1345     1.0  0.23862  0.08136  0.78065  1.0000
  C   C1346     1.0  0.24619  0.09198  0.78121  1.0000
  C   C1347     1.0  0.25243  0.08360  0.79645  1.0000
  H   H1081     1.0  0.24232  0.03948  0.82253  1.0000
  H   H1082     1.0  0.23172  0.05381  0.79462  1.0000
  H   H1083     1.0  0.24723  0.10670  0.76983  1.0000
  H   H1084     1.0  0.25829  0.09186  0.79674  1.0000
  C   C1348     1.0  0.26889  0.03237  0.93150  1.0000
  C   C1349     1.0  0.27819  0.02590  0.91705  1.0000
  C   C1350     1.0  0.28776  0.03079  0.91701  1.0000
  C   C1351     1.0  0.28813  0.04250  0.93111  1.0000
  C   C1352     1.0  0.27882  0.04915  0.94555  1.0000
  C   C1353     1.0  0.26926  0.04389  0.94586  1.0000
  H   H1085     1.0  0.27806  0.01682  0.90610  1.0000
  H   H1086     1.0  0.29493  0.02541  0.90598  1.0000
  H   H1087     1.0  0.27902  0.05816  0.95652  1.0000
  H   H1088     1.0  0.26210  0.04885  0.95718  1.0000
  P   P46       1.0  0.35811  0.15792  0.92220  1.0000
  H   H1089     1.0  0.23312  0.04287  0.63133  1.0000
  C   C1354     1.0  0.21802  0.03306  0.64110  1.0000
  C   C1355     1.0  0.34047  0.35860  0.81769  1.0000
  C   C1356     1.0  0.22134  0.19791  0.54934  1.0000
  C   C1357     1.0  0.27207  0.48087  0.65994  1.0000
  H   H1090     1.0  0.23976  0.43431  0.63245  1.0000
  C   C1358     1.0  0.30418  0.43144  0.74323  1.0000
  C   C1359     1.0  0.30591  0.43924  0.75902  1.0000
  C   C1360     1.0  0.30734  0.46034  0.75471  1.0000
  C   C1361     1.0  0.30681  0.47384  0.73479  1.0000
  C   C1362     1.0  0.30480  0.46620  0.71922  1.0000
  C   C1363     1.0  0.30356  0.44502  0.72342  1.0000
  H   H1091     1.0  0.30640  0.42893  0.77435  1.0000
  H   H1092     1.0  0.30891  0.46620  0.76675  1.0000
  H   H1093     1.0  0.30437  0.47651  0.70383  1.0000
  H   H1094     1.0  0.30203  0.43913  0.71137  1.0000
  Fe  Fe105     1.0  0.19871  0.36308  0.61343  1.0000
  S   S209      1.0  0.19276  0.38300  0.58452  1.0000
  C   C1364     1.0  0.34082  0.32343  0.98759  1.0000
  C   C1365     1.0  0.31906  0.31418  0.89990  1.0000
  C   C1366     1.0  0.31317  0.33330  0.88990  1.0000
  C   C1367     1.0  0.31290  0.33681  0.86852  1.0000
  C   C1368     1.0  0.31890  0.32157  0.85670  1.0000
  C   C1369     1.0  0.32501  0.30257  0.86653  1.0000
  C   C1370     1.0  0.32501  0.29878  0.88815  1.0000
  H   H1095     1.0  0.30874  0.34538  0.89882  1.0000
  H   H1096     1.0  0.30830  0.35159  0.86099  1.0000
  H   H1097     1.0  0.32972  0.29073  0.85745  1.0000
  H   H1098     1.0  0.32966  0.28404  0.89566  1.0000
  C   C1371     1.0  0.18938  0.11040  0.70274  1.0000
  C   C1372     1.0  0.19019  0.24955  0.57949  1.0000
  C   C1373     1.0  0.31450  0.18872  0.94935  1.0000
  C   C1374     1.0  0.30349  0.19686  0.95362  1.0000
  C   C1375     1.0  0.29649  0.18323  0.95709  1.0000
  C   C1376     1.0  0.30053  0.16151  0.95641  1.0000
  C   C1377     1.0  0.31149  0.15331  0.95338  1.0000
  C   C1378     1.0  0.31841  0.16687  0.94995  1.0000
  H   H1099     1.0  0.30043  0.21383  0.95283  1.0000
  H   H1100     1.0  0.28801  0.18966  0.95935  1.0000
  H   H1101     1.0  0.31473  0.13681  0.95226  1.0000
  H   H1102     1.0  0.32689  0.16057  0.94669  1.0000
  C   C1379     1.0  0.21257  0.34517  0.52154  1.0000
  H   H1103     1.0  0.22481  0.36625  0.56178  1.0000
  C   C1380     1.0  0.20240  0.15773  0.51488  1.0000
  H   H1104     1.0  0.19441  0.42424  0.61626  1.0000
  C   C1381     1.0  0.24629  0.43213  0.85120  1.0000
  C   C1382     1.0  0.25108  0.44778  0.85258  1.0000
  C   C1383     1.0  0.26208  0.44322  0.85129  1.0000
  C   C1384     1.0  0.26834  0.42343  0.84754  1.0000
  C   C1385     1.0  0.26353  0.40779  0.84615  1.0000
  C   C1386     1.0  0.25248  0.41202  0.84833  1.0000
  H   H1105     1.0  0.24630  0.46328  0.85494  1.0000
  H   H1106     1.0  0.26579  0.45523  0.85254  1.0000
  H   H1107     1.0  0.26831  0.39239  0.84343  1.0000
  H   H1108     1.0  0.24878  0.39995  0.84712  1.0000
  C   C1387     1.0  0.25436  0.34379  0.76526  1.0000
  C   C1388     1.0  0.25328  0.32810  0.78395  1.0000
  C   C1389     1.0  0.25861  0.32681  0.79961  1.0000
  C   C1390     1.0  0.26506  0.34121  0.79674  1.0000
  C   C1391     1.0  0.26622  0.35686  0.77802  1.0000
  C   C1392     1.0  0.26092  0.35805  0.76219  1.0000
  H   H1109     1.0  0.24826  0.31701  0.78636  1.0000
  H   H1110     1.0  0.25770  0.31467  0.81404  1.0000
  H   H1111     1.0  0.27116  0.36808  0.77577  1.0000
  H   H1112     1.0  0.26189  0.37001  0.74762  1.0000
  C   C1393     1.0  0.27283  0.45030  0.68957  1.0000
  H   H1113     1.0  0.26365  0.45552  0.66622  1.0000
  H   H1114     1.0  0.28268  0.44955  0.71029  1.0000
  C   C1394     1.0  0.23406  0.38493  0.64168  1.0000
  C   C1395     1.0  0.22463  0.39547  0.65312  1.0000
  C   C1396     1.0  0.21473  0.39368  0.65116  1.0000
  C   C1397     1.0  0.21415  0.38138  0.63777  1.0000
  C   C1398     1.0  0.22358  0.37107  0.62605  1.0000
  C   C1399     1.0  0.23349  0.37291  0.62799  1.0000
  H   H1115     1.0  0.22493  0.40514  0.66339  1.0000
  H   H1116     1.0  0.20748  0.40187  0.66012  1.0000
  H   H1117     1.0  0.22322  0.36161  0.61563  1.0000
  H   H1118     1.0  0.24075  0.36468  0.61916  1.0000
  H   H1119     1.0  0.22492  0.35272  0.81067  1.0000
  H   H1120     1.0  0.21672  0.39645  0.74220  1.0000
  C   C1400     1.0  0.34618  0.30432  0.98113  1.0000
  C   C1401     1.0  0.22637  0.39640  0.56533  1.0000
  C   C1402     1.0  0.19367  0.45746  0.54529  1.0000
  C   C1403     1.0  0.30441  0.04940  0.86516  1.0000
  C   C1404     1.0  0.30158  0.03268  0.86064  1.0000
  C   C1405     1.0  0.29123  0.03499  0.85840  1.0000
  C   C1406     1.0  0.28366  0.05388  0.86093  1.0000
  C   C1407     1.0  0.28639  0.07065  0.86579  1.0000
  C   C1408     1.0  0.29690  0.06842  0.86745  1.0000
  P   P47       1.0  0.27680  0.09562  0.86745  1.0000
  C   C1409     1.0  0.28006  0.11013  0.88314  1.0000
  C   C1410     1.0  0.27634  0.11139  0.84106  1.0000
  C   C1411     1.0  0.26761  0.12838  0.83765  1.0000
  C   C1412     1.0  0.26688  0.13987  0.81715  1.0000
  C   C1413     1.0  0.27486  0.13450  0.79991  1.0000
  C   C1414     1.0  0.28362  0.11773  0.80319  1.0000
  C   C1415     1.0  0.28438  0.10621  0.82367  1.0000
  C   C1416     1.0  0.28371  0.09896  0.90161  1.0000
  C   C1417     1.0  0.28591  0.10987  0.91434  1.0000
  C   C1418     1.0  0.28455  0.13213  0.90873  1.0000
  C   C1419     1.0  0.28097  0.14348  0.89030  1.0000
  C   C1420     1.0  0.27875  0.13254  0.87751  1.0000
  C   C1421     1.0  0.26387  0.08952  0.88005  1.0000
  C   C1422     1.0  0.26038  0.08569  0.90213  1.0000
  C   C1423     1.0  0.25042  0.08074  0.91168  1.0000
  C   C1424     1.0  0.24388  0.07948  0.89933  1.0000
  C   C1425     1.0  0.24732  0.08302  0.87737  1.0000
  C   C1426     1.0  0.25730  0.08783  0.86778  1.0000
  H   H1121     1.0  0.31238  0.04749  0.86728  1.0000
  C   C1427     1.0  0.24468  0.00263  0.79347  1.0000
  H   H1122     1.0  0.28903  0.02202  0.85490  1.0000
  H   H1123     1.0  0.27569  0.05529  0.85908  1.0000
  H   H1124     1.0  0.29932  0.08119  0.87075  1.0000
  H   H1125     1.0  0.26132  0.13248  0.85089  1.0000
  H   H1126     1.0  0.26006  0.15277  0.81458  1.0000
  H   H1127     1.0  0.27424  0.14321  0.78399  1.0000
  H   H1128     1.0  0.28977  0.11342  0.78982  1.0000
  H   H1129     1.0  0.29116  0.09308  0.82580  1.0000
  H   H1130     1.0  0.28479  0.08173  0.90625  1.0000
  H   H1131     1.0  0.28866  0.10096  0.92863  1.0000
  H   H1132     1.0  0.28624  0.14052  0.91875  1.0000
  H   H1133     1.0  0.27987  0.16076  0.88603  1.0000
  H   H1134     1.0  0.27598  0.14165  0.86338  1.0000
  H   H1135     1.0  0.26540  0.08578  0.91218  1.0000
  H   H1136     1.0  0.24799  0.07682  0.92877  1.0000
  H   H1137     1.0  0.23635  0.07479  0.90686  1.0000
  H   H1138     1.0  0.24249  0.08103  0.86781  1.0000
  H   H1139     1.0  0.26001  0.08950  0.85084  1.0000
  C   C1428     1.0  0.37888  0.10736  0.89844  1.0000
  C   C1429     1.0  0.21279  0.35089  0.49986  1.0000
  C   C1430     1.0  0.23676  0.42773  0.80243  1.0000
  C   C1431     1.0  0.22315  0.16568  0.58603  1.0000
  C   C1432     1.0  0.19994  0.45117  0.81051  1.0000
  H   H1140     1.0  0.20640  0.10207  0.69867  1.0000
  C   C1433     1.0  0.32970  0.15189  0.89968  1.0000
  C   C1434     1.0  0.33682  0.44892  0.76110  1.0000
  C   C1435     1.0  0.33321  0.45410  0.74238  1.0000
  C   C1436     1.0  0.33245  0.43784  0.73381  1.0000
  C   C1437     1.0  0.33512  0.41638  0.74410  1.0000
  C   C1438     1.0  0.33831  0.41104  0.76345  1.0000
  C   C1439     1.0  0.33952  0.42747  0.77142  1.0000
  C   C1440     1.0  0.32931  0.37071  0.84899  1.0000
  C   C1441     1.0  0.32569  0.39055  0.83644  1.0000
  C   C1442     1.0  0.32945  0.39445  0.81449  1.0000
  H   H1141     1.0  0.32295  0.44749  0.82245  1.0000
  C   C1443     1.0  0.19847  0.43569  0.54910  1.0000
  H   H1142     1.0  0.32953  0.44194  0.71939  1.0000
  H   H1143     1.0  0.34251  0.42371  0.78569  1.0000
  H   H1144     1.0  0.32622  0.36745  0.86594  1.0000
  H   H1145     1.0  0.31980  0.40271  0.84372  1.0000
  H   H1146     1.0  0.32622  0.40953  0.80498  1.0000
  C   C1444     1.0  0.30008  0.39004  0.91387  1.0000
  C   C1445     1.0  0.30353  0.39652  0.89202  1.0000
  C   C1446     1.0  0.29899  0.39122  0.87833  1.0000
  C   C1447     1.0  0.29113  0.37918  0.88643  1.0000
  C   C1448     1.0  0.28786  0.37204  0.90830  1.0000
  C   C1449     1.0  0.29214  0.37816  0.92200  1.0000
  P   P48       1.0  0.27724  0.35770  0.91870  1.0000
  C   C1450     1.0  0.27710  0.34308  0.89982  1.0000
  C   C1451     1.0  0.27950  0.33728  0.94205  1.0000
  C   C1452     1.0  0.28982  0.32890  0.94580  1.0000
  H   H1147     1.0  0.20310  0.44470  0.95946  1.0000
  C   C1453     1.0  0.21012  0.46606  0.57825  1.0000
  S   S210      1.0  0.33168  0.22119  0.98222  1.0000
  C   C1454     1.0  0.27749  0.49519  0.84482  1.0000
  C   C1455     1.0  0.28611  0.32738  0.89392  1.0000
  C   C1456     1.0  0.28625  0.31575  0.87939  1.0000
  C   C1457     1.0  0.27741  0.31974  0.87059  1.0000
  C   C1458     1.0  0.26841  0.33529  0.87638  1.0000
  C   C1459     1.0  0.26817  0.34674  0.89116  1.0000
  C   C1460     1.0  0.26540  0.37849  0.92296  1.0000
  C   C1461     1.0  0.26224  0.39378  0.90551  1.0000
  C   C1462     1.0  0.25986  0.38093  0.94344  1.0000
  H   H1148     1.0  0.30349  0.39436  0.92453  1.0000
  H   H1149     1.0  0.30959  0.40591  0.88572  1.0000
  H   H1150     1.0  0.30137  0.39670  0.86139  1.0000
  H   H1151     1.0  0.28752  0.37573  0.87556  1.0000
  H   H1152     1.0  0.28938  0.37369  0.93897  1.0000
  H   H1153     1.0  0.29660  0.33449  0.93488  1.0000
  H   H1154     1.0  0.19163  0.27715  0.50222  1.0000
  H   H1155     1.0  0.21753  0.42653  0.93415  1.0000
  H   H1156     1.0  0.21456  0.47795  0.56833  1.0000
  H   H1157     1.0  0.18692  0.12757  0.77978  1.0000
  H   H1158     1.0  0.29307  0.32430  0.90037  1.0000
  H   H1159     1.0  0.29335  0.30418  0.87439  1.0000
  H   H1160     1.0  0.27765  0.31138  0.85872  1.0000
  H   H1161     1.0  0.26175  0.33882  0.86890  1.0000
  H   H1162     1.0  0.26104  0.35846  0.89552  1.0000
  C   C1463     1.0  0.20150  0.15468  0.53657  1.0000
  H   H1163     1.0  0.26251  0.37027  0.95719  1.0000
  C   C1464     1.0  0.22313  0.36246  0.79584  1.0000
  H   H1164     1.0  0.31911  0.48717  0.81672  1.0000
  C   C1465     1.0  0.21225  0.19420  0.56503  1.0000
  C   C1466     1.0  0.33427  0.13524  0.91443  1.0000
  H   H1165     1.0  0.24766  0.44692  0.80102  1.0000
  C   C1467     1.0  0.20279  0.34605  0.73408  1.0000
  H   H1166     1.0  0.32319  0.15007  0.89422  1.0000
  H   H1167     1.0  0.35437  0.19735  0.93864  1.0000
  C   C1468     1.0  0.19336  0.42120  0.83519  1.0000
  C   C1469     1.0  0.24183  0.45999  0.57271  1.0000
  C   C1470     1.0  0.21264  0.32390  0.53230  1.0000
  C   C1471     1.0  0.19888  0.38482  0.72804  1.0000
  C   C1472     1.0  0.34394  0.34440  0.76645  1.0000
  H   H1168     1.0  0.23078  0.43439  0.81474  1.0000
  C   C1473     1.0  0.34573  0.07768  0.97719  1.0000
  H   H1169     1.0  0.36201  0.11832  0.90582  1.0000
  C   C1474     1.0  0.33047  0.33611  0.75414  1.0000
  C   C1475     1.0  0.20570  0.12190  0.80761  1.0000
  H   H1170     1.0  0.21190  0.02242  0.68510  1.0000
  H   H1171     1.0  0.18802  0.29948  0.66144  1.0000
  C   C1476     1.0  0.22069  0.30320  0.75110  1.0000
  C   C1477     1.0  0.21922  0.30043  0.73223  1.0000
  C   C1478     1.0  0.36382  0.07698  0.97865  1.0000
  P   P49       1.0  0.21963  0.32217  0.70909  1.0000
  C   C1479     1.0  0.21478  0.31699  0.68883  1.0000
  C   C1480     1.0  0.21144  0.34659  0.71663  1.0000
  H   H1172     1.0  0.24083  0.42549  0.93104  1.0000
  C   C1481     1.0  0.22908  0.03014  0.63347  1.0000
  C   C1482     1.0  0.21306  0.01612  0.64384  1.0000
  H   H1173     1.0  0.36831  0.17674  0.87971  1.0000
  C   C1483     1.0  0.21347  0.36642  0.70457  1.0000
  C   C1484     1.0  0.22081  0.30077  0.67799  1.0000
  C   C1485     1.0  0.21752  0.29755  0.66133  1.0000
  C   C1486     1.0  0.20828  0.31062  0.65523  1.0000
  C   C1487     1.0  0.20225  0.32677  0.66592  1.0000
  C   C1488     1.0  0.20547  0.33001  0.68262  1.0000
  C   C1489     1.0  0.23315  0.32563  0.69774  1.0000
  C   C1490     1.0  0.24041  0.32209  0.71059  1.0000
  C   C1491     1.0  0.25080  0.32499  0.70159  1.0000
  C   C1492     1.0  0.25405  0.33145  0.67974  1.0000
  C   C1493     1.0  0.24692  0.33491  0.66683  1.0000
  C   C1494     1.0  0.23648  0.33240  0.67575  1.0000
  S   S211      1.0  0.23334  0.48778  0.80339  1.0000
  C   C1495     1.0  0.19483  0.46963  0.52461  1.0000
  H   H1174     1.0  0.19518  0.24419  0.62780  1.0000
  H   H1175     1.0  0.22198  0.31829  0.75196  1.0000
  H   H1176     1.0  0.20453  0.01804  0.64982  1.0000
  H   H1177     1.0  0.26315  0.33375  0.95261  1.0000
  C   C1496     1.0  0.20727  0.38546  0.71031  1.0000
  H   H1178     1.0  0.19522  0.33729  0.66086  1.0000
  H   H1179     1.0  0.26672  0.39293  0.88958  1.0000
  H   H1180     1.0  0.21991  0.36714  0.69075  1.0000
  H   H1181     1.0  0.22816  0.29089  0.68216  1.0000
  H   H1182     1.0  0.22221  0.28516  0.65285  1.0000
  H   H1183     1.0  0.20587  0.30841  0.64203  1.0000
  C   C1497     1.0  0.22394  0.46010  0.52921  1.0000
  H   H1184     1.0  0.20081  0.34311  0.69010  1.0000
  H   H1185     1.0  0.23814  0.31752  0.72757  1.0000
  H   H1186     1.0  0.25626  0.32270  0.71167  1.0000
  H   H1187     1.0  0.26200  0.33424  0.67283  1.0000
  H   H1188     1.0  0.24940  0.34031  0.64991  1.0000
  H   H1189     1.0  0.23100  0.33617  0.66539  1.0000
  C   C1498     1.0  0.30232  0.19046  0.86182  1.0000
  C   C1499     1.0  0.30241  0.17530  0.88086  1.0000
  C   C1500     1.0  0.30397  0.18063  0.89826  1.0000
  C   C1501     1.0  0.30546  0.20107  0.89668  1.0000
  C   C1502     1.0  0.30488  0.21670  0.87795  1.0000
  C   C1503     1.0  0.30363  0.21105  0.86029  1.0000
  P   P50       1.0  0.30704  0.24289  0.87601  1.0000
  C   C1504     1.0  0.30048  0.25286  0.89976  1.0000
  C   C1505     1.0  0.32130  0.23983  0.87029  1.0000
  C   C1506     1.0  0.32658  0.23818  0.88618  1.0000
  C   C1507     1.0  0.33766  0.23502  0.88172  1.0000
  C   C1508     1.0  0.34356  0.23346  0.86138  1.0000
  C   C1509     1.0  0.33838  0.23478  0.84552  1.0000
  C   C1510     1.0  0.32729  0.23778  0.84999  1.0000
  C   C1511     1.0  0.30364  0.26962  0.90364  1.0000
  C   C1512     1.0  0.29863  0.27761  0.92188  1.0000
  C   C1513     1.0  0.29025  0.26924  0.93618  1.0000
  C   C1514     1.0  0.28682  0.25300  0.93215  1.0000
  C   C1515     1.0  0.29185  0.24493  0.91392  1.0000
  C   C1516     1.0  0.30143  0.26252  0.85529  1.0000
  C   C1517     1.0  0.29143  0.26242  0.85245  1.0000
  C   C1518     1.0  0.28713  0.27747  0.83621  1.0000
  C   C1519     1.0  0.29268  0.29291  0.82300  1.0000
  C   C1520     1.0  0.30243  0.29357  0.82625  1.0000
  C   C1521     1.0  0.30676  0.27859  0.84244  1.0000
  H   H1190     1.0  0.30133  0.18617  0.84819  1.0000
  H   H1191     1.0  0.30147  0.15928  0.88209  1.0000
  H   H1192     1.0  0.30425  0.16875  0.91291  1.0000
  H   H1193     1.0  0.30712  0.20464  0.91003  1.0000
  H   H1194     1.0  0.30377  0.22243  0.84529  1.0000
  H   H1195     1.0  0.32219  0.23906  0.90210  1.0000
  H   H1196     1.0  0.34166  0.23353  0.89418  1.0000
  H   H1197     1.0  0.35213  0.23108  0.85797  1.0000
  H   H1198     1.0  0.34296  0.23342  0.82979  1.0000
  H   H1199     1.0  0.32339  0.23855  0.83763  1.0000
  H   H1200     1.0  0.31001  0.27645  0.89256  1.0000
  H   H1201     1.0  0.30133  0.29016  0.92500  1.0000
  H   H1202     1.0  0.28645  0.27530  0.95041  1.0000
  H   H1203     1.0  0.28033  0.24649  0.94326  1.0000
  H   H1204     1.0  0.28900  0.23249  0.91104  1.0000
  H   H1205     1.0  0.28697  0.25073  0.86277  1.0000
  H   H1206     1.0  0.27942  0.27745  0.83396  1.0000
  H   H1207     1.0  0.28934  0.30465  0.81047  1.0000
  H   H1208     1.0  0.30660  0.30588  0.81633  1.0000
  H   H1209     1.0  0.31421  0.27982  0.84495  1.0000
  H   H1210     1.0  0.33070  0.33628  0.66701  1.0000
  C   C1522     1.0  0.20538  0.46643  0.89916  1.0000
  C   C1523     1.0  0.21058  0.14993  0.54477  1.0000
  H   H1211     1.0  0.25756  0.45227  0.73909  1.0000
  C   C1524     1.0  0.36914  0.20846  0.87989  1.0000
  C   C1525     1.0  0.21000  0.43787  0.80588  1.0000
  H   H1212     1.0  0.31552  0.44457  0.67668  1.0000
  C   C1526     1.0  0.24626  0.43494  0.79460  1.0000
  H   H1213     1.0  0.19424  0.06853  0.58651  1.0000
  H   H1214     1.0  0.29092  0.35475  0.67950  1.0000
  H   H1215     1.0  0.30923  0.21207  0.98613  1.0000
  C   C1527     1.0  0.36221  0.37626  0.78583  1.0000
  C   C1528     1.0  0.33763  0.36495  0.76772  1.0000
  H   H1216     1.0  0.33746  0.46159  0.76761  1.0000
  S   S212      1.0  0.18716  0.17592  0.58316  1.0000
  C   C1529     1.0  0.24508  0.45109  0.50704  1.0000
  C   C1530     1.0  0.38627  0.23147  0.98403  1.0000
  C   C1531     1.0  0.23953  0.36326  0.57050  1.0000
  C   C1532     1.0  0.34269  0.13734  0.92165  1.0000
  H   H1217     1.0  0.34565  0.30201  0.96617  1.0000
  H   H1218     1.0  0.21866  0.25400  0.78226  1.0000
  H   H1219     1.0  0.20781  0.40899  0.53545  1.0000
  C   C1533     1.0  0.21974  0.36472  0.76168  1.0000
  H   H1220     1.0  0.27056  0.43880  0.79294  1.0000
  H   H1221     1.0  0.20620  0.17591  0.59572  1.0000
  C   C1534     1.0  0.31554  0.45700  0.81828  1.0000
  C   C1535     1.0  0.37859  0.21856  0.94450  1.0000
  C   C1536     1.0  0.24644  0.45701  0.60593  1.0000
  C   C1537     1.0  0.33341  0.17088  0.89238  1.0000
  H   H1222     1.0  0.36853  0.12553  0.95472  1.0000
  H   H1223     1.0  0.28795  0.00416  0.96625  1.0000
  C   C1538     1.0  0.36211  0.37523  0.75021  1.0000
  C   C1539     1.0  0.20173  0.12277  0.67061  1.0000
  C   C1540     1.0  0.20025  0.99557  0.81752  1.0000
  H   H1224     1.0  0.31641  0.36111  0.75138  1.0000
  C   C1541     1.0  0.37546  0.17678  0.96128  1.0000
  C   C1542     1.0  0.35505  0.15227  0.95081  1.0000
  H   H1225     1.0  0.34520  0.31416  0.75897  1.0000
  C   C1543     1.0  0.23719  0.46402  0.49639  1.0000
  H   H1226     1.0  0.33966  0.34839  0.62973  1.0000
  H   H1227     1.0  0.21774  0.99838  0.75589  1.0000
  C   C1544     1.0  0.23770  0.11798  0.83310  1.0000
  C   C1545     1.0  0.23560  0.13424  0.84406  1.0000
  C   C1546     1.0  0.22508  0.14420  0.85157  1.0000
  C   C1547     1.0  0.21665  0.13777  0.84828  1.0000
  C   C1548     1.0  0.21871  0.12124  0.83750  1.0000
  C   C1549     1.0  0.22931  0.11151  0.82982  1.0000
  P   P51       1.0  0.20803  0.11166  0.83407  1.0000
  C   C1550     1.0  0.25023  0.48340  0.74651  1.0000
  H   H1228     1.0  0.22174  0.28877  0.78344  1.0000
  H   H1229     1.0  0.24364  0.00827  0.62334  1.0000
  H   H1230     1.0  0.19859  0.46793  0.80262  1.0000
  C   C1551     1.0  0.28263  0.47762  0.68503  1.0000
  C   C1552     1.0  0.22051  0.28652  0.76903  1.0000
  C   C1553     1.0  0.19572  0.11977  0.85226  1.0000
  H   H1231     1.0  0.33761  0.07684  0.98519  1.0000
  C   C1554     1.0  0.26893  0.46167  0.67147  1.0000
  C   C1555     1.0  0.29633  0.48159  0.80737  1.0000
  H   H1232     1.0  0.18996  0.11503  0.81613  1.0000
  C   C1556     1.0  0.24713  0.46632  0.58443  1.0000
  C   C1557     1.0  0.21219  0.08288  0.83932  1.0000
  C   C1558     1.0  0.21618  0.07198  0.85750  1.0000
  C   C1559     1.0  0.21963  0.04974  0.86152  1.0000
  C   C1560     1.0  0.21939  0.03823  0.84724  1.0000
  C   C1561     1.0  0.21555  0.04903  0.82904  1.0000
  C   C1562     1.0  0.21196  0.07126  0.82504  1.0000
  H   H1233     1.0  0.24584  0.11001  0.82747  1.0000
  H   H1234     1.0  0.24211  0.13896  0.84691  1.0000
  H   H1235     1.0  0.22345  0.15672  0.86017  1.0000
  C   C1563     1.0  0.24231  0.49249  0.71002  1.0000
  H   H1236     1.0  0.23108  0.09862  0.82157  1.0000
  H   H1237     1.0  0.19518  0.40432  0.51684  1.0000
  C   C1564     1.0  0.23590  0.44407  0.58244  1.0000
  H   H1238     1.0  0.22763  0.14504  0.53757  1.0000
  C   C1565     1.0  0.37996  0.14265  0.91201  1.0000
  H   H1239     1.0  0.22128  0.12921  0.79326  1.0000
  C   C1566     1.0  0.20705  0.23038  0.52303  1.0000
  H   H1240     1.0  0.19068  0.20272  0.67409  1.0000
  H   H1241     1.0  0.38052  0.15601  0.91762  1.0000
  C   C1567     1.0  0.20215  0.13602  0.76635  1.0000
  C   C1568     1.0  0.22965  0.40807  0.51014  1.0000
  H   H1242     1.0  0.21663  0.08064  0.86858  1.0000
  H   H1243     1.0  0.22252  0.04136  0.87571  1.0000
  H   H1244     1.0  0.22216  0.02095  0.85026  1.0000
  H   H1245     1.0  0.21557  0.04022  0.81775  1.0000
  H   H1246     1.0  0.20928  0.07921  0.81056  1.0000
  H   H1247     1.0  0.21284  0.41225  0.59822  1.0000
  C   C1569     1.0  0.36126  0.21990  0.91290  1.0000
  C   C1570     1.0  0.25258  0.41006  0.77135  1.0000
  C   C1571     1.0  0.24327  0.40230  0.77968  1.0000
  C   C1572     1.0  0.23521  0.41132  0.79506  1.0000
  C   C1573     1.0  0.27597  0.45856  0.76249  1.0000
  P   P52       1.0  0.22438  0.39823  0.80884  1.0000
  C   C1574     1.0  0.22218  0.38474  0.79111  1.0000
  C   C1575     1.0  0.22910  0.38095  0.83166  1.0000
  C   C1576     1.0  0.23783  0.36372  0.82909  1.0000
  C   C1577     1.0  0.24227  0.35153  0.84631  1.0000
  C   C1578     1.0  0.23816  0.35674  0.86614  1.0000
  C   C1579     1.0  0.22971  0.37435  0.86866  1.0000
  C   C1580     1.0  0.22526  0.38655  0.85146  1.0000
  C   C1581     1.0  0.21969  0.39693  0.77181  1.0000
  C   C1582     1.0  0.27961  0.48372  0.78595  1.0000
  C   C1583     1.0  0.21323  0.30841  0.52120  1.0000
  C   C1584     1.0  0.35653  0.37755  0.77067  1.0000
  H   H1248     1.0  0.30751  0.47609  0.65189  1.0000
  H   H1249     1.0  0.25875  0.40337  0.75921  1.0000
  H   H1250     1.0  0.24250  0.38892  0.77443  1.0000
  H   H1251     1.0  0.24146  0.36017  0.81361  1.0000
  H   H1252     1.0  0.24913  0.33848  0.84403  1.0000
  H   H1253     1.0  0.24171  0.34753  0.87939  1.0000
  H   H1254     1.0  0.22684  0.37906  0.88375  1.0000
  H   H1255     1.0  0.21917  0.40087  0.85348  1.0000
  H   H1256     1.0  0.21894  0.41416  0.76781  1.0000
  C   C1585     1.0  0.36161  0.13568  0.96249  1.0000
  C   C1586     1.0  0.21358  0.12949  0.79082  1.0000
  H   H1257     1.0  0.19995  0.01449  0.71977  1.0000
  H   H1258     1.0  0.24231  0.46771  0.55621  1.0000
  H   H1259     1.0  0.34601  0.12438  0.93340  1.0000
  C   C1587     1.0  0.21176  0.44036  0.92838  1.0000
  H   H1260     1.0  0.26147  0.43144  0.77286  1.0000
  C   C1588     1.0  0.23908  0.39361  0.51393  1.0000
  H   H1261     1.0  0.22323  0.33522  0.78430  1.0000
  C   C1589     1.0  0.21452  0.45655  0.73368  1.0000
  C   C1590     1.0  0.23268  0.40720  0.57037  1.0000
  C   C1591     1.0  0.20445  0.46975  0.73826  1.0000
  H   H1262     1.0  0.21568  0.46316  0.53724  1.0000
  Fe  Fe106     1.0  0.22690  0.47158  0.83689  1.0000
  C   C1592     1.0  0.23226  0.16946  0.57065  1.0000
  C   C1593     1.0  0.29158  0.31286  0.96365  1.0000
  C   C1594     1.0  0.19639  0.27193  0.60238  1.0000
  H   H1263     1.0  0.35156  0.33931  0.77096  1.0000
  H   H1264     1.0  0.21924  0.35703  0.74989  1.0000
  H   H1265     1.0  0.25051  0.46192  0.61507  1.0000
  H   H1266     1.0  0.32765  0.32503  0.74896  1.0000
  C   C1595     1.0  0.38506  0.18019  0.94728  1.0000
  H   H1267     1.0  0.20447  0.20420  0.56363  1.0000
  C   C1596     1.0  0.19095  0.09767  0.59742  1.0000
  H   H1268     1.0  0.18931  0.08133  0.66828  1.0000
  H   H1269     1.0  0.28480  0.33513  0.71586  1.0000
  H   H1270     1.0  0.23039  0.42312  0.61193  1.0000
  C   C1597     1.0  0.22157  0.15110  0.50942  1.0000
  Fe  Fe107     1.0  0.19684  0.32181  0.60508  1.0000
  H   H1271     1.0  0.35809  0.37860  0.80155  1.0000
  H   H1272     1.0  0.24209  0.34626  0.57073  1.0000
  H   H1273     1.0  0.25358  0.36524  0.57890  1.0000
  H   H1274     1.0  0.22882  0.00838  0.81267  1.0000
  H   H1275     1.0  0.25009  0.46004  0.70764  1.0000
  P   P53       1.0  0.22037  0.22077  0.52750  1.0000
  H   H1276     1.0  0.20859  0.14547  0.85451  1.0000
  C   C1598     1.0  0.19602  0.46852  0.93522  1.0000
  H   H1277     1.0  0.20709  0.26380  0.51866  1.0000
  C   C1599     1.0  0.19426  0.12855  0.78299  1.0000
  H   H1278     1.0  0.21312  0.29206  0.52954  1.0000
  H   H1279     1.0  0.20027  0.12778  0.49802  1.0000
  H   H1280     1.0  0.19370  0.15622  0.54697  1.0000
  C   C1600     1.0  0.21177  0.13660  0.77030  1.0000
  H   H1281     1.0  0.19697  0.04759  0.86214  1.0000
  H   H1282     1.0  0.29292  0.45079  0.80977  1.0000
  C   C1601     1.0  0.22062  0.47157  0.75626  1.0000
  C   C1602     1.0  0.19581  0.28073  0.58121  1.0000
  H   H1283     1.0  0.21806  0.14152  0.75726  1.0000
  C   C1603     1.0  0.21844  0.38694  0.75721  1.0000
  C   C1604     1.0  0.22423  0.24090  0.53545  1.0000
  C   C1605     1.0  0.21951  0.24523  0.55563  1.0000
  C   C1606     1.0  0.22259  0.26019  0.56250  1.0000
  C   C1607     1.0  0.23034  0.27109  0.54920  1.0000
  C   C1608     1.0  0.23504  0.26699  0.52904  1.0000
  C   C1609     1.0  0.19821  0.09515  0.62738  1.0000
  C   C1610     1.0  0.28168  0.48963  0.76378  1.0000
  C   C1611     1.0  0.19163  0.44287  0.82518  1.0000
  C   C1612     1.0  0.30805  0.44695  0.81641  1.0000
  H   H1284     1.0  0.37751  0.36929  0.72931  1.0000
  C   C1613     1.0  0.20339  0.40784  0.83048  1.0000
  C   C1614     1.0  0.20438  0.42601  0.53226  1.0000
  H   H1285     1.0  0.19204  0.27670  0.55361  1.0000
  C   C1615     1.0  0.22061  0.14831  0.53118  1.0000
  H   H1286     1.0  0.33117  0.12078  0.92050  1.0000
  H   H1287     1.0  0.23854  0.18941  0.54142  1.0000
  C   C1616     1.0  0.20308  0.25245  0.51711  1.0000
  H   H1288     1.0  0.20462  0.04704  0.61315  1.0000
  S   S213      1.0  0.20993  0.48096  0.83382  1.0000
  H   H1289     1.0  0.21336  0.23720  0.56605  1.0000
  H   H1290     1.0  0.21877  0.26366  0.57797  1.0000
  H   H1291     1.0  0.23246  0.28318  0.55428  1.0000
  H   H1292     1.0  0.28818  0.48325  0.69000  1.0000
  C   C1617     1.0  0.35322  0.07646  0.98878  1.0000
  C   C1618     1.0  0.32410  0.35639  0.75563  1.0000
  C   C1619     1.0  0.36951  0.12152  0.90561  1.0000
  H   H1293     1.0  0.30946  0.42969  0.81927  1.0000
  H   H1294     1.0  0.22938  0.15032  0.49924  1.0000
  H   H1295     1.0  0.19210  0.30959  0.51703  1.0000
  C   C1620     1.0  0.24840  0.47224  0.71666  1.0000
  H   H1296     1.0  0.28396  0.34977  0.74642  1.0000
  H   H1297     1.0  0.36899  0.23926  0.88485  1.0000
  Fe  Fe108     1.0  0.20323  0.35679  0.56862  1.0000
  H   H1298     1.0  0.31134  0.40931  0.68176  1.0000
  H   H1299     1.0  0.28174  0.48113  0.73506  1.0000
  H   H1300     1.0  0.26924  0.48947  0.64572  1.0000
  C   C1621     1.0  0.20553  0.43804  0.51140  1.0000
  C   C1622     1.0  0.18786  0.04302  0.71343  1.0000
  H   H1301     1.0  0.23046  0.44731  0.73920  1.0000
  H   H1302     1.0  0.24772  0.40381  0.57860  1.0000
  H   H1303     1.0  0.29555  0.47214  0.63175  1.0000
  C   C1623     1.0  0.27963  0.45836  0.69635  1.0000
  H   H1304     1.0  0.20982  0.12312  0.66208  1.0000
  H   H1305     1.0  0.37431  0.16063  0.96792  1.0000
  C   C1624     1.0  0.19980  0.11079  0.69141  1.0000
  C   C1625     1.0  0.20127  0.05190  0.67339  1.0000
  H   H1306     1.0  0.20624  0.47297  0.88231  1.0000
  C   C1626     1.0  0.27347  0.45315  0.78458  1.0000
  C   C1627     1.0  0.36999  0.13928  0.91253  1.0000
  C   C1628     1.0  0.18991  0.14101  0.84820  1.0000
  H   H1307     1.0  0.25047  0.36513  0.50674  1.0000
  H   H1308     1.0  0.27263  0.49319  0.87845  1.0000
  S   S214      1.0  0.31576  0.05090  0.96976  1.0000
  C   C1629     1.0  0.23205  0.25188  0.52220  1.0000
  C   C1630     1.0  0.23138  0.18579  0.55256  1.0000
  C   C1631     1.0  0.21246  0.15536  0.50113  1.0000
  H   H1309     1.0  0.21885  0.40486  0.56112  1.0000
  C   C1632     1.0  0.21720  0.26409  0.74976  1.0000
  C   C1633     1.0  0.35840  0.20014  0.92222  1.0000
  C   C1634     1.0  0.34193  0.17294  0.89935  1.0000
  C   C1635     1.0  0.26093  0.02291  0.75376  1.0000
  C   C1636     1.0  0.25214  0.02860  0.74423  1.0000
  C   C1637     1.0  0.24865  0.04981  0.73425  1.0000
  C   C1638     1.0  0.25373  0.06562  0.73407  1.0000
  C   C1639     1.0  0.26236  0.06020  0.74380  1.0000
  C   C1640     1.0  0.26597  0.03892  0.75359  1.0000
  H   H1310     1.0  0.32633  0.48421  0.50716  1.0000
  H   H1311     1.0  0.21233  0.31933  0.54911  1.0000
  C   C1641     1.0  0.25097  0.39772  0.94633  1.0000
  S   S215      1.0  0.35950  0.23802  0.96535  1.0000
  C   C1642     1.0  0.27894  0.48885  0.66671  1.0000
  H   H1312     1.0  0.24531  0.01910  0.79047  1.0000
  C   C1643     1.0  0.27285  0.31228  0.97368  1.0000
  S   S216      1.0  0.19955  0.28611  0.61758  1.0000
  C   C1644     1.0  0.21181  0.41615  0.81598  1.0000
  C   C1645     1.0  0.24766  0.41238  0.92884  1.0000
  H   H1313     1.0  0.20904  0.40075  0.70111  1.0000
  H   H1314     1.0  0.31291  0.35594  0.68161  1.0000
  C   C1646     1.0  0.33665  0.35470  0.83959  1.0000
  C   C1647     1.0  0.34590  0.16435  0.96168  1.0000
  H   H1315     1.0  0.27358  0.46088  0.81323  1.0000
  C   C1648     1.0  0.19713  0.47658  0.91337  1.0000
  H   H1316     1.0  0.24178  0.05406  0.72723  1.0000
  H   H1317     1.0  0.25071  0.08220  0.72708  1.0000
  H   H1318     1.0  0.26604  0.07260  0.74430  1.0000
  H   H1319     1.0  0.27248  0.03522  0.76150  1.0000
  H   H1320     1.0  0.21627  0.44450  0.79423  1.0000
  C   C1649     1.0  0.22264  0.45738  0.74274  1.0000
  H   H1321     1.0  0.25090  0.42203  0.89485  1.0000
  C   C1650     1.0  0.21319  0.17822  0.58332  1.0000
  H   H1322     1.0  0.24782  0.01672  0.74492  1.0000
  C   C1651     1.0  0.18942  0.39258  0.49665  1.0000
  H   H1323     1.0  0.20094  0.14075  0.75031  1.0000
  C   C1652     1.0  0.36626  0.18873  0.88911  1.0000
  H   H1324     1.0  0.19047  0.34259  0.52908  1.0000
  C   C1653     1.0  0.19603  0.12144  0.80354  1.0000
  S   S217      1.0  0.31279  0.09776  0.98115  1.0000
  C   C1654     1.0  0.19659  0.36512  0.73984  1.0000
  C   C1655     1.0  0.23512  0.43507  0.60407  1.0000
  H   H1325     1.0  0.19923  0.10284  0.63866  1.0000
  C   C1656     1.0  0.19540  0.07594  0.59792  1.0000
  H   H1326     1.0  0.24003  0.16024  0.57311  1.0000
  H   H1327     1.0  0.19183  0.49104  0.90724  1.0000
  H   H1328     1.0  0.23391  0.18189  0.51251  1.0000
  C   C1657     1.0  0.21740  0.28074  0.73176  1.0000
  C   C1658     1.0  0.21904  0.07281  0.65105  1.0000
  C   C1659     1.0  0.22232  0.08958  0.63472  1.0000
  C   C1660     1.0  0.22933  0.10056  0.63701  1.0000
  C   C1661     1.0  0.23330  0.09460  0.65540  1.0000
  C   C1662     1.0  0.23031  0.07758  0.67145  1.0000
  C   C1663     1.0  0.22318  0.06677  0.66937  1.0000
  H   H1329     1.0  0.22377  0.15349  0.60038  1.0000
  H   H1330     1.0  0.19600  0.48973  0.58687  1.0000
  H   H1331     1.0  0.33087  0.47074  0.73458  1.0000
  C   C1664     1.0  0.18891  0.24581  0.50567  1.0000
  H   H1332     1.0  0.33067  0.38053  0.60701  1.0000
  H   H1333     1.0  0.19471  0.49440  0.75454  1.0000
  H   H1334     1.0  0.30736  0.01784  0.85915  1.0000
  H   H1335     1.0  0.19817  0.46916  0.73135  1.0000
  S   S218      1.0  0.20026  0.02276  0.81386  1.0000
  C   C1665     1.0  0.21371  0.31414  0.49941  1.0000
  C   C1666     1.0  0.19964  0.47280  0.58886  1.0000
  C   C1667     1.0  0.24039  0.44147  0.61574  1.0000
  H   H1336     1.0  0.19783  0.29600  0.57349  1.0000
  H   H1337     1.0  0.21946  0.09430  0.62023  1.0000
  C   C1668     1.0  0.34036  0.33005  0.75970  1.0000
  H   H1338     1.0  0.29938  0.02076  0.97732  1.0000
  H   H1339     1.0  0.23161  0.11382  0.62461  1.0000
  H   H1340     1.0  0.23868  0.10317  0.65726  1.0000
  H   H1341     1.0  0.23349  0.07273  0.68562  1.0000
  H   H1342     1.0  0.22099  0.05364  0.68209  1.0000
  C   C1669     1.0  0.19419  0.26012  0.50802  1.0000
  H   H1343     1.0  0.20457  0.39097  0.83798  1.0000
  H   H1344     1.0  0.34057  0.17673  0.95305  1.0000
  H   H1345     1.0  0.31275  0.40040  0.62135  1.0000
  S   S219      1.0  0.33997  0.07936  0.94039  1.0000
  P   P54       1.0  0.34219  0.38336  0.77673  1.0000
  C   C1670     1.0  0.33705  0.37865  0.80499  1.0000
  H   H1346     1.0  0.29958  0.30667  0.96646  1.0000
  C   C1671     1.0  0.19393  0.45773  0.60235  1.0000
  C   C1672     1.0  0.24244  0.44280  0.52881  1.0000
  H   H1347     1.0  0.32231  0.38589  0.76470  1.0000
  H   H1348     1.0  0.32962  0.18410  0.88151  1.0000
  H   H1349     1.0  0.22662  0.42134  0.51794  1.0000
  C   C1673     1.0  0.36733  0.19438  0.96659  1.0000
  H   H1350     1.0  0.33911  0.33903  0.84927  1.0000
  C   C1674     1.0  0.32753  0.37054  0.76293  1.0000
  H   H1351     1.0  0.35785  0.37668  0.73818  1.0000
  C   C1675     1.0  0.27517  0.46581  0.79621  1.0000
  C   C1676     1.0  0.22201  0.35248  0.78104  1.0000
  H   H1352     1.0  0.34597  0.34583  0.81065  1.0000
  H   H1353     1.0  0.34454  0.18789  0.89370  1.0000
  C   C1677     1.0  0.37334  0.37211  0.78071  1.0000
  H   H1354     1.0  0.29121  0.43730  0.63651  1.0000
  C   C1678     1.0  0.34679  0.15597  0.91372  1.0000
  C   C1679     1.0  0.19327  0.13428  0.66083  1.0000
  H   H1355     1.0  0.27516  0.44832  0.75325  1.0000
  C   C1680     1.0  0.28389  0.38104  0.62280  1.0000
  C   C1681     1.0  0.27381  0.39450  0.62613  1.0000
  C   C1682     1.0  0.27128  0.40808  0.64016  1.0000
  C   C1683     1.0  0.27882  0.40820  0.65091  1.0000
  C   C1684     1.0  0.28905  0.39508  0.64736  1.0000
  C   C1685     1.0  0.29148  0.38122  0.63344  1.0000
  P   P55       1.0  0.29841  0.39440  0.66256  1.0000
  C   C1686     1.0  0.30070  0.42066  0.66001  1.0000
  C   C1687     1.0  0.29341  0.38110  0.68930  1.0000
  C   C1688     1.0  0.29247  0.38970  0.70674  1.0000
  C   C1689     1.0  0.28901  0.37843  0.72726  1.0000
  C   C1690     1.0  0.28651  0.35855  0.73052  1.0000
  C   C1691     1.0  0.28710  0.35020  0.71326  1.0000
  C   C1692     1.0  0.29051  0.36143  0.69273  1.0000
  C   C1693     1.0  0.30779  0.42290  0.67086  1.0000
  C   C1694     1.0  0.31029  0.44278  0.66783  1.0000
  C   C1695     1.0  0.30587  0.46049  0.65375  1.0000
  C   C1696     1.0  0.29908  0.45826  0.64243  1.0000
  C   C1697     1.0  0.29649  0.43847  0.64551  1.0000
  C   C1698     1.0  0.31137  0.37931  0.65232  1.0000
  C   C1699     1.0  0.31656  0.38626  0.63135  1.0000
  C   C1700     1.0  0.32671  0.37508  0.62321  1.0000
  C   C1701     1.0  0.33178  0.35700  0.63602  1.0000
  C   C1702     1.0  0.32673  0.35015  0.65700  1.0000
  C   C1703     1.0  0.31658  0.36130  0.66520  1.0000
  H   H1356     1.0  0.28575  0.37023  0.61222  1.0000
  H   H1357     1.0  0.26784  0.39412  0.61822  1.0000
  H   H1358     1.0  0.26338  0.41815  0.64306  1.0000
  H   H1359     1.0  0.27666  0.41835  0.66219  1.0000
  H   H1360     1.0  0.29912  0.37024  0.63105  1.0000
  H   H1361     1.0  0.29406  0.40531  0.70474  1.0000
  H   H1362     1.0  0.28812  0.38532  0.74063  1.0000
  C   C1704     1.0  0.27108  0.32834  0.95577  1.0000
  H   H1363     1.0  0.37991  0.23466  0.93811  1.0000
  S   S220      1.0  0.19060  0.33829  0.57587  1.0000
  H   H1364     1.0  0.24080  0.27595  0.51848  1.0000
  H   H1365     1.0  0.19521  0.16203  0.50884  1.0000
  H   H1366     1.0  0.21241  0.36728  0.49157  1.0000
  C   C1705     1.0  0.24321  0.37642  0.50378  1.0000
  C   C1706     1.0  0.25251  0.46779  0.73465  1.0000
  C   C1707     1.0  0.19874  0.43595  0.60541  1.0000
  C   C1708     1.0  0.20164  0.21603  0.52086  1.0000
  C   C1709     1.0  0.21267  0.44829  0.90662  1.0000
  C   C1710     1.0  0.20922  0.42916  0.59487  1.0000
  P   P56       1.0  0.21024  0.05802  0.64809  1.0000
  C   C1711     1.0  0.20072  0.45997  0.50771  1.0000
  C   C1712     1.0  0.25333  0.41045  0.90845  1.0000
  H   H1367     1.0  0.19416  0.39962  0.73254  1.0000
  H   H1368     1.0  0.19743  0.42617  0.56509  1.0000
  H   H1369     1.0  0.21913  0.44065  0.89550  1.0000
  H   H1370     1.0  0.24674  0.39955  0.96216  1.0000
  C   C1713     1.0  0.23536  0.99662  0.80620  1.0000
  S   S221      1.0  0.19616  0.14852  0.63446  1.0000
  H   H1371     1.0  0.20469  0.19893  0.52494  1.0000
  C   C1714     1.0  0.19165  0.10508  0.87003  1.0000
  C   C1715     1.0  0.19751  0.02873  0.70820  1.0000
  Fe  Fe109     1.0  0.23915  0.00163  0.88805  1.0000
  H   H1372     1.0  0.35946  0.23189  0.92222  1.0000
  C   C1716     1.0  0.22662  0.46841  0.50743  1.0000
  H   H1373     1.0  0.25339  0.47994  0.76054  1.0000
  C   C1717     1.0  0.21491  0.44413  0.58075  1.0000
  C   C1718     1.0  0.21908  0.99651  0.63914  1.0000
  S   S222      1.0  0.23146  0.01602  0.71787  1.0000
  H   H1374     1.0  0.24318  0.39567  0.52476  1.0000
  C   C1719     1.0  0.23187  0.44747  0.54014  1.0000
  C   C1720     1.0  0.27979  0.47708  0.75215  1.0000
  C   C1721     1.0  0.20425  0.03327  0.68840  1.0000
  C   C1722     1.0  0.37324  0.37111  0.74513  1.0000
  C   C1723     1.0  0.20249  0.48401  0.75142  1.0000
  C   C1724     1.0  0.19415  0.49017  0.98471  1.0000
  H   H1375     1.0  0.33605  0.33588  0.97773  1.0000
  H   H1376     1.0  0.19284  0.15250  0.83441  1.0000
  C   C1725     1.0  0.20353  0.45056  0.94264  1.0000
  H   H1377     1.0  0.25172  0.47857  0.57691  1.0000
  H   H1378     1.0  0.18894  0.46479  0.55836  1.0000
  C   C1726     1.0  0.19449  0.25136  0.61163  1.0000
  C   C1727     1.0  0.20127  0.06378  0.61316  1.0000
  S   S223      1.0  0.22226  0.99807  0.89354  1.0000
  C   C1728     1.0  0.19307  0.01993  0.88548  1.0000
  C   C1729     1.0  0.20271  0.07333  0.62810  1.0000
  C   C1730     1.0  0.19273  0.26956  0.56978  1.0000
  H   H1379     1.0  0.21605  0.27811  0.71768  1.0000
  C   C1731     1.0  0.19239  0.10726  0.61214  1.0000
  H   H1380     1.0  0.20081  0.33098  0.74323  1.0000
  H   H1381     1.0  0.19870  0.99802  0.78597  1.0000
  H   H1382     1.0  0.35991  0.19171  0.97727  1.0000
  H   H1383     1.0  0.25324  0.44742  0.49833  1.0000
  S   S224      1.0  0.29199  0.08371  0.97502  1.0000
  C   C1732     1.0  0.19144  0.24018  0.60019  1.0000
  C   C1733     1.0  0.21878  0.26695  0.76836  1.0000
  C   C1734     1.0  0.37885  0.36948  0.76039  1.0000
  C   C1735     1.0  0.23509  0.01048  0.62885  1.0000
  C   C1736     1.0  0.28642  0.00532  0.98261  1.0000
  C   C1737     1.0  0.28308  0.30470  0.97773  1.0000
  C   C1738     1.0  0.19164  0.06634  0.67894  1.0000
  H   H1384     1.0  0.37342  0.21156  0.86358  1.0000
  H   H1385     1.0  0.18830  0.21265  0.51091  1.0000
  C   C1739     1.0  0.21052  0.48494  0.76050  1.0000
  C   C1740     1.0  0.22426  0.40542  0.49619  1.0000
  C   C1741     1.0  0.34367  0.16084  0.98373  1.0000
  C   C1742     1.0  0.19601  0.40337  0.50071  1.0000
  H   H1386     1.0  0.37844  0.09340  0.89364  1.0000
  H   H1387     1.0  0.19102  0.48648  0.52163  1.0000
  H   H1388     1.0  0.18689  0.41471  0.84641  1.0000
  H   H1389     1.0  0.18894  0.12411  0.61182  1.0000
  H   H1390     1.0  0.26630  0.30566  0.98441  1.0000
  H   H1391     1.0  0.19001  0.22439  0.60750  1.0000
  H   H1392     1.0  0.22049  0.47808  0.49901  1.0000
  H   H1393     1.0  0.28584  0.49218  0.84490  1.0000
  H   H1394     1.0  0.19000  0.36467  0.75345  1.0000
  C   C1743     1.0  0.19171  0.03652  0.86788  1.0000
  H   H1395     1.0  0.37769  0.37105  0.79248  1.0000
  C   C1744     1.0  0.30376  0.49159  0.80981  1.0000
  C   C1745     1.0  0.38484  0.25373  0.97992  1.0000
  P   P57       1.0  0.26493  0.99566  0.76776  1.0000
  H   H1396     1.0  0.26257  0.99652  0.72493  1.0000
  P   P58       1.0  0.21265  0.42510  0.48959  1.0000
  C   C1746     1.0  0.23801  0.37396  0.48953  1.0000
  C   C1747     1.0  0.20060  0.54019  0.33067  1.0000
  S   S225      1.0  0.20510  0.55075  0.20127  1.0000
  H   H1397     1.0  0.23155  0.61713  0.08294  1.0000
  Fe  Fe110     1.0  0.24892  0.57083  0.27663  1.0000
  S   S226      1.0  0.24303  0.60586  0.26414  1.0000
  S   S227      1.0  0.24235  0.55598  0.31023  1.0000
  Fe  Fe111     1.0  0.26449  0.56471  0.23574  1.0000
  S   S228      1.0  0.25979  0.59913  0.21987  1.0000
  S   S229      1.0  0.27787  0.54411  0.21700  1.0000
  Fe  Fe112     1.0  0.26026  0.60612  0.25028  1.0000
  S   S230      1.0  0.26768  0.63316  0.24910  1.0000
  Fe  Fe113     1.0  0.24309  0.59548  0.23507  1.0000
  S   S231      1.0  0.23037  0.61109  0.21610  1.0000
  S   S232      1.0  0.26616  0.57192  0.26510  1.0000
  S   S233      1.0  0.24773  0.56029  0.24867  1.0000
  Fe  Fe114     1.0  0.30731  0.58539  0.32346  1.0000
  S   S234      1.0  0.32377  0.56862  0.32813  1.0000
  S   S235      1.0  0.30608  0.61258  0.29497  1.0000
  Fe  Fe115     1.0  0.29704  0.55873  0.36365  1.0000
  S   S236      1.0  0.31266  0.53960  0.37132  1.0000
  C   C1748     1.0  0.30717  0.58195  0.43297  1.0000
  Fe  Fe116     1.0  0.31772  0.57120  0.36209  1.0000
  S   S237      1.0  0.32637  0.57639  0.38480  1.0000
  Fe  Fe117     1.0  0.31739  0.53865  0.33676  1.0000
  C   C1749     1.0  0.36875  0.77247  0.47654  1.0000
  S   S238      1.0  0.30171  0.59036  0.35670  1.0000
  S   S239      1.0  0.30132  0.55534  0.32985  1.0000
  H   H1398     1.0  0.19253  0.98411  0.14886  1.0000
  H   H1399     1.0  0.19125  0.77785  0.08572  1.0000
  Fe  Fe118     1.0  0.33598  0.70628  0.43168  1.0000
  S   S240      1.0  0.34663  0.70305  0.40013  1.0000
  S   S241      1.0  0.31922  0.72590  0.43423  1.0000
  H   H1400     1.0  0.25664  0.53938  0.21154  1.0000
  H   H1401     1.0  0.24796  0.96879  0.10784  1.0000
  S   S242      1.0  0.33698  0.67094  0.44335  1.0000
  C   C1750     1.0  0.24901  0.56282  0.18808  1.0000
  S   S243      1.0  0.25111  0.93297  0.14791  1.0000
  S   S244      1.0  0.27015  0.95717  0.22275  1.0000
  S   S245      1.0  0.27035  0.95902  0.16340  1.0000
  Fe  Fe119     1.0  0.25773  0.86758  0.31026  1.0000
  S   S246      1.0  0.25261  0.83904  0.33370  1.0000
  S   S247      1.0  0.26906  0.86435  0.27918  1.0000
  Fe  Fe120     1.0  0.24416  0.89885  0.33775  1.0000
  S   S248      1.0  0.23781  0.87307  0.36345  1.0000
  S   S249      1.0  0.24123  0.93364  0.33868  1.0000
  Fe  Fe121     1.0  0.25468  0.85413  0.35792  1.0000
  S   S250      1.0  0.26233  0.83539  0.38539  1.0000
  Fe  Fe122     1.0  0.23632  0.86044  0.33693  1.0000
  S   S251      1.0  0.22167  0.84877  0.33906  1.0000
  S   S252      1.0  0.26113  0.88091  0.33412  1.0000
  S   S253      1.0  0.24129  0.88795  0.31151  1.0000
  H   H1402     1.0  0.23052  0.54557  0.10802  1.0000
  S   S254      1.0  0.31858  0.87396  0.42514  1.0000
  C   C1751     1.0  0.20997  0.94565  0.36724  1.0000
  Fe  Fe123     1.0  0.30579  0.82871  0.46413  1.0000
  S   S255      1.0  0.31343  0.82739  0.43048  1.0000
  C   C1752     1.0  0.27576  0.53549  0.39703  1.0000
  Fe  Fe124     1.0  0.32618  0.83955  0.43611  1.0000
  S   S256      1.0  0.34290  0.82178  0.42528  1.0000
  Fe  Fe125     1.0  0.30505  0.86167  0.42273  1.0000
  S   S257      1.0  0.29802  0.87635  0.39390  1.0000
  H   H1403     1.0  0.20014  0.64551  0.19295  1.0000
  S   S258      1.0  0.29606  0.86202  0.45601  1.0000
  C   C1753     1.0  0.35244  0.82995  0.43276  1.0000
  C   C1754     1.0  0.35014  0.84984  0.43814  1.0000
  C   C1755     1.0  0.35809  0.85671  0.44279  1.0000
  C   C1756     1.0  0.21377  0.94973  0.29888  1.0000
  C   C1757     1.0  0.37042  0.82329  0.43789  1.0000
  C   C1758     1.0  0.36256  0.81662  0.43276  1.0000
  H   H1404     1.0  0.34232  0.86016  0.43822  1.0000
  H   H1405     1.0  0.22823  0.88314  0.22837  1.0000
  H   H1406     1.0  0.36437  0.80123  0.42857  1.0000
  C   C1759     1.0  0.22781  0.94612  0.34590  1.0000
  C   C1760     1.0  0.22059  0.93505  0.36109  1.0000
  C   C1761     1.0  0.21369  0.97802  0.34215  1.0000
  C   C1762     1.0  0.22438  0.96769  0.33665  1.0000
  H   H1407     1.0  0.22321  0.91836  0.36818  1.0000
  C   C1763     1.0  0.24798  0.52856  0.31668  1.0000
  H   H1408     1.0  0.22993  0.97625  0.32481  1.0000
  C   C1764     1.0  0.21925  0.85106  0.31412  1.0000
  C   C1765     1.0  0.22745  0.85271  0.29613  1.0000
  C   C1766     1.0  0.22547  0.85454  0.27630  1.0000
  C   C1767     1.0  0.21520  0.85562  0.27418  1.0000
  C   C1768     1.0  0.20694  0.85418  0.29213  1.0000
  C   C1769     1.0  0.20900  0.85163  0.31214  1.0000
  H   H1409     1.0  0.23538  0.85219  0.29755  1.0000
  H   H1410     1.0  0.23196  0.85503  0.26258  1.0000
  P   P59       1.0  0.24014  0.55282  0.13854  1.0000
  H   H1411     1.0  0.20267  0.85010  0.32610  1.0000
  C   C1770     1.0  0.27229  0.84656  0.38797  1.0000
  C   C1771     1.0  0.27834  0.85769  0.37015  1.0000
  C   C1772     1.0  0.28615  0.86682  0.37223  1.0000
  C   C1773     1.0  0.28804  0.86483  0.39213  1.0000
  C   C1774     1.0  0.28205  0.85367  0.41006  1.0000
  C   C1775     1.0  0.27420  0.84446  0.40796  1.0000
  H   H1412     1.0  0.27720  0.85895  0.35464  1.0000
  H   H1413     1.0  0.29086  0.87509  0.35829  1.0000
  H   H1414     1.0  0.28348  0.85208  0.42551  1.0000
  H   H1415     1.0  0.26958  0.83579  0.42183  1.0000
  C   C1776     1.0  0.23794  0.92974  0.15316  1.0000
  C   C1777     1.0  0.23437  0.92603  0.13710  1.0000
  C   C1778     1.0  0.22395  0.92336  0.14062  1.0000
  H   H1416     1.0  0.23963  0.92564  0.12174  1.0000
  H   H1417     1.0  0.22119  0.92114  0.12787  1.0000
  C   C1779     1.0  0.27039  0.93103  0.23790  1.0000
  C   C1780     1.0  0.26850  0.92764  0.25990  1.0000
  C   C1781     1.0  0.26780  0.90729  0.27254  1.0000
  C   C1782     1.0  0.26978  0.88987  0.26320  1.0000
  C   C1783     1.0  0.27234  0.89292  0.24111  1.0000
  C   C1784     1.0  0.27245  0.91361  0.22844  1.0000
  H   H1418     1.0  0.26737  0.94086  0.26722  1.0000
  H   H1419     1.0  0.26581  0.90505  0.28953  1.0000
  H   H1420     1.0  0.27395  0.87942  0.23383  1.0000
  H   H1421     1.0  0.27418  0.91611  0.21140  1.0000
  C   C1785     1.0  0.31434  0.74521  0.44990  1.0000
  C   C1786     1.0  0.32033  0.75965  0.44941  1.0000
  C   C1787     1.0  0.31574  0.77632  0.46035  1.0000
  C   C1788     1.0  0.30527  0.77830  0.47218  1.0000
  C   C1789     1.0  0.33933  0.75274  0.47859  1.0000
  C   C1790     1.0  0.30393  0.74696  0.46209  1.0000
  H   H1422     1.0  0.32832  0.75858  0.44005  1.0000
  H   H1423     1.0  0.32027  0.78782  0.45948  1.0000
  C   C1791     1.0  0.25207  0.51657  0.30100  1.0000
  H   H1424     1.0  0.29925  0.73589  0.46247  1.0000
  H   H1425     1.0  0.23394  0.73739  0.20744  1.0000
  H   H1426     1.0  0.21178  0.89077  0.32280  1.0000
  C   C1792     1.0  0.23005  0.53829  0.14159  1.0000
  C   C1793     1.0  0.33080  0.59891  0.38588  1.0000
  C   C1794     1.0  0.33313  0.59967  0.40479  1.0000
  C   C1795     1.0  0.33749  0.61639  0.40582  1.0000
  C   C1796     1.0  0.33988  0.63219  0.38772  1.0000
  C   C1797     1.0  0.37414  0.73618  0.47116  1.0000
  C   C1798     1.0  0.33279  0.61514  0.36807  1.0000
  H   H1427     1.0  0.33174  0.58705  0.41863  1.0000
  H   H1428     1.0  0.33940  0.61655  0.42035  1.0000
  C   C1799     1.0  0.33948  0.78601  0.48656  1.0000
  H   H1429     1.0  0.33110  0.61463  0.35347  1.0000
  H   H1430     1.0  0.26622  0.54808  0.42411  1.0000
  C   C1800     1.0  0.20714  0.94424  0.31853  1.0000
  H   H1431     1.0  0.34104  0.96290  0.10993  1.0000
  H   H1432     1.0  0.22949  0.53458  0.28040  1.0000
  H   H1433     1.0  0.34083  0.78196  0.45529  1.0000
  H   H1434     1.0  0.31086  0.59272  0.43652  1.0000
  H   H1435     1.0  0.28905  0.58237  0.40600  1.0000
  H   H1436     1.0  0.19694  0.50090  0.37499  1.0000
  H   H1437     1.0  0.24493  0.52770  0.34997  1.0000
  C   C1801     1.0  0.28472  0.75682  0.36222  1.0000
  H   H1438     1.0  0.19906  0.85441  0.29067  1.0000
  C   C1802     1.0  0.30163  0.73590  0.34701  1.0000
  H   H1439     1.0  0.31662  0.52491  0.17720  1.0000
  P   P60       1.0  0.30989  0.51712  0.44493  1.0000
  C   C1803     1.0  0.19534  0.83064  0.99079  1.0000
  C   C1804     1.0  0.27838  0.62631  0.26202  1.0000
  C   C1805     1.0  0.28564  0.63972  0.25582  1.0000
  C   C1806     1.0  0.29413  0.63512  0.26589  1.0000
  C   C1807     1.0  0.29536  0.61729  0.28258  1.0000
  C   C1808     1.0  0.28807  0.60390  0.28900  1.0000
  C   C1809     1.0  0.27966  0.60827  0.27858  1.0000
  H   H1440     1.0  0.28471  0.65367  0.24310  1.0000
  H   H1441     1.0  0.29971  0.64555  0.26086  1.0000
  H   H1442     1.0  0.28883  0.59032  0.30209  1.0000
  H   H1443     1.0  0.27400  0.59801  0.28375  1.0000
  H   H1444     1.0  0.25882  0.57066  0.11717  1.0000
  H   H1445     1.0  0.20090  0.83330  0.13809  1.0000
  C   C1810     1.0  0.23111  0.93004  0.17307  1.0000
  C   C1811     1.0  0.21241  0.97041  0.21030  1.0000
  C   C1812     1.0  0.35343  0.51853  0.32935  1.0000
  H   H1446     1.0  0.19342  0.67439  0.24656  1.0000
  H   H1447     1.0  0.19168  0.58807  0.09474  1.0000
  C   C1813     1.0  0.21218  0.90726  0.31587  1.0000
  C   C1814     1.0  0.21222  0.56745  0.20510  1.0000
  C   C1815     1.0  0.21052  0.58922  0.19550  1.0000
  C   C1816     1.0  0.21636  0.60228  0.19855  1.0000
  C   C1817     1.0  0.22360  0.59390  0.21184  1.0000
  C   C1818     1.0  0.22517  0.57216  0.22165  1.0000
  C   C1819     1.0  0.21962  0.55889  0.21804  1.0000
  H   H1448     1.0  0.20492  0.59591  0.18527  1.0000
  H   H1449     1.0  0.21534  0.61885  0.19045  1.0000
  H   H1450     1.0  0.23061  0.56549  0.23206  1.0000
  H   H1451     1.0  0.22106  0.54201  0.22534  1.0000
  H   H1452     1.0  0.20247  0.95653  0.32698  1.0000
  H   H1453     1.0  0.20304  0.93141  0.25666  1.0000
  C   C1820     1.0  0.25308  0.54198  0.19819  1.0000
  H   H1454     1.0  0.24924  0.57632  0.19390  1.0000
  Fe  Fe126     1.0  0.26223  0.96680  0.19506  1.0000
  H   H1455     1.0  0.20781  0.50623  0.26530  1.0000
  C   C1821     1.0  0.24440  0.54882  0.16281  1.0000
  C   C1822     1.0  0.23385  0.58018  0.12887  1.0000
  C   C1823     1.0  0.23602  0.58978  0.10725  1.0000
  C   C1824     1.0  0.23008  0.61002  0.09970  1.0000
  C   C1825     1.0  0.22190  0.62066  0.11363  1.0000
  C   C1826     1.0  0.21972  0.61120  0.13514  1.0000
  C   C1827     1.0  0.22561  0.59095  0.14267  1.0000
  H   H1456     1.0  0.34245  0.56454  0.34721  1.0000
  H   H1457     1.0  0.24197  0.58138  0.09606  1.0000
  H   H1458     1.0  0.21696  0.63587  0.10770  1.0000
  H   H1459     1.0  0.21314  0.61913  0.14583  1.0000
  H   H1460     1.0  0.22347  0.58322  0.15910  1.0000
  C   C1828     1.0  0.24474  0.56628  0.17037  1.0000
  H   H1461     1.0  0.20437  0.93702  0.37886  1.0000
  C   C1829     1.0  0.36507  0.54364  0.31457  1.0000
  P   P61       1.0  0.35983  0.58533  0.32169  1.0000
  C   C1830     1.0  0.34866  0.60443  0.31236  1.0000
  C   C1831     1.0  0.19098  0.57994  0.08348  1.0000
  C   C1832     1.0  0.34592  0.62548  0.31545  1.0000
  C   C1833     1.0  0.33720  0.64007  0.30840  1.0000
  C   C1834     1.0  0.33129  0.63391  0.29781  1.0000
  C   C1835     1.0  0.33415  0.61322  0.29413  1.0000
  C   C1836     1.0  0.34281  0.59852  0.30130  1.0000
  C   C1837     1.0  0.37177  0.58850  0.30165  1.0000
  C   C1838     1.0  0.37124  0.59785  0.28046  1.0000
  H   H1462     1.0  0.34637  0.91670  0.48647  1.0000
  C   C1839     1.0  0.25087  0.97664  0.26802  1.0000
  H   H1463     1.0  0.22972  0.51123  0.32116  1.0000
  S   S259      1.0  0.19361  0.63956  0.12862  1.0000
  H   H1464     1.0  0.33971  0.74366  0.46723  1.0000
  H   H1465     1.0  0.35034  0.63063  0.32361  1.0000
  H   H1466     1.0  0.33493  0.65605  0.31141  1.0000
  H   H1467     1.0  0.32443  0.64505  0.29258  1.0000
  H   H1468     1.0  0.32952  0.60849  0.28597  1.0000
  H   H1469     1.0  0.34483  0.58253  0.29831  1.0000
  H   H1470     1.0  0.36367  0.60350  0.27574  1.0000
  H   H1471     1.0  0.20177  0.75333  0.21348  1.0000
  Fe  Fe127     1.0  0.31009  0.87228  0.45915  1.0000
  C   C1840     1.0  0.33981  0.68682  0.33651  1.0000
  C   C1841     1.0  0.34054  0.69494  0.31485  1.0000
  C   C1842     1.0  0.33131  0.70207  0.30675  1.0000
  C   C1843     1.0  0.32137  0.70101  0.32033  1.0000
  C   C1844     1.0  0.32056  0.69330  0.34219  1.0000
  C   C1845     1.0  0.32986  0.68616  0.35017  1.0000
  P   P62       1.0  0.30774  0.69105  0.35935  1.0000
  C   C1846     1.0  0.30259  0.67450  0.34902  1.0000
  C   C1847     1.0  0.30939  0.67826  0.38598  1.0000
  C   C1848     1.0  0.31060  0.65597  0.39330  1.0000
  C   C1849     1.0  0.31239  0.64632  0.41359  1.0000
  C   C1850     1.0  0.31307  0.65872  0.42668  1.0000
  C   C1851     1.0  0.31179  0.68089  0.41960  1.0000
  C   C1852     1.0  0.30996  0.69065  0.39935  1.0000
  C   C1853     1.0  0.29508  0.64888  0.33192  1.0000
  C   C1854     1.0  0.28824  0.66706  0.33841  1.0000
  C   C1855     1.0  0.29196  0.67989  0.34688  1.0000
  H   H1472     1.0  0.34694  0.68102  0.34293  1.0000
  H   H1473     1.0  0.34826  0.69553  0.30434  1.0000
  H   H1474     1.0  0.33187  0.70813  0.28991  1.0000
  H   H1475     1.0  0.31429  0.70610  0.31382  1.0000
  H   H1476     1.0  0.32954  0.67986  0.36691  1.0000
  H   H1477     1.0  0.31036  0.64585  0.38342  1.0000
  H   H1478     1.0  0.31351  0.62912  0.41898  1.0000
  C   C1856     1.0  0.18857  0.80347  0.22458  1.0000
  H   H1479     1.0  0.31235  0.69049  0.42975  1.0000
  H   H1480     1.0  0.30911  0.70783  0.39412  1.0000
  C   C1857     1.0  0.24794  0.51840  0.33784  1.0000
  H   H1481     1.0  0.28003  0.67115  0.33685  1.0000
  H   H1482     1.0  0.28651  0.69395  0.35158  1.0000
  C   C1858     1.0  0.28656  0.93744  0.41427  1.0000
  C   C1859     1.0  0.28500  0.92025  0.43135  1.0000
  C   C1860     1.0  0.27767  0.90827  0.43260  1.0000
  C   C1861     1.0  0.27197  0.91330  0.41671  1.0000
  C   C1862     1.0  0.27342  0.93063  0.39951  1.0000
  C   C1863     1.0  0.28081  0.94262  0.39841  1.0000
  P   P63       1.0  0.26666  0.93637  0.37803  1.0000
  C   C1864     1.0  0.25532  0.92397  0.38647  1.0000
  C   C1865     1.0  0.26188  0.96489  0.36934  1.0000
  C   C1866     1.0  0.25130  0.99376  0.08023  1.0000
  C   C1867     1.0  0.29782  0.98228  0.05840  1.0000
  C   C1868     1.0  0.20654  0.58244  0.26560  1.0000
  C   C1869     1.0  0.19097  0.55808  0.08934  1.0000
  H   H1483     1.0  0.22667  0.50539  0.36002  1.0000
  C   C1870     1.0  0.24489  0.93615  0.39105  1.0000
  C   C1871     1.0  0.23622  0.92620  0.39765  1.0000
  C   C1872     1.0  0.23790  0.90407  0.39993  1.0000
  C   C1873     1.0  0.24824  0.89187  0.39556  1.0000
  C   C1874     1.0  0.25690  0.90180  0.38864  1.0000
  C   C1875     1.0  0.27572  0.92599  0.35590  1.0000
  C   C1876     1.0  0.28681  0.92223  0.35357  1.0000
  C   C1877     1.0  0.29371  0.91544  0.33575  1.0000
  C   C1878     1.0  0.28963  0.91219  0.32018  1.0000
  C   C1879     1.0  0.27864  0.91559  0.32251  1.0000
  C   C1880     1.0  0.27172  0.92226  0.34036  1.0000
  H   H1484     1.0  0.29241  0.94639  0.41317  1.0000
  H   H1485     1.0  0.28963  0.91593  0.44343  1.0000
  H   H1486     1.0  0.27661  0.89469  0.44562  1.0000
  H   H1487     1.0  0.26661  0.90329  0.41786  1.0000
  H   H1488     1.0  0.28233  0.95562  0.38499  1.0000
  H   H1489     1.0  0.25974  0.96257  0.33934  1.0000
  C   C1881     1.0  0.25278  0.52454  0.19080  1.0000
  C   C1882     1.0  0.36303  0.96430  0.09235  1.0000
  S   S260      1.0  0.31905  0.83893  0.47047  1.0000
  H   H1490     1.0  0.20209  0.58024  0.25548  1.0000
  H   H1491     1.0  0.24338  0.95330  0.38930  1.0000
  H   H1492     1.0  0.22818  0.93567  0.40062  1.0000
  H   H1493     1.0  0.23119  0.89638  0.40477  1.0000
  H   H1494     1.0  0.24956  0.87471  0.39729  1.0000
  H   H1495     1.0  0.26486  0.89219  0.38519  1.0000
  H   H1496     1.0  0.29022  0.92404  0.36557  1.0000
  H   H1497     1.0  0.30223  0.91228  0.33430  1.0000
  H   H1498     1.0  0.29496  0.90678  0.30644  1.0000
  H   H1499     1.0  0.27547  0.91292  0.31053  1.0000
  H   H1500     1.0  0.26323  0.92455  0.34197  1.0000
  H   H1501     1.0  0.20075  0.49577  0.00803  1.0000
  H   H1502     1.0  0.22478  0.94355  0.21747  1.0000
  C   C1883     1.0  0.22788  0.52349  0.27317  1.0000
  C   C1884     1.0  0.30042  0.50324  0.44307  1.0000
  H   H1503     1.0  0.35638  0.87235  0.44640  1.0000
  C   C1885     1.0  0.21601  0.56910  0.29410  1.0000
  C   C1886     1.0  0.22603  0.86242  0.14133  1.0000
  C   C1887     1.0  0.31853  0.49710  0.20247  1.0000
  C   C1888     1.0  0.19451  0.54579  0.25697  1.0000
  C   C1889     1.0  0.20958  0.60199  0.26113  1.0000
  C   C1890     1.0  0.23499  0.75071  0.15456  1.0000
  C   C1891     1.0  0.36741  0.75645  0.46845  1.0000
  C   C1892     1.0  0.19480  0.90895  0.28054  1.0000
  C   C1893     1.0  0.18847  0.71230  0.20495  1.0000
  H   H1504     1.0  0.26289  0.51930  0.24555  1.0000
  H   H1505     1.0  0.23897  0.74472  0.14031  1.0000
  C   C1894     1.0  0.19869  0.50846  0.35836  1.0000
  H   H1506     1.0  0.36135  0.75990  0.45947  1.0000
  H   H1507     1.0  0.19992  0.81644  0.99928  1.0000
  H   H1508     1.0  0.25744  0.51749  0.43976  1.0000
  H   H1509     1.0  0.19584  0.96041  0.27650  1.0000
  H   H1510     1.0  0.19046  0.60811  0.05829  1.0000
  C   C1895     1.0  0.29266  0.49678  0.46083  1.0000
  H   H1511     1.0  0.20755  0.61437  0.24768  1.0000
  H   H1512     1.0  0.38405  0.67848  0.42997  1.0000
  C   C1896     1.0  0.33531  0.52941  0.26684  1.0000
  H   H1513     1.0  0.28693  0.70406  0.38594  1.0000
  C   C1897     1.0  0.20514  0.98803  0.21690  1.0000
  C   C1898     1.0  0.22454  0.76592  0.19137  1.0000
  P   P64       1.0  0.20622  0.54012  0.28742  1.0000
  C   C1899     1.0  0.18974  0.79626  0.13152  1.0000
  C   C1900     1.0  0.31023  0.55985  0.44036  1.0000
  H   H1514     1.0  0.20204  0.54455  0.24572  1.0000
  H   H1515     1.0  0.29522  0.97269  0.05095  1.0000
  C   C1901     1.0  0.21113  0.84589  0.16041  1.0000
  H   H1516     1.0  0.32445  0.71021  0.47725  1.0000
  H   H1517     1.0  0.27079  0.52606  0.31027  1.0000
  H   H1518     1.0  0.20627  0.82222  0.23855  1.0000
  H   H1519     1.0  0.29242  0.51702  0.25180  1.0000
  C   C1902     1.0  0.19420  0.80088  0.20431  1.0000
  H   H1520     1.0  0.18878  0.75288  0.06699  1.0000
  H   H1521     1.0  0.31315  0.49791  0.25448  1.0000
  C   C1903     1.0  0.28126  0.51951  0.28105  1.0000
  C   C1904     1.0  0.32923  0.52094  0.41623  1.0000
  H   H1522     1.0  0.36265  0.97267  0.10435  1.0000
  S   S261      1.0  0.29913  0.80031  0.48413  1.0000
  C   C1905     1.0  0.26822  0.53499  0.41610  1.0000
  C   C1906     1.0  0.29274  0.54672  0.28545  1.0000
  C   C1907     1.0  0.29616  0.53737  0.26773  1.0000
  C   C1908     1.0  0.22831  0.82381  0.14832  1.0000
  P   P65       1.0  0.30723  0.54472  0.24687  1.0000
  C   C1909     1.0  0.30287  0.57145  0.23222  1.0000
  C   C1910     1.0  0.31787  0.54499  0.25848  1.0000
  C   C1911     1.0  0.32709  0.52853  0.25826  1.0000
  C   C1912     1.0  0.26432  0.97132  0.10029  1.0000
  C   C1913     1.0  0.33439  0.54657  0.27588  1.0000
  C   C1914     1.0  0.32534  0.56314  0.27590  1.0000
  C   C1915     1.0  0.31712  0.56238  0.26729  1.0000
  C   C1916     1.0  0.29228  0.57880  0.23015  1.0000
  C   C1917     1.0  0.28878  0.59979  0.21960  1.0000
  C   C1918     1.0  0.29583  0.61355  0.21092  1.0000
  C   C1919     1.0  0.30650  0.60614  0.21228  1.0000
  C   C1920     1.0  0.31005  0.58508  0.22270  1.0000
  C   C1921     1.0  0.31168  0.52620  0.22934  1.0000
  H   H1523     1.0  0.27673  0.50917  0.27916  1.0000
  H   H1524     1.0  0.21662  0.81631  0.20344  1.0000
  C   C1922     1.0  0.35729  0.96238  0.06193  1.0000
  H   H1525     1.0  0.19442  0.86758  0.40252  1.0000
  C   C1923     1.0  0.31264  0.53364  0.20740  1.0000
  C   C1924     1.0  0.21864  0.96060  0.24314  1.0000
  H   H1526     1.0  0.20432  0.98448  0.39840  1.0000
  H   H1527     1.0  0.28100  0.55009  0.31423  1.0000
  H   H1528     1.0  0.29688  0.55766  0.28727  1.0000
  C   C1925     1.0  0.18717  0.66098  0.14126  1.0000
  Fe  Fe128     1.0  0.18922  0.56493  0.13779  1.0000
  S   S262      1.0  0.35351  0.65333  0.48773  1.0000
  H   H1529     1.0  0.34059  0.54677  0.28325  1.0000
  H   H1530     1.0  0.32456  0.57654  0.28277  1.0000
  H   H1531     1.0  0.31020  0.57550  0.26744  1.0000
  H   H1532     1.0  0.28672  0.56832  0.23671  1.0000
  H   H1533     1.0  0.28053  0.60554  0.21852  1.0000
  H   H1534     1.0  0.29298  0.62996  0.20326  1.0000
  H   H1535     1.0  0.31199  0.61676  0.20547  1.0000
  H   H1536     1.0  0.31835  0.57954  0.22354  1.0000
  H   H1537     1.0  0.34226  0.51640  0.26705  1.0000
  P   P66       1.0  0.21188  0.80210  0.17046  1.0000
  C   C1926     1.0  0.31919  0.49826  0.48009  1.0000
  H   H1538     1.0  0.21896  0.55636  0.30644  1.0000
  H   H1539     1.0  0.31061  0.55058  0.20056  1.0000
  C   C1927     1.0  0.19809  0.74189  0.21098  1.0000
  H   H1540     1.0  0.37440  0.93674  0.10423  1.0000
  C   C1928     1.0  0.30566  0.64350  0.33385  1.0000
  H   H1541     1.0  0.37375  0.74800  0.35502  1.0000
  H   H1542     1.0  0.33880  0.52915  0.35058  1.0000
  C   C1929     1.0  0.19293  0.81107  0.23695  1.0000
  C   C1930     1.0  0.20381  0.50578  0.32163  1.0000
  S   S263      1.0  0.34683  0.65189  0.38700  1.0000
  H   H1543     1.0  0.19613  0.54006  0.36395  1.0000
  C   C1931     1.0  0.29956  0.59006  0.42052  1.0000
  H   H1544     1.0  0.26627  0.95877  0.11369  1.0000
  H   H1545     1.0  0.33949  0.64313  0.35474  1.0000
  C   C1932     1.0  0.18918  0.78392  0.07040  1.0000
  H   H1546     1.0  0.21480  0.96603  0.29348  1.0000
  C   C1933     1.0  0.21739  0.52273  0.27382  1.0000
  C   C1934     1.0  0.36446  0.82874  0.29586  1.0000
  Fe  Fe129     1.0  0.19559  0.90634  0.19562  1.0000
  H   H1547     1.0  0.24321  0.72398  0.17478  1.0000
  H   H1548     1.0  0.35250  0.96914  0.05010  1.0000
  C   C1935     1.0  0.31404  0.50405  0.23763  1.0000
  C   C1936     1.0  0.36392  0.59928  0.38219  1.0000
  H   H1549     1.0  0.18979  0.97638  0.19603  1.0000
  H   H1550     1.0  0.34745  0.81827  0.35282  1.0000
  C   C1937     1.0  0.19925  0.70635  0.20603  1.0000
  H   H1551     1.0  0.37288  0.72417  0.46463  1.0000
  C   C1938     1.0  0.35688  0.97374  0.07699  1.0000
  C   C1939     1.0  0.21830  0.52847  0.12575  1.0000
  H   H1552     1.0  0.31764  0.65169  0.34380  1.0000
  C   C1940     1.0  0.28206  0.73819  0.37598  1.0000
  S   S264      1.0  0.24620  0.96258  0.19447  1.0000
  H   H1553     1.0  0.36922  0.83189  0.27994  1.0000
  C   C1941     1.0  0.19244  0.81586  0.12866  1.0000
  H   H1554     1.0  0.29734  0.60714  0.41440  1.0000
  C   C1942     1.0  0.29887  0.71699  0.36034  1.0000
  H   H1555     1.0  0.22660  0.53039  0.17587  1.0000
  H   H1556     1.0  0.20282  0.84761  0.16851  1.0000
  P   P67       1.0  0.36908  0.79440  0.35457  1.0000
  C   C1943     1.0  0.35956  0.77974  0.37284  1.0000
  C   C1944     1.0  0.19914  0.81781  0.14036  1.0000
  C   C1945     1.0  0.18769  0.90575  0.30010  1.0000
  C   C1946     1.0  0.35818  0.77707  0.39476  1.0000
  C   C1947     1.0  0.35093  0.76521  0.40868  1.0000
  C   C1948     1.0  0.34504  0.75601  0.40081  1.0000
  C   C1949     1.0  0.34634  0.75875  0.37904  1.0000
  C   C1950     1.0  0.35354  0.77061  0.36508  1.0000
  C   C1951     1.0  0.37257  0.81085  0.36774  1.0000
  C   C1952     1.0  0.36675  0.83187  0.36827  1.0000
  C   C1953     1.0  0.36968  0.84448  0.37834  1.0000
  H   H1557     1.0  0.31157  0.95782  0.06506  1.0000
  C   C1954     1.0  0.32536  0.97544  0.12636  1.0000
  C   C1955     1.0  0.38095  0.77574  0.34490  1.0000
  H   H1558     1.0  0.25687  0.98398  0.26934  1.0000
  C   C1956     1.0  0.28369  0.54249  0.30081  1.0000
  H   H1559     1.0  0.37825  0.81303  0.43755  1.0000
  S   S265      1.0  0.18888  0.59559  0.02229  1.0000
  H   H1560     1.0  0.36269  0.78398  0.40119  1.0000
  H   H1561     1.0  0.34994  0.76309  0.42556  1.0000
  H   H1562     1.0  0.33951  0.74663  0.41151  1.0000
  H   H1563     1.0  0.34186  0.75145  0.37301  1.0000
  C   C1957     1.0  0.36966  0.94394  0.09237  1.0000
  H   H1564     1.0  0.35988  0.83850  0.36124  1.0000
  H   H1565     1.0  0.36506  0.86052  0.37917  1.0000
  H   H1566     1.0  0.18900  0.82972  0.11784  1.0000
  H   H1567     1.0  0.19039  0.79618  0.19459  1.0000
  C   C1958     1.0  0.19828  0.53047  0.35214  1.0000
  H   H1568     1.0  0.23393  0.93249  0.18560  1.0000
  H   H1569     1.0  0.31091  0.62931  0.32886  1.0000
  H   H1570     1.0  0.19078  0.92038  0.13251  1.0000
  C   C1959     1.0  0.18970  0.88659  0.35292  1.0000
  C   C1960     1.0  0.21708  0.92370  0.16043  1.0000
  Fe  Fe130     1.0  0.34831  0.66749  0.41235  1.0000
  C   C1961     1.0  0.27877  0.51645  0.22637  1.0000
  C   C1962     1.0  0.28911  0.71837  0.37514  1.0000
  H   H1571     1.0  0.18873  0.55096  0.04254  1.0000
  Fe  Fe131     1.0  0.19913  0.87610  0.23645  1.0000
  C   C1963     1.0  0.30942  0.65624  0.34231  1.0000
  C   C1964     1.0  0.29456  0.75571  0.34792  1.0000
  H   H1572     1.0  0.33911  0.84195  0.32390  1.0000
  C   C1965     1.0  0.20651  0.92297  0.32727  1.0000
  C   C1966     1.0  0.20648  0.96709  0.35758  1.0000
  H   H1573     1.0  0.21299  0.96750  0.19492  1.0000
  H   H1574     1.0  0.33980  0.80278  0.48093  1.0000
  H   H1575     1.0  0.27553  0.55783  0.09288  1.0000
  C   C1967     1.0  0.22131  0.65817  0.14921  1.0000
  C   C1968     1.0  0.21536  0.67171  0.13470  1.0000
  C   C1969     1.0  0.20696  0.68817  0.14090  1.0000
  C   C1970     1.0  0.20440  0.69099  0.16165  1.0000
  C   C1971     1.0  0.21039  0.67754  0.17631  1.0000
  C   C1972     1.0  0.21883  0.66102  0.16994  1.0000
  P   P68       1.0  0.20666  0.67960  0.20368  1.0000
  C   C1973     1.0  0.21871  0.67381  0.21346  1.0000
  H   H1576     1.0  0.20204  0.86244  0.36595  1.0000
  H   H1577     1.0  0.23350  0.80840  0.14693  1.0000
  C   C1974     1.0  0.25912  0.97310  0.34954  1.0000
  C   C1975     1.0  0.33921  0.51294  0.40445  1.0000
  H   H1578     1.0  0.36449  0.60322  0.39637  1.0000
  C   C1976     1.0  0.34002  0.77424  0.47188  1.0000
  C   C1977     1.0  0.21913  0.66263  0.23428  1.0000
  C   C1978     1.0  0.22854  0.65812  0.24147  1.0000
  C   C1979     1.0  0.23765  0.66432  0.22789  1.0000
  C   C1980     1.0  0.23729  0.67558  0.20720  1.0000
  C   C1981     1.0  0.22784  0.68051  0.20005  1.0000
  H   H1579     1.0  0.32667  0.53803  0.41503  1.0000
  C   C1982     1.0  0.20333  0.79998  0.15485  1.0000
  C   C1983     1.0  0.20472  0.99230  0.23628  1.0000
  C   C1984     1.0  0.30706  0.97381  0.06640  1.0000
  H   H1580     1.0  0.27920  0.77214  0.36282  1.0000
  C   C1985     1.0  0.21535  0.86422  0.15172  1.0000
  H   H1581     1.0  0.22771  0.64515  0.14455  1.0000
  H   H1582     1.0  0.21709  0.66923  0.11877  1.0000
  H   H1583     1.0  0.22552  0.77877  0.13838  1.0000
  C   C1986     1.0  0.19807  0.66125  0.21852  1.0000
  H   H1584     1.0  0.22335  0.64999  0.18114  1.0000
  H   H1585     1.0  0.21231  0.71719  0.20999  1.0000
  H   H1586     1.0  0.21031  0.76939  0.27253  1.0000
  H   H1587     1.0  0.32441  0.96013  0.13674  1.0000
  H   H1588     1.0  0.26465  0.50166  0.09615  1.0000
  H   H1589     1.0  0.19760  0.70334  0.16617  1.0000
  C   C1987     1.0  0.19374  0.77850  0.14608  1.0000
  H   H1590     1.0  0.22887  0.64931  0.25746  1.0000
  H   H1591     1.0  0.24504  0.66002  0.23334  1.0000
  H   H1592     1.0  0.24442  0.68001  0.19660  1.0000
  H   H1593     1.0  0.22773  0.68914  0.18393  1.0000
  H   H1594     1.0  0.20353  0.76639  0.16892  1.0000
  C   C1988     1.0  0.29493  0.57607  0.41569  1.0000
  C   C1989     1.0  0.27827  0.51856  0.38663  1.0000
  C   C1990     1.0  0.20883  0.81251  0.20923  1.0000
  C   C1991     1.0  0.31071  0.51303  0.47214  1.0000
  C   C1992     1.0  0.32718  0.75383  0.33977  1.0000
  C   C1993     1.0  0.32925  0.73594  0.35591  1.0000
  C   C1994     1.0  0.32388  0.73634  0.37675  1.0000
  C   C1995     1.0  0.31675  0.75492  0.38163  1.0000
  C   C1996     1.0  0.31463  0.77308  0.36559  1.0000
  C   C1997     1.0  0.31990  0.77237  0.34458  1.0000
  P   P69       1.0  0.30654  0.79794  0.37229  1.0000
  C   C1998     1.0  0.29897  0.81199  0.35216  1.0000
  C   C1999     1.0  0.29765  0.79236  0.39778  1.0000
  C   C2000     1.0  0.29225  0.77561  0.40296  1.0000
  C   C2001     1.0  0.28553  0.77112  0.42283  1.0000
  C   C2002     1.0  0.28419  0.78327  0.43769  1.0000
  C   C2003     1.0  0.28959  0.79984  0.43271  1.0000
  C   C2004     1.0  0.29621  0.80448  0.41278  1.0000
  C   C2005     1.0  0.28825  0.81118  0.35555  1.0000
  C   C2006     1.0  0.28255  0.82126  0.33965  1.0000
  C   C2007     1.0  0.28742  0.83261  0.32038  1.0000
  C   C2008     1.0  0.29805  0.83374  0.31690  1.0000
  C   C2009     1.0  0.30383  0.82341  0.33268  1.0000
  C   C2010     1.0  0.31556  0.81277  0.37424  1.0000
  C   C2011     1.0  0.31388  0.83510  0.36706  1.0000
  C   C2012     1.0  0.32065  0.84642  0.36974  1.0000
  C   C2013     1.0  0.32901  0.83560  0.37993  1.0000
  C   C2014     1.0  0.33066  0.81341  0.38727  1.0000
  C   C2015     1.0  0.32394  0.80205  0.38458  1.0000
  H   H1595     1.0  0.33140  0.75351  0.32361  1.0000
  H   H1596     1.0  0.33527  0.72203  0.35245  1.0000
  H   H1597     1.0  0.32555  0.72254  0.38933  1.0000
  H   H1598     1.0  0.31319  0.75527  0.39806  1.0000
  H   H1599     1.0  0.31866  0.78622  0.33193  1.0000
  H   H1600     1.0  0.29331  0.76593  0.39171  1.0000
  H   H1601     1.0  0.28142  0.75816  0.42680  1.0000
  H   H1602     1.0  0.27907  0.77975  0.45316  1.0000
  H   H1603     1.0  0.28865  0.80913  0.44431  1.0000
  H   H1604     1.0  0.30011  0.81770  0.40910  1.0000
  H   H1605     1.0  0.28409  0.80337  0.37061  1.0000
  H   H1606     1.0  0.27421  0.82096  0.34268  1.0000
  H   H1607     1.0  0.28288  0.84088  0.30830  1.0000
  H   H1608     1.0  0.30175  0.84282  0.30201  1.0000
  H   H1609     1.0  0.31205  0.82450  0.32972  1.0000
  H   H1610     1.0  0.30710  0.84396  0.36026  1.0000
  H   H1611     1.0  0.31903  0.86375  0.36497  1.0000
  H   H1612     1.0  0.33394  0.84444  0.38296  1.0000
  H   H1613     1.0  0.33687  0.80518  0.39593  1.0000
  H   H1614     1.0  0.32504  0.78505  0.39138  1.0000
  C   C2016     1.0  0.26307  0.76772  0.18389  1.0000
  C   C2017     1.0  0.27109  0.75443  0.19406  1.0000
  C   C2018     1.0  0.27160  0.75698  0.21364  1.0000
  C   C2019     1.0  0.26410  0.77283  0.22308  1.0000
  C   C2020     1.0  0.25606  0.78633  0.21291  1.0000
  C   C2021     1.0  0.25556  0.78357  0.19329  1.0000
  P   P70       1.0  0.24590  0.80597  0.22539  1.0000
  C   C2022     1.0  0.23435  0.79480  0.23934  1.0000
  C   C2023     1.0  0.25045  0.81327  0.24486  1.0000
  C   C2024     1.0  0.25047  0.79960  0.26491  1.0000
  C   C2025     1.0  0.25310  0.80583  0.28070  1.0000
  C   C2026     1.0  0.25575  0.82569  0.27658  1.0000
  C   C2027     1.0  0.25581  0.83932  0.25670  1.0000
  C   C2028     1.0  0.25321  0.83316  0.24087  1.0000
  C   C2029     1.0  0.22718  0.80360  0.25589  1.0000
  C   C2030     1.0  0.21854  0.79452  0.26775  1.0000
  C   C2031     1.0  0.21700  0.77644  0.26326  1.0000
  C   C2032     1.0  0.22414  0.76743  0.24689  1.0000
  C   C2033     1.0  0.23277  0.77660  0.23490  1.0000
  C   C2034     1.0  0.24283  0.82967  0.20524  1.0000
  C   C2035     1.0  0.25112  0.83752  0.18970  1.0000
  C   C2036     1.0  0.24891  0.85699  0.17533  1.0000
  C   C2037     1.0  0.23844  0.86867  0.17632  1.0000
  C   C2038     1.0  0.23015  0.86073  0.19139  1.0000
  C   C2039     1.0  0.23232  0.84122  0.20571  1.0000
  H   H1615     1.0  0.26268  0.76570  0.16872  1.0000
  H   H1616     1.0  0.27692  0.74211  0.18680  1.0000
  H   H1617     1.0  0.27780  0.74661  0.22156  1.0000
  H   H1618     1.0  0.26463  0.77444  0.23828  1.0000
  H   H1619     1.0  0.24932  0.79360  0.18532  1.0000
  H   H1620     1.0  0.24821  0.78434  0.26854  1.0000
  H   H1621     1.0  0.25288  0.79550  0.29628  1.0000
  H   H1622     1.0  0.25763  0.83068  0.28889  1.0000
  H   H1623     1.0  0.25770  0.85490  0.25369  1.0000
  H   H1624     1.0  0.25313  0.84429  0.22586  1.0000
  H   H1625     1.0  0.22833  0.81739  0.25984  1.0000
  H   H1626     1.0  0.21305  0.80166  0.28041  1.0000
  H   H1627     1.0  0.31629  0.55383  0.44963  1.0000
  H   H1628     1.0  0.22301  0.75320  0.24370  1.0000
  H   H1629     1.0  0.23826  0.76922  0.22250  1.0000
  H   H1630     1.0  0.25931  0.82902  0.18921  1.0000
  H   H1631     1.0  0.25533  0.86338  0.16376  1.0000
  H   H1632     1.0  0.23676  0.88400  0.16556  1.0000
  H   H1633     1.0  0.22206  0.86998  0.19227  1.0000
  H   H1634     1.0  0.22581  0.83552  0.21743  1.0000
  C   C2040     1.0  0.23284  0.89284  0.23099  1.0000
  C   C2041     1.0  0.24331  0.89228  0.21969  1.0000
  C   C2042     1.0  0.24919  0.90511  0.22275  1.0000
  C   C2043     1.0  0.24458  0.91877  0.23690  1.0000
  C   C2044     1.0  0.23397  0.91987  0.24800  1.0000
  C   C2045     1.0  0.22820  0.90647  0.24514  1.0000
  P   P71       1.0  0.22699  0.94220  0.26055  1.0000
  C   C2046     1.0  0.21909  0.93426  0.28673  1.0000
  C   C2047     1.0  0.23617  0.95599  0.26363  1.0000
  C   C2048     1.0  0.24001  0.95012  0.28228  1.0000
  C   C2049     1.0  0.24720  0.96067  0.28455  1.0000
  C   C2050     1.0  0.35223  0.82093  0.33694  1.0000
  C   C2051     1.0  0.20304  0.81564  0.22924  1.0000
  C   C2052     1.0  0.23968  0.97247  0.24733  1.0000
  C   C2053     1.0  0.21839  0.91280  0.29562  1.0000
  S   S266      1.0  0.28137  0.55818  0.38672  1.0000
  Fe  Fe132     1.0  0.25396  0.95778  0.16164  1.0000
  C   C2054     1.0  0.29949  0.76319  0.47357  1.0000
  H   H1635     1.0  0.24679  0.88227  0.20823  1.0000
  H   H1636     1.0  0.25720  0.90504  0.21353  1.0000
  H   H1637     1.0  0.24917  0.92923  0.23832  1.0000
  H   H1638     1.0  0.23754  0.93731  0.29508  1.0000
  H   H1639     1.0  0.25025  0.95586  0.29883  1.0000
  C   C2055     1.0  0.19042  0.87708  0.38994  1.0000
  H   H1640     1.0  0.24193  0.58260  0.16253  1.0000
  H   H1641     1.0  0.35113  0.86843  0.48688  1.0000
  H   H1642     1.0  0.22282  0.90016  0.28741  1.0000
  C   C2056     1.0  0.34833  0.55310  0.33887  1.0000
  C   C2057     1.0  0.21576  0.50760  0.26465  1.0000
  H   H1643     1.0  0.36429  0.93346  0.05016  1.0000
  C   C2058     1.0  0.19473  0.87420  0.36930  1.0000
  S   S267      1.0  0.37815  0.85249  0.44808  1.0000
  H   H1644     1.0  0.29668  0.77026  0.33753  1.0000
  H   H1645     1.0  0.20617  0.51289  0.14737  1.0000
  C   C2059     1.0  0.21893  0.58875  0.28972  1.0000
  C   C2060     1.0  0.21573  0.60516  0.27321  1.0000
  H   H1646     1.0  0.19029  0.53065  0.07901  1.0000
  H   H1647     1.0  0.21555  0.52883  0.11191  1.0000
  S   S268      1.0  0.30696  0.90237  0.47100  1.0000
  C   C2061     1.0  0.36720  0.61204  0.36243  1.0000
  C   C2062     1.0  0.18931  0.55905  0.05395  1.0000
  H   H1648     1.0  0.28746  0.50541  0.33824  1.0000
  H   H1649     1.0  0.28404  0.51901  0.37179  1.0000
  H   H1650     1.0  0.19141  0.76344  0.14860  1.0000
  H   H1651     1.0  0.22397  0.59096  0.29873  1.0000
  H   H1652     1.0  0.21834  0.62006  0.26932  1.0000
  C   C2063     1.0  0.29026  0.52387  0.26559  1.0000
  H   H1653     1.0  0.36369  0.78834  0.47380  1.0000
  C   C2064     1.0  0.24848  0.52792  0.17313  1.0000
  H   H1654     1.0  0.27450  0.73912  0.38729  1.0000
  C   C2065     1.0  0.19413  0.54407  0.27835  1.0000
  C   C2066     1.0  0.19031  0.59125  0.06283  1.0000
  H   H1655     1.0  0.21991  0.90737  0.25289  1.0000
  S   S269      1.0  0.36269  0.66516  0.42502  1.0000
  H   H1656     1.0  0.29432  0.54348  0.41888  1.0000
  H   H1657     1.0  0.19991  0.55736  0.32621  1.0000
  Fe  Fe133     1.0  0.19472  0.56748  0.17780  1.0000
  C   C2067     1.0  0.25395  0.97708  0.09704  1.0000
  S   S270      1.0  0.34906  0.70762  0.44579  1.0000
  Fe  Fe134     1.0  0.35107  0.67181  0.45507  1.0000
  C   C2068     1.0  0.20054  0.78031  0.15766  1.0000
  C   C2069     1.0  0.36288  0.52372  0.31639  1.0000
  S   S271      1.0  0.20383  0.92181  0.16344  1.0000
  H   H1658     1.0  0.22046  0.77134  0.20580  1.0000
  Fe  Fe135     1.0  0.36000  0.70115  0.41529  1.0000
  C   C2070     1.0  0.22465  0.52930  0.16170  1.0000
  C   C2071     1.0  0.23252  0.84223  0.13971  1.0000
  C   C2072     1.0  0.22676  0.53794  0.12363  1.0000
  H   H1659     1.0  0.20169  0.91872  0.34294  1.0000
  H   H1660     1.0  0.25230  0.52440  0.28462  1.0000
  S   S272      1.0  0.19703  0.91183  0.22591  1.0000
  C   C2073     1.0  0.25993  0.55580  0.11230  1.0000
  C   C2074     1.0  0.30282  0.52504  0.48554  1.0000
  S   S273      1.0  0.37414  0.71613  0.39649  1.0000
  C   C2075     1.0  0.23737  0.73901  0.17398  1.0000
  C   C2076     1.0  0.20404  0.72132  0.20904  1.0000
  H   H1661     1.0  0.29140  0.76464  0.48270  1.0000
  C   C2077     1.0  0.25198  0.54383  0.11986  1.0000
  C   C2078     1.0  0.26027  0.97896  0.38269  1.0000
  C   C2079     1.0  0.36395  0.94206  0.06195  1.0000
  C   C2080     1.0  0.38597  0.75478  0.41891  1.0000
  H   H1662     1.0  0.35637  0.69665  0.48251  1.0000
  H   H1663     1.0  0.24852  0.51426  0.16727  1.0000
  H   H1664     1.0  0.35153  0.50345  0.33013  1.0000
  H   H1665     1.0  0.29218  0.63891  0.32537  1.0000
  S   S274      1.0  0.19292  0.97943  0.36319  1.0000
  C   C2081     1.0  0.20443  0.80519  0.19658  1.0000
  C   C2082     1.0  0.37014  0.93285  0.07714  1.0000
  C   C2083     1.0  0.33749  0.63138  0.36891  1.0000
  H   H1666     1.0  0.20221  0.69837  0.12976  1.0000
  H   H1667     1.0  0.37081  0.74542  0.42552  1.0000
  C   C2084     1.0  0.35362  0.83831  0.29999  1.0000
  H   H1668     1.0  0.35457  0.56451  0.36737  1.0000
  H   H1669     1.0  0.30922  0.73555  0.33600  1.0000
  S   S275      1.0  0.19894  0.87054  0.20519  1.0000
  C   C2085     1.0  0.35823  0.57767  0.36552  1.0000
  C   C2086     1.0  0.19646  0.64622  0.20923  1.0000
  H   H1670     1.0  0.23677  0.97742  0.23289  1.0000
  C   C2087     1.0  0.36825  0.84349  0.44258  1.0000
  C   C2088     1.0  0.22738  0.77000  0.15351  1.0000
  C   C2089     1.0  0.35949  0.58205  0.38372  1.0000
  C   C2090     1.0  0.21912  0.95676  0.22332  1.0000
  C   C2091     1.0  0.26329  0.51689  0.10049  1.0000
  C   C2092     1.0  0.24714  0.98247  0.24942  1.0000
  H   H1671     1.0  0.22928  0.87669  0.13472  1.0000
  C   C2093     1.0  0.37675  0.76814  0.48772  1.0000
  C   C2094     1.0  0.22072  0.92673  0.17681  1.0000
  C   C2095     1.0  0.27793  0.52895  0.29858  1.0000
  C   C2096     1.0  0.35775  0.55859  0.32570  1.0000
  C   C2097     1.0  0.36605  0.60759  0.34418  1.0000
  C   C2098     1.0  0.30570  0.54564  0.43535  1.0000
  H   H1672     1.0  0.36841  0.51245  0.30739  1.0000
  C   C2099     1.0  0.34623  0.53308  0.34082  1.0000
  C   C2100     1.0  0.36145  0.59049  0.34555  1.0000
  H   H1673     1.0  0.24799  0.51413  0.12048  1.0000
  C   C2101     1.0  0.26941  0.54853  0.09863  1.0000
  H   H1674     1.0  0.21547  0.92708  0.19215  1.0000
  C   C2102     1.0  0.36309  0.81111  0.33294  1.0000
  H   H1675     1.0  0.22350  0.97666  0.38139  1.0000
  H   H1676     1.0  0.37730  0.64793  0.45602  1.0000
  C   C2103     1.0  0.29798  0.55393  0.42303  1.0000
  C   C2104     1.0  0.32269  0.50701  0.42917  1.0000
  C   C2105     1.0  0.21300  0.51945  0.14579  1.0000
  H   H1677     1.0  0.37528  0.91709  0.07712  1.0000
  H   H1678     1.0  0.27993  0.97769  0.09003  1.0000
  C   C2106     1.0  0.20966  0.56584  0.28226  1.0000
  H   H1679     1.0  0.19798  0.89619  0.27195  1.0000
  H   H1680     1.0  0.36860  0.61776  0.32903  1.0000
  H   H1681     1.0  0.26184  0.97296  0.39842  1.0000
  H   H1682     1.0  0.21035  0.87987  0.15318  1.0000
  H   H1683     1.0  0.31470  0.65116  0.44223  1.0000
  C   C2107     1.0  0.25380  0.52410  0.11419  1.0000
  H   H1684     1.0  0.24459  0.51056  0.26260  1.0000
  S   S276      1.0  0.20177  0.57787  0.14342  1.0000
  H   H1685     1.0  0.34410  0.52397  0.39428  1.0000
  C   C2108     1.0  0.27019  0.50844  0.24030  1.0000
  H   H1686     1.0  0.21235  0.65695  0.24491  1.0000
  S   S277      1.0  0.21338  0.85606  0.24923  1.0000
  C   C2109     1.0  0.21165  0.97907  0.24903  1.0000
  H   H1687     1.0  0.37235  0.54740  0.30409  1.0000
  Fe  Fe136     1.0  0.18912  0.60789  0.14570  1.0000
  C   C2110     1.0  0.19023  0.54760  0.07452  1.0000
  H   H1688     1.0  0.30655  0.50396  0.40964  1.0000
  H   H1689     1.0  0.29621  0.53656  0.47972  1.0000
  H   H1690     1.0  0.25610  0.50843  0.19854  1.0000
  C   C2111     1.0  0.34750  0.83441  0.32055  1.0000
  C   C2112     1.0  0.23215  0.74661  0.19237  1.0000
  H   H1691     1.0  0.18880  0.62030  0.21355  1.0000
  C   C2113     1.0  0.19771  0.92868  0.27197  1.0000
  H   H1692     1.0  0.35669  0.57253  0.39912  1.0000
  H   H1693     1.0  0.21154  0.98364  0.26323  1.0000
  C   C2114     1.0  0.22213  0.77781  0.17191  1.0000
  C   C2115     1.0  0.26321  0.51772  0.42491  1.0000
  C   C2116     1.0  0.36920  0.81525  0.31228  1.0000
  H   H1694     1.0  0.37036  0.62575  0.36142  1.0000
  C   C2117     1.0  0.38248  0.73189  0.48162  1.0000
  H   H1695     1.0  0.18820  0.81688  0.07009  1.0000
  C   C2118     1.0  0.31042  0.98591  0.07631  1.0000
  H   H1696     1.0  0.34997  0.84886  0.28729  1.0000
  C   C2119     1.0  0.20364  0.52780  0.31525  1.0000
  C   C2120     1.0  0.27108  0.52912  0.09267  1.0000
  C   C2121     1.0  0.38087  0.75412  0.34729  1.0000
  H   H1697     1.0  0.32798  0.51482  0.25177  1.0000
  C   C2122     1.0  0.31605  0.51911  0.19405  1.0000
  C   C2123     1.0  0.20955  0.97764  0.14129  1.0000
  C   C2124     1.0  0.38251  0.72915  0.40273  1.0000
  H   H1698     1.0  0.35455  0.77232  0.34825  1.0000
  C   C2125     1.0  0.21895  0.99304  0.37920  1.0000
  H   H1699     1.0  0.24083  0.84090  0.13179  1.0000
  C   C2126     1.0  0.19258  0.66246  0.23931  1.0000
  S   S278      1.0  0.19198  0.54365  0.11506  1.0000
  C   C2127     1.0  0.21754  0.82554  0.15864  1.0000
  C   C2128     1.0  0.33480  0.97713  0.11110  1.0000
  H   H1700     1.0  0.29488  0.50844  0.20898  1.0000
  H   H1701     1.0  0.19326  0.88413  0.33710  1.0000
  H   H1702     1.0  0.38235  0.57339  0.32330  1.0000
  H   H1703     1.0  0.18830  0.81416  0.25217  1.0000
  H   H1704     1.0  0.21025  0.96468  0.13381  1.0000
  C   C2129     1.0  0.19364  0.94509  0.28307  1.0000
  H   H1705     1.0  0.21182  0.51353  0.17931  1.0000
  C   C2130     1.0  0.37842  0.83619  0.38790  1.0000
  H   H1706     1.0  0.22650  0.97415  0.13628  1.0000
  C   C2131     1.0  0.38057  0.59988  0.26505  1.0000
  C   C2132     1.0  0.18942  0.58088  0.04809  1.0000
  H   H1707     1.0  0.31081  0.50203  0.31200  1.0000
  H   H1708     1.0  0.31747  0.97928  0.08284  1.0000
  H   H1709     1.0  0.37761  0.80816  0.30875  1.0000
  C   C2133     1.0  0.30083  0.49865  0.42368  1.0000
  H   H1710     1.0  0.38060  0.84585  0.39598  1.0000
  C   C2134     1.0  0.38026  0.65883  0.46117  1.0000
  C   C2135     1.0  0.27209  0.98203  0.08663  1.0000
  C   C2136     1.0  0.28825  0.50226  0.21981  1.0000
  C   C2137     1.0  0.38401  0.81506  0.38798  1.0000
  H   H1711     1.0  0.38012  0.60710  0.24872  1.0000
  C   C2138     1.0  0.38175  0.58096  0.30711  1.0000
  C   C2139     1.0  0.27305  0.50130  0.39532  1.0000
  C   C2140     1.0  0.37898  0.74311  0.41683  1.0000
  C   C2141     1.0  0.38002  0.65598  0.48260  1.0000
  S   S279      1.0  0.32882  0.51017  0.32486  1.0000
  C   C2142     1.0  0.38107  0.80241  0.37809  1.0000
  C   C2143     1.0  0.23653  0.50983  0.26308  1.0000
  C   C2144     1.0  0.38404  0.67599  0.44658  1.0000
  C   C2145     1.0  0.18987  0.63200  0.22084  1.0000
  C   C2146     1.0  0.38506  0.87568  0.48339  1.0000
  C   C2147     1.0  0.26551  0.50092  0.41454  1.0000
  H   H1712     1.0  0.38542  0.78598  0.37869  1.0000
  C   C2148     1.0  0.21620  0.51979  0.16373  1.0000
  H   H1713     1.0  0.38315  0.76602  0.42922  1.0000
  H   H1714     1.0  0.27846  0.52340  0.08221  1.0000
  H   H1715     1.0  0.29205  0.50027  0.47591  1.0000
  H   H1716     1.0  0.38071  0.86477  0.48205  1.0000
  C   C2149     1.0  0.21869  0.98301  0.14261  1.0000
  C   C2150     1.0  0.18789  0.76981  0.05974  1.0000
  C   C2151     1.0  0.31714  0.99355  0.12832  1.0000
  C   C2152     1.0  0.19949  0.98872  0.14991  1.0000
  H   H1717     1.0  0.26926  0.99340  0.02944  1.0000
  C   C2153     1.0  0.18739  0.74773  0.20960  1.0000
  S   S280      1.0  0.24992  0.99255  0.14596  1.0000
  H   H1718     1.0  0.30982  0.99235  0.14014  1.0000
  H   H1719     1.0  0.27289  0.99069  0.99230  1.0000
  H   H1720     1.0  0.21102  0.99444  0.33442  1.0000
  C   C2154     1.0  0.18743  0.80590  0.06160  1.0000
  C   C2155     1.0  0.20135  0.49617  0.34311  1.0000
  H   H1721     1.0  0.25028  0.99430  0.23636  1.0000
  Fe  Fe137     1.0  0.26555  0.99442  0.15090  1.0000
  C   C2156     1.0  0.25531  0.99507  0.34282  1.0000
  C   C2157     1.0  0.25173  0.49619  0.34339  1.0000
  C   C2158     1.0  0.22828  0.49597  0.33101  1.0000
  H   H1722     1.0  0.20587  0.49601  0.31004  1.0000
  H   H1723     1.0  0.36364  0.83319  0.48881  1.0000
  C   C2159     1.0  0.20048  0.49944  0.99147  1.0000
  C   C2160     1.0  0.30788  0.90168  0.49669  1.0000
  C   C2161     1.0  0.33723  0.75483  0.51482  1.0000
  H   H1724     1.0  0.20866  0.84617  0.97814  1.0000
  C   C2162     1.0  0.19954  0.50961  0.94885  1.0000
  C   C2163     1.0  0.35536  0.77871  0.63173  1.0000
  S   S281      1.0  0.19459  0.52079  0.86875  1.0000
  Fe  Fe138     1.0  0.23070  0.51615  0.81764  1.0000
  S   S282      1.0  0.24108  0.53975  0.81089  1.0000
  C   C2164     1.0  0.24292  0.96007  0.80241  1.0000
  S   S283      1.0  0.21399  0.52933  0.81327  1.0000
  C   C2165     1.0  0.30380  0.66782  0.67911  1.0000
  H   H1725     1.0  0.22189  0.84522  0.90823  1.0000
  Fe  Fe139     1.0  0.28917  0.52796  0.67045  1.0000
  C   C2166     1.0  0.35145  0.81542  0.50570  1.0000
  C   C2167     1.0  0.38359  0.74789  0.49033  1.0000
  Fe  Fe140     1.0  0.30060  0.56280  0.66914  1.0000
  S   S284      1.0  0.29600  0.55847  0.70447  1.0000
  S   S285      1.0  0.30689  0.59169  0.64735  1.0000
  H   H1726     1.0  0.35566  0.82437  0.69722  1.0000
  Fe  Fe141     1.0  0.27993  0.55667  0.70207  1.0000
  S   S286      1.0  0.26485  0.57604  0.71828  1.0000
  S   S287      1.0  0.30618  0.52736  0.66969  1.0000
  S   S288      1.0  0.28407  0.56358  0.66676  1.0000
  S   S289      1.0  0.18908  0.87736  0.87249  1.0000
  C   C2168     1.0  0.23440  0.97545  0.81035  1.0000
  C   C2169     1.0  0.19362  0.57220  0.83761  1.0000
  C   C2170     1.0  0.33378  0.81176  0.67617  1.0000
  H   H1727     1.0  0.21440  0.55585  0.89552  1.0000
  S   S290      1.0  0.33480  0.71564  0.65454  1.0000
  H   H1728     1.0  0.30754  0.81266  0.66704  1.0000
  H   H1729     1.0  0.19720  0.82199  0.92627  1.0000
  H   H1730     1.0  0.29731  0.53166  0.51679  1.0000
  C   C2171     1.0  0.23036  0.84407  0.90565  1.0000
  S   S291      1.0  0.34191  0.68106  0.61166  1.0000
  Fe  Fe142     1.0  0.27445  0.89694  0.78458  1.0000
  S   S292      1.0  0.25909  0.89342  0.80758  1.0000
  S   S293      1.0  0.28649  0.91075  0.79109  1.0000
  Fe  Fe143     1.0  0.27029  0.87552  0.75411  1.0000
  S   S294      1.0  0.25457  0.87063  0.77474  1.0000
  S   S295      1.0  0.27437  0.86171  0.72522  1.0000
  Fe  Fe144     1.0  0.25224  0.90396  0.77864  1.0000
  S   S296      1.0  0.23596  0.92501  0.77964  1.0000
  Fe  Fe145     1.0  0.26289  0.86042  0.80139  1.0000
  S   S297      1.0  0.26097  0.82968  0.82501  1.0000
  S   S298      1.0  0.26735  0.90997  0.75574  1.0000
  S   S299      1.0  0.27893  0.86285  0.78058  1.0000
  C   C2172     1.0  0.27990  0.79807  0.69112  1.0000
  C   C2173     1.0  0.31205  0.70862  0.59581  1.0000
  H   H1731     1.0  0.27587  0.81679  0.66162  1.0000
  C   C2174     1.0  0.34794  0.90691  0.50150  1.0000
  C   C2175     1.0  0.29392  0.62566  0.68225  1.0000
  Fe  Fe146     1.0  0.31882  0.86357  0.63053  1.0000
  S   S300      1.0  0.32878  0.87818  0.60029  1.0000
  S   S301      1.0  0.31641  0.87780  0.65864  1.0000
  Fe  Fe147     1.0  0.31516  0.83113  0.61057  1.0000
  S   S302      1.0  0.32472  0.84313  0.57863  1.0000
  S   S303      1.0  0.30708  0.80397  0.61684  1.0000
  Fe  Fe148     1.0  0.33603  0.84439  0.59718  1.0000
  S   S304      1.0  0.35352  0.83324  0.58607  1.0000
  Fe  Fe149     1.0  0.31644  0.87564  0.58493  1.0000
  S   S305      1.0  0.31000  0.90483  0.56223  1.0000
  S   S306      1.0  0.32715  0.82965  0.62871  1.0000
  S   S307      1.0  0.30581  0.86364  0.61551  1.0000
  H   H1732     1.0  0.18860  0.51380  0.80775  1.0000
  Fe  Fe150     1.0  0.30033  0.52315  0.70499  1.0000
  Fe  Fe151     1.0  0.20360  0.89784  0.90309  1.0000
  S   S308      1.0  0.21124  0.89140  0.87078  1.0000
  S   S309      1.0  0.21283  0.90496  0.92271  1.0000
  H   H1733     1.0  0.28716  0.65513  0.62101  1.0000
  Fe  Fe152     1.0  0.20459  0.86187  0.88227  1.0000
  S   S310      1.0  0.21388  0.82917  0.87742  1.0000
  S   S311      1.0  0.19828  0.86679  0.91531  1.0000
  H   H1734     1.0  0.26943  0.61557  0.68983  1.0000
  C   C2176     1.0  0.37918  0.79822  0.52796  1.0000
  C   C2177     1.0  0.36103  0.83297  0.60381  1.0000
  C   C2178     1.0  0.35627  0.83449  0.62479  1.0000
  H   H1735     1.0  0.35899  0.83240  0.65549  1.0000
  H   H1736     1.0  0.34772  0.83722  0.63005  1.0000
  C   C2179     1.0  0.19893  0.98771  0.80141  1.0000
  C   C2180     1.0  0.30943  0.90278  0.53714  1.0000
  C   C2181     1.0  0.30690  0.92179  0.52250  1.0000
  C   C2182     1.0  0.19154  0.81261  0.92736  1.0000
  H   H1737     1.0  0.30434  0.93610  0.49108  1.0000
  C   C2183     1.0  0.31022  0.88249  0.51141  1.0000
  C   C2184     1.0  0.31115  0.88302  0.53162  1.0000
  H   H1738     1.0  0.30553  0.93706  0.52669  1.0000
  C   C2185     1.0  0.30620  0.92125  0.50236  1.0000
  C   C2186     1.0  0.25247  0.94320  0.58491  1.0000
  H   H1739     1.0  0.31300  0.86826  0.54298  1.0000
  H   H1740     1.0  0.35330  0.87158  0.55531  1.0000
  C   C2187     1.0  0.22597  0.95563  0.91414  1.0000
  C   C2188     1.0  0.22359  0.93518  0.92097  1.0000
  C   C2189     1.0  0.21567  0.93065  0.91398  1.0000
  C   C2190     1.0  0.21003  0.94669  0.90034  1.0000
  H   H1741     1.0  0.19933  0.51358  0.93224  1.0000
  H   H1742     1.0  0.21449  0.55712  0.65220  1.0000
  H   H1743     1.0  0.22791  0.92285  0.93160  1.0000
  H   H1744     1.0  0.20396  0.94329  0.89477  1.0000
  H   H1745     1.0  0.33489  0.88873  0.55147  1.0000
  H   H1746     1.0  0.22152  0.75014  0.84221  1.0000
  H   H1747     1.0  0.21521  0.98346  0.64149  1.0000
  C   C2191     1.0  0.30358  0.77669  0.75522  1.0000
  C   C2192     1.0  0.24774  0.82977  0.83879  1.0000
  C   C2193     1.0  0.24537  0.81142  0.85364  1.0000
  C   C2194     1.0  0.23489  0.81117  0.86496  1.0000
  C   C2195     1.0  0.22679  0.82947  0.86191  1.0000
  C   C2196     1.0  0.22911  0.84767  0.84670  1.0000
  C   C2197     1.0  0.23956  0.84771  0.83491  1.0000
  H   H1748     1.0  0.25166  0.79745  0.85652  1.0000
  H   H1749     1.0  0.23312  0.79703  0.87658  1.0000
  H   H1750     1.0  0.22285  0.86165  0.84389  1.0000
  H   H1751     1.0  0.24130  0.86174  0.82305  1.0000
  C   C2198     1.0  0.28615  0.86638  0.70728  1.0000
  C   C2199     1.0  0.28958  0.85683  0.68984  1.0000
  C   C2200     1.0  0.29882  0.86049  0.67481  1.0000
  C   C2201     1.0  0.30478  0.87346  0.67737  1.0000
  C   C2202     1.0  0.30147  0.88279  0.69508  1.0000
  C   C2203     1.0  0.29211  0.87930  0.71005  1.0000
  H   H1752     1.0  0.28509  0.84649  0.68803  1.0000
  H   H1753     1.0  0.30143  0.85313  0.66133  1.0000
  H   H1754     1.0  0.30612  0.89275  0.69714  1.0000
  H   H1755     1.0  0.28952  0.88658  0.72366  1.0000
  C   C2204     1.0  0.28258  0.92384  0.81242  1.0000
  C   C2205     1.0  0.29057  0.92651  0.82055  1.0000
  C   C2206     1.0  0.28794  0.93535  0.83842  1.0000
  C   C2207     1.0  0.27729  0.94244  0.84789  1.0000
  C   C2208     1.0  0.26922  0.94081  0.83921  1.0000
  C   C2209     1.0  0.27187  0.93122  0.82163  1.0000
  H   H1756     1.0  0.29884  0.92097  0.81349  1.0000
  H   H1757     1.0  0.29420  0.93649  0.84507  1.0000
  H   H1758     1.0  0.26096  0.94615  0.84648  1.0000
  H   H1759     1.0  0.26564  0.92936  0.81540  1.0000
  H   H1760     1.0  0.28648  0.57993  0.74972  1.0000
  H   H1761     1.0  0.23732  0.88817  0.66806  1.0000
  C   C2210     1.0  0.23724  0.82404  0.90915  1.0000
  H   H1762     1.0  0.26995  0.57466  0.77652  1.0000
  C   C2211     1.0  0.29836  0.62780  0.77229  1.0000
  H   H1763     1.0  0.28603  0.78102  0.71880  1.0000
  C   C2212     1.0  0.20032  0.84745  0.97894  1.0000
  C   C2213     1.0  0.32733  0.74000  0.64312  1.0000
  C   C2214     1.0  0.33230  0.75626  0.62962  1.0000
  C   C2215     1.0  0.32609  0.77619  0.62176  1.0000
  C   C2216     1.0  0.31498  0.77954  0.62690  1.0000
  C   C2217     1.0  0.31005  0.76312  0.64005  1.0000
  C   C2218     1.0  0.31622  0.74350  0.64838  1.0000
  H   H1764     1.0  0.34089  0.75351  0.62552  1.0000
  H   H1765     1.0  0.32987  0.78888  0.61150  1.0000
  H   H1766     1.0  0.30146  0.76574  0.64406  1.0000
  H   H1767     1.0  0.31237  0.73096  0.65874  1.0000
  C   C2219     1.0  0.31890  0.59888  0.64598  1.0000
  C   C2220     1.0  0.31974  0.62032  0.63763  1.0000
  C   C2221     1.0  0.32924  0.62669  0.63555  1.0000
  C   C2222     1.0  0.33806  0.61157  0.64153  1.0000
  C   C2223     1.0  0.33719  0.59014  0.65004  1.0000
  C   C2224     1.0  0.32766  0.58380  0.65223  1.0000
  H   H1768     1.0  0.31305  0.63203  0.63258  1.0000
  H   H1769     1.0  0.32981  0.64319  0.62882  1.0000
  H   H1770     1.0  0.34399  0.57832  0.65466  1.0000
  H   H1771     1.0  0.32717  0.56718  0.65831  1.0000
  C   C2225     1.0  0.24764  0.54870  0.78479  1.0000
  C   C2226     1.0  0.24762  0.57054  0.77787  1.0000
  C   C2227     1.0  0.25280  0.57858  0.75733  1.0000
  C   C2228     1.0  0.25860  0.56471  0.74389  1.0000
  C   C2229     1.0  0.25894  0.54264  0.75089  1.0000
  C   C2230     1.0  0.25328  0.53466  0.77129  1.0000
  H   H1772     1.0  0.24338  0.58138  0.78833  1.0000
  H   H1773     1.0  0.25248  0.59560  0.75198  1.0000
  H   H1774     1.0  0.26335  0.53185  0.74049  1.0000
  H   H1775     1.0  0.25347  0.51768  0.77669  1.0000
  C   C2231     1.0  0.19604  0.53595  0.88487  1.0000
  C   C2232     1.0  0.20586  0.54046  0.88330  1.0000
  C   C2233     1.0  0.20677  0.55247  0.89664  1.0000
  C   C2234     1.0  0.35755  0.71847  0.68248  1.0000
  C   C2235     1.0  0.34446  0.78297  0.72838  1.0000
  H   H1776     1.0  0.37682  0.64296  0.49392  1.0000
  H   H1777     1.0  0.21274  0.53475  0.87183  1.0000
  H   H1778     1.0  0.26867  0.53912  0.79914  1.0000
  C   C2236     1.0  0.18807  0.55543  0.91303  1.0000
  H   H1779     1.0  0.18756  0.99235  0.90620  1.0000
  H   H1780     1.0  0.25862  0.95395  0.78311  1.0000
  S   S312      1.0  0.19413  0.92833  0.83116  1.0000
  C   C2237     1.0  0.23521  0.95043  0.76275  1.0000
  P   P72       1.0  0.33614  0.79193  0.52753  1.0000
  C   C2238     1.0  0.35720  0.76245  0.57648  1.0000
  H   H1781     1.0  0.27120  0.97218  0.70067  1.0000
  H   H1782     1.0  0.23407  0.80967  0.91434  1.0000
  H   H1783     1.0  0.24816  0.94185  0.57403  1.0000
  H   H1784     1.0  0.31233  0.50552  0.53062  1.0000
  H   H1785     1.0  0.29838  0.81273  0.52338  1.0000
  H   H1786     1.0  0.24229  0.94352  0.80603  1.0000
  C   C2239     1.0  0.35866  0.75247  0.55983  1.0000
  C   C2240     1.0  0.19273  0.70806  0.94244  1.0000
  H   H1787     1.0  0.35329  0.67124  0.71544  1.0000
  C   C2241     1.0  0.28778  0.79069  0.70299  1.0000
  C   C2242     1.0  0.29390  0.62568  0.70308  1.0000
  C   C2243     1.0  0.33817  0.77629  0.50818  1.0000
  S   S313      1.0  0.22577  0.49886  0.85132  1.0000
  C   C2244     1.0  0.31479  0.58773  0.70236  1.0000
  C   C2245     1.0  0.31083  0.64957  0.68768  1.0000
  H   H1788     1.0  0.22701  0.97113  0.81963  1.0000
  C   C2246     1.0  0.32357  0.60111  0.72142  1.0000
  H   H1789     1.0  0.20650  0.68781  0.95373  1.0000
  H   H1790     1.0  0.35957  0.84021  0.54052  1.0000
  H   H1791     1.0  0.19491  0.55740  0.83265  1.0000
  H   H1792     1.0  0.35701  0.80011  0.50657  1.0000
  C   C2247     1.0  0.20002  0.77285  0.87602  1.0000
  C   C2248     1.0  0.20769  0.75688  0.86689  1.0000
  Fe  Fe153     1.0  0.21610  0.49958  0.80174  1.0000
  C   C2249     1.0  0.31537  0.60429  0.71087  1.0000
  C   C2250     1.0  0.20766  0.80005  0.84831  1.0000
  C   C2251     1.0  0.19985  0.79448  0.86616  1.0000
  C   C2252     1.0  0.20346  0.70261  0.94342  1.0000
  H   H1793     1.0  0.35115  0.69313  0.68001  1.0000
  C   C2253     1.0  0.21814  0.51622  0.70455  1.0000
  H   H1794     1.0  0.31137  0.86736  0.50712  1.0000
  C   C2254     1.0  0.20637  0.51367  0.97692  1.0000
  C   C2255     1.0  0.37046  0.88721  0.56139  1.0000
  Fe  Fe154     1.0  0.26228  0.98108  0.87684  1.0000
  C   C2256     1.0  0.25582  0.50274  0.84566  1.0000
  P   P73       1.0  0.30560  0.62930  0.70891  1.0000
  C   C2257     1.0  0.35600  0.76898  0.65265  1.0000
  C   C2258     1.0  0.19356  0.49539  0.96334  1.0000
  H   H1795     1.0  0.33732  0.72643  0.50526  1.0000
  C   C2259     1.0  0.18715  0.54356  0.89961  1.0000
  H   H1796     1.0  0.31762  0.80839  0.50876  1.0000
  H   H1797     1.0  0.38042  0.78128  0.52863  1.0000
  S   S314      1.0  0.30901  0.49995  0.72934  1.0000
  H   H1798     1.0  0.20776  0.74010  0.87379  1.0000
  H   H1799     1.0  0.29560  0.65361  0.78805  1.0000
  H   H1800     1.0  0.30200  0.54933  0.74634  1.0000
  H   H1801     1.0  0.20780  0.81681  0.84153  1.0000
  S   S315      1.0  0.18800  0.91675  0.89491  1.0000
  C   C2260     1.0  0.35473  0.66740  0.50551  1.0000
  C   C2261     1.0  0.32209  0.56810  0.70485  1.0000
  H   H1802     1.0  0.32430  0.61379  0.72782  1.0000
  C   C2262     1.0  0.27119  0.97811  0.74939  1.0000
  C   C2263     1.0  0.38025  0.74389  0.68830  1.0000
  H   H1803     1.0  0.36101  0.68421  0.73791  1.0000
  C   C2264     1.0  0.28484  0.52383  0.78627  1.0000
  H   H1804     1.0  0.21268  0.83533  0.70133  1.0000
  H   H1805     1.0  0.19598  0.96098  0.79328  1.0000
  H   H1806     1.0  0.20231  0.79419  0.90564  1.0000
  C   C2265     1.0  0.26146  0.86450  0.68032  1.0000
  C   C2266     1.0  0.25043  0.86941  0.68235  1.0000
  C   C2267     1.0  0.24588  0.88427  0.66639  1.0000
  C   C2268     1.0  0.25234  0.89429  0.64837  1.0000
  C   C2269     1.0  0.26343  0.88956  0.64628  1.0000
  C   C2270     1.0  0.26793  0.87440  0.66229  1.0000
  P   P74       1.0  0.27193  0.90251  0.62326  1.0000
  C   C2271     1.0  0.27846  0.88457  0.60533  1.0000
  C   C2272     1.0  0.26414  0.92637  0.60962  1.0000
  C   C2273     1.0  0.25838  0.92476  0.59577  1.0000
  C   C2274     1.0  0.27742  0.99193  0.81809  1.0000
  C   C2275     1.0  0.22017  0.97180  0.90085  1.0000
  C   C2276     1.0  0.25792  0.96508  0.60164  1.0000
  C   C2277     1.0  0.26380  0.94667  0.61260  1.0000
  C   C2278     1.0  0.28204  0.89293  0.58373  1.0000
  C   C2279     1.0  0.28725  0.87921  0.56985  1.0000
  C   C2280     1.0  0.28917  0.85704  0.57741  1.0000
  C   C2281     1.0  0.28566  0.84855  0.59885  1.0000
  C   C2282     1.0  0.28029  0.86222  0.61277  1.0000
  C   C2283     1.0  0.28188  0.91037  0.63127  1.0000
  C   C2284     1.0  0.28004  0.91401  0.65170  1.0000
  C   C2285     1.0  0.28785  0.91974  0.65787  1.0000
  C   C2286     1.0  0.29747  0.92214  0.64365  1.0000
  C   C2287     1.0  0.29923  0.91914  0.62315  1.0000
  C   C2288     1.0  0.29144  0.91349  0.61690  1.0000
  H   H1807     1.0  0.26501  0.85329  0.69288  1.0000
  H   H1808     1.0  0.24540  0.86189  0.69640  1.0000
  H   H1809     1.0  0.24779  0.97765  0.57914  1.0000
  H   H1810     1.0  0.24863  0.90582  0.63629  1.0000
  H   H1811     1.0  0.27647  0.87051  0.66088  1.0000
  H   H1812     1.0  0.25854  0.90925  0.59324  1.0000
  H   H1813     1.0  0.30080  0.51362  0.76862  1.0000
  H   H1814     1.0  0.29714  0.61587  0.78686  1.0000
  C   C2289     1.0  0.37510  0.76599  0.64309  1.0000
  H   H1815     1.0  0.26816  0.94841  0.62316  1.0000
  H   H1816     1.0  0.28106  0.91006  0.57758  1.0000
  H   H1817     1.0  0.29004  0.88583  0.55325  1.0000
  H   H1818     1.0  0.29354  0.84647  0.56671  1.0000
  H   H1819     1.0  0.28734  0.83134  0.60474  1.0000
  H   H1820     1.0  0.27785  0.85522  0.62930  1.0000
  H   H1821     1.0  0.27267  0.91223  0.66303  1.0000
  H   H1822     1.0  0.28659  0.92170  0.67387  1.0000
  H   H1823     1.0  0.30370  0.92572  0.64868  1.0000
  H   H1824     1.0  0.30677  0.92063  0.61221  1.0000
  H   H1825     1.0  0.29305  0.91114  0.60097  1.0000
  H   H1826     1.0  0.30554  0.66047  0.60735  1.0000
  C   C2290     1.0  0.31395  0.72431  0.60368  1.0000
  H   H1827     1.0  0.19701  0.85766  0.80692  1.0000
  H   H1828     1.0  0.38355  0.72222  0.61661  1.0000
  H   H1829     1.0  0.30880  0.58992  0.69355  1.0000
  C   C2291     1.0  0.30082  0.62190  0.75284  1.0000
  H   H1830     1.0  0.21040  0.52991  0.94437  1.0000
  C   C2292     1.0  0.30151  0.65859  0.73466  1.0000
  C   C2293     1.0  0.31554  0.71266  0.52914  1.0000
  C   C2294     1.0  0.20622  0.73554  0.91815  1.0000
  H   H1831     1.0  0.30860  0.72944  0.61753  1.0000
  H   H1832     1.0  0.33424  0.66236  0.65817  1.0000
  H   H1833     1.0  0.28454  0.62237  0.73524  1.0000
  C   C2295     1.0  0.32573  0.66395  0.66408  1.0000
  C   C2296     1.0  0.35842  0.89706  0.50347  1.0000
  C   C2297     1.0  0.29803  0.77975  0.77547  1.0000
  C   C2298     1.0  0.28951  0.79729  0.77788  1.0000
  C   C2299     1.0  0.28653  0.81178  0.76006  1.0000
  C   C2300     1.0  0.29207  0.80885  0.73986  1.0000
  H   H1834     1.0  0.30037  0.76859  0.78934  1.0000
  H   H1835     1.0  0.28525  0.79982  0.79353  1.0000
  H   H1836     1.0  0.27996  0.82548  0.76186  1.0000
  S   S316      1.0  0.20753  0.50402  0.77600  1.0000
  H   H1837     1.0  0.27219  0.79401  0.69769  1.0000
  H   H1838     1.0  0.28950  0.93134  0.74562  1.0000
  H   H1839     1.0  0.30517  0.70182  0.60382  1.0000
  C   C2301     1.0  0.21474  0.88585  0.80653  1.0000
  C   C2302     1.0  0.20554  0.87766  0.81288  1.0000
  C   C2303     1.0  0.20415  0.86402  0.80183  1.0000
  C   C2304     1.0  0.21187  0.85891  0.78410  1.0000
  C   C2305     1.0  0.22105  0.86745  0.77740  1.0000
  C   C2306     1.0  0.22257  0.88042  0.78914  1.0000
  P   P75       1.0  0.23107  0.86147  0.75437  1.0000
  C   C2307     1.0  0.24171  0.83958  0.76228  1.0000
  C   C2308     1.0  0.22527  0.85330  0.73744  1.0000
  C   C2309     1.0  0.22518  0.83159  0.74029  1.0000
  C   C2310     1.0  0.22069  0.82515  0.72724  1.0000
  C   C2311     1.0  0.21620  0.84032  0.71135  1.0000
  P   P76       1.0  0.28373  0.49718  0.80123  1.0000
  C   C2312     1.0  0.22065  0.86847  0.72155  1.0000
  C   C2313     1.0  0.24984  0.83057  0.74693  1.0000
  C   C2314     1.0  0.25832  0.81429  0.75287  1.0000
  C   C2315     1.0  0.25852  0.80626  0.77424  1.0000
  C   C2316     1.0  0.25021  0.81440  0.78964  1.0000
  C   C2317     1.0  0.24186  0.83107  0.78376  1.0000
  C   C2318     1.0  0.23566  0.88579  0.73980  1.0000
  C   C2319     1.0  0.24624  0.88506  0.72857  1.0000
  C   C2320     1.0  0.24961  0.90384  0.71699  1.0000
  C   C2321     1.0  0.24244  0.92361  0.71646  1.0000
  C   C2322     1.0  0.23192  0.92460  0.72773  1.0000
  C   C2323     1.0  0.22853  0.90582  0.73933  1.0000
  H   H1840     1.0  0.21575  0.89664  0.81500  1.0000
  H   H1841     1.0  0.19948  0.88210  0.82630  1.0000
  H   H1842     1.0  0.21060  0.84850  0.77564  1.0000
  H   H1843     1.0  0.22972  0.88667  0.78464  1.0000
  H   H1844     1.0  0.22851  0.81965  0.75270  1.0000
  H   H1845     1.0  0.22064  0.80839  0.72956  1.0000
  H   H1846     1.0  0.33199  0.87081  0.50316  1.0000
  C   C2324     1.0  0.36460  0.78166  0.61644  1.0000
  H   H1847     1.0  0.22043  0.88533  0.71922  1.0000
  H   H1848     1.0  0.24979  0.83649  0.73032  1.0000
  H   H1849     1.0  0.26485  0.80822  0.74091  1.0000
  H   H1850     1.0  0.26516  0.79393  0.77892  1.0000
  H   H1851     1.0  0.25042  0.80827  0.80621  1.0000
  H   H1852     1.0  0.23575  0.83755  0.79608  1.0000
  H   H1853     1.0  0.25204  0.87018  0.72907  1.0000
  H   H1854     1.0  0.25788  0.90305  0.70893  1.0000
  H   H1855     1.0  0.24511  0.93824  0.70800  1.0000
  H   H1856     1.0  0.22650  0.94005  0.72819  1.0000
  H   H1857     1.0  0.22039  0.90707  0.74824  1.0000
  C   C2325     1.0  0.34630  0.80373  0.72103  1.0000
  C   C2326     1.0  0.35524  0.83410  0.49581  1.0000
  H   H1858     1.0  0.34902  0.75078  0.72378  1.0000
  H   H1859     1.0  0.28073  0.95523  0.77038  1.0000
  C   C2327     1.0  0.32184  0.64777  0.68007  1.0000
  C   C2328     1.0  0.32780  0.71141  0.56782  1.0000
  C   C2329     1.0  0.33775  0.61618  0.58762  1.0000
  C   C2330     1.0  0.30719  0.79119  0.56905  1.0000
  H   H1860     1.0  0.33329  0.70654  0.55395  1.0000
  H   H1861     1.0  0.21148  0.74627  0.90923  1.0000
  C   C2331     1.0  0.24818  0.82260  0.90565  1.0000
  C   C2332     1.0  0.25226  0.84120  0.89831  1.0000
  C   C2333     1.0  0.24542  0.86133  0.89397  1.0000
  C   C2334     1.0  0.23441  0.86266  0.89827  1.0000
  P   P77       1.0  0.25059  0.88544  0.88355  1.0000
  C   C2335     1.0  0.25046  0.89701  0.90502  1.0000
  C   C2336     1.0  0.26389  0.87871  0.86752  1.0000
  C   C2337     1.0  0.27235  0.88686  0.86858  1.0000
  C   C2338     1.0  0.28241  0.88193  0.85559  1.0000
  C   C2339     1.0  0.28420  0.86875  0.84148  1.0000
  C   C2340     1.0  0.27600  0.85991  0.84085  1.0000
  C   C2341     1.0  0.26592  0.86482  0.85379  1.0000
  C   C2342     1.0  0.25411  0.91595  0.90086  1.0000
  C   C2343     1.0  0.25477  0.92396  0.91744  1.0000
  C   C2344     1.0  0.25132  0.91379  0.93836  1.0000
  C   C2345     1.0  0.24733  0.89534  0.94270  1.0000
  C   C2346     1.0  0.24694  0.88691  0.92612  1.0000
  C   C2347     1.0  0.24207  0.90311  0.86627  1.0000
  C   C2348     1.0  0.23995  0.89518  0.85095  1.0000
  C   C2349     1.0  0.23280  0.90774  0.83839  1.0000
  C   C2350     1.0  0.22741  0.92817  0.84145  1.0000
  C   C2351     1.0  0.22949  0.93635  0.85655  1.0000
  C   C2352     1.0  0.23677  0.92390  0.86896  1.0000
  H   H1862     1.0  0.25352  0.80708  0.90831  1.0000
  H   H1863     1.0  0.26075  0.83984  0.89566  1.0000
  H   H1864     1.0  0.22895  0.87806  0.89564  1.0000
  H   H1865     1.0  0.27135  0.89721  0.87908  1.0000
  H   H1866     1.0  0.28875  0.88888  0.85605  1.0000
  H   H1867     1.0  0.29189  0.86566  0.83084  1.0000
  H   H1868     1.0  0.27738  0.84955  0.83002  1.0000
  H   H1869     1.0  0.25972  0.85777  0.85294  1.0000
  H   H1870     1.0  0.25664  0.92440  0.88475  1.0000
  H   H1871     1.0  0.25808  0.93799  0.91395  1.0000
  H   H1872     1.0  0.25170  0.92031  0.95113  1.0000
  H   H1873     1.0  0.24450  0.88761  0.95891  1.0000
  H   H1874     1.0  0.24381  0.87263  0.92988  1.0000
  H   H1875     1.0  0.24365  0.87907  0.84898  1.0000
  H   H1876     1.0  0.23128  0.90151  0.82651  1.0000
  H   H1877     1.0  0.22166  0.93760  0.83201  1.0000
  H   H1878     1.0  0.22538  0.95230  0.85880  1.0000
  H   H1879     1.0  0.23796  0.93047  0.88088  1.0000
  H   H1880     1.0  0.33778  0.84109  0.67592  1.0000
  C   C2353     1.0  0.29415  0.52699  0.77107  1.0000
  C   C2354     1.0  0.29191  0.81611  0.66238  1.0000
  C   C2355     1.0  0.34114  0.63486  0.58560  1.0000
  H   H1881     1.0  0.32739  0.78481  0.67829  1.0000
  H   H1882     1.0  0.32805  0.66001  0.53201  1.0000
  H   H1883     1.0  0.33135  0.91128  0.51724  1.0000
  C   C2356     1.0  0.30063  0.79127  0.73722  1.0000
  H   H1884     1.0  0.34767  0.78445  0.62748  1.0000
  C   C2357     1.0  0.35639  0.68934  0.53451  1.0000
  C   C2358     1.0  0.33479  0.65492  0.57900  1.0000
  C   C2359     1.0  0.27611  0.54120  0.78816  1.0000
  C   C2360     1.0  0.22594  0.96614  0.76637  1.0000
  H   H1885     1.0  0.26911  0.61595  0.72657  1.0000
  S   S317      1.0  0.35739  0.66817  0.64581  1.0000
  H   H1886     1.0  0.32748  0.63382  0.68606  1.0000
  S   S318      1.0  0.19934  0.57379  0.92892  1.0000
  C   C2361     1.0  0.19791  0.55973  0.91171  1.0000
  H   H1887     1.0  0.29844  0.68090  0.75468  1.0000
  C   C2362     1.0  0.28611  0.56446  0.76025  1.0000
  C   C2363     1.0  0.27679  0.56146  0.77528  1.0000
  Fe  Fe155     1.0  0.34674  0.69761  0.63128  1.0000
  P   P78       1.0  0.19037  0.76572  0.89994  1.0000
  C   C2364     1.0  0.21553  0.78409  0.83979  1.0000
  C   C2365     1.0  0.29749  0.64906  0.77296  1.0000
  C   C2366     1.0  0.29483  0.54725  0.75829  1.0000
  C   C2367     1.0  0.25866  0.55338  0.67004  1.0000
  C   C2368     1.0  0.25615  0.57558  0.66798  1.0000
  C   C2369     1.0  0.24649  0.58545  0.67931  1.0000
  C   C2370     1.0  0.23934  0.57310  0.69273  1.0000
  C   C2371     1.0  0.24194  0.55070  0.69530  1.0000
  C   C2372     1.0  0.25161  0.54093  0.68366  1.0000
  P   P79       1.0  0.23258  0.53487  0.71226  1.0000
  C   C2373     1.0  0.22519  0.54733  0.73422  1.0000
  C   C2374     1.0  0.22363  0.53295  0.69739  1.0000
  H   H1888     1.0  0.19947  0.95067  0.85703  1.0000
  H   H1889     1.0  0.37578  0.82870  0.58085  1.0000
  H   H1890     1.0  0.32210  0.85102  0.70379  1.0000
  C   C2375     1.0  0.38421  0.75663  0.69652  1.0000
  C   C2376     1.0  0.22222  0.54779  0.67848  1.0000
  C   C2377     1.0  0.23031  0.55694  0.74358  1.0000
  C   C2378     1.0  0.22455  0.56705  0.76021  1.0000
  C   C2379     1.0  0.21369  0.56760  0.76770  1.0000
  C   C2380     1.0  0.20856  0.55795  0.75859  1.0000
  C   C2381     1.0  0.21427  0.54790  0.74188  1.0000
  H   H1891     1.0  0.26047  0.50452  0.81223  1.0000
  C   C2382     1.0  0.20091  0.59689  0.84714  1.0000
  C   C2383     1.0  0.31186  0.50756  0.51435  1.0000
  C   C2384     1.0  0.23997  0.50835  0.72176  1.0000
  H   H1892     1.0  0.29347  0.82629  0.64679  1.0000
  H   H1893     1.0  0.23208  0.95903  0.91961  1.0000
  H   H1894     1.0  0.26615  0.54573  0.66126  1.0000
  H   H1895     1.0  0.26175  0.58508  0.65775  1.0000
  H   H1896     1.0  0.24461  0.60262  0.67789  1.0000
  H   H1897     1.0  0.23185  0.58104  0.70123  1.0000
  C   C2385     1.0  0.27002  0.49575  0.86394  1.0000
  C   C2386     1.0  0.38466  0.68902  0.54790  1.0000
  C   C2387     1.0  0.32630  0.79881  0.68456  1.0000
  C   C2388     1.0  0.19739  0.95347  0.82572  1.0000
  C   C2389     1.0  0.24394  0.50362  0.74014  1.0000
  H   H1898     1.0  0.22636  0.56084  0.67259  1.0000
  H   H1899     1.0  0.23875  0.55655  0.73809  1.0000
  H   H1900     1.0  0.22856  0.57417  0.76755  1.0000
  H   H1901     1.0  0.20932  0.57496  0.78094  1.0000
  H   H1902     1.0  0.20023  0.55756  0.76490  1.0000
  H   H1903     1.0  0.21016  0.54011  0.73547  1.0000
  Fe  Fe156     1.0  0.20930  0.50969  0.84555  1.0000
  Fe  Fe157     1.0  0.35617  0.68964  0.58702  1.0000
  H   H1904     1.0  0.31373  0.71595  0.69573  1.0000
  H   H1905     1.0  0.36770  0.89937  0.58941  1.0000
  H   H1906     1.0  0.24233  0.51551  0.74945  1.0000
  H   H1907     1.0  0.19847  0.87895  0.95857  1.0000
  C   C2390     1.0  0.33022  0.56505  0.71534  1.0000
  C   C2391     1.0  0.19207  0.78358  0.98064  1.0000
  H   H1908     1.0  0.36251  0.80195  0.54236  1.0000
  C   C2392     1.0  0.19737  0.96678  0.80559  1.0000
  C   C2393     1.0  0.35860  0.77115  0.69982  1.0000
  C   C2394     1.0  0.26851  0.98257  0.72965  1.0000
  C   C2395     1.0  0.32296  0.70494  0.49429  1.0000
  H   H1909     1.0  0.23478  0.97838  0.62834  1.0000
  C   C2396     1.0  0.20592  0.51870  0.95562  1.0000
  H   H1910     1.0  0.25383  0.52374  0.68508  1.0000
  H   H1911     1.0  0.24859  0.97844  0.71771  1.0000
  C   C2397     1.0  0.20236  0.57821  0.84005  1.0000
  C   C2398     1.0  0.36749  0.83173  0.53461  1.0000
  H   H1912     1.0  0.35683  0.72718  0.66666  1.0000
  C   C2399     1.0  0.31869  0.68189  0.65543  1.0000
  C   C2400     1.0  0.21617  0.86197  0.70854  1.0000
  C   C2401     1.0  0.37724  0.87295  0.54889  1.0000
  H   H1913     1.0  0.18949  0.74120  0.96477  1.0000
  C   C2402     1.0  0.36053  0.88412  0.52286  1.0000
  C   C2403     1.0  0.35194  0.88138  0.54018  1.0000
  C   C2404     1.0  0.34148  0.89110  0.53810  1.0000
  C   C2405     1.0  0.33948  0.90385  0.51878  1.0000
  C   C2406     1.0  0.35592  0.68865  0.49883  1.0000
  C   C2407     1.0  0.31733  0.71948  0.50714  1.0000
  C   C2408     1.0  0.21019  0.71643  0.93140  1.0000
  C   C2409     1.0  0.27341  0.96873  0.71574  1.0000
  H   H1914     1.0  0.21113  0.52116  0.98219  1.0000
  C   C2410     1.0  0.19438  0.79686  0.91552  1.0000
  C   C2411     1.0  0.20066  0.98203  0.83745  1.0000
  H   H1915     1.0  0.20503  0.52710  0.66491  1.0000
  C   C2412     1.0  0.19551  0.74080  0.91662  1.0000
  C   C2413     1.0  0.36181  0.72609  0.69515  1.0000
  H   H1916     1.0  0.30148  0.60534  0.75256  1.0000
  H   H1917     1.0  0.36662  0.71883  0.72493  1.0000
  H   H1918     1.0  0.20278  0.76245  0.96098  1.0000
  H   H1919     1.0  0.22171  0.78851  0.82625  1.0000
  C   C2414     1.0  0.36911  0.80982  0.53565  1.0000
  C   C2415     1.0  0.26325  0.50204  0.82655  1.0000
  C   C2416     1.0  0.35423  0.80827  0.70306  1.0000
  H   H1920     1.0  0.35765  0.71597  0.50791  1.0000
  C   C2417     1.0  0.28936  0.66466  0.60526  1.0000
  C   C2418     1.0  0.29978  0.66763  0.59744  1.0000
  C   C2419     1.0  0.35677  0.69952  0.51325  1.0000
  C   C2420     1.0  0.28196  0.81088  0.67084  1.0000
  S   S319      1.0  0.35635  0.70439  0.55240  1.0000
  H   H1921     1.0  0.25788  0.98071  0.60368  1.0000
  C   C2421     1.0  0.34937  0.78112  0.57815  1.0000
  S   S320      1.0  0.35986  0.70928  0.60558  1.0000
  H   H1922     1.0  0.28480  0.93952  0.71073  1.0000
  H   H1923     1.0  0.33671  0.73363  0.56855  1.0000
  H   H1924     1.0  0.21958  0.96273  0.77989  1.0000
  C   C2422     1.0  0.31896  0.70206  0.57775  1.0000
  H   H1925     1.0  0.38336  0.73763  0.55295  1.0000
  H   H1926     1.0  0.27377  0.67129  0.59868  1.0000
  C   C2423     1.0  0.35557  0.68659  0.70993  1.0000
  C   C2424     1.0  0.28184  0.67370  0.59266  1.0000
  H   H1927     1.0  0.19389  0.80716  0.87261  1.0000
  P   P80       1.0  0.31646  0.68233  0.56686  1.0000
  H   H1928     1.0  0.31119  0.72416  0.53887  1.0000
  H   H1929     1.0  0.20169  0.98809  0.84993  1.0000
  H   H1930     1.0  0.37763  0.69123  0.56041  1.0000
  C   C2425     1.0  0.28511  0.62214  0.67748  1.0000
  C   C2426     1.0  0.28475  0.68568  0.57224  1.0000
  C   C2427     1.0  0.31975  0.49556  0.50113  1.0000
  C   C2428     1.0  0.28106  0.95038  0.72136  1.0000
  C   C2429     1.0  0.28374  0.94579  0.74098  1.0000
  C   C2430     1.0  0.30281  0.67951  0.57688  1.0000
  C   C2431     1.0  0.21219  0.96729  0.89402  1.0000
  H   H1931     1.0  0.36468  0.73792  0.55854  1.0000
  C   C2432     1.0  0.29779  0.79605  0.69462  1.0000
  H   H1932     1.0  0.31013  0.76303  0.75377  1.0000
  H   H1933     1.0  0.32154  0.55537  0.69827  1.0000
  C   C2433     1.0  0.32279  0.73341  0.59374  1.0000
  C   C2434     1.0  0.23299  0.99075  0.73504  1.0000
  S   S321      1.0  0.35040  0.61852  0.63801  1.0000
  H   H1934     1.0  0.34859  0.63375  0.58971  1.0000
  S   S322      1.0  0.27456  0.95097  0.87179  1.0000
  C   C2435     1.0  0.37441  0.77559  0.62219  1.0000
  H   H1935     1.0  0.32431  0.74545  0.59987  1.0000
  H   H1936     1.0  0.25064  0.94295  0.74251  1.0000
  H   H1937     1.0  0.31428  0.63822  0.57226  1.0000
  Fe  Fe158     1.0  0.35348  0.65214  0.62451  1.0000
  H   H1938     1.0  0.32344  0.78204  0.57164  1.0000
  H   H1939     1.0  0.38273  0.66826  0.50637  1.0000
  C   C2436     1.0  0.32174  0.63756  0.57600  1.0000
  P   P81       1.0  0.37406  0.87054  0.52536  1.0000
  H   H1940     1.0  0.38145  0.77909  0.61061  1.0000
  C   C2437     1.0  0.37838  0.82764  0.61129  1.0000
  C   C2438     1.0  0.29988  0.80844  0.67404  1.0000
  H   H1941     1.0  0.30897  0.82833  0.71904  1.0000
  C   C2439     1.0  0.32973  0.72689  0.57592  1.0000
  C   C2440     1.0  0.29521  0.68856  0.56432  1.0000
  H   H1942     1.0  0.32537  0.60302  0.58464  1.0000
  C   C2441     1.0  0.27875  0.95944  0.75501  1.0000
  C   C2442     1.0  0.32806  0.61752  0.58277  1.0000
  C   C2443     1.0  0.34291  0.78959  0.56346  1.0000
  C   C2444     1.0  0.32497  0.65646  0.57444  1.0000
  C   C2445     1.0  0.36265  0.83176  0.63920  1.0000
  C   C2446     1.0  0.37207  0.82975  0.59707  1.0000
  C   C2447     1.0  0.27032  0.99355  0.80564  1.0000
  S   S323      1.0  0.38192  0.82224  0.65078  1.0000
  C   C2448     1.0  0.31929  0.69114  0.53844  1.0000
  H   H1943     1.0  0.34057  0.80775  0.66370  1.0000
  C   C2449     1.0  0.19484  0.76644  0.97048  1.0000
  H   H1944     1.0  0.29730  0.69766  0.54838  1.0000
  C   C2450     1.0  0.21546  0.76250  0.84890  1.0000
  H   H1945     1.0  0.31448  0.73612  0.50003  1.0000
  C   C2451     1.0  0.21149  0.51410  0.69285  1.0000
  C   C2452     1.0  0.19936  0.96089  0.84149  1.0000
  H   H1946     1.0  0.33758  0.66913  0.57750  1.0000
  C   C2453     1.0  0.35223  0.76101  0.54499  1.0000
  H   H1947     1.0  0.27894  0.69262  0.56243  1.0000
  H   H1948     1.0  0.34152  0.81637  0.72911  1.0000
  C   C2454     1.0  0.32493  0.67663  0.52539  1.0000
  C   C2455     1.0  0.24229  0.97504  0.73131  1.0000
  C   C2456     1.0  0.24348  0.95501  0.74541  1.0000
  C   C2457     1.0  0.35990  0.69392  0.72256  1.0000
  C   C2458     1.0  0.19457  0.86598  0.96796  1.0000
  H   H1949     1.0  0.37663  0.70867  0.52347  1.0000
  C   C2459     1.0  0.31480  0.80411  0.52568  1.0000
  C   C2460     1.0  0.27615  0.61887  0.69343  1.0000
  C   C2461     1.0  0.34058  0.81650  0.51465  1.0000
  H   H1950     1.0  0.30425  0.78586  0.58584  1.0000
  C   C2462     1.0  0.35578  0.66779  0.54103  1.0000
  H   H1951     1.0  0.33588  0.74723  0.53142  1.0000
  H   H1952     1.0  0.21847  0.71236  0.93243  1.0000
  H   H1953     1.0  0.20768  0.60114  0.84958  1.0000
  C   C2463     1.0  0.35060  0.76668  0.71786  1.0000
  C   C2464     1.0  0.32342  0.83608  0.69891  1.0000
  H   H1954     1.0  0.33827  0.77955  0.74226  1.0000
  H   H1955     1.0  0.33598  0.54995  0.71686  1.0000
  H   H1956     1.0  0.35600  0.65957  0.55717  1.0000
  H   H1957     1.0  0.21024  0.56800  0.83701  1.0000
  C   C2465     1.0  0.33355  0.83657  0.51395  1.0000
  C   C2466     1.0  0.36592  0.76216  0.65838  1.0000
  C   C2467     1.0  0.35484  0.65690  0.52663  1.0000
  H   H1958     1.0  0.35369  0.75320  0.53202  1.0000
  H   H1959     1.0  0.32176  0.69428  0.64289  1.0000
  S   S324      1.0  0.28377  0.52123  0.70571  1.0000
  H   H1960     1.0  0.33740  0.57932  0.73140  1.0000
  C   C2468     1.0  0.27600  0.61909  0.71419  1.0000
  H   H1961     1.0  0.34254  0.60071  0.59338  1.0000
  C   C2469     1.0  0.33793  0.74306  0.50004  1.0000
  C   C2470     1.0  0.35440  0.69888  0.68994  1.0000
  H   H1962     1.0  0.28972  0.82048  0.72628  1.0000
  H   H1963     1.0  0.33704  0.80435  0.56471  1.0000
  H   H1964     1.0  0.34833  0.78936  0.59058  1.0000
  Fe  Fe159     1.0  0.19525  0.90764  0.86340  1.0000
  C   C2471     1.0  0.29908  0.66443  0.75416  1.0000
  C   C2472     1.0  0.33226  0.83052  0.68314  1.0000
  C   C2473     1.0  0.32204  0.79586  0.53905  1.0000
  C   C2474     1.0  0.25220  0.96606  0.78937  1.0000
  C   C2475     1.0  0.37377  0.82782  0.63253  1.0000
  C   C2476     1.0  0.22490  0.98635  0.75275  1.0000
  P   P82       1.0  0.36659  0.75071  0.68561  1.0000
  H   H1965     1.0  0.32518  0.83785  0.52109  1.0000
  C   C2477     1.0  0.33100  0.58159  0.72354  1.0000
  C   C2478     1.0  0.36305  0.71355  0.71518  1.0000
  C   C2479     1.0  0.30237  0.63727  0.73387  1.0000
  P   P83       1.0  0.30757  0.78785  0.71079  1.0000
  C   C2480     1.0  0.21016  0.52884  0.67400  1.0000
  H   H1966     1.0  0.30348  0.75269  0.69722  1.0000
  C   C2481     1.0  0.30005  0.79996  0.55564  1.0000
  H   H1967     1.0  0.30088  0.62771  0.66976  1.0000
  C   C2482     1.0  0.31447  0.76030  0.71101  1.0000
  C   C2483     1.0  0.31069  0.74693  0.70323  1.0000
  C   C2484     1.0  0.31646  0.72604  0.70236  1.0000
  C   C2485     1.0  0.32609  0.71846  0.70899  1.0000
  H   H1968     1.0  0.33072  0.70258  0.70745  1.0000
  H   H1969     1.0  0.21258  0.87377  0.69638  1.0000
  C   C2486     1.0  0.30386  0.80637  0.53394  1.0000
  H   H1970     1.0  0.19800  0.79249  0.97898  1.0000
  C   C2487     1.0  0.25226  0.96336  0.58779  1.0000
  C   C2488     1.0  0.30773  0.68386  0.66296  1.0000
  H   H1971     1.0  0.29158  0.80152  0.56201  1.0000
  H   H1972     1.0  0.35417  0.64032  0.53189  1.0000
  C   C2489     1.0  0.32990  0.73162  0.71681  1.0000
  C   C2490     1.0  0.32411  0.75246  0.71785  1.0000
  H   H1973     1.0  0.30275  0.67074  0.72032  1.0000
  H   H1974     1.0  0.28540  0.62119  0.66152  1.0000
  H   H1975     1.0  0.36215  0.75575  0.58803  1.0000
  H   H1976     1.0  0.38277  0.76211  0.64722  1.0000
  H   H1977     1.0  0.30211  0.50882  0.80784  1.0000
  C   C2491     1.0  0.21550  0.54572  0.66685  1.0000
  H   H1978     1.0  0.33745  0.72579  0.72161  1.0000
  S   S325      1.0  0.36753  0.65953  0.59837  1.0000
  H   H1979     1.0  0.32726  0.76265  0.72353  1.0000
  C   C2492     1.0  0.31814  0.78916  0.56086  1.0000
  C   C2493     1.0  0.31595  0.82315  0.70746  1.0000
  C   C2494     1.0  0.34820  0.85400  0.49485  1.0000
  C   C2495     1.0  0.34410  0.77934  0.54708  1.0000
  C   C2496     1.0  0.37599  0.84228  0.52607  1.0000
  Fe  Fe160     1.0  0.37026  0.67862  0.61863  1.0000
  C   C2497     1.0  0.31738  0.80428  0.70049  1.0000
  H   H1980     1.0  0.30231  0.69783  0.65625  1.0000
  H   H1981     1.0  0.29528  0.66960  0.68487  1.0000
  H   H1982     1.0  0.20783  0.97962  0.88345  1.0000
  H   H1983     1.0  0.34877  0.76688  0.66439  1.0000
  H   H1984     1.0  0.36417  0.78955  0.60028  1.0000
  H   H1985     1.0  0.19198  0.62355  0.92209  1.0000
  H   H1986     1.0  0.36309  0.89705  0.55738  1.0000
  S   S326      1.0  0.28354  0.51192  0.65136  1.0000
  C   C2498     1.0  0.36028  0.79212  0.69239  1.0000
  C   C2499     1.0  0.28483  0.62251  0.71904  1.0000
  H   H1987     1.0  0.36636  0.79596  0.67837  1.0000
  C   C2500     1.0  0.30340  0.52229  0.50656  1.0000
  H   H1988     1.0  0.37918  0.77075  0.70180  1.0000
  H   H1989     1.0  0.23958  0.49575  0.69554  1.0000
  S   S327      1.0  0.25084  0.98271  0.90817  1.0000
  H   H1990     1.0  0.28513  0.50334  0.75532  1.0000
  H   H1991     1.0  0.21912  0.50464  0.71908  1.0000
  C   C2501     1.0  0.38339  0.88154  0.50268  1.0000
  C   C2502     1.0  0.33738  0.85527  0.50396  1.0000
  C   C2503     1.0  0.25303  0.98752  0.78444  1.0000
  H   H1992     1.0  0.36477  0.89950  0.48973  1.0000
  C   C2504     1.0  0.38416  0.69905  0.52695  1.0000
  C   C2505     1.0  0.38274  0.87695  0.58476  1.0000
  H   H1993     1.0  0.25336  0.50006  0.87911  1.0000
  H   H1994     1.0  0.38437  0.71613  0.67430  1.0000
  C   C2506     1.0  0.37313  0.88892  0.57942  1.0000
  C   C2507     1.0  0.28822  0.99076  0.80903  1.0000
  C   C2508     1.0  0.32673  0.68357  0.50341  1.0000
  C   C2509     1.0  0.19074  0.60985  0.85133  1.0000
  H   H1995     1.0  0.38053  0.76854  0.56949  1.0000
  H   H1996     1.0  0.37786  0.78074  0.49365  1.0000
  H   H1997     1.0  0.27458  0.99105  0.83493  1.0000
  C   C2510     1.0  0.18873  0.72720  0.92933  1.0000
  H   H1998     1.0  0.20745  0.50085  0.69837  1.0000
  H   H1999     1.0  0.33114  0.67234  0.49341  1.0000
  C   C2511     1.0  0.27416  0.49830  0.82596  1.0000
  H   H2000     1.0  0.24742  0.50584  0.84592  1.0000
  C   C2512     1.0  0.25918  0.49956  0.86435  1.0000
  H   H2001     1.0  0.29371  0.98896  0.81891  1.0000
  H   H2002     1.0  0.38531  0.85822  0.70931  1.0000
  C   C2513     1.0  0.38337  0.67046  0.48959  1.0000
  H   H2003     1.0  0.18697  0.60515  0.90022  1.0000
  H   H2004     1.0  0.38472  0.87792  0.59897  1.0000
  H   H2005     1.0  0.26203  0.99404  0.81312  1.0000
  C   C2514     1.0  0.38616  0.83032  0.51879  1.0000
  C   C2515     1.0  0.23010  0.99367  0.63170  1.0000
  C   C2516     1.0  0.29193  0.99159  0.78736  1.0000
  H   H2006     1.0  0.30032  0.99055  0.78037  1.0000
  H   H2007     1.0  0.18742  0.69765  0.95213  1.0000
  H   H2008     1.0  0.18964  0.62434  0.85681  1.0000
  C   C2517     1.0  0.28483  0.99342  0.77480  1.0000
  H   H2009     1.0  0.28781  0.99396  0.75806  1.0000
  C   C2518     1.0  0.27398  0.99413  0.78392  1.0000
  C   C2519     1.0  0.18736  0.75452  0.97249  1.0000
  C   C2520     1.0  0.18696  0.78519  0.91614  1.0000
  H   H2010     1.0  0.41571  0.04739  0.07982  1.0000
  C   C2521     1.0  0.43321  0.07850  0.07245  1.0000
  C   C2522     1.0  0.39715  0.22358  0.08837  1.0000
  C   C2523     1.0  0.43690  0.12643  0.39036  1.0000
  H   H2011     1.0  0.39182  0.20078  0.17770  1.0000
  C   C2524     1.0  0.39431  0.25951  0.10863  1.0000
  H   H2012     1.0  0.50313  0.02755  0.38767  1.0000
  Fe  Fe161     1.0  0.41190  0.13104  0.11787  1.0000
  S   S328      1.0  0.41675  0.09554  0.12758  1.0000
  S   S329      1.0  0.41700  0.14507  0.08305  1.0000
  Fe  Fe162     1.0  0.39772  0.13428  0.16115  1.0000
  S   S330      1.0  0.40127  0.09845  0.17371  1.0000
  C   C2525     1.0  0.39832  0.20131  0.16390  1.0000
  Fe  Fe163     1.0  0.41831  0.10037  0.15813  1.0000
  S   S331      1.0  0.43240  0.07671  0.17026  1.0000
  Fe  Fe164     1.0  0.39950  0.09694  0.14202  1.0000
  S   S332      1.0  0.41492  0.13637  0.14722  1.0000
  S   S333      1.0  0.39453  0.13229  0.13098  1.0000
  C   C2526     1.0  0.54153  0.04719  0.11796  1.0000
  H   H2013     1.0  0.43074  0.13568  0.40059  1.0000
  C   C2527     1.0  0.53547  0.03341  0.29681  1.0000
  S   S334      1.0  0.51789  0.99775  0.41240  1.0000
  C   C2528     1.0  0.39827  0.27707  0.10849  1.0000
  H   H2014     1.0  0.40596  0.17038  0.99787  1.0000
  C   C2529     1.0  0.58225  0.24795  0.48370  1.0000
  C   C2530     1.0  0.45592  0.11836  0.29003  1.0000
  H   H2015     1.0  0.48245  0.10005  0.27263  1.0000
  H   H2016     1.0  0.56525  0.07987  0.18872  1.0000
  H   H2017     1.0  0.41529  0.03187  0.29303  1.0000
  H   H2018     1.0  0.48119  0.08560  0.31072  1.0000
  C   C2531     1.0  0.47812  0.07180  0.37338  1.0000
  H   H2019     1.0  0.40895  0.17466  0.17908  1.0000
  Fe  Fe165     1.0  0.52637  0.02438  0.39309  1.0000
  S   S335      1.0  0.52016  0.05958  0.39225  1.0000
  H   H2020     1.0  0.49451  0.02151  0.43822  1.0000
  Fe  Fe166     1.0  0.54727  0.03126  0.36267  1.0000
  S   S336      1.0  0.54267  0.06699  0.35895  1.0000
  C   C2532     1.0  0.45748  0.05556  0.01483  1.0000
  Fe  Fe167     1.0  0.53670  0.06047  0.39425  1.0000
  S   S337      1.0  0.53991  0.07480  0.41883  1.0000
  Fe  Fe168     1.0  0.52676  0.06293  0.35721  1.0000
  S   S338      1.0  0.51827  0.08391  0.33156  1.0000
  S   S339      1.0  0.54226  0.02477  0.39798  1.0000
  S   S340      1.0  0.53198  0.02771  0.35804  1.0000
  Fe  Fe169     1.0  0.47725  0.06617  0.22959  1.0000
  S   S341      1.0  0.48861  0.04541  0.20807  1.0000
  S   S342      1.0  0.46216  0.09063  0.22281  1.0000
  Fe  Fe170     1.0  0.48984  0.04631  0.26513  1.0000
  S   S343      1.0  0.50195  0.02377  0.24661  1.0000
  S   S344      1.0  0.49003  0.04208  0.29955  1.0000
  Fe  Fe171     1.0  0.50151  0.05208  0.21928  1.0000
  S   S345      1.0  0.51641  0.06065  0.19669  1.0000
  Fe  Fe172     1.0  0.48818  0.01900  0.23717  1.0000
  H   H2021     1.0  0.56817  0.06731  0.26732  1.0000
  S   S346      1.0  0.49025  0.07532  0.23849  1.0000
  S   S347      1.0  0.47598  0.03903  0.25785  1.0000
  C   C2533     1.0  0.51117  0.07114  0.32201  1.0000
  C   C2534     1.0  0.50923  0.07918  0.30154  1.0000
  C   C2535     1.0  0.50321  0.06969  0.29402  1.0000
  C   C2536     1.0  0.49884  0.05251  0.30719  1.0000
  C   C2537     1.0  0.50086  0.04441  0.32759  1.0000
  C   C2538     1.0  0.50708  0.05356  0.33490  1.0000
  H   H2022     1.0  0.51237  0.09278  0.29149  1.0000
  H   H2023     1.0  0.50170  0.07602  0.27828  1.0000
  H   H2024     1.0  0.49762  0.03098  0.33782  1.0000
  H   H2025     1.0  0.50852  0.04727  0.35068  1.0000
  H   H2026     1.0  0.42507  0.04453  0.04357  1.0000
  C   C2539     1.0  0.47413  0.09508  0.30517  1.0000
  H   H2027     1.0  0.39561  0.17541  0.08202  1.0000
  S   S348      1.0  0.39219  0.07659  0.13089  1.0000
  H   H2028     1.0  0.43511  0.08863  0.08045  1.0000
  C   C2540     1.0  0.43597  0.06444  0.04114  1.0000
  C   C2541     1.0  0.44048  0.08574  0.99525  1.0000
  C   C2542     1.0  0.45004  0.12486  0.35758  1.0000
  H   H2029     1.0  0.50059  0.08623  0.37364  1.0000
  C   C2543     1.0  0.54478  0.00958  0.11753  1.0000
  C   C2544     1.0  0.55115  0.06988  0.27817  1.0000
  P   P84       1.0  0.40068  0.00839  0.12983  1.0000
  C   C2545     1.0  0.46576  0.11487  0.27591  1.0000
  H   H2030     1.0  0.42532  0.05887  0.00030  1.0000
  C   C2546     1.0  0.43102  0.01103  0.28961  1.0000
  H   H2031     1.0  0.44885  0.12701  0.28404  1.0000
  C   C2547     1.0  0.41549  0.04076  0.15314  1.0000
  C   C2548     1.0  0.40640  0.01598  0.06539  1.0000
  C   C2549     1.0  0.38723  0.16238  0.04337  1.0000
  H   H2032     1.0  0.48611  0.02417  0.38186  1.0000
  C   C2550     1.0  0.53987  0.07800  0.23348  1.0000
  H   H2033     1.0  0.41685  0.12430  0.01820  1.0000
  H   H2034     1.0  0.47781  0.04379  0.42785  1.0000
  Fe  Fe173     1.0  0.40284  0.09703  0.00066  1.0000
  C   C2551     1.0  0.49338  0.08673  0.36900  1.0000
  H   H2035     1.0  0.40671  0.27657  0.10421  1.0000
  H   H2036     1.0  0.55995  0.08980  0.34032  1.0000
  C   C2552     1.0  0.40035  0.01891  0.10222  1.0000
  C   C2553     1.0  0.40797  0.18651  0.16466  1.0000
  H   H2037     1.0  0.57709  0.19827  0.46566  1.0000
  C   C2554     1.0  0.42096  0.01589  0.12284  1.0000
  C   C2555     1.0  0.52903  0.02203  0.21231  1.0000
  C   C2556     1.0  0.52858  0.04298  0.20028  1.0000
  C   C2557     1.0  0.53806  0.04988  0.19011  1.0000
  C   C2558     1.0  0.54792  0.03602  0.19199  1.0000
  C   C2559     1.0  0.54835  0.01519  0.20417  1.0000
  H   H2038     1.0  0.52181  0.01631  0.21974  1.0000
  H   H2039     1.0  0.53776  0.06598  0.18068  1.0000
  H   H2040     1.0  0.55520  0.04151  0.18408  1.0000
  H   H2041     1.0  0.56883  0.09379  0.28613  1.0000
  H   H2042     1.0  0.39098  0.04992  0.10712  1.0000
  C   C2560     1.0  0.45171  0.05583  0.35577  1.0000
  H   H2043     1.0  0.43889  0.24924  0.09126  1.0000
  C   C2561     1.0  0.45399  0.08677  0.20797  1.0000
  C   C2562     1.0  0.45664  0.06874  0.19918  1.0000
  C   C2563     1.0  0.44992  0.06590  0.18780  1.0000
  C   C2564     1.0  0.44060  0.08130  0.18460  1.0000
  C   C2565     1.0  0.43796  0.09948  0.19322  1.0000
  C   C2566     1.0  0.44460  0.10210  0.20496  1.0000
  H   H2044     1.0  0.46392  0.05706  0.20107  1.0000
  H   H2045     1.0  0.45204  0.05177  0.18125  1.0000
  H   H2046     1.0  0.43078  0.11140  0.19099  1.0000
  H   H2047     1.0  0.44248  0.11613  0.21166  1.0000
  C   C2567     1.0  0.40801  0.10672  0.04597  1.0000
  C   C2568     1.0  0.40433  0.10402  0.06786  1.0000
  C   C2569     1.0  0.40690  0.11614  0.07899  1.0000
  C   C2570     1.0  0.41336  0.13085  0.06848  1.0000
  C   C2571     1.0  0.41696  0.13384  0.04644  1.0000
  C   C2572     1.0  0.41413  0.12201  0.03514  1.0000
  C   C2573     1.0  0.45517  0.11009  0.31175  1.0000
  H   H2048     1.0  0.40402  0.11358  0.09584  1.0000
  H   H2049     1.0  0.42193  0.14523  0.03816  1.0000
  H   H2050     1.0  0.47344  0.05993  0.38200  1.0000
  C   C2574     1.0  0.56644  0.10819  0.41725  1.0000
  C   C2575     1.0  0.56420  0.10726  0.39833  1.0000
  C   C2576     1.0  0.55621  0.09698  0.39850  1.0000
  C   C2577     1.0  0.55029  0.08751  0.41766  1.0000
  C   C2578     1.0  0.55250  0.08851  0.43662  1.0000
  C   C2579     1.0  0.56055  0.09864  0.43645  1.0000
  H   H2051     1.0  0.56861  0.11471  0.38338  1.0000
  H   H2052     1.0  0.55451  0.09667  0.38384  1.0000
  H   H2053     1.0  0.54793  0.08140  0.45156  1.0000
  H   H2054     1.0  0.56210  0.09932  0.45113  1.0000
  C   C2580     1.0  0.48718  0.07166  0.37997  1.0000
  H   H2055     1.0  0.47877  0.04685  0.34365  1.0000
  C   C2581     1.0  0.58084  0.00831  0.39509  1.0000
  H   H2056     1.0  0.44466  0.06857  0.35699  1.0000
  P   P85       1.0  0.44347  0.06149  0.01490  1.0000
  C   C2582     1.0  0.45059  0.03477  0.35889  1.0000
  C   C2583     1.0  0.54496  0.03077  0.10678  1.0000
  H   H2057     1.0  0.58114  0.00080  0.29176  1.0000
  C   C2584     1.0  0.52690  0.02319  0.30509  1.0000
  C   C2585     1.0  0.39654  0.16759  0.02969  1.0000
  S   S349      1.0  0.40583  0.08879  0.03349  1.0000
  H   H2058     1.0  0.55862  0.99951  0.43269  1.0000
  H   H2059     1.0  0.55667  0.03804  0.43110  1.0000
  H   H2060     1.0  0.44745  0.11227  0.32238  1.0000
  H   H2061     1.0  0.46160  0.02654  0.31445  1.0000
  C   C2586     1.0  0.39900  0.20127  0.09075  1.0000
  C   C2587     1.0  0.45282  0.10245  0.36381  1.0000
  C   C2588     1.0  0.43984  0.10418  0.39693  1.0000
  P   P86       1.0  0.40317  0.23497  0.10240  1.0000
  H   H2062     1.0  0.46187  0.02823  0.43671  1.0000
  C   C2589     1.0  0.40507  0.21624  0.12690  1.0000
  C   C2590     1.0  0.39093  0.23709  0.07414  1.0000
  C   C2591     1.0  0.56484  0.01677  0.24830  1.0000
  H   H2063     1.0  0.56010  0.02062  0.23656  1.0000
  H   H2064     1.0  0.39149  0.06572  0.06950  1.0000
  C   C2592     1.0  0.41470  0.20105  0.12773  1.0000
  H   H2065     1.0  0.40680  0.00595  0.32181  1.0000
  C   C2593     1.0  0.44204  0.13677  0.37074  1.0000
  C   C2594     1.0  0.39687  0.21618  0.14516  1.0000
  C   C2595     1.0  0.49044  0.10215  0.35162  1.0000
  C   C2596     1.0  0.55818  0.07940  0.20124  1.0000
  C   C2597     1.0  0.41588  0.24000  0.08652  1.0000
  C   C2598     1.0  0.41859  0.24025  0.06479  1.0000
  C   C2599     1.0  0.42854  0.24376  0.05273  1.0000
  C   C2600     1.0  0.43583  0.24705  0.06225  1.0000
  C   C2601     1.0  0.43320  0.24684  0.08385  1.0000
  C   C2602     1.0  0.42327  0.24332  0.09595  1.0000
  H   H2066     1.0  0.40397  0.19040  0.10118  1.0000
  H   H2067     1.0  0.53571  0.01771  0.16782  1.0000
  C   C2603     1.0  0.46434  0.09877  0.31949  1.0000
  C   C2604     1.0  0.56345  0.02968  0.42113  1.0000
  H   H2068     1.0  0.57853  0.00654  0.16762  1.0000
  C   C2605     1.0  0.50077  0.01232  0.39298  1.0000
  H   H2069     1.0  0.42102  0.20012  0.11374  1.0000
  C   C2606     1.0  0.53807  0.02116  0.15074  1.0000
  C   C2607     1.0  0.46909  0.01865  0.44163  1.0000
  H   H2070     1.0  0.50712  0.00137  0.20271  1.0000
  C   C2608     1.0  0.47527  0.08693  0.35558  1.0000
  H   H2071     1.0  0.43600  0.09619  0.41231  1.0000
  H   H2072     1.0  0.41312  0.23752  0.05712  1.0000
  H   H2073     1.0  0.43062  0.24373  0.03602  1.0000
  H   H2074     1.0  0.42137  0.24303  0.11273  1.0000
  C   C2609     1.0  0.56742  0.08928  0.34394  1.0000
  P   P87       1.0  0.46349  0.08723  0.34730  1.0000
  H   H2075     1.0  0.40994  0.09698  0.26682  1.0000
  C   C2610     1.0  0.41456  0.08446  0.25849  1.0000
  H   H2076     1.0  0.53893  0.03755  0.30750  1.0000
  C   C2611     1.0  0.53941  0.03839  0.27490  1.0000
  C   C2612     1.0  0.57094  0.04080  0.40705  1.0000
  C   C2613     1.0  0.57186  0.10738  0.33686  1.0000
  H   H2077     1.0  0.43991  0.15406  0.36581  1.0000
  H   H2078     1.0  0.42049  0.06932  0.09824  1.0000
  H   H2079     1.0  0.52376  0.01960  0.32199  1.0000
  H   H2080     1.0  0.57522  0.24242  0.48455  1.0000
  C   C2614     1.0  0.48745  0.01491  0.44253  1.0000
  H   H2081     1.0  0.54756  0.09955  0.18121  1.0000
  C   C2615     1.0  0.40779  0.03215  0.14988  1.0000
  C   C2616     1.0  0.44028  0.03989  0.00804  1.0000
  H   H2082     1.0  0.49543  0.11349  0.34291  1.0000
  C   C2617     1.0  0.39113  0.16210  0.00057  1.0000
  C   C2618     1.0  0.47565  0.05791  0.99657  1.0000
  C   C2619     1.0  0.39511  0.04015  0.09569  1.0000
  C   C2620     1.0  0.42857  0.02721  0.99464  1.0000
  H   H2083     1.0  0.53133  0.09818  0.20982  1.0000
  H   H2084     1.0  0.39966  0.09215  0.07645  1.0000
  C   C2621     1.0  0.53890  0.00818  0.21437  1.0000
  H   H2085     1.0  0.44356  0.24962  0.05291  1.0000
  C   C2622     1.0  0.54980  0.06635  0.23774  1.0000
  C   C2623     1.0  0.56088  0.07502  0.27661  1.0000
  C   C2624     1.0  0.45962  0.01817  0.35686  1.0000
  H   H2086     1.0  0.51528  0.01097  0.29782  1.0000
  H   H2087     1.0  0.45415  0.13316  0.34268  1.0000
  H   H2088     1.0  0.56779  0.12200  0.32790  1.0000
  C   C2625     1.0  0.54822  0.09055  0.19701  1.0000
  H   H2089     1.0  0.56578  0.03130  0.29236  1.0000
  H   H2090     1.0  0.38923  0.22709  0.14494  1.0000
  H   H2091     1.0  0.58403  0.26268  0.45051  1.0000
  H   H2092     1.0  0.54756  0.99701  0.10869  1.0000
  C   C2626     1.0  0.44785  0.09223  0.38381  1.0000
  C   C2627     1.0  0.40617  0.00695  0.08686  1.0000
  C   C2628     1.0  0.55898  0.06740  0.22156  1.0000
  H   H2093     1.0  0.58499  0.12068  0.33597  1.0000
  C   C2629     1.0  0.53908  0.08986  0.21314  1.0000
  H   H2094     1.0  0.40239  0.17110  0.03586  1.0000
  H   H2095     1.0  0.51981  0.00411  0.16817  1.0000
  C   C2630     1.0  0.42226  0.05523  0.07209  1.0000
  C   C2631     1.0  0.46187  0.06024  0.35124  1.0000
  C   C2632     1.0  0.56128  0.09021  0.28705  1.0000
  H   H2096     1.0  0.53491  0.10479  0.30833  1.0000
  C   C2633     1.0  0.56220  0.02903  0.26364  1.0000
  S   S350      1.0  0.56380  0.01543  0.34791  1.0000
  C   C2634     1.0  0.49114  0.01039  0.38976  1.0000
  S   S351      1.0  0.56078  0.99810  0.20628  1.0000
  C   C2635     1.0  0.46117  0.04363  0.03311  1.0000
  C   C2636     1.0  0.47485  0.10319  0.28351  1.0000
  C   C2637     1.0  0.39427  0.19267  0.07981  1.0000
  H   H2097     1.0  0.45567  0.03788  0.04736  1.0000
  H   H2098     1.0  0.47923  0.11459  0.33159  1.0000
  H   H2099     1.0  0.46632  0.12071  0.25902  1.0000
  C   C2638     1.0  0.42763  0.05372  0.05144  1.0000
  C   C2639     1.0  0.58212  0.06985  0.36104  1.0000
  C   C2640     1.0  0.42590  0.03698  0.14130  1.0000
  H   H2100     1.0  0.48954  0.05964  0.39332  1.0000
  C   C2641     1.0  0.52221  0.01798  0.29155  1.0000
  H   H2101     1.0  0.40136  0.04434  0.04248  1.0000
  C   C2642     1.0  0.57250  0.07056  0.35601  1.0000
  H   H2102     1.0  0.40787  0.09878  0.23083  1.0000
  C   C2643     1.0  0.45276  0.07072  0.27910  1.0000
  C   C2644     1.0  0.44656  0.06223  0.27124  1.0000
  C   C2645     1.0  0.44518  0.04114  0.27988  1.0000
  C   C2646     1.0  0.45059  0.02836  0.29573  1.0000
  P   P88       1.0  0.43762  0.02991  0.26885  1.0000
  C   C2647     1.0  0.42798  0.05139  0.25692  1.0000
  C   C2648     1.0  0.44661  0.01614  0.24902  1.0000
  C   C2649     1.0  0.47806  0.02742  0.43661  1.0000
  C   C2650     1.0  0.54106  0.00472  0.13955  1.0000
  C   C2651     1.0  0.41047  0.01946  0.13481  1.0000
  C   C2652     1.0  0.46290  0.01235  0.22207  1.0000
  C   C2653     1.0  0.45602  0.02287  0.23762  1.0000
  C   C2654     1.0  0.42182  0.06747  0.26782  1.0000
  C   C2655     1.0  0.41943  0.06951  0.22737  1.0000
  C   C2656     1.0  0.42677  0.05260  0.23655  1.0000
  H   H2103     1.0  0.45024  0.07508  0.38938  1.0000
  H   H2104     1.0  0.53269  0.07766  0.24581  1.0000
  H   H2105     1.0  0.55022  0.00562  0.32578  1.0000
  C   C2657     1.0  0.45693  0.03683  0.30327  1.0000
  H   H2106     1.0  0.53838  0.03430  0.24469  1.0000
  C   C2658     1.0  0.57675  0.00557  0.27932  1.0000
  H   H2107     1.0  0.56997  0.05762  0.40654  1.0000
  S   S352      1.0  0.38736  0.11502  0.99174  1.0000
  H   H2108     1.0  0.45412  0.08664  0.27165  1.0000
  H   H2109     1.0  0.44323  0.07196  0.25785  1.0000
  H   H2110     1.0  0.53548  0.05503  0.14867  1.0000
  C   C2659     1.0  0.58673  0.08785  0.35324  1.0000
  H   H2111     1.0  0.56850  0.07713  0.48451  1.0000
  C   C2660     1.0  0.57327  0.99724  0.40908  1.0000
  C   C2661     1.0  0.54176  0.08099  0.28938  1.0000
  C   C2662     1.0  0.54218  0.09637  0.29957  1.0000
  H   H2112     1.0  0.42275  0.06700  0.28342  1.0000
  H   H2113     1.0  0.41863  0.07050  0.21153  1.0000
  H   H2114     1.0  0.43158  0.04082  0.22746  1.0000
  H   H2115     1.0  0.55217  0.11265  0.30666  1.0000
  C   C2663     1.0  0.53511  0.03176  0.26155  1.0000
  C   C2664     1.0  0.41337  0.08548  0.23825  1.0000
  P   P89       1.0  0.55070  0.05084  0.26398  1.0000
  H   H2116     1.0  0.45806  0.03627  0.24059  1.0000
  C   C2665     1.0  0.44727  0.01973  0.00892  1.0000
  H   H2117     1.0  0.52300  0.01727  0.25945  1.0000
  C   C2666     1.0  0.55192  0.10084  0.29858  1.0000
  S   S353      1.0  0.40275  0.06730  0.99134  1.0000
  C   C2667     1.0  0.39536  0.04913  0.07430  1.0000
  H   H2118     1.0  0.46320  0.06419  0.30052  1.0000
  S   S354      1.0  0.57665  0.12152  0.41575  1.0000
  C   C2668     1.0  0.42499  0.06766  0.08254  1.0000
  C   C2669     1.0  0.47087  0.04365  0.34824  1.0000
  C   C2670     1.0  0.43878  0.07671  0.05192  1.0000
  H   H2119     1.0  0.47479  0.03008  0.04736  1.0000
  H   H2120     1.0  0.44521  0.08504  0.04443  1.0000
  C   C2671     1.0  0.45788  0.05809  0.29526  1.0000
  H   H2121     1.0  0.44276  0.03127  0.36273  1.0000
  H   H2122     1.0  0.54776  0.03448  0.08978  1.0000
  H   H2123     1.0  0.39437  0.30901  0.11421  1.0000
  H   H2124     1.0  0.39342  0.00372  0.17569  1.0000
  C   C2672     1.0  0.48136  0.10244  0.34504  1.0000
  C   C2673     1.0  0.39856  0.16718  0.00833  1.0000
  C   C2674     1.0  0.47201  0.03908  0.03314  1.0000
  H   H2125     1.0  0.56674  0.05888  0.22459  1.0000
  H   H2126     1.0  0.43716  0.10747  0.01619  1.0000
  H   H2127     1.0  0.42316  0.00659  0.11079  1.0000
  C   C2675     1.0  0.39128  0.29558  0.11416  1.0000
  C   C2676     1.0  0.53811  0.04236  0.13993  1.0000
  H   H2128     1.0  0.41332  0.05095  0.16444  1.0000
  S   S355      1.0  0.58003  0.15269  0.45835  1.0000
  C   C2677     1.0  0.40100  0.03708  0.05912  1.0000
  C   C2678     1.0  0.46975  0.02272  0.35109  1.0000
  C   C2679     1.0  0.56808  0.02305  0.27946  1.0000
  H   H2129     1.0  0.42361  0.17476  0.14716  1.0000
  H   H2130     1.0  0.53409  0.07792  0.29023  1.0000
  C   C2680     1.0  0.44494  0.00350  0.00254  1.0000
  C   C2681     1.0  0.43083  0.04341  0.00115  1.0000
  H   H2131     1.0  0.38884  0.17705  0.13702  1.0000
  C   C2682     1.0  0.52644  0.02189  0.26985  1.0000
  H   H2132     1.0  0.45031  0.01167  0.30184  1.0000
  H   H2133     1.0  0.43176  0.04412  0.14366  1.0000
  H   H2134     1.0  0.47026  0.01741  0.21362  1.0000
  H   H2135     1.0  0.47678  0.00997  0.34898  1.0000
  H   H2136     1.0  0.56892  0.05668  0.36132  1.0000
  C   C2683     1.0  0.41619  0.18652  0.14663  1.0000
  H   H2137     1.0  0.58400  0.02234  0.34951  1.0000
  C   C2684     1.0  0.47925  0.04626  0.01490  1.0000
  H   H2138     1.0  0.39969  0.03632  0.15852  1.0000
  H   H2139     1.0  0.54158  0.06363  0.10967  1.0000
  C   C2685     1.0  0.57697  0.19554  0.48233  1.0000
  C   C2686     1.0  0.56456  0.00794  0.42204  1.0000
  C   C2687     1.0  0.42864  0.02458  0.12611  1.0000
  H   H2140     1.0  0.43667  0.02206  0.11663  1.0000
  H   H2141     1.0  0.45459  0.01655  0.01420  1.0000
  C   C2688     1.0  0.57958  0.03033  0.39364  1.0000
  C   C2689     1.0  0.57339  0.99908  0.24841  1.0000
  C   C2690     1.0  0.58154  0.10664  0.34143  1.0000
  Fe  Fe174     1.0  0.58530  0.12836  0.43768  1.0000
  C   C2691     1.0  0.44410  0.99897  0.24442  1.0000
  H   H2142     1.0  0.45883  0.00182  0.35929  1.0000
  H   H2143     1.0  0.58592  0.08060  0.39650  1.0000
  C   C2692     1.0  0.43795  0.10595  0.00026  1.0000
  H   H2144     1.0  0.41093  0.00683  0.05353  1.0000
  H   H2145     1.0  0.38833  0.29897  0.04334  1.0000
  H   H2146     1.0  0.48764  0.04282  0.01496  1.0000
  C   C2693     1.0  0.38787  0.20627  0.06611  1.0000
  C   C2694     1.0  0.43563  0.00731  0.99525  1.0000
  C   C2695     1.0  0.42009  0.01641  0.29854  1.0000
  C   C2696     1.0  0.46949  0.99736  0.45256  1.0000
  H   H2147     1.0  0.38960  0.25432  0.07168  1.0000
  C   C2697     1.0  0.41522  0.00169  0.31489  1.0000
  C   C2698     1.0  0.46482  0.06252  0.99649  1.0000
  C   C2699     1.0  0.38760  0.01389  0.14676  1.0000
  C   C2700     1.0  0.58616  0.19493  0.48861  1.0000
  C   C2701     1.0  0.43616  0.12462  0.98469  1.0000
  H   H2148     1.0  0.49230  0.07400  0.67848  1.0000
  C   C2702     1.0  0.54650  0.01467  0.58824  1.0000
  H   H2149     1.0  0.39390  0.20391  0.92800  1.0000
  C   C2703     1.0  0.54443  0.02892  0.74430  1.0000
  H   H2150     1.0  0.56416  0.00404  0.76902  1.0000
  S   S356      1.0  0.56417  0.13385  0.66418  1.0000
  H   H2151     1.0  0.54279  0.08068  0.71732  1.0000
  S   S357      1.0  0.43250  0.02315  0.86579  1.0000
  C   C2704     1.0  0.57357  0.32225  0.59397  1.0000
  C   C2705     1.0  0.45846  0.01009  0.68329  1.0000
  Fe  Fe175     1.0  0.51381  0.03679  0.70725  1.0000
  H   H2152     1.0  0.58294  0.09716  0.58955  1.0000
  C   C2706     1.0  0.58476  0.04618  0.66838  1.0000
  C   C2707     1.0  0.57241  0.08033  0.51225  1.0000
  Fe  Fe176     1.0  0.41165  0.08124  0.95938  1.0000
  C   C2708     1.0  0.57532  0.32224  0.57256  1.0000
  S   S358      1.0  0.42756  0.06238  0.94468  1.0000
  H   H2153     1.0  0.53458  0.18918  0.52829  1.0000
  H   H2154     1.0  0.44836  0.01408  0.73265  1.0000
  H   H2155     1.0  0.52358  0.23195  0.57158  1.0000
  H   H2156     1.0  0.55840  0.12224  0.50960  1.0000
  S   S359      1.0  0.49901  0.05219  0.72803  1.0000
  S   S360      1.0  0.39674  0.09748  0.94710  1.0000
  C   C2709     1.0  0.48241  0.02810  0.78574  1.0000
  H   H2157     1.0  0.58262  0.23415  0.51620  1.0000
  S   S361      1.0  0.39557  0.15902  0.93985  1.0000
  S   S362      1.0  0.54284  0.06783  0.64706  1.0000
  C   C2710     1.0  0.42869  0.05061  0.92347  1.0000
  C   C2711     1.0  0.42142  0.04557  0.89638  1.0000
  C   C2712     1.0  0.42011  0.05421  0.91400  1.0000
  H   H2158     1.0  0.41479  0.04864  0.88893  1.0000
  H   H2159     1.0  0.41252  0.06390  0.92004  1.0000
  H   H2160     1.0  0.56038  0.20202  0.56881  1.0000
  S   S363      1.0  0.53076  0.03697  0.70611  1.0000
  H   H2161     1.0  0.53334  0.05847  0.74906  1.0000
  S   S364      1.0  0.53676  0.01258  0.66670  1.0000
  H   H2162     1.0  0.56345  0.18648  0.60501  1.0000
  C   C2713     1.0  0.55512  0.05398  0.70870  1.0000
  H   H2163     1.0  0.43115  0.03734  0.74439  1.0000
  Fe  Fe177     1.0  0.58056  0.13998  0.64689  1.0000
  C   C2714     1.0  0.58228  0.21108  0.57292  1.0000
  H   H2164     1.0  0.39282  0.16130  0.98412  1.0000
  C   C2715     1.0  0.55892  0.11361  0.66079  1.0000
  C   C2716     1.0  0.54889  0.11049  0.67301  1.0000
  C   C2717     1.0  0.54410  0.09560  0.66978  1.0000
  C   C2718     1.0  0.54928  0.08387  0.65414  1.0000
  C   C2719     1.0  0.55943  0.08659  0.64230  1.0000
  C   C2720     1.0  0.56427  0.10131  0.64566  1.0000
  H   H2165     1.0  0.54470  0.11997  0.68473  1.0000
  H   H2166     1.0  0.53623  0.09380  0.67883  1.0000
  H   H2167     1.0  0.56347  0.07745  0.63031  1.0000
  H   H2168     1.0  0.57202  0.10346  0.63623  1.0000
  H   H2169     1.0  0.56977  0.33284  0.56318  1.0000
  C   C2721     1.0  0.45506  0.06257  0.71074  1.0000
  C   C2722     1.0  0.50333  0.01979  0.76207  1.0000
  H   H2170     1.0  0.42906  0.07689  0.73521  1.0000
  H   H2171     1.0  0.44351  0.06925  0.96974  1.0000
  H   H2172     1.0  0.48466  0.02703  0.84565  1.0000
  H   H2173     1.0  0.55628  0.00208  0.73542  1.0000
  C   C2723     1.0  0.47574  0.00916  0.72789  1.0000
  H   H2174     1.0  0.56309  0.14851  0.62125  1.0000
  H   H2175     1.0  0.56667  0.33293  0.60120  1.0000
  C   C2724     1.0  0.57997  0.05279  0.70381  1.0000
  C   C2725     1.0  0.54589  0.06357  0.72148  1.0000
  H   H2176     1.0  0.48126  0.06348  0.98242  1.0000
  C   C2726     1.0  0.55365  0.01927  0.73153  1.0000
  C   C2727     1.0  0.43229  0.04578  0.80680  1.0000
  C   C2728     1.0  0.43854  0.04245  0.78715  1.0000
  C   C2729     1.0  0.44716  0.05238  0.77771  1.0000
  C   C2730     1.0  0.44960  0.06542  0.78804  1.0000
  C   C2731     1.0  0.44328  0.06901  0.80771  1.0000
  C   C2732     1.0  0.43466  0.05894  0.81708  1.0000
  P   P90       1.0  0.44736  0.08358  0.82198  1.0000
  C   C2733     1.0  0.45923  0.06621  0.82977  1.0000
  C   C2734     1.0  0.44996  0.10885  0.80563  1.0000
  C   C2735     1.0  0.45556  0.12011  0.81200  1.0000
  C   C2736     1.0  0.45758  0.13981  0.79957  1.0000
  C   C2737     1.0  0.45389  0.14851  0.78086  1.0000
  C   C2738     1.0  0.44810  0.13761  0.77466  1.0000
  C   C2739     1.0  0.44607  0.11790  0.78707  1.0000
  C   C2740     1.0  0.45839  0.04850  0.84671  1.0000
  C   C2741     1.0  0.43123  0.03298  0.88835  1.0000
  H   H2177     1.0  0.55592  0.14104  0.56589  1.0000
  C   C2742     1.0  0.46936  0.06926  0.81814  1.0000
  C   C2743     1.0  0.43722  0.09041  0.84458  1.0000
  C   C2744     1.0  0.43985  0.08806  0.86402  1.0000
  C   C2745     1.0  0.43198  0.09388  0.88123  1.0000
  C   C2746     1.0  0.42146  0.10235  0.87915  1.0000
  C   C2747     1.0  0.41881  0.10528  0.85973  1.0000
  C   C2748     1.0  0.42668  0.09950  0.84245  1.0000
  H   H2178     1.0  0.42593  0.03726  0.81461  1.0000
  H   H2179     1.0  0.43701  0.03135  0.77978  1.0000
  H   H2180     1.0  0.45222  0.04918  0.76284  1.0000
  H   H2181     1.0  0.45662  0.07207  0.78104  1.0000
  H   H2182     1.0  0.43004  0.06033  0.83276  1.0000
  H   H2183     1.0  0.45839  0.11360  0.82655  1.0000
  H   H2184     1.0  0.46200  0.14832  0.80446  1.0000
  H   H2185     1.0  0.45548  0.16374  0.77121  1.0000
  H   H2186     1.0  0.44517  0.14443  0.76025  1.0000
  H   H2187     1.0  0.44143  0.10987  0.78217  1.0000
  H   H2188     1.0  0.45065  0.04518  0.85508  1.0000
  C   C2749     1.0  0.56629  0.06874  0.58487  1.0000
  H   H2189     1.0  0.47027  0.08194  0.80416  1.0000
  H   H2190     1.0  0.44794  0.08166  0.86607  1.0000
  H   H2191     1.0  0.43399  0.09141  0.89638  1.0000
  H   H2192     1.0  0.41538  0.10642  0.89270  1.0000
  H   H2193     1.0  0.41066  0.11187  0.85812  1.0000
  H   H2194     1.0  0.42452  0.10192  0.82748  1.0000
  C   C2750     1.0  0.43699  0.12327  0.96396  1.0000
  C   C2751     1.0  0.58655  0.24313  0.50161  1.0000
  Fe  Fe178     1.0  0.53248  0.04637  0.67097  1.0000
  H   H2195     1.0  0.55939  0.12590  0.60178  1.0000
  H   H2196     1.0  0.52550  0.14964  0.58938  1.0000
  P   P91       1.0  0.46876  0.02262  0.70693  1.0000
  H   H2197     1.0  0.49156  0.03767  0.63529  1.0000
  C   C2752     1.0  0.43977  0.02904  0.89805  1.0000
  H   H2198     1.0  0.55576  0.02758  0.63929  1.0000
  H   H2199     1.0  0.38925  0.26202  0.96542  1.0000
  C   C2753     1.0  0.57845  0.99681  0.71597  1.0000
  H   H2200     1.0  0.52715  0.03776  0.62498  1.0000
  C   C2754     1.0  0.43851  0.03799  0.91548  1.0000
  H   H2201     1.0  0.58080  0.19502  0.57821  1.0000
  H   H2202     1.0  0.46153  0.07000  0.70113  1.0000
  H   H2203     1.0  0.46206  0.01442  0.75345  1.0000
  C   C2755     1.0  0.58388  0.06341  0.60235  1.0000
  C   C2756     1.0  0.48195  0.05173  0.69059  1.0000
  H   H2204     1.0  0.54008  0.01918  0.75775  1.0000
  C   C2757     1.0  0.46753  0.03473  0.85273  1.0000
  C   C2758     1.0  0.58364  0.26845  0.64796  1.0000
  H   H2205     1.0  0.52617  0.26441  0.54353  1.0000
  C   C2759     1.0  0.48663  0.99980  0.72294  1.0000
  H   H2206     1.0  0.48631  0.05728  0.81473  1.0000
  H   H2207     1.0  0.54536  0.06546  0.54247  1.0000
  C   C2760     1.0  0.45632  0.04018  0.71607  1.0000
  H   H2208     1.0  0.57249  0.22159  0.60098  1.0000
  H   H2209     1.0  0.53643  0.06739  0.60871  1.0000
  C   C2761     1.0  0.57947  0.04590  0.60471  1.0000
  H   H2210     1.0  0.56743  0.10183  0.57414  1.0000
  H   H2211     1.0  0.56075  0.19243  0.49226  1.0000
  H   H2212     1.0  0.54923  0.99987  0.58266  1.0000
  H   H2213     1.0  0.39693  0.13157  0.90424  1.0000
  H   H2214     1.0  0.51140  0.01646  0.75296  1.0000
  C   C2762     1.0  0.47757  0.03821  0.84149  1.0000
  H   H2215     1.0  0.44517  0.03515  0.92277  1.0000
  S   S365      1.0  0.51379  0.00388  0.64772  1.0000
  C   C2763     1.0  0.43664  0.06671  0.72980  1.0000
  C   C2764     1.0  0.53932  0.05289  0.60266  1.0000
  H   H2216     1.0  0.44008  0.10207  0.94278  1.0000
  C   C2765     1.0  0.57766  0.22600  0.58574  1.0000
  Fe  Fe179     1.0  0.39718  0.12530  0.95961  1.0000
  H   H2217     1.0  0.45511  0.02699  0.67841  1.0000
  H   H2218     1.0  0.46683  0.02099  0.86572  1.0000
  C   C2766     1.0  0.55296  0.06950  0.53423  1.0000
  C   C2767     1.0  0.53403  0.03606  0.61202  1.0000
  S   S366      1.0  0.51528  0.04907  0.67225  1.0000
  C   C2768     1.0  0.47850  0.05534  0.82408  1.0000
  H   H2219     1.0  0.49094  0.00105  0.70663  1.0000
  C   C2769     1.0  0.43968  0.10324  0.95873  1.0000
  C   C2770     1.0  0.44527  0.07575  0.71770  1.0000
  C   C2771     1.0  0.48855  0.04220  0.65047  1.0000
  Fe  Fe180     1.0  0.53411  0.00325  0.70187  1.0000
  H   H2220     1.0  0.54158  0.26219  0.51306  1.0000
  H   H2221     1.0  0.54047  0.10539  0.54858  1.0000
  H   H2222     1.0  0.47929  0.05343  0.75882  1.0000
  C   C2772     1.0  0.46541  0.00314  0.69727  1.0000
  C   C2773     1.0  0.57989  0.24645  0.57902  1.0000
  C   C2774     1.0  0.55945  0.07357  0.54527  1.0000
  H   H2223     1.0  0.57984  0.26440  0.63781  1.0000
  H   H2224     1.0  0.54919  0.09462  0.60819  1.0000
  C   C2775     1.0  0.50058  0.00764  0.78262  1.0000
  C   C2776     1.0  0.55660  0.14869  0.52375  1.0000
  H   H2225     1.0  0.44437  0.09299  0.71360  1.0000
  H   H2226     1.0  0.47433  0.03130  0.79475  1.0000
  S   S367      1.0  0.41273  0.10986  0.96958  1.0000
  C   C2777     1.0  0.47774  0.03671  0.68616  1.0000
  C   C2778     1.0  0.58434  0.30881  0.56317  1.0000
  C   C2779     1.0  0.54822  0.05081  0.58584  1.0000
  C   C2780     1.0  0.56260  0.02379  0.66588  1.0000
  P   P92       1.0  0.57206  0.02020  0.69909  1.0000
  H   H2227     1.0  0.38748  0.36634  0.75642  1.0000
  C   C2781     1.0  0.49235  0.05781  0.65474  1.0000
  H   H2228     1.0  0.53631  0.12742  0.61554  1.0000
  H   H2229     1.0  0.55875  0.02942  0.56604  1.0000
  C   C2782     1.0  0.53976  0.17436  0.52481  1.0000
  C   C2783     1.0  0.55622  0.07076  0.51240  1.0000
  C   C2784     1.0  0.48127  0.03168  0.66608  1.0000
  H   H2230     1.0  0.57635  0.25803  0.58896  1.0000
  H   H2231     1.0  0.47993  0.05478  0.70639  1.0000
  C   C2785     1.0  0.53124  0.13525  0.58605  1.0000
  C   C2786     1.0  0.53731  0.12282  0.60075  1.0000
  H   H2232     1.0  0.56459  0.14361  0.52650  1.0000
  H   H2233     1.0  0.47874  0.01918  0.66252  1.0000
  C   C2787     1.0  0.44759  0.03129  0.72822  1.0000
  C   C2788     1.0  0.49567  0.03637  0.75348  1.0000
  H   H2234     1.0  0.56741  0.03478  0.59803  1.0000
  C   C2789     1.0  0.54464  0.10416  0.59656  1.0000
  C   C2790     1.0  0.57060  0.01198  0.67682  1.0000
  H   H2235     1.0  0.52761  0.13832  0.55603  1.0000
  C   C2791     1.0  0.56774  0.19222  0.49749  1.0000
  S   S368      1.0  0.45597  0.01092  0.81856  1.0000
  C   C2792     1.0  0.53976  0.11012  0.56310  1.0000
  C   C2793     1.0  0.54593  0.09761  0.57775  1.0000
  C   C2794     1.0  0.53245  0.12888  0.56726  1.0000
  C   C2795     1.0  0.54060  0.05108  0.73940  1.0000
  C   C2796     1.0  0.48904  0.06257  0.67481  1.0000
  C   C2797     1.0  0.55925  0.03179  0.71392  1.0000
  C   C2798     1.0  0.47041  0.00736  0.74912  1.0000
  H   H2236     1.0  0.57935  0.27183  0.69924  1.0000
  C   C2799     1.0  0.43779  0.04448  0.73495  1.0000
  C   C2800     1.0  0.57071  0.04852  0.59598  1.0000
  C   C2801     1.0  0.48524  0.04065  0.76543  1.0000
  H   H2237     1.0  0.57733  0.12618  0.55747  1.0000
  C   C2802     1.0  0.56917  0.07922  0.53403  1.0000
  H   H2238     1.0  0.55691  0.03729  0.67130  1.0000
  C   C2803     1.0  0.57974  0.04079  0.68978  1.0000
  C   C2804     1.0  0.55183  0.03148  0.57882  1.0000
  P   P93       1.0  0.55499  0.07268  0.57335  1.0000
  S   S369      1.0  0.58487  0.12113  0.51494  1.0000
  C   C2805     1.0  0.49008  0.01155  0.79436  1.0000
  Fe  Fe181     1.0  0.51938  0.01424  0.67130  1.0000
  C   C2806     1.0  0.57076  0.08621  0.58267  1.0000
  H   H2239     1.0  0.55120  0.06760  0.50394  1.0000
  C   C2807     1.0  0.57685  0.18817  0.52531  1.0000
  C   C2808     1.0  0.56760  0.18846  0.51913  1.0000
  P   P94       1.0  0.55545  0.18461  0.53830  1.0000
  C   C2809     1.0  0.55803  0.17268  0.56446  1.0000
  C   C2810     1.0  0.54626  0.21004  0.53971  1.0000
  C   C2811     1.0  0.53751  0.21142  0.55688  1.0000
  C   C2812     1.0  0.53030  0.23098  0.55825  1.0000
  C   C2813     1.0  0.53177  0.24927  0.54247  1.0000
  C   C2814     1.0  0.38877  0.11099  0.89778  1.0000
  C   C2815     1.0  0.54769  0.22849  0.52391  1.0000
  C   C2816     1.0  0.55763  0.15120  0.57404  1.0000
  C   C2817     1.0  0.55953  0.14252  0.59442  1.0000
  C   C2818     1.0  0.56163  0.15526  0.60549  1.0000
  C   C2819     1.0  0.56186  0.17670  0.59625  1.0000
  C   C2820     1.0  0.56010  0.18539  0.57581  1.0000
  C   C2821     1.0  0.55001  0.16769  0.52909  1.0000
  C   C2822     1.0  0.56909  0.00070  0.64069  1.0000
  H   H2240     1.0  0.49818  0.06557  0.64276  1.0000
  H   H2241     1.0  0.57711  0.18495  0.54179  1.0000
  H   H2242     1.0  0.53628  0.19736  0.56923  1.0000
  H   H2243     1.0  0.57430  0.08291  0.54182  1.0000
  C   C2823     1.0  0.56193  0.01826  0.64777  1.0000
  Fe  Fe182     1.0  0.44685  0.00005  0.85148  1.0000
  H   H2244     1.0  0.43535  0.13771  0.95201  1.0000
  H   H2245     1.0  0.43395  0.14014  0.98883  1.0000
  C   C2824     1.0  0.54045  0.24801  0.52532  1.0000
  C   C2825     1.0  0.44147  0.08456  0.97424  1.0000
  C   C2826     1.0  0.53756  0.01702  0.60477  1.0000
  C   C2827     1.0  0.57865  0.26712  0.66930  1.0000
  H   H2246     1.0  0.55905  0.06402  0.69484  1.0000
  H   H2247     1.0  0.44734  0.01926  0.89204  1.0000
  H   H2248     1.0  0.45071  0.00065  0.66425  1.0000
  C   C2828     1.0  0.58436  0.13264  0.55122  1.0000
  S   S370      1.0  0.58336  0.17218  0.62728  1.0000
  S   S371      1.0  0.51699  0.00202  0.70627  1.0000
  H   H2249     1.0  0.58461  0.03745  0.65713  1.0000
  H   H2250     1.0  0.57138  0.26121  0.67555  1.0000
  H   H2251     1.0  0.58576  0.30908  0.54651  1.0000
  C   C2829     1.0  0.38931  0.12880  0.90433  1.0000
  H   H2252     1.0  0.46220  0.07154  0.98212  1.0000
  H   H2253     1.0  0.39600  0.09975  0.89262  1.0000
  H   H2254     1.0  0.55435  0.22795  0.51050  1.0000
  H   H2255     1.0  0.49309  0.99580  0.91795  1.0000
  C   C2830     1.0  0.55309  0.13657  0.51415  1.0000
  H   H2256     1.0  0.54030  0.13410  0.50197  1.0000
  C   C2831     1.0  0.57952  0.08357  0.59134  1.0000
  C   C2832     1.0  0.53625  0.16217  0.51520  1.0000
  H   H2257     1.0  0.57600  0.04914  0.72029  1.0000
  C   C2833     1.0  0.58500  0.07010  0.69650  1.0000
  H   H2258     1.0  0.53332  0.00415  0.61202  1.0000
  H   H2259     1.0  0.57992  0.08476  0.50372  1.0000
  C   C2834     1.0  0.54293  0.14332  0.50980  1.0000
  C   C2835     1.0  0.58310  0.27318  0.68263  1.0000
  C   C2836     1.0  0.58078  0.30872  0.60602  1.0000
  C   C2837     1.0  0.58609  0.19138  0.51002  1.0000
  H   H2260     1.0  0.52842  0.16755  0.51155  1.0000
  C   C2838     1.0  0.56596  0.07612  0.50142  1.0000
  H   H2261     1.0  0.58283  0.03031  0.61335  1.0000
  Fe  Fe183     1.0  0.38791  0.08608  0.98027  1.0000
  H   H2262     1.0  0.58364  0.14174  0.58009  1.0000
  H   H2263     1.0  0.39175  0.22248  0.97273  1.0000
  H   H2264     1.0  0.56839  0.99625  0.62690  1.0000
  H   H2265     1.0  0.58498  0.07965  0.70722  1.0000
  H   H2266     1.0  0.57943  0.30948  0.62242  1.0000
  C   C2839     1.0  0.47585  0.99608  0.76516  1.0000
  S   S372      1.0  0.48676  0.99551  0.81972  1.0000
  H   H2267     1.0  0.42149  0.03034  0.98845  1.0000
  C   C2840     1.0  0.55754  0.96706  0.17381  1.0000
  H   H2268     1.0  0.48452  0.99349  0.27943  1.0000
  C   C2841     1.0  0.54202  0.88532  0.22325  1.0000
  C   C2842     1.0  0.57639  0.96218  0.32440  1.0000
  H   H2269     1.0  0.49731  0.86813  0.18966  1.0000
  H   H2270     1.0  0.49138  0.94074  0.22866  1.0000
  C   C2843     1.0  0.39987  0.76820  0.32892  1.0000
  H   H2271     1.0  0.43269  0.81886  0.46584  1.0000
  S   S373      1.0  0.57288  0.88016  0.13848  1.0000
  C   C2844     1.0  0.41538  0.94599  0.14997  1.0000
  C   C2845     1.0  0.40994  0.93461  0.14348  1.0000
  S   S374      1.0  0.52552  0.94669  0.27139  1.0000
  Fe  Fe184     1.0  0.56440  0.91980  0.24095  1.0000
  S   S375      1.0  0.57384  0.89000  0.22890  1.0000
  S   S376      1.0  0.55591  0.91737  0.27504  1.0000
  S   S377      1.0  0.47959  0.92570  0.40362  1.0000
  S   S378      1.0  0.47224  0.91145  0.36799  1.0000
  Fe  Fe185     1.0  0.46454  0.91973  0.39949  1.0000
  S   S379      1.0  0.45383  0.90018  0.42526  1.0000
  Fe  Fe186     1.0  0.48657  0.92070  0.37051  1.0000
  S   S380      1.0  0.50295  0.90064  0.36115  1.0000
  Fe  Fe187     1.0  0.41746  0.82786  0.42040  1.0000
  S   S381      1.0  0.40835  0.83462  0.45207  1.0000
  S   S382      1.0  0.42970  0.84580  0.39735  1.0000
  Fe  Fe188     1.0  0.40602  0.79159  0.42468  1.0000
  S   S383      1.0  0.39647  0.79505  0.45701  1.0000
  S   S384      1.0  0.40577  0.76713  0.40691  1.0000
  Fe  Fe189     1.0  0.39422  0.83032  0.44298  1.0000
  H   H2272     1.0  0.42086  0.73580  0.48289  1.0000
  Fe  Fe190     1.0  0.41146  0.79887  0.46311  1.0000
  P   P95       1.0  0.54078  0.97738  0.15331  1.0000
  S   S385      1.0  0.40299  0.82686  0.41022  1.0000
  S   S386      1.0  0.42143  0.79211  0.43195  1.0000
  H   H2273     1.0  0.53424  0.91353  0.30466  1.0000
  H   H2274     1.0  0.50311  0.93523  0.25833  1.0000
  H   H2275     1.0  0.51623  0.94916  0.38211  1.0000
  P   P96       1.0  0.47957  0.95691  0.47239  1.0000
  C   C2846     1.0  0.44636  0.88674  0.41719  1.0000
  C   C2847     1.0  0.43948  0.87474  0.43247  1.0000
  C   C2848     1.0  0.43405  0.86270  0.42655  1.0000
  C   C2849     1.0  0.43565  0.86212  0.40531  1.0000
  C   C2850     1.0  0.44239  0.87435  0.38999  1.0000
  C   C2851     1.0  0.44762  0.88680  0.39587  1.0000
  H   H2276     1.0  0.43840  0.87449  0.44896  1.0000
  H   H2277     1.0  0.42876  0.85360  0.43843  1.0000
  H   H2278     1.0  0.44359  0.87415  0.37350  1.0000
  H   H2279     1.0  0.45276  0.89613  0.38390  1.0000
  C   C2852     1.0  0.46865  0.94724  0.46994  1.0000
  C   C2853     1.0  0.51967  0.93342  0.29642  1.0000
  C   C2854     1.0  0.50861  0.93855  0.30285  1.0000
  C   C2855     1.0  0.50350  0.92808  0.32245  1.0000
  C   C2856     1.0  0.50943  0.91281  0.33605  1.0000
  H   H2280     1.0  0.50398  0.95086  0.29266  1.0000
  H   H2281     1.0  0.49494  0.93159  0.32678  1.0000
  C   C2857     1.0  0.57282  0.88199  0.16415  1.0000
  C   C2858     1.0  0.47809  0.97790  0.26315  1.0000
  C   C2859     1.0  0.47269  0.88351  0.46600  1.0000
  C   C2860     1.0  0.57320  0.88710  0.20409  1.0000
  C   C2861     1.0  0.56613  0.90182  0.19240  1.0000
  C   C2862     1.0  0.56588  0.89912  0.17259  1.0000
  C   C2863     1.0  0.50708  0.84519  0.20991  1.0000
  S   S387      1.0  0.47512  0.98929  0.39604  1.0000
  H   H2282     1.0  0.56085  0.91526  0.19858  1.0000
  H   H2283     1.0  0.56045  0.91057  0.16356  1.0000
  H   H2284     1.0  0.53998  0.91280  0.13157  1.0000
  C   C2864     1.0  0.45104  0.98842  0.22892  1.0000
  H   H2285     1.0  0.57750  0.90272  0.34702  1.0000
  C   C2865     1.0  0.40171  0.94563  0.13295  1.0000
  Fe  Fe191     1.0  0.54320  0.94391  0.26268  1.0000
  C   C2866     1.0  0.39047  0.59252  0.27064  1.0000
  C   C2867     1.0  0.52053  0.90723  0.32946  1.0000
  H   H2286     1.0  0.55758  0.88592  0.31675  1.0000
  H   H2287     1.0  0.58536  0.99395  0.13398  1.0000
  H   H2288     1.0  0.58050  0.97904  0.34303  1.0000
  C   C2868     1.0  0.54574  0.96870  0.40886  1.0000
  C   C2869     1.0  0.39106  0.58304  0.29165  1.0000
  C   C2870     1.0  0.52997  0.97448  0.12452  1.0000
  C   C2871     1.0  0.56063  0.91396  0.35752  1.0000
  C   C2872     1.0  0.39650  0.75232  0.40700  1.0000
  C   C2873     1.0  0.39996  0.73796  0.39349  1.0000
  H   H2289     1.0  0.57520  0.98947  0.23675  1.0000
  H   H2290     1.0  0.53398  0.95595  0.43455  1.0000
  H   H2291     1.0  0.55622  0.98048  0.38000  1.0000
  H   H2292     1.0  0.40803  0.73591  0.38419  1.0000
  H   H2293     1.0  0.50882  0.96141  0.41940  1.0000
  S   S388      1.0  0.45814  0.95433  0.38609  1.0000
  H   H2294     1.0  0.49839  0.89930  0.20147  1.0000
  C   C2874     1.0  0.53159  0.88951  0.22061  1.0000
  C   C2875     1.0  0.54840  0.95804  0.37587  1.0000
  C   C2876     1.0  0.53692  0.96341  0.13814  1.0000
  C   C2877     1.0  0.41724  0.73014  0.44347  1.0000
  H   H2295     1.0  0.57761  0.93645  0.13259  1.0000
  H   H2296     1.0  0.47952  0.88347  0.29002  1.0000
  C   C2878     1.0  0.48793  0.99353  0.45319  1.0000
  C   C2879     1.0  0.49735  0.94226  0.21408  1.0000
  H   H2297     1.0  0.42645  0.67799  0.43980  1.0000
  C   C2880     1.0  0.44960  0.81307  0.45322  1.0000
  H   H2298     1.0  0.48637  0.92771  0.44260  1.0000
  C   C2881     1.0  0.47668  0.88801  0.48102  1.0000
  C   C2882     1.0  0.39971  0.74672  0.33138  1.0000
  C   C2883     1.0  0.53830  0.95584  0.41842  1.0000
  H   H2299     1.0  0.44614  0.92432  0.46359  1.0000
  H   H2300     1.0  0.39769  0.59407  0.25866  1.0000
  C   C2884     1.0  0.55072  0.96994  0.38756  1.0000
  H   H2301     1.0  0.40958  0.67484  0.46573  1.0000
  H   H2302     1.0  0.55207  0.97574  0.18534  1.0000
  C   C2885     1.0  0.53714  0.93003  0.12961  1.0000
  C   C2886     1.0  0.46497  0.87113  0.47250  1.0000
  C   C2887     1.0  0.51131  0.92825  0.46078  1.0000
  C   C2888     1.0  0.56787  0.95724  0.17665  1.0000
  H   H2303     1.0  0.53701  0.90124  0.26944  1.0000
  H   H2304     1.0  0.54734  0.97832  0.41776  1.0000
  C   C2889     1.0  0.57976  0.86706  0.17602  1.0000
  H   H2305     1.0  0.41685  0.97687  0.15132  1.0000
  C   C2890     1.0  0.38764  0.69022  0.45343  1.0000
  H   H2306     1.0  0.40728  0.77356  0.32226  1.0000
  H   H2307     1.0  0.57555  0.88502  0.32083  1.0000
  C   C2891     1.0  0.49033  0.92596  0.28353  1.0000
  C   C2892     1.0  0.45941  0.81545  0.45474  1.0000
  H   H2308     1.0  0.56171  0.92126  0.36904  1.0000
  H   H2309     1.0  0.39593  0.71590  0.38050  1.0000
  H   H2310     1.0  0.51699  0.82620  0.23169  1.0000
  H   H2311     1.0  0.52514  0.89506  0.33974  1.0000
  C   C2893     1.0  0.51450  0.97194  0.33119  1.0000
  C   C2894     1.0  0.48481  0.89445  0.28321  1.0000
  C   C2895     1.0  0.54018  0.94102  0.14114  1.0000
  H   H2312     1.0  0.51791  0.94948  0.16096  1.0000
  C   C2896     1.0  0.53130  0.97549  0.17839  1.0000
  H   H2313     1.0  0.43679  0.99377  0.25279  1.0000
  H   H2314     1.0  0.49228  0.95768  0.41192  1.0000
  C   C2897     1.0  0.53320  0.95797  0.19516  1.0000
  C   C2898     1.0  0.49283  0.89149  0.26524  1.0000
  C   C2899     1.0  0.43204  0.97601  0.31352  1.0000
  C   C2900     1.0  0.57457  0.97855  0.33514  1.0000
  S   S389      1.0  0.55100  0.94405  0.22863  1.0000
  H   H2315     1.0  0.45042  0.98808  0.00289  1.0000
  C   C2901     1.0  0.56900  0.96174  0.31345  1.0000
  C   C2902     1.0  0.49319  0.92791  0.44806  1.0000
  C   C2903     1.0  0.45840  0.94198  0.44777  1.0000
  S   S390      1.0  0.45844  0.95328  0.32795  1.0000
  H   H2316     1.0  0.49356  0.87805  0.25848  1.0000
  C   C2904     1.0  0.50398  0.97502  0.41084  1.0000
  H   H2317     1.0  0.57027  0.95816  0.19042  1.0000
  C   C2905     1.0  0.41266  0.96839  0.14582  1.0000
  C   C2906     1.0  0.46653  0.95013  0.44994  1.0000
  S   S391      1.0  0.57298  0.94437  0.24100  1.0000
  C   C2907     1.0  0.49461  0.97288  0.40678  1.0000
  C   C2908     1.0  0.52567  0.87024  0.41458  1.0000
  C   C2909     1.0  0.42125  0.69206  0.44507  1.0000
  C   C2910     1.0  0.50185  0.86581  0.20146  1.0000
  H   H2318     1.0  0.55955  0.95428  0.12699  1.0000
  C   C2911     1.0  0.45047  0.83489  0.48276  1.0000
  C   C2912     1.0  0.39896  0.96803  0.12880  1.0000
  H   H2319     1.0  0.39250  0.97640  0.12082  1.0000
  C   C2913     1.0  0.56172  0.95513  0.14102  1.0000
  S   S392      1.0  0.54996  0.97052  0.26462  1.0000
  S   S393      1.0  0.57232  0.94169  0.29881  1.0000
  H   H2320     1.0  0.52756  0.96999  0.30415  1.0000
  H   H2321     1.0  0.54511  0.93203  0.15232  1.0000
  H   H2322     1.0  0.53028  0.88576  0.20701  1.0000
  P   P97       1.0  0.50950  0.90322  0.23190  1.0000
  C   C2914     1.0  0.53548  0.89781  0.25587  1.0000
  C   C2915     1.0  0.51358  0.85977  0.23193  1.0000
  H   H2323     1.0  0.48267  0.89752  0.47603  1.0000
  C   C2916     1.0  0.40452  0.97956  0.13495  1.0000
  H   H2324     1.0  0.54036  0.94551  0.19336  1.0000
  H   H2325     1.0  0.40698  0.73540  0.32665  1.0000
  H   H2326     1.0  0.56110  0.81382  0.99578  1.0000
  C   C2917     1.0  0.53307  0.90646  0.38855  1.0000
  C   C2918     1.0  0.52421  0.90118  0.38557  1.0000
  C   C2919     1.0  0.55428  0.96546  0.15635  1.0000
  C   C2920     1.0  0.43690  0.99061  0.29709  1.0000
  H   H2327     1.0  0.54162  0.90534  0.33798  1.0000
  C   C2921     1.0  0.45987  0.82603  0.46969  1.0000
  H   H2328     1.0  0.40229  0.74312  0.46189  1.0000
  C   C2922     1.0  0.53464  0.87514  0.41739  1.0000
  C   C2923     1.0  0.47106  0.96491  0.26532  1.0000
  C   C2924     1.0  0.57990  0.86956  0.19598  1.0000
  Fe  Fe192     1.0  0.55880  0.96854  0.23154  1.0000
  H   H2329     1.0  0.49538  0.98416  0.45710  1.0000
  C   C2925     1.0  0.46491  0.95775  0.28525  1.0000
  C   C2926     1.0  0.52297  0.89808  0.23556  1.0000
  C   C2927     1.0  0.50253  0.88346  0.20814  1.0000
  H   H2330     1.0  0.40078  0.91485  0.48750  1.0000
  C   C2928     1.0  0.47898  0.98447  0.45815  1.0000
  C   C2929     1.0  0.53256  0.95273  0.33313  1.0000
  H   H2331     1.0  0.55205  0.88629  0.24291  1.0000
  Fe  Fe193     1.0  0.56341  0.94409  0.27413  1.0000
  H   H2332     1.0  0.58569  0.97921  0.26455  1.0000
  H   H2333     1.0  0.52284  0.85621  0.42452  1.0000
  C   C2930     1.0  0.50268  0.96270  0.17868  1.0000
  H   H2334     1.0  0.51872  0.90877  0.26512  1.0000
  C   C2931     1.0  0.52935  0.94612  0.35515  1.0000
  H   H2335     1.0  0.53879  0.86486  0.42947  1.0000
  C   C2932     1.0  0.52593  0.95654  0.21462  1.0000
  C   C2933     1.0  0.54397  0.88948  0.24087  1.0000
  C   C2934     1.0  0.55044  0.91540  0.35459  1.0000
  C   C2935     1.0  0.55946  0.97730  0.31413  1.0000
  P   P98       1.0  0.53860  0.92839  0.37076  1.0000
  C   C2936     1.0  0.47304  0.97601  0.30104  1.0000
  C   C2937     1.0  0.48359  0.91163  0.29242  1.0000
  H   H2336     1.0  0.50375  0.90665  0.42846  1.0000
  H   H2337     1.0  0.52759  0.94343  0.22775  1.0000
  H   H2338     1.0  0.44105  0.88586  0.47573  1.0000
  C   C2938     1.0  0.53598  0.94390  0.40679  1.0000
  H   H2339     1.0  0.47736  0.91405  0.30633  1.0000
  C   C2939     1.0  0.53054  0.94124  0.11549  1.0000
  C   C2940     1.0  0.55842  0.89369  0.32818  1.0000
  H   H2340     1.0  0.44532  0.98604  0.29043  1.0000
  C   C2941     1.0  0.54127  0.94440  0.38560  1.0000
  H   H2341     1.0  0.51368  0.87927  0.39608  1.0000
  H   H2342     1.0  0.51813  0.85718  0.24380  1.0000
  H   H2343     1.0  0.58290  0.93793  0.16456  1.0000
  C   C2942     1.0  0.51137  0.96628  0.35316  1.0000
  C   C2943     1.0  0.51214  0.91596  0.44636  1.0000
  H   H2344     1.0  0.51981  0.90676  0.43994  1.0000
  C   C2944     1.0  0.54941  0.90484  0.34010  1.0000
  H   H2345     1.0  0.44919  0.80495  0.44163  1.0000
  C   C2945     1.0  0.51442  0.98928  0.20051  1.0000
  C   C2946     1.0  0.53836  0.89311  0.40434  1.0000
  H   H2346     1.0  0.52988  0.93477  0.41421  1.0000
  C   C2947     1.0  0.46600  0.96305  0.30315  1.0000
  C   C2948     1.0  0.56854  0.89295  0.33065  1.0000
  H   H2347     1.0  0.54075  0.94801  0.32504  1.0000
  H   H2348     1.0  0.46754  0.82725  0.47106  1.0000
  C   C2949     1.0  0.49824  0.92337  0.26535  1.0000
  C   C2950     1.0  0.40756  0.72859  0.45785  1.0000
  H   H2349     1.0  0.54546  0.89649  0.40634  1.0000
  H   H2350     1.0  0.48923  0.93948  0.29050  1.0000
  C   C2951     1.0  0.51879  0.95355  0.36512  1.0000
  C   C2952     1.0  0.48794  0.99075  0.39705  1.0000
  C   C2953     1.0  0.50850  0.88057  0.22325  1.0000
  H   H2351     1.0  0.45947  0.94774  0.28686  1.0000
  H   H2352     1.0  0.55217  0.95943  0.35928  1.0000
  H   H2353     1.0  0.50662  0.83155  0.20459  1.0000
  H   H2354     1.0  0.46174  0.86838  0.46064  1.0000
  H   H2355     1.0  0.43130  0.71350  0.42512  1.0000
  H   H2356     1.0  0.41931  0.74564  0.43686  1.0000
  C   C2954     1.0  0.52049  0.88323  0.39864  1.0000
  C   C2955     1.0  0.57504  0.94606  0.16193  1.0000
  P   P99       1.0  0.39188  0.70637  0.48346  1.0000
  H   H2357     1.0  0.41747  0.97023  0.33530  1.0000
  H   H2358     1.0  0.41068  0.99083  0.09132  1.0000
  C   C2956     1.0  0.57204  0.94526  0.14394  1.0000
  H   H2359     1.0  0.50867  0.98131  0.32192  1.0000
  H   H2360     1.0  0.39742  0.93682  0.12810  1.0000
  H   H2361     1.0  0.47032  0.96051  0.25157  1.0000
  H   H2362     1.0  0.46240  0.99104  0.45637  1.0000
  H   H2363     1.0  0.47121  0.95863  0.43597  1.0000
  H   H2364     1.0  0.52024  0.91063  0.37297  1.0000
  C   C2957     1.0  0.49526  0.96004  0.19779  1.0000
  C   C2958     1.0  0.39307  0.72659  0.39136  1.0000
  H   H2365     1.0  0.47537  0.89002  0.44932  1.0000
  H   H2366     1.0  0.48793  0.97202  0.20022  1.0000
  C   C2959     1.0  0.42400  0.71199  0.43682  1.0000
  C   C2960     1.0  0.51219  0.94746  0.17577  1.0000
  H   H2367     1.0  0.39009  0.72296  0.34303  1.0000
  C   C2961     1.0  0.50143  0.94044  0.46881  1.0000
  C   C2962     1.0  0.56964  0.90299  0.34539  1.0000
  C   C2963     1.0  0.50700  0.92704  0.21147  1.0000
  H   H2368     1.0  0.43675  0.96051  0.31951  1.0000
  C   C2964     1.0  0.39805  0.89781  0.46725  1.0000
  H   H2369     1.0  0.46665  0.80899  0.44440  1.0000
  C   C2965     1.0  0.49227  0.94049  0.46242  1.0000
  C   C2966     1.0  0.40469  0.70866  0.46615  1.0000
  C   C2967     1.0  0.49964  0.90594  0.25613  1.0000
  H   H2370     1.0  0.54865  0.87879  0.21165  1.0000
  Fe  Fe194     1.0  0.46672  0.94634  0.35471  1.0000
  S   S394      1.0  0.48173  0.95518  0.35464  1.0000
  C   C2968     1.0  0.47307  0.78702  0.36367  1.0000
  C   C2969     1.0  0.48258  0.77212  0.36590  1.0000
  C   C2970     1.0  0.49200  0.77915  0.36203  1.0000
  C   C2971     1.0  0.49195  0.80106  0.35571  1.0000
  C   C2972     1.0  0.48250  0.81606  0.35268  1.0000
  C   C2973     1.0  0.47300  0.80892  0.35730  1.0000
  P   P100      1.0  0.48232  0.84434  0.34616  1.0000
  C   C2974     1.0  0.47118  0.85908  0.33420  1.0000
  C   C2975     1.0  0.48098  0.85083  0.37123  1.0000
  C   C2976     1.0  0.47160  0.84915  0.38674  1.0000
  C   C2977     1.0  0.47052  0.85324  0.40657  1.0000
  C   C2978     1.0  0.47869  0.85946  0.41096  1.0000
  C   C2979     1.0  0.48812  0.86081  0.39577  1.0000
  C   C2980     1.0  0.48937  0.85610  0.37613  1.0000
  C   C2981     1.0  0.46898  0.85203  0.31836  1.0000
  C   C2982     1.0  0.46059  0.86390  0.30851  1.0000
  C   C2983     1.0  0.45448  0.88306  0.31416  1.0000
  C   C2984     1.0  0.45673  0.89028  0.32972  1.0000
  C   C2985     1.0  0.46500  0.87826  0.33977  1.0000
  C   C2986     1.0  0.49394  0.85077  0.32652  1.0000
  C   C2987     1.0  0.49973  0.83706  0.31271  1.0000
  C   C2988     1.0  0.50865  0.84217  0.29739  1.0000
  C   C2989     1.0  0.51176  0.86115  0.29549  1.0000
  C   C2990     1.0  0.50582  0.87524  0.30860  1.0000
  C   C2991     1.0  0.49687  0.87024  0.32390  1.0000
  H   H2371     1.0  0.46570  0.78164  0.36719  1.0000
  H   H2372     1.0  0.48260  0.75516  0.37098  1.0000
  H   H2373     1.0  0.49933  0.76763  0.36421  1.0000
  H   H2374     1.0  0.49925  0.80632  0.35339  1.0000
  H   H2375     1.0  0.46547  0.82022  0.35637  1.0000
  H   H2376     1.0  0.46505  0.84483  0.38351  1.0000
  H   H2377     1.0  0.46322  0.85213  0.41837  1.0000
  H   H2378     1.0  0.47764  0.86342  0.42604  1.0000
  H   H2379     1.0  0.49446  0.86578  0.39904  1.0000
  H   H2380     1.0  0.49687  0.85677  0.36493  1.0000
  H   H2381     1.0  0.47375  0.83740  0.31361  1.0000
  H   H2382     1.0  0.45882  0.85831  0.29647  1.0000
  H   H2383     1.0  0.44799  0.89231  0.30656  1.0000
  H   H2384     1.0  0.45205  0.90520  0.33411  1.0000
  H   H2385     1.0  0.46653  0.88398  0.35187  1.0000
  H   H2386     1.0  0.49736  0.82246  0.31367  1.0000
  H   H2387     1.0  0.51319  0.83138  0.28702  1.0000
  H   H2388     1.0  0.51871  0.86507  0.28377  1.0000
  H   H2389     1.0  0.50809  0.89019  0.30677  1.0000
  H   H2390     1.0  0.49227  0.88167  0.33359  1.0000
  H   H2391     1.0  0.42390  0.91172  0.48149  1.0000
  C   C2992     1.0  0.52504  0.90216  0.25325  1.0000
  C   C2993     1.0  0.42120  0.98154  0.32245  1.0000
  H   H2392     1.0  0.45687  0.94409  0.43230  1.0000
  C   C2994     1.0  0.52687  0.96342  0.11311  1.0000
  C   C2995     1.0  0.50309  0.91580  0.43999  1.0000
  H   H2393     1.0  0.53915  0.99204  0.22372  1.0000
  C   C2996     1.0  0.45230  0.93089  0.46549  1.0000
  C   C2997     1.0  0.39020  0.73973  0.34047  1.0000
  H   H2394     1.0  0.52824  0.93269  0.10648  1.0000
  C   C2998     1.0  0.51291  0.84217  0.22519  1.0000
  C   C2999     1.0  0.51438  0.92976  0.19207  1.0000
  C   C3000     1.0  0.55750  0.99349  0.32546  1.0000
  C   C3001     1.0  0.52512  0.96546  0.32121  1.0000
  C   C3002     1.0  0.52568  0.91761  0.30964  1.0000
  H   H2395     1.0  0.52182  0.91830  0.18938  1.0000
  C   C3003     1.0  0.41167  0.69036  0.45976  1.0000
  Fe  Fe195     1.0  0.47382  0.95973  0.38744  1.0000
  H   H2396     1.0  0.42168  0.93744  0.15836  1.0000
  H   H2397     1.0  0.41204  0.91725  0.14677  1.0000
  H   H2398     1.0  0.50317  0.97164  0.36088  1.0000
  H   H2399     1.0  0.58373  0.95013  0.32404  1.0000
  H   H2400     1.0  0.39054  0.70348  0.44192  1.0000
  H   H2401     1.0  0.51836  0.92863  0.46550  1.0000
  H   H2402     1.0  0.58438  0.80794  0.03074  1.0000
  H   H2403     1.0  0.39084  0.79919  0.33392  1.0000
  H   H2404     1.0  0.55367  0.97705  0.30578  1.0000
  C   C3004     1.0  0.44068  0.83213  0.48133  1.0000
  H   H2405     1.0  0.39874  0.57723  0.29597  1.0000
  C   C3005     1.0  0.51659  0.97227  0.21737  1.0000
  C   C3006     1.0  0.47902  0.98361  0.28099  1.0000
  C   C3007     1.0  0.44027  0.82109  0.46675  1.0000
  C   C3008     1.0  0.56519  0.99436  0.33557  1.0000
  C   C3009     1.0  0.39231  0.88385  0.46573  1.0000
  H   H2406     1.0  0.52163  0.97207  0.10237  1.0000
  C   C3010     1.0  0.58512  0.99279  0.16631  1.0000
  H   H2407     1.0  0.52693  0.99160  0.12276  1.0000
  H   H2408     1.0  0.39346  0.87926  0.45086  1.0000
  H   H2409     1.0  0.50098  0.95006  0.47979  1.0000
  C   C3011     1.0  0.39054  0.78268  0.33558  1.0000
  H   H2410     1.0  0.44915  0.97504  0.22560  1.0000
  H   H2411     1.0  0.50110  0.97670  0.16625  1.0000
  H   H2412     1.0  0.43214  0.70182  0.47336  1.0000
  S   S395      1.0  0.48573  0.98678  0.23814  1.0000
  Fe  Fe196     1.0  0.58642  0.85618  0.12327  1.0000
  H   H2413     1.0  0.40375  0.90393  0.45356  1.0000
  S   S396      1.0  0.58546  0.82293  0.12364  1.0000
  C   C3012     1.0  0.52169  0.99082  0.18102  1.0000
  H   H2414     1.0  0.58521  0.85782  0.20517  1.0000
  C   C3013     1.0  0.45422  0.92819  0.48551  1.0000
  C   C3014     1.0  0.39640  0.90388  0.48640  1.0000
  H   H2415     1.0  0.51104  0.97131  0.23259  1.0000
  H   H2416     1.0  0.57411  0.98041  0.40973  1.0000
  H   H2417     1.0  0.39050  0.80819  0.39609  1.0000
  H   H2418     1.0  0.47384  0.98036  0.31476  1.0000
  C   C3015     1.0  0.50701  0.99482  0.40425  1.0000
  H   H2419     1.0  0.46594  0.98680  0.20598  1.0000
  H   H2420     1.0  0.58498  0.85350  0.16990  1.0000
  C   C3016     1.0  0.57934  0.99343  0.26395  1.0000
  H   H2421     1.0  0.58657  0.98753  0.19841  1.0000
  C   C3017     1.0  0.46235  0.93633  0.48777  1.0000
  H   H2422     1.0  0.43393  0.99499  0.98974  1.0000
  H   H2423     1.0  0.54604  0.71764  0.98991  1.0000
  C   C3018     1.0  0.38728  0.68762  0.47501  1.0000
  C   C3019     1.0  0.46047  0.99507  0.21780  1.0000
  C   C3020     1.0  0.39387  0.69202  0.62697  1.0000
  H   H2424     1.0  0.39335  0.84110  0.67846  1.0000
  C   C3021     1.0  0.55312  0.92743  0.86918  1.0000
  S   S397      1.0  0.57708  0.86084  0.89447  1.0000
  H   H2425     1.0  0.40579  0.66512  0.63780  1.0000
  Fe  Fe197     1.0  0.54101  0.84991  0.82866  1.0000
  S   S398      1.0  0.53000  0.87527  0.84510  1.0000
  S   S399      1.0  0.55589  0.82846  0.83908  1.0000
  Fe  Fe198     1.0  0.52685  0.85814  0.79689  1.0000
  S   S400      1.0  0.51479  0.88436  0.81081  1.0000
  S   S401      1.0  0.52717  0.84526  0.76881  1.0000
  Fe  Fe199     1.0  0.52907  0.89491  0.81253  1.0000
  S   S402      1.0  0.52950  0.92958  0.80711  1.0000
  Fe  Fe200     1.0  0.51683  0.86254  0.84205  1.0000
  S   S403      1.0  0.50375  0.85593  0.87049  1.0000
  S   S404      1.0  0.54108  0.87052  0.79609  1.0000
  S   S405      1.0  0.52787  0.83530  0.82820  1.0000
  Fe  Fe201     1.0  0.48123  0.86819  0.70771  1.0000
  S   S406      1.0  0.47784  0.89998  0.71628  1.0000
  S   S407      1.0  0.49405  0.84058  0.71896  1.0000
  Fe  Fe202     1.0  0.46391  0.88183  0.68135  1.0000
  S   S408      1.0  0.45930  0.91479  0.68848  1.0000
  S   S409      1.0  0.45467  0.87811  0.65889  1.0000
  Fe  Fe203     1.0  0.47683  0.91367  0.68232  1.0000
  S   S410      1.0  0.48366  0.94064  0.65833  1.0000
  Fe  Fe204     1.0  0.46076  0.89808  0.72161  1.0000
  S   S411      1.0  0.44877  0.90357  0.75155  1.0000
  S   S412      1.0  0.48143  0.88177  0.67310  1.0000
  S   S413      1.0  0.46416  0.86523  0.71515  1.0000
  H   H2426     1.0  0.53195  0.74376  0.97305  1.0000
  C   C3022     1.0  0.42578  0.88687  0.68881  1.0000
  H   H2427     1.0  0.40985  0.68035  0.50332  1.0000
  C   C3023     1.0  0.40791  0.72817  0.56360  1.0000
  H   H2428     1.0  0.41572  0.73927  0.51984  1.0000
  C   C3024     1.0  0.39316  0.69588  0.51059  1.0000
  S   S414      1.0  0.54688  0.97638  0.71403  1.0000
  P   P101      1.0  0.42093  0.71063  0.55883  1.0000
  H   H2429     1.0  0.46370  0.93389  0.50344  1.0000
  C   C3025     1.0  0.51468  0.95298  0.84724  1.0000
  C   C3026     1.0  0.42966  0.90542  0.67856  1.0000
  C   C3027     1.0  0.57625  0.76489  0.88889  1.0000
  S   S415      1.0  0.44313  0.97254  0.84359  1.0000
  H   H2430     1.0  0.42451  0.83658  0.68703  1.0000
  C   C3028     1.0  0.56059  0.81908  0.97931  1.0000
  S   S416      1.0  0.46833  0.96051  0.82003  1.0000
  C   C3029     1.0  0.57722  0.98908  0.65127  1.0000
  H   H2431     1.0  0.43079  0.91064  0.66154  1.0000
  C   C3030     1.0  0.39413  0.67566  0.55270  1.0000
  Fe  Fe205     1.0  0.45848  0.95363  0.85284  1.0000
  S   S417      1.0  0.45916  0.92051  0.87342  1.0000
  C   C3031     1.0  0.39389  0.85346  0.70457  1.0000
  H   H2432     1.0  0.45855  0.96194  0.67469  1.0000
  Fe  Fe206     1.0  0.41415  0.76710  0.62755  1.0000
  S   S418      1.0  0.40252  0.79104  0.61013  1.0000
  S   S419      1.0  0.41613  0.73123  0.63247  1.0000
  Fe  Fe207     1.0  0.42255  0.80144  0.63730  1.0000
  S   S420      1.0  0.41121  0.82844  0.62102  1.0000
  S   S421      1.0  0.43443  0.80246  0.65571  1.0000
  Fe  Fe208     1.0  0.39896  0.80842  0.63636  1.0000
  C   C3032     1.0  0.47759  0.88033  0.92726  1.0000
  Fe  Fe209     1.0  0.41551  0.80928  0.59588  1.0000
  S   S422      1.0  0.41734  0.82790  0.56211  1.0000
  S   S423      1.0  0.40975  0.78296  0.65510  1.0000
  S   S424      1.0  0.42779  0.78359  0.61082  1.0000
  C   C3033     1.0  0.41656  0.81475  0.54345  1.0000
  C   C3034     1.0  0.41788  0.79250  0.54800  1.0000
  C   C3035     1.0  0.43866  0.86721  0.50781  1.0000
  C   C3036     1.0  0.41522  0.82663  0.52330  1.0000
  H   H2433     1.0  0.41900  0.78323  0.56346  1.0000
  H   H2434     1.0  0.41424  0.84387  0.51970  1.0000
  H   H2435     1.0  0.43335  0.83831  0.49160  1.0000
  H   H2436     1.0  0.41911  0.82406  0.76494  1.0000
  H   H2437     1.0  0.43877  0.64140  0.59739  1.0000
  H   H2438     1.0  0.55659  0.79036  0.97850  1.0000
  H   H2439     1.0  0.54532  0.97854  0.63810  1.0000
  C   C3037     1.0  0.44160  0.83596  0.72470  1.0000
  H   H2440     1.0  0.43451  0.91721  0.72059  1.0000
  C   C3038     1.0  0.42220  0.88058  0.53117  1.0000
  C   C3039     1.0  0.43133  0.65098  0.59344  1.0000
  C   C3040     1.0  0.42343  0.72228  0.49504  1.0000
  C   C3041     1.0  0.44911  0.85682  0.65836  1.0000
  C   C3042     1.0  0.44208  0.86077  0.64486  1.0000
  C   C3043     1.0  0.43760  0.84435  0.64363  1.0000
  C   C3044     1.0  0.44017  0.82366  0.65580  1.0000
  C   C3045     1.0  0.44721  0.81971  0.66925  1.0000
  C   C3046     1.0  0.45164  0.83616  0.67055  1.0000
  H   H2441     1.0  0.44009  0.87668  0.63530  1.0000
  H   H2442     1.0  0.43214  0.84772  0.63333  1.0000
  H   H2443     1.0  0.44924  0.80380  0.67876  1.0000
  H   H2444     1.0  0.45715  0.83280  0.68072  1.0000
  C   C3047     1.0  0.44932  0.92610  0.75969  1.0000
  C   C3048     1.0  0.44740  0.92591  0.78128  1.0000
  C   C3049     1.0  0.44778  0.94401  0.78780  1.0000
  C   C3050     1.0  0.44968  0.96255  0.77273  1.0000
  C   C3051     1.0  0.45154  0.96268  0.75120  1.0000
  C   C3052     1.0  0.45150  0.94441  0.74468  1.0000
  H   H2445     1.0  0.44569  0.91176  0.79295  1.0000
  H   H2446     1.0  0.44629  0.94385  0.80444  1.0000
  H   H2447     1.0  0.38993  0.74493  0.49856  1.0000
  H   H2448     1.0  0.45284  0.94465  0.72807  1.0000
  C   C3053     1.0  0.49183  0.95792  0.65758  1.0000
  C   C3054     1.0  0.49526  0.97066  0.63786  1.0000
  H   H2449     1.0  0.57764  0.79752  0.92734  1.0000
  C   C3055     1.0  0.45038  0.81873  0.72544  1.0000
  C   C3056     1.0  0.50167  0.97373  0.67288  1.0000
  C   C3057     1.0  0.49496  0.95958  0.67526  1.0000
  H   H2450     1.0  0.43400  0.85356  0.54134  1.0000
  C   C3058     1.0  0.42475  0.87941  0.71073  1.0000
  C   C3059     1.0  0.47864  0.95575  0.49992  1.0000
  H   H2451     1.0  0.49224  0.95003  0.69064  1.0000
  C   C3060     1.0  0.49135  0.87348  0.86887  1.0000
  C   C3061     1.0  0.48213  0.86706  0.88174  1.0000
  C   C3062     1.0  0.47222  0.88135  0.88227  1.0000
  C   C3063     1.0  0.47148  0.90224  0.87012  1.0000
  C   C3064     1.0  0.48061  0.90842  0.85650  1.0000
  C   C3065     1.0  0.49057  0.89403  0.85585  1.0000
  H   H2452     1.0  0.48268  0.85115  0.89170  1.0000
  H   H2453     1.0  0.46516  0.87643  0.89264  1.0000
  H   H2454     1.0  0.48004  0.92446  0.84694  1.0000
  H   H2455     1.0  0.49766  0.89914  0.84591  1.0000
  C   C3066     1.0  0.53453  0.94229  0.78126  1.0000
  C   C3067     1.0  0.54157  0.93056  0.76679  1.0000
  C   C3068     1.0  0.54567  0.94120  0.74631  1.0000
  C   C3069     1.0  0.54237  0.96346  0.74006  1.0000
  C   C3070     1.0  0.53532  0.97519  0.75450  1.0000
  C   C3071     1.0  0.53159  0.96465  0.77524  1.0000
  H   H2456     1.0  0.54386  0.91334  0.77141  1.0000
  H   H2457     1.0  0.55107  0.93210  0.73510  1.0000
  H   H2458     1.0  0.50423  0.97478  0.68637  1.0000
  H   H2459     1.0  0.52614  0.97373  0.78643  1.0000
  C   C3072     1.0  0.51712  0.84462  0.75661  1.0000
  C   C3073     1.0  0.50752  0.86000  0.75650  1.0000
  C   C3074     1.0  0.50029  0.85929  0.74491  1.0000
  C   C3075     1.0  0.50258  0.84289  0.73383  1.0000
  C   C3076     1.0  0.51203  0.82738  0.73449  1.0000
  C   C3077     1.0  0.51930  0.82844  0.74545  1.0000
  H   H2460     1.0  0.50579  0.87271  0.76481  1.0000
  H   H2461     1.0  0.49298  0.87130  0.74464  1.0000
  H   H2462     1.0  0.51387  0.81465  0.72607  1.0000
  H   H2463     1.0  0.52669  0.81657  0.74529  1.0000
  C   C3078     1.0  0.48245  0.93630  0.51309  1.0000
  C   C3079     1.0  0.38971  0.73989  0.55858  1.0000
  C   C3080     1.0  0.41203  0.67601  0.58387  1.0000
  H   H2464     1.0  0.39292  0.83784  0.51242  1.0000
  H   H2465     1.0  0.55946  0.83781  0.92001  1.0000
  C   C3081     1.0  0.57145  0.85136  0.87903  1.0000
  C   C3082     1.0  0.57605  0.83186  0.87281  1.0000
  C   C3083     1.0  0.57122  0.82491  0.86055  1.0000
  C   C3084     1.0  0.56185  0.83753  0.85431  1.0000
  C   C3085     1.0  0.55734  0.85708  0.86042  1.0000
  C   C3086     1.0  0.56208  0.86391  0.87282  1.0000
  C   C3087     1.0  0.54191  0.76632  0.95621  1.0000
  H   H2466     1.0  0.57477  0.80976  0.85584  1.0000
  H   H2467     1.0  0.55024  0.86704  0.85542  1.0000
  H   H2468     1.0  0.55852  0.87906  0.87750  1.0000
  H   H2469     1.0  0.49187  0.94814  0.83796  1.0000
  C   C3088     1.0  0.38906  0.89586  0.50406  1.0000
  C   C3089     1.0  0.50434  0.93435  0.87911  1.0000
  C   C3090     1.0  0.43163  0.83270  0.72489  1.0000
  H   H2470     1.0  0.53445  0.91285  0.85378  1.0000
  C   C3091     1.0  0.38769  0.80848  0.51951  1.0000
  C   C3092     1.0  0.48979  0.97284  0.94718  1.0000
  C   C3093     1.0  0.56002  0.75579  0.96132  1.0000
  C   C3094     1.0  0.40711  0.71713  0.63033  1.0000
  C   C3095     1.0  0.40995  0.69478  0.63535  1.0000
  C   C3096     1.0  0.40337  0.68240  0.63387  1.0000
  H   H2471     1.0  0.44873  0.75345  0.53587  1.0000
  H   H2472     1.0  0.47164  0.87078  0.93146  1.0000
  H   H2473     1.0  0.41734  0.68690  0.64040  1.0000
  C   C3097     1.0  0.40851  0.84121  0.78798  1.0000
  C   C3098     1.0  0.44511  0.74210  0.56967  1.0000
  H   H2474     1.0  0.45810  0.82146  0.72471  1.0000
  H   H2475     1.0  0.40084  0.71277  0.54829  1.0000
  C   C3099     1.0  0.44409  0.74403  0.54909  1.0000
  H   H2476     1.0  0.48461  0.92022  0.54461  1.0000
  H   H2477     1.0  0.53395  0.81822  0.95063  1.0000
  C   C3100     1.0  0.55810  0.80574  0.96935  1.0000
  H   H2478     1.0  0.42689  0.71195  0.59676  1.0000
  H   H2479     1.0  0.39528  0.74432  0.61985  1.0000
  C   C3101     1.0  0.44931  0.79818  0.72629  1.0000
  C   C3102     1.0  0.43693  0.73417  0.54558  1.0000
  H   H2480     1.0  0.48944  0.93023  0.87557  1.0000
  H   H2481     1.0  0.54922  0.90774  0.82323  1.0000
  C   C3103     1.0  0.52592  0.83088  0.92483  1.0000
  H   H2482     1.0  0.56403  0.72521  0.98218  1.0000
  H   H2483     1.0  0.51846  0.89078  0.88429  1.0000
  H   H2484     1.0  0.40538  0.89042  0.74142  1.0000
  H   H2485     1.0  0.43611  0.73622  0.52957  1.0000
  C   C3104     1.0  0.46215  0.81974  0.53302  1.0000
  P   P102      1.0  0.50284  0.92156  0.90678  1.0000
  H   H2486     1.0  0.39806  0.76172  0.70326  1.0000
  C   C3105     1.0  0.49204  0.98861  0.73904  1.0000
  H   H2487     1.0  0.41903  0.76500  0.53588  1.0000
  H   H2488     1.0  0.53695  0.92477  0.88366  1.0000
  C   C3106     1.0  0.56146  0.92511  0.85158  1.0000
  C   C3107     1.0  0.50186  0.98457  0.63550  1.0000
  C   C3108     1.0  0.56912  0.94374  0.79715  1.0000
  C   C3109     1.0  0.47391  0.97402  0.50852  1.0000
  C   C3110     1.0  0.56937  0.89839  0.79714  1.0000
  C   C3111     1.0  0.56762  0.90567  0.77646  1.0000
  C   C3112     1.0  0.56688  0.89123  0.76549  1.0000
  C   C3113     1.0  0.56806  0.86943  0.77492  1.0000
  C   C3114     1.0  0.56995  0.86206  0.79533  1.0000
  C   C3115     1.0  0.57056  0.87646  0.80642  1.0000
  C   C3116     1.0  0.54341  0.92284  0.87009  1.0000
  C   C3117     1.0  0.50696  0.95468  0.83622  1.0000
  H   H2489     1.0  0.55371  0.94474  0.79188  1.0000
  H   H2490     1.0  0.49080  0.85314  0.92654  1.0000
  C   C3118     1.0  0.40193  0.86075  0.79169  1.0000
  H   H2491     1.0  0.58458  0.98601  0.67675  1.0000
  H   H2492     1.0  0.56739  0.85825  0.76657  1.0000
  H   H2493     1.0  0.57078  0.84517  0.80272  1.0000
  H   H2494     1.0  0.57201  0.87043  0.82226  1.0000
  H   H2495     1.0  0.57770  0.88991  0.85062  1.0000
  H   H2496     1.0  0.43347  0.67485  0.53829  1.0000
  H   H2497     1.0  0.41690  0.87894  0.54668  1.0000
  C   C3119     1.0  0.55976  0.95366  0.78961  1.0000
  C   C3120     1.0  0.46969  0.98117  0.70330  1.0000
  H   H2498     1.0  0.49432  0.91901  0.95185  1.0000
  C   C3121     1.0  0.43059  0.81191  0.72609  1.0000
  H   H2499     1.0  0.56384  0.86119  0.93772  1.0000
  S   S425      1.0  0.44914  0.98619  0.78029  1.0000
  C   C3122     1.0  0.56027  0.91743  0.83511  1.0000
  H   H2500     1.0  0.50800  0.96231  0.81958  1.0000
  C   C3123     1.0  0.42056  0.72427  0.51607  1.0000
  C   C3124     1.0  0.49789  0.94646  0.84659  1.0000
  C   C3125     1.0  0.58366  0.90524  0.81819  1.0000
  C   C3126     1.0  0.43329  0.68610  0.50540  1.0000
  C   C3127     1.0  0.47262  0.88099  0.50254  1.0000
  C   C3128     1.0  0.40179  0.73368  0.69030  1.0000
  C   C3129     1.0  0.39787  0.72079  0.68237  1.0000
  H   H2501     1.0  0.52176  0.95916  0.83899  1.0000
  H   H2502     1.0  0.46891  0.82687  0.52484  1.0000
  C   C3130     1.0  0.41300  0.85701  0.75046  1.0000
  H   H2503     1.0  0.56677  0.92236  0.76867  1.0000
  H   H2504     1.0  0.44948  0.91955  0.49924  1.0000
  H   H2505     1.0  0.57719  0.94447  0.73724  1.0000
  C   C3131     1.0  0.40277  0.68301  0.51558  1.0000
  C   C3132     1.0  0.54425  0.81062  0.92149  1.0000
  C   C3133     1.0  0.47313  0.97288  0.52992  1.0000
  C   C3134     1.0  0.48666  0.98678  0.76016  1.0000
  H   H2506     1.0  0.56834  0.97674  0.71509  1.0000
  P   P103      1.0  0.57071  0.91626  0.81170  1.0000
  H   H2507     1.0  0.54420  0.87279  0.91643  1.0000
  H   H2508     1.0  0.41019  0.73012  0.69035  1.0000
  H   H2509     1.0  0.40324  0.70722  0.67641  1.0000
  H   H2510     1.0  0.46140  0.86432  0.52578  1.0000
  H   H2511     1.0  0.55418  0.93291  0.88203  1.0000
  H   H2512     1.0  0.48723  0.94642  0.97355  1.0000
  C   C3135     1.0  0.44456  0.81491  0.53546  1.0000
  H   H2513     1.0  0.43743  0.81884  0.52935  1.0000
  H   H2514     1.0  0.51990  0.84141  0.89621  1.0000
  C   C3136     1.0  0.49016  0.95120  0.95667  1.0000
  C   C3137     1.0  0.41671  0.79394  0.51216  1.0000
  H   H2515     1.0  0.57592  0.75574  0.87812  1.0000
  C   C3138     1.0  0.45273  0.82607  0.52541  1.0000
  C   C3139     1.0  0.48839  0.87040  0.92452  1.0000
  C   C3140     1.0  0.41524  0.81625  0.50771  1.0000
  C   C3141     1.0  0.42121  0.68447  0.57620  1.0000
  H   H2516     1.0  0.55243  0.80774  0.88938  1.0000
  C   C3142     1.0  0.54508  0.81363  0.89968  1.0000
  C   C3143     1.0  0.40043  0.85693  0.71580  1.0000
  C   C3144     1.0  0.49611  0.88276  0.91803  1.0000
  C   C3145     1.0  0.40621  0.74556  0.57304  1.0000
  H   H2517     1.0  0.40940  0.82753  0.80104  1.0000
  H   H2518     1.0  0.39246  0.85038  0.54473  1.0000
  H   H2519     1.0  0.47081  0.98915  0.49879  1.0000
  C   C3146     1.0  0.42980  0.70321  0.48969  1.0000
  H   H2520     1.0  0.43862  0.77890  0.72694  1.0000
  C   C3147     1.0  0.40324  0.67292  0.53659  1.0000
  C   C3148     1.0  0.47700  0.95351  0.54289  1.0000
  H   H2521     1.0  0.53695  0.82659  0.87390  1.0000
  H   H2522     1.0  0.53649  0.87002  0.88815  1.0000
  C   C3149     1.0  0.46290  0.80401  0.55157  1.0000
  C   C3150     1.0  0.45438  0.79411  0.56231  1.0000
  C   C3151     1.0  0.44529  0.79928  0.55402  1.0000
  H   H2523     1.0  0.47003  0.79968  0.55783  1.0000
  H   H2524     1.0  0.45480  0.78250  0.57709  1.0000
  H   H2525     1.0  0.43865  0.79165  0.56221  1.0000
  C   C3152     1.0  0.53434  0.95746  0.64978  1.0000
  C   C3153     1.0  0.54270  0.96572  0.65067  1.0000
  C   C3154     1.0  0.54740  0.95800  0.66818  1.0000
  C   C3155     1.0  0.54378  0.94194  0.68475  1.0000
  C   C3156     1.0  0.53545  0.93339  0.68391  1.0000
  C   C3157     1.0  0.53072  0.94136  0.66630  1.0000
  P   P104      1.0  0.53098  0.91260  0.70558  1.0000
  C   C3158     1.0  0.52272  0.89953  0.69837  1.0000
  C   C3159     1.0  0.54255  0.89304  0.71254  1.0000
  C   C3160     1.0  0.54247  0.88180  0.73350  1.0000
  C   C3161     1.0  0.55118  0.86563  0.73842  1.0000
  C   C3162     1.0  0.56012  0.86079  0.72257  1.0000
  C   C3163     1.0  0.56033  0.87206  0.70169  1.0000
  C   C3164     1.0  0.55154  0.88801  0.69665  1.0000
  C   C3165     1.0  0.51259  0.91088  0.69510  1.0000
  C   C3166     1.0  0.50609  0.90115  0.68940  1.0000
  C   C3167     1.0  0.50951  0.87977  0.68764  1.0000
  C   C3168     1.0  0.51945  0.86812  0.69152  1.0000
  C   C3169     1.0  0.52606  0.87792  0.69686  1.0000
  C   C3170     1.0  0.52296  0.92352  0.72806  1.0000
  C   C3171     1.0  0.52305  0.94394  0.73001  1.0000
  C   C3172     1.0  0.51699  0.95158  0.74801  1.0000
  C   C3173     1.0  0.51084  0.93895  0.76413  1.0000
  C   C3174     1.0  0.51051  0.91886  0.76199  1.0000
  C   C3175     1.0  0.51652  0.91123  0.74402  1.0000
  H   H2526     1.0  0.53044  0.96393  0.63655  1.0000
  C   C3176     1.0  0.43192  0.86589  0.52797  1.0000
  H   H2527     1.0  0.55362  0.96493  0.66931  1.0000
  H   H2528     1.0  0.54736  0.93647  0.69842  1.0000
  H   H2529     1.0  0.52420  0.93545  0.66514  1.0000
  H   H2530     1.0  0.53561  0.88494  0.74608  1.0000
  H   H2531     1.0  0.55081  0.85644  0.75452  1.0000
  H   H2532     1.0  0.56679  0.84805  0.72643  1.0000
  H   H2533     1.0  0.51852  0.83776  0.93448  1.0000
  H   H2534     1.0  0.55169  0.89615  0.68030  1.0000
  H   H2535     1.0  0.50975  0.92734  0.69683  1.0000
  H   H2536     1.0  0.49837  0.91012  0.68644  1.0000
  H   H2537     1.0  0.50437  0.87207  0.68370  1.0000
  H   H2538     1.0  0.52190  0.85133  0.69085  1.0000
  H   H2539     1.0  0.53363  0.86842  0.70016  1.0000
  H   H2540     1.0  0.52787  0.95390  0.71791  1.0000
  H   H2541     1.0  0.51711  0.96728  0.74957  1.0000
  H   H2542     1.0  0.50641  0.94468  0.77832  1.0000
  H   H2543     1.0  0.50573  0.90899  0.77432  1.0000
  H   H2544     1.0  0.51638  0.89548  0.74270  1.0000
  C   C3177     1.0  0.56260  0.83910  0.96796  1.0000
  C   C3178     1.0  0.39960  0.72561  0.55621  1.0000
  H   H2545     1.0  0.53383  0.89661  0.94110  1.0000
  C   C3179     1.0  0.41402  0.83931  0.76745  1.0000
  C   C3180     1.0  0.41598  0.84129  0.69210  1.0000
  C   C3181     1.0  0.43265  0.91652  0.69003  1.0000
  H   H2546     1.0  0.58332  0.94938  0.80232  1.0000
  C   C3182     1.0  0.49793  0.94178  0.92243  1.0000
  H   H2547     1.0  0.40441  0.68562  0.58108  1.0000
  C   C3183     1.0  0.54206  0.91585  0.85344  1.0000
  H   H2548     1.0  0.50019  0.96882  0.89611  1.0000
  Fe  Fe210     1.0  0.45329  0.98193  0.81161  1.0000
  H   H2549     1.0  0.42778  0.88452  0.73883  1.0000
  H   H2550     1.0  0.56719  0.86813  0.68933  1.0000
  H   H2551     1.0  0.42387  0.87818  0.67943  1.0000
  C   C3184     1.0  0.52021  0.90726  0.92663  1.0000
  C   C3185     1.0  0.52172  0.89214  0.89680  1.0000
  C   C3186     1.0  0.53041  0.89532  0.92879  1.0000
  H   H2552     1.0  0.50039  0.98144  0.73510  1.0000
  C   C3187     1.0  0.50515  0.98622  0.65284  1.0000
  C   C3188     1.0  0.55203  0.77088  0.95203  1.0000
  H   H2553     1.0  0.45619  0.78498  0.72633  1.0000
  H   H2554     1.0  0.51590  0.91777  0.93734  1.0000
  C   C3189     1.0  0.51339  0.94289  0.86861  1.0000
  P   P105      1.0  0.55517  0.79511  0.93400  1.0000
  C   C3190     1.0  0.46476  0.86895  0.50905  1.0000
  C   C3191     1.0  0.41926  0.89703  0.51444  1.0000
  H   H2555     1.0  0.50439  0.87467  0.91550  1.0000
  C   C3192     1.0  0.43891  0.73048  0.58677  1.0000
  C   C3193     1.0  0.41255  0.65506  0.59585  1.0000
  C   C3194     1.0  0.38813  0.75725  0.56783  1.0000
  C   C3195     1.0  0.57640  0.95616  0.79543  1.0000
  C   C3196     1.0  0.49755  0.96356  0.91300  1.0000
  C   C3197     1.0  0.53626  0.88187  0.91495  1.0000
  H   H2556     1.0  0.58288  0.97563  0.64564  1.0000
  C   C3198     1.0  0.55784  0.73673  0.97503  1.0000
  H   H2557     1.0  0.41242  0.74816  0.57885  1.0000
  H   H2558     1.0  0.47542  0.88516  0.51420  1.0000
  C   C3199     1.0  0.54771  0.73246  0.97936  1.0000
  C   C3200     1.0  0.53629  0.82458  0.89071  1.0000
  C   C3201     1.0  0.40944  0.83781  0.68095  1.0000
  H   H2559     1.0  0.43944  0.72941  0.60282  1.0000
  C   C3202     1.0  0.43070  0.72241  0.56272  1.0000
  H   H2560     1.0  0.55942  0.77035  0.90169  1.0000
  C   C3203     1.0  0.43176  0.72062  0.58330  1.0000
  C   C3204     1.0  0.49655  0.93637  0.86798  1.0000
  H   H2561     1.0  0.45060  0.74976  0.57244  1.0000
  C   C3205     1.0  0.48164  0.93523  0.53448  1.0000
  C   C3206     1.0  0.43050  0.68814  0.52645  1.0000
  H   H2562     1.0  0.46952  0.98703  0.53649  1.0000
  C   C3207     1.0  0.49306  0.90521  0.91443  1.0000
  C   C3208     1.0  0.48218  0.91505  0.91717  1.0000
  H   H2563     1.0  0.41299  0.83038  0.66745  1.0000
  C   C3209     1.0  0.47450  0.90265  0.92336  1.0000
  C   C3210     1.0  0.43579  0.88413  0.49122  1.0000
  C   C3211     1.0  0.55047  0.91299  0.83606  1.0000
  H   H2564     1.0  0.53570  0.77722  0.94877  1.0000
  H   H2565     1.0  0.47049  0.94950  0.69986  1.0000
  H   H2566     1.0  0.47639  0.95265  0.55948  1.0000
  C   C3212     1.0  0.56689  0.77349  0.90205  1.0000
  C   C3213     1.0  0.41799  0.78216  0.53234  1.0000
  H   H2567     1.0  0.45297  0.97693  0.73953  1.0000
  C   C3214     1.0  0.55805  0.97521  0.77929  1.0000
  H   H2568     1.0  0.39675  0.86440  0.72916  1.0000
  H   H2569     1.0  0.49085  0.97823  0.77270  1.0000
  C   C3215     1.0  0.40631  0.87656  0.75431  1.0000
  C   C3216     1.0  0.50071  0.83898  0.82221  1.0000
  C   C3217     1.0  0.49797  0.82710  0.84271  1.0000
  C   C3218     1.0  0.48729  0.82915  0.85322  1.0000
  C   C3219     1.0  0.47931  0.84292  0.84314  1.0000
  C   C3220     1.0  0.48203  0.85490  0.82252  1.0000
  C   C3221     1.0  0.49278  0.85301  0.81231  1.0000
  P   P106      1.0  0.47196  0.87080  0.80809  1.0000
  C   C3222     1.0  0.45946  0.87796  0.82617  1.0000
  C   C3223     1.0  0.47615  0.89491  0.79216  1.0000
  C   C3224     1.0  0.48130  0.90565  0.80024  1.0000
  C   C3225     1.0  0.48407  0.92492  0.78837  1.0000
  C   C3226     1.0  0.48180  0.93347  0.76830  1.0000
  C   C3227     1.0  0.47675  0.92282  0.76013  1.0000
  C   C3228     1.0  0.47395  0.90357  0.77197  1.0000
  C   C3229     1.0  0.45616  0.89829  0.83115  1.0000
  C   C3230     1.0  0.44638  0.90377  0.84480  1.0000
  C   C3231     1.0  0.43986  0.88898  0.85379  1.0000
  C   C3232     1.0  0.44311  0.86864  0.84907  1.0000
  C   C3233     1.0  0.45288  0.86314  0.83533  1.0000
  C   C3234     1.0  0.47035  0.85551  0.79118  1.0000
  C   C3235     1.0  0.47890  0.84004  0.78316  1.0000
  C   C3236     1.0  0.47766  0.82876  0.76960  1.0000
  C   C3237     1.0  0.46793  0.83286  0.76385  1.0000
  C   C3238     1.0  0.45941  0.84834  0.77158  1.0000
  C   C3239     1.0  0.46062  0.85966  0.78514  1.0000
  H   H2570     1.0  0.50895  0.83735  0.81386  1.0000
  H   H2571     1.0  0.50416  0.81668  0.85061  1.0000
  H   H2572     1.0  0.48521  0.82029  0.86928  1.0000
  H   H2573     1.0  0.47110  0.84425  0.85153  1.0000
  H   H2574     1.0  0.49501  0.86204  0.79646  1.0000
  H   H2575     1.0  0.48296  0.89934  0.81589  1.0000
  H   H2576     1.0  0.48786  0.93333  0.79484  1.0000
  H   H2577     1.0  0.48385  0.94842  0.75908  1.0000
  H   H2578     1.0  0.47480  0.92972  0.74478  1.0000
  H   H2579     1.0  0.46988  0.89579  0.76545  1.0000
  H   H2580     1.0  0.46106  0.91007  0.82461  1.0000
  H   H2581     1.0  0.44393  0.91947  0.84862  1.0000
  H   H2582     1.0  0.43232  0.89331  0.86448  1.0000
  H   H2583     1.0  0.43806  0.85717  0.85606  1.0000
  H   H2584     1.0  0.45530  0.84733  0.83181  1.0000
  H   H2585     1.0  0.48662  0.83689  0.78681  1.0000
  H   H2586     1.0  0.48439  0.81737  0.76293  1.0000
  H   H2587     1.0  0.46713  0.82452  0.75284  1.0000
  H   H2588     1.0  0.45198  0.85221  0.76645  1.0000
  H   H2589     1.0  0.45405  0.87214  0.79033  1.0000
  C   C3240     1.0  0.53191  0.88032  0.89897  1.0000
  C   C3241     1.0  0.51578  0.90569  0.91062  1.0000
  C   C3242     1.0  0.43089  0.67176  0.58107  1.0000
  C   C3243     1.0  0.43941  0.79476  0.72665  1.0000
  H   H2590     1.0  0.47964  0.93236  0.91399  1.0000
  C   C3244     1.0  0.52668  0.83298  0.90329  1.0000
  H   H2591     1.0  0.43811  0.67785  0.57523  1.0000
  H   H2592     1.0  0.39772  0.86225  0.80762  1.0000
  H   H2593     1.0  0.53267  0.99234  0.74961  1.0000
  C   C3245     1.0  0.40082  0.87841  0.77486  1.0000
  P   P107      1.0  0.42023  0.85488  0.72394  1.0000
  C   C3246     1.0  0.39839  0.84385  0.68717  1.0000
  C   C3247     1.0  0.42799  0.89044  0.72209  1.0000
  C   C3248     1.0  0.56203  0.84588  0.94668  1.0000
  H   H2594     1.0  0.56795  0.75879  0.95794  1.0000
  C   C3249     1.0  0.55960  0.83255  0.93666  1.0000
  C   C3250     1.0  0.42216  0.64261  0.60078  1.0000
  H   H2595     1.0  0.56480  0.84920  0.97552  1.0000
  H   H2596     1.0  0.51941  0.94184  0.87693  1.0000
  P   P108      1.0  0.45098  0.84777  0.50271  1.0000
  H   H2597     1.0  0.42300  0.80895  0.72630  1.0000
  H   H2598     1.0  0.39538  0.77408  0.58116  1.0000
  H   H2599     1.0  0.42244  0.62660  0.61054  1.0000
  C   C3251     1.0  0.46708  0.96642  0.69537  1.0000
  H   H2600     1.0  0.50653  0.99489  0.78922  1.0000
  C   C3252     1.0  0.43185  0.90900  0.71178  1.0000
  H   H2601     1.0  0.39576  0.89360  0.77773  1.0000
  C   C3253     1.0  0.39644  0.76026  0.57467  1.0000
  C   C3254     1.0  0.42406  0.70724  0.53196  1.0000
  H   H2602     1.0  0.56884  0.92930  0.85084  1.0000
  C   C3255     1.0  0.41156  0.85075  0.70968  1.0000
  C   C3256     1.0  0.56717  0.78597  0.91558  1.0000
  H   H2603     1.0  0.38785  0.90082  0.51871  1.0000
  C   C3257     1.0  0.57496  0.97756  0.72098  1.0000
  C   C3258     1.0  0.53468  0.81986  0.93388  1.0000
  C   C3259     1.0  0.57464  0.97781  0.78519  1.0000
  H   H2604     1.0  0.46615  0.91038  0.92446  1.0000
  C   C3260     1.0  0.55772  0.81232  0.94783  1.0000
  C   C3261     1.0  0.53977  0.74721  0.96991  1.0000
  H   H2605     1.0  0.44269  0.85179  0.72360  1.0000
  C   C3262     1.0  0.39747  0.72707  0.62388  1.0000
  C   C3263     1.0  0.58000  0.95917  0.73346  1.0000
  H   H2606     1.0  0.47504  0.97525  0.71407  1.0000
  H   H2607     1.0  0.49286  0.96961  0.62416  1.0000
  H   H2608     1.0  0.40538  0.64874  0.60198  1.0000
  H   H2609     1.0  0.48602  0.92196  0.50684  1.0000
  H   H2610     1.0  0.47166  0.99474  0.78150  1.0000
  H   H2611     1.0  0.55084  0.98254  0.77341  1.0000
  C   C3264     1.0  0.49420  0.93572  0.94435  1.0000
  S   S426      1.0  0.46150  0.98032  0.86329  1.0000
  H   H2612     1.0  0.43593  0.93055  0.68194  1.0000
  H   H2613     1.0  0.38683  0.82608  0.60569  1.0000
  H   H2614     1.0  0.41061  0.66277  0.54039  1.0000
  C   C3265     1.0  0.39084  0.71453  0.62210  1.0000
  C   C3266     1.0  0.58464  0.89291  0.83843  1.0000
  H   H2615     1.0  0.39550  0.79945  0.51356  1.0000
  H   H2616     1.0  0.56526  0.89696  0.74977  1.0000
  H   H2617     1.0  0.41171  0.90831  0.51702  1.0000
  C   C3267     1.0  0.46028  0.97344  0.68126  1.0000
  C   C3268     1.0  0.39495  0.75150  0.69749  1.0000
  H   H2618     1.0  0.39713  0.85399  0.57624  1.0000
  C   C3269     1.0  0.56552  0.98728  0.77694  1.0000
  C   C3270     1.0  0.49348  0.97900  0.92537  1.0000
  H   H2619     1.0  0.39435  0.66751  0.56895  1.0000
  C   C3271     1.0  0.38972  0.86338  0.57198  1.0000
  H   H2620     1.0  0.43829  0.67137  0.50122  1.0000
  C   C3272     1.0  0.57706  0.78869  0.91656  1.0000
  H   H2621     1.0  0.58381  0.75174  0.97928  1.0000
  H   H2622     1.0  0.58604  0.78681  0.98152  1.0000
  C   C3273     1.0  0.46129  0.86296  0.49409  1.0000
  H   H2623     1.0  0.58333  0.82222  0.87735  1.0000
  H   H2624     1.0  0.41421  0.82553  0.49226  1.0000
  H   H2625     1.0  0.48657  0.98487  0.95668  1.0000
  Fe  Fe211     1.0  0.47026  0.98884  0.82942  1.0000
  C   C3274     1.0  0.57807  0.99489  0.66907  1.0000
  H   H2626     1.0  0.58030  0.98732  0.78379  1.0000
  S   S427      1.0  0.41688  0.78018  0.49308  1.0000
  C   C3275     1.0  0.42611  0.89891  0.49450  1.0000
  H   H2627     1.0  0.50448  0.99407  0.62000  1.0000
  C   C3276     1.0  0.58602  0.76797  0.88974  1.0000
  C   C3277     1.0  0.38698  0.86126  0.55420  1.0000
  C   C3278     1.0  0.58643  0.77963  0.90375  1.0000
  S   S428      1.0  0.38683  0.67456  0.62356  1.0000
  C   C3279     1.0  0.38716  0.72590  0.68123  1.0000
  C   C3280     1.0  0.45593  0.99526  0.67527  1.0000
  C   C3281     1.0  0.68194  0.02611  0.32495  1.0000
  Fe  Fe212     1.0  0.73005  0.03493  0.27809  1.0000
  S   S429      1.0  0.71248  0.04420  0.28026  1.0000
  S   S430      1.0  0.73963  0.05548  0.25182  1.0000
  H   H2628     1.0  0.72023  0.47457  0.35131  1.0000
  C   C3282     1.0  0.59862  0.07250  0.41275  1.0000
  C   C3283     1.0  0.77355  0.40139  0.03122  1.0000
  C   C3284     1.0  0.64717  0.21358  0.38902  1.0000
  Fe  Fe213     1.0  0.71121  0.03843  0.31510  1.0000
  S   S431      1.0  0.70044  0.06343  0.33272  1.0000
  C   C3285     1.0  0.69837  0.48965  0.28594  1.0000
  S   S432      1.0  0.72878  0.03164  0.31261  1.0000
  C   C3286     1.0  0.78458  0.36169  0.25037  1.0000
  S   S433      1.0  0.67943  0.09542  0.43845  1.0000
  C   C3287     1.0  0.67120  0.34946  0.34288  1.0000
  C   C3288     1.0  0.74878  0.03043  0.41363  1.0000
  S   S434      1.0  0.70274  0.09462  0.44634  1.0000
  Fe  Fe214     1.0  0.68782  0.11896  0.44129  1.0000
  S   S435      1.0  0.68916  0.14844  0.41569  1.0000
  Fe  Fe215     1.0  0.69373  0.07082  0.44630  1.0000
  S   S436      1.0  0.70076  0.04321  0.42997  1.0000
  H   H2629     1.0  0.67613  0.06923  0.38745  1.0000
  H   H2630     1.0  0.64724  0.24577  0.37082  1.0000
  C   C3289     1.0  0.77694  0.39412  0.05031  1.0000
  H   H2631     1.0  0.67219  0.38925  0.29830  1.0000
  Fe  Fe216     1.0  0.75300  0.47588  0.23625  1.0000
  C   C3290     1.0  0.67694  0.46771  0.42225  1.0000
  H   H2632     1.0  0.62443  0.14980  0.48221  1.0000
  Fe  Fe217     1.0  0.76487  0.43731  0.26298  1.0000
  C   C3291     1.0  0.68879  0.49268  0.27966  1.0000
  S   S437      1.0  0.76410  0.41213  0.29335  1.0000
  C   C3292     1.0  0.67662  0.04647  0.31619  1.0000
  H   H2633     1.0  0.65729  0.48771  0.36062  1.0000
  H   H2634     1.0  0.76316  0.02681  0.36843  1.0000
  S   S438      1.0  0.75899  0.47168  0.26551  1.0000
  S   S439      1.0  0.75751  0.44092  0.23558  1.0000
  C   C3293     1.0  0.77879  0.16776  0.18541  1.0000
  H   H2635     1.0  0.64759  0.09136  0.42397  1.0000
  S   S440      1.0  0.75233  0.47178  0.36379  1.0000
  H   H2636     1.0  0.68392  0.11775  0.33176  1.0000
  C   C3294     1.0  0.67295  0.09726  0.34821  1.0000
  C   C3295     1.0  0.64884  0.19886  0.40789  1.0000
  C   C3296     1.0  0.72821  0.44729  0.32565  1.0000
  C   C3297     1.0  0.66770  0.05246  0.35143  1.0000
  C   C3298     1.0  0.66482  0.39952  0.39038  1.0000
  H   H2637     1.0  0.60023  0.27507  0.44849  1.0000
  H   H2638     1.0  0.66640  0.18383  0.38138  1.0000
  S   S441      1.0  0.64542  0.32817  0.45519  1.0000
  C   C3299     1.0  0.60466  0.21312  0.43269  1.0000
  H   H2639     1.0  0.77637  0.05453  0.21401  1.0000
  S   S442      1.0  0.64965  0.27403  0.43838  1.0000
  H   H2640     1.0  0.62107  0.10299  0.47550  1.0000
  Fe  Fe218     1.0  0.70938  0.40029  0.36372  1.0000
  S   S443      1.0  0.71236  0.38450  0.39616  1.0000
  S   S444      1.0  0.71871  0.39007  0.33341  1.0000
  Fe  Fe219     1.0  0.68838  0.42884  0.38038  1.0000
  S   S445      1.0  0.68941  0.41482  0.41432  1.0000
  S   S446      1.0  0.67389  0.45338  0.37204  1.0000
  Fe  Fe220     1.0  0.70646  0.41773  0.40238  1.0000
  S   S447      1.0  0.71339  0.43221  0.42057  1.0000
  Fe  Fe221     1.0  0.69503  0.38291  0.40525  1.0000
  S   S448      1.0  0.69115  0.35112  0.42455  1.0000
  S   S449      1.0  0.70501  0.43389  0.36904  1.0000
  S   S450      1.0  0.69250  0.39647  0.37231  1.0000
  H   H2641     1.0  0.70210  0.21183  0.45102  1.0000
  C   C3300     1.0  0.63160  0.06726  0.35306  1.0000
  C   C3301     1.0  0.78000  0.14640  0.18461  1.0000
  C   C3302     1.0  0.67579  0.30735  0.39593  1.0000
  H   H2642     1.0  0.68738  0.32249  0.30533  1.0000
  C   C3303     1.0  0.65806  0.33487  0.44670  1.0000
  C   C3304     1.0  0.65892  0.35636  0.44206  1.0000
  C   C3305     1.0  0.66900  0.36173  0.43534  1.0000
  C   C3306     1.0  0.67825  0.34563  0.43306  1.0000
  C   C3307     1.0  0.67733  0.32424  0.43814  1.0000
  C   C3308     1.0  0.66733  0.31887  0.44464  1.0000
  H   H2643     1.0  0.65179  0.36887  0.44368  1.0000
  H   H2644     1.0  0.66962  0.37826  0.43201  1.0000
  H   H2645     1.0  0.68442  0.31175  0.43655  1.0000
  H   H2646     1.0  0.66683  0.30229  0.44792  1.0000
  C   C3309     1.0  0.74084  0.46266  0.37882  1.0000
  C   C3310     1.0  0.73500  0.46982  0.39720  1.0000
  C   C3311     1.0  0.72640  0.46072  0.40988  1.0000
  C   C3312     1.0  0.72349  0.44493  0.40386  1.0000
  C   C3313     1.0  0.72903  0.43853  0.38500  1.0000
  C   C3314     1.0  0.73784  0.44703  0.37277  1.0000
  H   H2647     1.0  0.61418  0.00378  0.30885  1.0000
  H   H2648     1.0  0.72208  0.46581  0.42441  1.0000
  H   H2649     1.0  0.72692  0.42613  0.38045  1.0000
  H   H2650     1.0  0.74251  0.44104  0.35891  1.0000
  C   C3315     1.0  0.75143  0.40631  0.30457  1.0000
  C   C3316     1.0  0.74461  0.40748  0.29168  1.0000
  C   C3317     1.0  0.73470  0.40192  0.30074  1.0000
  C   C3318     1.0  0.73138  0.39602  0.32273  1.0000
  C   C3319     1.0  0.73816  0.39490  0.33569  1.0000
  C   C3320     1.0  0.74824  0.39979  0.32658  1.0000
  H   H2651     1.0  0.74706  0.41226  0.27472  1.0000
  H   H2652     1.0  0.72952  0.40249  0.29072  1.0000
  H   H2653     1.0  0.73564  0.39028  0.35267  1.0000
  H   H2654     1.0  0.75350  0.39890  0.33657  1.0000
  C   C3321     1.0  0.78409  0.44909  0.41965  1.0000
  H   H2655     1.0  0.65239  0.42798  0.39067  1.0000
  H   H2656     1.0  0.68355  0.27746  0.41316  1.0000
  H   H2657     1.0  0.65418  0.19409  0.43682  1.0000
  C   C3322     1.0  0.69566  0.31832  0.38418  1.0000
  H   H2658     1.0  0.72771  0.43787  0.26598  1.0000
  C   C3323     1.0  0.67778  0.33236  0.33383  1.0000
  H   H2659     1.0  0.69595  0.25226  0.44404  1.0000
  H   H2660     1.0  0.62771  0.20305  0.40445  1.0000
  C   C3324     1.0  0.68223  0.33573  0.31214  1.0000
  H   H2661     1.0  0.68757  0.01612  0.31468  1.0000
  C   C3325     1.0  0.68481  0.17336  0.42285  1.0000
  C   C3326     1.0  0.67811  0.17603  0.44243  1.0000
  C   C3327     1.0  0.65384  0.04906  0.41074  1.0000
  C   C3328     1.0  0.67933  0.21337  0.43377  1.0000
  C   C3329     1.0  0.68589  0.21068  0.41420  1.0000
  C   C3330     1.0  0.68848  0.19083  0.40862  1.0000
  H   H2662     1.0  0.67530  0.16256  0.45352  1.0000
  C   C3331     1.0  0.65222  0.24051  0.39992  1.0000
  H   H2663     1.0  0.68904  0.22395  0.40335  1.0000
  H   H2664     1.0  0.69364  0.18880  0.39349  1.0000
  C   C3332     1.0  0.75341  0.04684  0.24954  1.0000
  C   C3333     1.0  0.76017  0.05533  0.23111  1.0000
  C   C3334     1.0  0.77122  0.04801  0.22832  1.0000
  C   C3335     1.0  0.61141  0.24581  0.42259  1.0000
  C   C3336     1.0  0.76879  0.02413  0.26280  1.0000
  C   C3337     1.0  0.75770  0.03118  0.26542  1.0000
  H   H2665     1.0  0.75682  0.06737  0.21885  1.0000
  H   H2666     1.0  0.61188  0.06028  0.42806  1.0000
  H   H2667     1.0  0.75375  0.04104  0.43619  1.0000
  H   H2668     1.0  0.75250  0.02455  0.27968  1.0000
  C   C3338     1.0  0.70084  0.05784  0.35956  1.0000
  C   C3339     1.0  0.69768  0.07459  0.37035  1.0000
  C   C3340     1.0  0.69777  0.07038  0.39192  1.0000
  C   C3341     1.0  0.70087  0.04930  0.40281  1.0000
  C   C3342     1.0  0.70398  0.03260  0.39202  1.0000
  C   C3343     1.0  0.70407  0.03684  0.37039  1.0000
  H   H2669     1.0  0.69527  0.09084  0.36192  1.0000
  H   H2670     1.0  0.69546  0.08341  0.40008  1.0000
  H   H2671     1.0  0.75686  0.02406  0.40630  1.0000
  H   H2672     1.0  0.70647  0.02385  0.36216  1.0000
  C   C3344     1.0  0.63584  0.15172  0.39731  1.0000
  C   C3345     1.0  0.60756  0.05734  0.41804  1.0000
  H   H2673     1.0  0.62954  0.06144  0.34151  1.0000
  H   H2674     1.0  0.77324  0.47701  0.40686  1.0000
  C   C3346     1.0  0.65971  0.15629  0.39965  1.0000
  H   H2675     1.0  0.65883  0.31866  0.35128  1.0000
  H   H2676     1.0  0.59595  0.08706  0.41880  1.0000
  C   C3347     1.0  0.63998  0.32155  0.40610  1.0000
  Fe  Fe222     1.0  0.64599  0.29253  0.46351  1.0000
  C   C3348     1.0  0.63663  0.09693  0.48218  1.0000
  C   C3349     1.0  0.74456  0.39752  0.02914  1.0000
  H   H2677     1.0  0.73686  0.43608  0.22920  1.0000
  C   C3350     1.0  0.71751  0.49056  0.35416  1.0000
  C   C3351     1.0  0.63349  0.09780  0.44807  1.0000
  C   C3352     1.0  0.69638  0.15619  0.48156  1.0000
  Fe  Fe223     1.0  0.60835  0.11916  0.44294  1.0000
  C   C3353     1.0  0.62955  0.09968  0.46915  1.0000
  C   C3354     1.0  0.65153  0.09048  0.45315  1.0000
  C   C3355     1.0  0.64448  0.09301  0.44018  1.0000
  C   C3356     1.0  0.58718  0.25942  0.46454  1.0000
  H   H2678     1.0  0.77921  0.10437  0.12888  1.0000
  H   H2679     1.0  0.65994  0.08651  0.44696  1.0000
  H   H2680     1.0  0.67248  0.45522  0.42658  1.0000
  C   C3357     1.0  0.72777  0.06948  0.34560  1.0000
  C   C3358     1.0  0.73525  0.07055  0.32646  1.0000
  C   C3359     1.0  0.74472  0.05499  0.32466  1.0000
  C   C3360     1.0  0.74673  0.03845  0.34204  1.0000
  C   C3361     1.0  0.73942  0.03770  0.36163  1.0000
  C   C3362     1.0  0.72983  0.05317  0.36310  1.0000
  H   H2681     1.0  0.65347  0.25658  0.39702  1.0000
  C   C3363     1.0  0.64086  0.14358  0.48402  1.0000
  C   C3364     1.0  0.77685  0.43471  0.34916  1.0000
  C   C3365     1.0  0.66919  0.37001  0.32987  1.0000
  C   C3366     1.0  0.66817  0.37894  0.38615  1.0000
  C   C3367     1.0  0.73850  0.02123  0.02326  1.0000
  H   H2682     1.0  0.64987  0.03371  0.44366  1.0000
  C   C3368     1.0  0.68905  0.28740  0.48559  1.0000
  C   C3369     1.0  0.65124  0.14446  0.47272  1.0000
  C   C3370     1.0  0.67398  0.48073  0.36049  1.0000
  C   C3371     1.0  0.59723  0.03121  0.35514  1.0000
  H   H2683     1.0  0.70624  0.01634  0.40054  1.0000
  C   C3372     1.0  0.78338  0.00017  0.10606  1.0000
  C   C3373     1.0  0.61419  0.02159  0.33121  1.0000
  S   S451      1.0  0.68062  0.11731  0.47564  1.0000
  H   H2684     1.0  0.58758  0.99962  0.38544  1.0000
  H   H2685     1.0  0.77947  0.37286  0.40016  1.0000
  C   C3374     1.0  0.77703  0.46043  0.40654  1.0000
  C   C3375     1.0  0.73706  0.02762  0.00248  1.0000
  H   H2686     1.0  0.72023  0.08101  0.34678  1.0000
  H   H2687     1.0  0.73353  0.08291  0.31278  1.0000
  H   H2688     1.0  0.75030  0.05527  0.30953  1.0000
  S   S452      1.0  0.64800  0.23067  0.47627  1.0000
  H   H2689     1.0  0.72380  0.05252  0.37756  1.0000
  Fe  Fe224     1.0  0.69487  0.09089  0.48077  1.0000
  H   H2690     1.0  0.66820  0.30269  0.40094  1.0000
  H   H2691     1.0  0.67029  0.19814  0.46309  1.0000
  Fe  Fe225     1.0  0.77295  0.44857  0.21548  1.0000
  C   C3376     1.0  0.74779  0.00809  0.20281  1.0000
  H   H2692     1.0  0.61179  0.03999  0.35440  1.0000
  C   C3377     1.0  0.67315  0.48766  0.41012  1.0000
  C   C3378     1.0  0.59300  0.06886  0.39985  1.0000
  H   H2693     1.0  0.64683  0.04668  0.40749  1.0000
  P   P109      1.0  0.58901  0.04528  0.37541  1.0000
  H   H2694     1.0  0.75194  0.34955  0.01465  1.0000
  H   H2695     1.0  0.69055  0.47921  0.35836  1.0000
  H   H2696     1.0  0.77645  0.40542  0.05967  1.0000
  C   C3379     1.0  0.69702  0.29092  0.46723  1.0000
  C   C3380     1.0  0.74746  0.38020  0.99384  1.0000
  C   C3381     1.0  0.62794  0.18864  0.39964  1.0000
  C   C3382     1.0  0.67202  0.05389  0.42006  1.0000
  C   C3383     1.0  0.63866  0.30919  0.39365  1.0000
  H   H2697     1.0  0.65606  0.12547  0.41633  1.0000
  H   H2698     1.0  0.63251  0.29994  0.39959  1.0000
  H   H2699     1.0  0.66138  0.15268  0.44227  1.0000
  C   C3384     1.0  0.65485  0.41197  0.38756  1.0000
  S   S453      1.0  0.68717  0.06470  0.48132  1.0000
  C   C3385     1.0  0.67713  0.15459  0.37583  1.0000
  H   H2700     1.0  0.76796  0.09155  0.16993  1.0000
  Fe  Fe226     1.0  0.71353  0.00899  0.28549  1.0000
  C   C3386     1.0  0.63640  0.17075  0.40184  1.0000
  H   H2701     1.0  0.73734  0.03316  0.03235  1.0000
  C   C3387     1.0  0.68644  0.25791  0.47422  1.0000
  C   C3388     1.0  0.61083  0.03838  0.41059  1.0000
  C   C3389     1.0  0.77097  0.44779  0.31600  1.0000
  C   C3390     1.0  0.77495  0.38708  0.01839  1.0000
  C   C3391     1.0  0.59247  0.02182  0.34486  1.0000
  H   H2702     1.0  0.61766  0.02648  0.41502  1.0000
  C   C3392     1.0  0.77958  0.36545  0.02479  1.0000
  H   H2703     1.0  0.69618  0.36847  0.45918  1.0000
  C   C3393     1.0  0.64542  0.30840  0.37381  1.0000
  H   H2704     1.0  0.68662  0.12300  0.37416  1.0000
  C   C3394     1.0  0.74351  0.40224  0.99278  1.0000
  H   H2705     1.0  0.62670  0.13602  0.38699  1.0000
  C   C3395     1.0  0.74145  0.99944  0.03234  1.0000
  H   H2706     1.0  0.61526  0.07896  0.36777  1.0000
  C   C3396     1.0  0.73837  0.01221  0.99092  1.0000
  C   C3397     1.0  0.76414  0.00964  0.37091  1.0000
  C   C3398     1.0  0.66749  0.16660  0.38509  1.0000
  C   C3399     1.0  0.74537  0.00725  0.12366  1.0000
  H   H2707     1.0  0.62002  0.09227  0.39416  1.0000
  C   C3400     1.0  0.74705  0.03998  0.43075  1.0000
  C   C3401     1.0  0.70572  0.35492  0.48273  1.0000
  H   H2708     1.0  0.65776  0.13823  0.48082  1.0000
  C   C3402     1.0  0.69421  0.26179  0.45579  1.0000
  C   C3403     1.0  0.77433  0.99709  0.36541  1.0000
  C   C3404     1.0  0.61844  0.21621  0.44856  1.0000
  H   H2709     1.0  0.77214  0.01205  0.27508  1.0000
  H   H2710     1.0  0.66431  0.38360  0.33636  1.0000
  C   C3405     1.0  0.65326  0.15248  0.45088  1.0000
  C   C3406     1.0  0.72804  0.04643  0.43416  1.0000
  C   C3407     1.0  0.66467  0.04384  0.43594  1.0000
  C   C3408     1.0  0.67122  0.12190  0.39475  1.0000
  C   C3409     1.0  0.64483  0.16018  0.44026  1.0000
  C   C3410     1.0  0.63443  0.15918  0.45172  1.0000
  C   C3411     1.0  0.67902  0.13226  0.38078  1.0000
  H   H2711     1.0  0.64476  0.20892  0.37717  1.0000
  C   C3412     1.0  0.67025  0.06176  0.39956  1.0000
  H   H2712     1.0  0.77101  0.17691  0.19146  1.0000
  H   H2713     1.0  0.67273  0.10459  0.39858  1.0000
  H   H2714     1.0  0.61235  0.16849  0.38124  1.0000
  S   S454      1.0  0.59545  0.19981  0.42987  1.0000
  Fe  Fe227     1.0  0.66036  0.24963  0.45778  1.0000
  H   H2715     1.0  0.76016  0.01774  0.11185  1.0000
  C   C3413     1.0  0.64505  0.07256  0.36800  1.0000
  H   H2716     1.0  0.66579  0.49056  0.40499  1.0000
  C   C3414     1.0  0.68020  0.35621  0.29933  1.0000
  H   H2717     1.0  0.67907  0.05562  0.42373  1.0000
  S   S455      1.0  0.62485  0.10103  0.43139  1.0000
  C   C3415     1.0  0.61169  0.20411  0.44650  1.0000
  S   S456      1.0  0.67695  0.23808  0.44064  1.0000
  C   C3416     1.0  0.78604  0.37332  0.38649  1.0000
  H   H2718     1.0  0.68972  0.44807  0.43722  1.0000
  C   C3417     1.0  0.63690  0.08226  0.38284  1.0000
  H   H2719     1.0  0.68332  0.16255  0.36554  1.0000
  C   C3418     1.0  0.67694  0.32744  0.38276  1.0000
  C   C3419     1.0  0.77889  0.32958  0.09399  1.0000
  C   C3420     1.0  0.62622  0.08463  0.38265  1.0000
  H   H2720     1.0  0.63490  0.32187  0.42168  1.0000
  C   C3421     1.0  0.66104  0.05979  0.39480  1.0000
  Fe  Fe228     1.0  0.63683  0.25666  0.45855  1.0000
  H   H2721     1.0  0.64442  0.29870  0.36424  1.0000
  H   H2722     1.0  0.62785  0.16444  0.44383  1.0000
  C   C3422     1.0  0.69769  0.35575  0.47278  1.0000
  C   C3423     1.0  0.65421  0.22578  0.41838  1.0000
  S   S457      1.0  0.62523  0.25499  0.44003  1.0000
  C   C3424     1.0  0.66434  0.49421  0.35666  1.0000
  H   H2723     1.0  0.61289  0.20171  0.39032  1.0000
  C   C3425     1.0  0.65560  0.04136  0.43127  1.0000
  H   H2724     1.0  0.68449  0.00325  0.35364  1.0000
  C   C3426     1.0  0.71323  0.04241  0.22310  1.0000
  C   C3427     1.0  0.70701  0.05665  0.20941  1.0000
  C   C3428     1.0  0.71164  0.06324  0.18809  1.0000
  C   C3429     1.0  0.72247  0.05547  0.18046  1.0000
  C   C3430     1.0  0.72875  0.04101  0.19411  1.0000
  C   C3431     1.0  0.72405  0.03463  0.21556  1.0000
  P   P110      1.0  0.74265  0.03069  0.18373  1.0000
  C   C3432     1.0  0.74370  0.02219  0.15983  1.0000
  C   C3433     1.0  0.75053  0.05033  0.17903  1.0000
  C   C3434     1.0  0.76168  0.04396  0.17496  1.0000
  C   C3435     1.0  0.76791  0.05886  0.17135  1.0000
  C   C3436     1.0  0.76309  0.08016  0.17230  1.0000
  C   C3437     1.0  0.75199  0.08657  0.17682  1.0000
  C   C3438     1.0  0.74571  0.07171  0.18021  1.0000
  H   H2725     1.0  0.68374  0.35884  0.28256  1.0000
  C   C3439     1.0  0.68016  0.01885  0.34689  1.0000
  H   H2726     1.0  0.67193  0.02606  0.37706  1.0000
  H   H2727     1.0  0.64625  0.37726  0.37080  1.0000
  C   C3440     1.0  0.73576  0.01284  0.15850  1.0000
  H   H2728     1.0  0.75950  0.31029  0.03692  1.0000
  H   H2729     1.0  0.61889  0.23035  0.48749  1.0000
  H   H2730     1.0  0.70559  0.28121  0.43813  1.0000
  C   C3441     1.0  0.70064  0.19623  0.45967  1.0000
  C   C3442     1.0  0.59633  0.26629  0.46335  1.0000
  H   H2731     1.0  0.78495  0.36762  0.07070  1.0000
  H   H2732     1.0  0.70963  0.03716  0.23960  1.0000
  H   H2733     1.0  0.69861  0.06248  0.21538  1.0000
  H   H2734     1.0  0.70681  0.07424  0.17747  1.0000
  H   H2735     1.0  0.72596  0.06055  0.16387  1.0000
  H   H2736     1.0  0.72861  0.02351  0.22658  1.0000
  H   H2737     1.0  0.76558  0.02742  0.17456  1.0000
  H   H2738     1.0  0.77650  0.05376  0.16798  1.0000
  H   H2739     1.0  0.77317  0.13900  0.19000  1.0000
  S   S458      1.0  0.73126  0.00005  0.28047  1.0000
  H   H2740     1.0  0.73715  0.07689  0.18414  1.0000
  Fe  Fe229     1.0  0.77435  0.47673  0.24328  1.0000
  H   H2741     1.0  0.66994  0.40589  0.39589  1.0000
  C   C3443     1.0  0.67304  0.03191  0.36012  1.0000
  P   P111      1.0  0.64735  0.17162  0.41226  1.0000
  H   H2742     1.0  0.72903  0.01073  0.17163  1.0000
  H   H2743     1.0  0.74926  0.02779  0.22203  1.0000
  C   C3444     1.0  0.78318  0.37982  0.25826  1.0000
  H   H2744     1.0  0.62382  0.20920  0.45910  1.0000
  C   C3445     1.0  0.61812  0.23738  0.43693  1.0000
  C   C3446     1.0  0.75037  0.01164  0.22015  1.0000
  C   C3447     1.0  0.77486  0.45049  0.39292  1.0000
  S   S459      1.0  0.71042  0.00400  0.32081  1.0000
  H   H2745     1.0  0.74977  0.36505  0.04534  1.0000
  H   H2746     1.0  0.71281  0.48848  0.20670  1.0000
  H   H2747     1.0  0.77039  0.41830  0.02585  1.0000
  C   C3448     1.0  0.76398  0.40879  0.38573  1.0000
  C   C3449     1.0  0.75690  0.41661  0.40296  1.0000
  C   C3450     1.0  0.74734  0.40971  0.41199  1.0000
  C   C3451     1.0  0.74470  0.39524  0.40371  1.0000
  C   C3452     1.0  0.75165  0.38754  0.38644  1.0000
  C   C3453     1.0  0.76129  0.39413  0.37758  1.0000
  H   H2748     1.0  0.77290  0.39298  0.00303  1.0000
  S   S460      1.0  0.70422  0.99715  0.26960  1.0000
  C   C3454     1.0  0.74807  0.37542  0.03062  1.0000
  C   C3455     1.0  0.69261  0.47946  0.42172  1.0000
  H   H2749     1.0  0.75387  0.02611  0.33981  1.0000
  C   C3456     1.0  0.69958  0.27812  0.45242  1.0000
  H   H2750     1.0  0.76940  0.45959  0.38283  1.0000
  C   C3457     1.0  0.78436  0.39772  0.19664  1.0000
  H   H2751     1.0  0.75856  0.42836  0.40924  1.0000
  H   H2752     1.0  0.74174  0.41632  0.42484  1.0000
  H   H2753     1.0  0.73708  0.39066  0.41023  1.0000
  H   H2754     1.0  0.74946  0.37675  0.37969  1.0000
  H   H2755     1.0  0.76658  0.38803  0.36417  1.0000
  H   H2756     1.0  0.77781  0.35791  0.24743  1.0000
  H   H2757     1.0  0.67822  0.05222  0.29919  1.0000
  C   C3458     1.0  0.64765  0.09262  0.47412  1.0000
  H   H2758     1.0  0.70329  0.32279  0.37999  1.0000
  H   H2759     1.0  0.70119  0.28718  0.40267  1.0000
  H   H2760     1.0  0.72955  0.46147  0.19949  1.0000
  H   H2761     1.0  0.77890  0.47088  0.29266  1.0000
  C   C3459     1.0  0.61911  0.16913  0.38676  1.0000
  C   C3460     1.0  0.60469  0.23393  0.42066  1.0000
  H   H2762     1.0  0.63881  0.08796  0.39465  1.0000
  H   H2763     1.0  0.75883  0.03091  0.14327  1.0000
  H   H2764     1.0  0.59430  0.08747  0.35636  1.0000
  C   C3461     1.0  0.77554  0.03249  0.24420  1.0000
  H   H2765     1.0  0.74878  0.00083  0.32350  1.0000
  H   H2766     1.0  0.73531  0.05538  0.45428  1.0000
  C   C3462     1.0  0.65358  0.31979  0.36651  1.0000
  H   H2767     1.0  0.70340  0.49021  0.24325  1.0000
  C   C3463     1.0  0.64871  0.23441  0.38521  1.0000
  H   H2768     1.0  0.76842  0.99670  0.31577  1.0000
  C   C3464     1.0  0.75248  0.02409  0.14277  1.0000
  S   S461      1.0  0.78082  0.44193  0.24260  1.0000
  C   C3465     1.0  0.74012  0.02903  0.40648  1.0000
  C   C3466     1.0  0.77245  0.31872  0.04377  1.0000
  C   C3467     1.0  0.76792  0.30603  0.03679  1.0000
  Fe  Fe230     1.0  0.67341  0.09142  0.47343  1.0000
  S   S462      1.0  0.78055  0.44180  0.18324  1.0000
  H   H2769     1.0  0.70677  0.48072  0.38306  1.0000
  C   C3468     1.0  0.67526  0.19617  0.44781  1.0000
  H   H2770     1.0  0.61116  0.26198  0.41330  1.0000
  C   C3469     1.0  0.65248  0.20511  0.42245  1.0000
  H   H2771     1.0  0.62258  0.02176  0.32567  1.0000
  C   C3470     1.0  0.73668  0.04803  0.44098  1.0000
  H   H2772     1.0  0.68816  0.34788  0.36641  1.0000
  H   H2773     1.0  0.68731  0.48030  0.27392  1.0000
  H   H2774     1.0  0.77263  0.34214  0.08816  1.0000
  C   C3471     1.0  0.60946  0.01153  0.32166  1.0000
  H   H2775     1.0  0.76744  0.33273  0.04942  1.0000
  C   C3472     1.0  0.68663  0.46368  0.42818  1.0000
  H   H2776     1.0  0.68552  0.34079  0.47210  1.0000
  H   H2777     1.0  0.78158  0.40012  0.21264  1.0000
  H   H2778     1.0  0.74360  0.40425  0.04267  1.0000
  H   H2779     1.0  0.66600  0.03815  0.45190  1.0000
  C   C3473     1.0  0.60521  0.03468  0.39768  1.0000
  H   H2780     1.0  0.65719  0.23032  0.42952  1.0000
  C   C3474     1.0  0.66951  0.05959  0.32935  1.0000
  C   C3475     1.0  0.66808  0.13597  0.34173  1.0000
  C   C3476     1.0  0.65763  0.13492  0.35243  1.0000
  C   C3477     1.0  0.65479  0.11504  0.36075  1.0000
  H   H2781     1.0  0.74822  0.10295  0.17809  1.0000
  C   C3478     1.0  0.62356  0.07713  0.36778  1.0000
  H   H2782     1.0  0.66561  0.07550  0.32231  1.0000
  H   H2783     1.0  0.67030  0.15135  0.33540  1.0000
  H   H2784     1.0  0.65174  0.14954  0.35438  1.0000
  H   H2785     1.0  0.64666  0.11478  0.36887  1.0000
  H   H2786     1.0  0.70254  0.14690  0.45155  1.0000
  C   C3479     1.0  0.77808  0.32263  0.11584  1.0000
  H   H2787     1.0  0.67587  0.36959  0.38877  1.0000
  H   H2788     1.0  0.61177  0.18803  0.45585  1.0000
  C   C3480     1.0  0.75326  0.01669  0.12476  1.0000
  H   H2789     1.0  0.70123  0.30361  0.46407  1.0000
  C   C3481     1.0  0.73524  0.46107  0.31628  1.0000
  H   H2790     1.0  0.70613  0.18249  0.43204  1.0000
  H   H2791     1.0  0.77138  0.33012  0.12662  1.0000
  H   H2792     1.0  0.74168  0.46028  0.32350  1.0000
  C   C3482     1.0  0.72975  0.03699  0.41705  1.0000
  C   C3483     1.0  0.66158  0.37069  0.37893  1.0000
  H   H2793     1.0  0.78101  0.35476  0.01427  1.0000
  H   H2794     1.0  0.67904  0.08287  0.34666  1.0000
  C   C3484     1.0  0.64814  0.40376  0.38073  1.0000
  H   H2795     1.0  0.64838  0.05725  0.34161  1.0000
  C   C3485     1.0  0.70293  0.17970  0.44894  1.0000
  H   H2796     1.0  0.72917  0.43582  0.34023  1.0000
  C   C3486     1.0  0.66172  0.13382  0.40455  1.0000
  H   H2797     1.0  0.67959  0.31645  0.34361  1.0000
  H   H2798     1.0  0.78112  0.00451  0.35873  1.0000
  Fe  Fe231     1.0  0.72819  0.99762  0.31548  1.0000
  C   C3487     1.0  0.64815  0.33284  0.39890  1.0000
  C   C3488     1.0  0.60807  0.03167  0.34770  1.0000
  C   C3489     1.0  0.64231  0.06497  0.35314  1.0000
  H   H2799     1.0  0.64039  0.41339  0.37866  1.0000
  C   C3490     1.0  0.59643  0.05019  0.39171  1.0000
  H   H2800     1.0  0.77081  0.27819  0.02382  1.0000
  C   C3491     1.0  0.65148  0.38323  0.37641  1.0000
  H   H2801     1.0  0.73728  0.48189  0.40193  1.0000
  C   C3492     1.0  0.69446  0.29832  0.39704  1.0000
  H   H2802     1.0  0.71146  0.36549  0.99779  1.0000
  C   C3493     1.0  0.67575  0.11712  0.33972  1.0000
  H   H2803     1.0  0.73926  0.42798  0.00927  1.0000
  P   P112      1.0  0.66612  0.34513  0.37116  1.0000
  H   H2804     1.0  0.59938  0.24103  0.40984  1.0000
  C   C3494     1.0  0.61944  0.18792  0.39179  1.0000
  H   H2805     1.0  0.78580  0.45705  0.43001  1.0000
  H   H2806     1.0  0.64182  0.13722  0.40014  1.0000
  C   C3495     1.0  0.65502  0.33204  0.37908  1.0000
  S   S463      1.0  0.59959  0.14227  0.41916  1.0000
  P   P113      1.0  0.65885  0.07006  0.36822  1.0000
  H   H2807     1.0  0.64927  0.34177  0.40908  1.0000
  C   C3496     1.0  0.67368  0.37333  0.30819  1.0000
  C   C3497     1.0  0.62724  0.15095  0.38979  1.0000
  S   S464      1.0  0.76788  0.48378  0.21429  1.0000
  H   H2808     1.0  0.78345  0.00055  0.08987  1.0000
  C   C3498     1.0  0.66241  0.09599  0.35849  1.0000
  S   S465      1.0  0.60505  0.14234  0.46375  1.0000
  H   H2809     1.0  0.68228  0.24525  0.47680  1.0000
  C   C3499     1.0  0.70087  0.15966  0.45992  1.0000
  C   C3500     1.0  0.63245  0.15097  0.47354  1.0000
  H   H2810     1.0  0.60767  0.01966  0.39253  1.0000
  C   C3501     1.0  0.74217  0.41090  0.01029  1.0000
  P   P114      1.0  0.70814  0.46487  0.28461  1.0000
  C   C3502     1.0  0.71858  0.46328  0.29750  1.0000
  C   C3503     1.0  0.70141  0.44307  0.29762  1.0000
  C   C3504     1.0  0.70490  0.42347  0.29115  1.0000
  C   C3505     1.0  0.69968  0.40665  0.30151  1.0000
  C   C3506     1.0  0.69091  0.40932  0.31828  1.0000
  C   C3507     1.0  0.68738  0.42879  0.32477  1.0000
  C   C3508     1.0  0.69268  0.44551  0.31472  1.0000
  C   C3509     1.0  0.72567  0.47697  0.28820  1.0000
  C   C3510     1.0  0.73383  0.47620  0.29774  1.0000
  C   C3511     1.0  0.71987  0.44842  0.31636  1.0000
  C   C3512     1.0  0.71458  0.46351  0.25751  1.0000
  C   C3513     1.0  0.71050  0.47789  0.24056  1.0000
  C   C3514     1.0  0.71582  0.47699  0.21971  1.0000
  C   C3515     1.0  0.72526  0.46177  0.21562  1.0000
  C   C3516     1.0  0.72940  0.44749  0.23236  1.0000
  C   C3517     1.0  0.72416  0.44850  0.25321  1.0000
  Fe  Fe232     1.0  0.59514  0.16443  0.44154  1.0000
  C   C3518     1.0  0.78341  0.31339  0.04335  1.0000
  C   C3519     1.0  0.77972  0.42904  0.39228  1.0000
  S   S466      1.0  0.65774  0.26942  0.48148  1.0000
  H   H2811     1.0  0.69700  0.00217  0.23240  1.0000
  H   H2812     1.0  0.71178  0.42086  0.27852  1.0000
  H   H2813     1.0  0.70269  0.39129  0.29703  1.0000
  H   H2814     1.0  0.68707  0.39610  0.32668  1.0000
  H   H2815     1.0  0.68071  0.43075  0.33806  1.0000
  H   H2816     1.0  0.69003  0.46019  0.32055  1.0000
  C   C3520     1.0  0.78514  0.28219  0.02947  1.0000
  H   H2817     1.0  0.70031  0.47565  0.42576  1.0000
  H   H2818     1.0  0.71458  0.43747  0.32375  1.0000
  H   H2819     1.0  0.76449  0.42462  0.34154  1.0000
  C   C3521     1.0  0.68454  0.29284  0.40290  1.0000
  C   C3522     1.0  0.74937  0.36673  0.01313  1.0000
  C   C3523     1.0  0.78171  0.37256  0.05661  1.0000
  P   P115      1.0  0.77667  0.41649  0.37466  1.0000
  C   C3524     1.0  0.77428  0.28786  0.02950  1.0000
  H   H2820     1.0  0.76576  0.44784  0.30624  1.0000
  C   C3525     1.0  0.68698  0.33270  0.37683  1.0000
  C   C3526     1.0  0.77027  0.43459  0.33619  1.0000
  C   C3527     1.0  0.59858  0.01179  0.32840  1.0000
  C   C3528     1.0  0.73659  0.00543  0.14049  1.0000
  H   H2821     1.0  0.73001  0.00570  0.35982  1.0000
  C   C3529     1.0  0.78464  0.46177  0.32144  1.0000
  S   S467      1.0  0.59457  0.10360  0.46016  1.0000
  H   H2822     1.0  0.60809  0.26599  0.47950  1.0000
  C   C3530     1.0  0.60078  0.26110  0.48105  1.0000
  C   C3531     1.0  0.77827  0.46105  0.30848  1.0000
  C   C3532     1.0  0.78331  0.99960  0.14776  1.0000
  H   H2823     1.0  0.77530  0.38993  0.26150  1.0000
  H   H2824     1.0  0.72478  0.48837  0.27364  1.0000
  H   H2825     1.0  0.73901  0.48742  0.29079  1.0000
  C   C3533     1.0  0.69622  0.19277  0.48138  1.0000
  H   H2826     1.0  0.78321  0.99960  0.16384  1.0000
  H   H2827     1.0  0.63349  0.19843  0.48488  1.0000
  H   H2828     1.0  0.74620  0.00089  0.10998  1.0000
  C   C3534     1.0  0.78409  0.41541  0.17963  1.0000
  H   H2829     1.0  0.71038  0.36716  0.47692  1.0000
  H   H2830     1.0  0.59334  0.19719  0.47684  1.0000
  C   C3535     1.0  0.68307  0.48943  0.35533  1.0000
  C   C3536     1.0  0.69168  0.33997  0.48010  1.0000
  H   H2831     1.0  0.71997  0.05238  0.44220  1.0000
  H   H2832     1.0  0.72829  0.37218  0.99985  1.0000
  H   H2833     1.0  0.78099  0.09858  0.09315  1.0000
  H   H2834     1.0  0.75611  0.99745  0.24868  1.0000
  C   C3537     1.0  0.78273  0.35791  0.04425  1.0000
  S   S468      1.0  0.63217  0.27749  0.48248  1.0000
  P   P116      1.0  0.74197  0.01667  0.38449  1.0000
  C   C3538     1.0  0.78398  0.44860  0.34168  1.0000
  Fe  Fe233     1.0  0.59046  0.12893  0.47934  1.0000
  C   C3539     1.0  0.70981  0.49416  0.37231  1.0000
  H   H2835     1.0  0.72293  0.03558  0.41233  1.0000
  H   H2836     1.0  0.59481  0.00441  0.32077  1.0000
  H   H2837     1.0  0.73490  0.04449  0.99536  1.0000
  H   H2838     1.0  0.78559  0.30145  0.14068  1.0000
  C   C3540     1.0  0.78604  0.30637  0.12379  1.0000
  C   C3541     1.0  0.75524  0.00019  0.37878  1.0000
  H   H2839     1.0  0.78669  0.07062  0.24977  1.0000
  C   C3542     1.0  0.72790  0.99747  0.37614  1.0000
  C   C3543     1.0  0.73237  0.00003  0.39158  1.0000
  H   H2840     1.0  0.78653  0.19368  0.17981  1.0000
  H   H2841     1.0  0.73056  0.99767  0.13995  1.0000
  H   H2842     1.0  0.66746  0.30519  0.48837  1.0000
  C   C3544     1.0  0.78670  0.41756  0.40577  1.0000
  C   C3545     1.0  0.78672  0.39244  0.37125  1.0000
  H   H2843     1.0  0.78673  0.42585  0.14589  1.0000
  S   S469      1.0  0.61522  0.08941  0.65062  1.0000
  Fe  Fe234     1.0  0.73728  0.06969  0.78081  1.0000
  S   S470      1.0  0.73309  0.10508  0.76756  1.0000
  S   S471      1.0  0.72737  0.05557  0.81168  1.0000
  Fe  Fe235     1.0  0.75621  0.06227  0.74488  1.0000
  S   S472      1.0  0.75356  0.09700  0.72907  1.0000
  Fe  Fe236     1.0  0.75069  0.10291  0.76150  1.0000
  S   S473      1.0  0.75705  0.12907  0.76607  1.0000
  Fe  Fe237     1.0  0.73643  0.09553  0.73652  1.0000
  S   S474      1.0  0.72745  0.11257  0.71069  1.0000
  S   S475      1.0  0.75466  0.06820  0.77702  1.0000
  S   S476      1.0  0.73925  0.06020  0.75023  1.0000
  Fe  Fe238     1.0  0.67075  0.08756  0.66129  1.0000
  S   S477      1.0  0.67311  0.10088  0.62655  1.0000
  S   S478      1.0  0.65509  0.08743  0.68450  1.0000
  Fe  Fe239     1.0  0.69445  0.07355  0.65997  1.0000
  S   S479      1.0  0.69905  0.08580  0.62481  1.0000
  S   S480      1.0  0.70528  0.05570  0.68243  1.0000
  Fe  Fe240     1.0  0.68585  0.11438  0.63072  1.0000
  S   S481      1.0  0.68657  0.14835  0.61322  1.0000
  Fe  Fe241     1.0  0.68598  0.07146  0.62334  1.0000
  S   S482      1.0  0.68632  0.05248  0.60003  1.0000
  S   S483      1.0  0.68243  0.10336  0.66598  1.0000
  S   S484      1.0  0.68248  0.05673  0.65800  1.0000
  H   H2844     1.0  0.59617  0.28483  0.68498  1.0000
  C   C3546     1.0  0.68473  0.25703  0.69765  1.0000
  H   H2845     1.0  0.61560  0.19699  0.58829  1.0000
  C   C3547     1.0  0.61982  0.21801  0.50156  1.0000
  C   C3548     1.0  0.62830  0.30931  0.59492  1.0000
  Fe  Fe242     1.0  0.73502  0.38197  0.85953  1.0000
  S   S485      1.0  0.74519  0.34960  0.85692  1.0000
  S   S486      1.0  0.73701  0.41306  0.83697  1.0000
  Fe  Fe243     1.0  0.72015  0.36520  0.89935  1.0000
  S   S487      1.0  0.72890  0.33094  0.90045  1.0000
  S   S488      1.0  0.70589  0.37518  0.92413  1.0000
  Fe  Fe244     1.0  0.74361  0.34417  0.89185  1.0000
  S   S489      1.0  0.75741  0.32654  0.90743  1.0000
  Fe  Fe245     1.0  0.72972  0.33895  0.86556  1.0000
  S   S490      1.0  0.72834  0.31539  0.84847  1.0000
  S   S491      1.0  0.73476  0.37783  0.89382  1.0000
  S   S492      1.0  0.71959  0.37204  0.86526  1.0000
  Fe  Fe246     1.0  0.63760  0.26171  0.66277  1.0000
  S   S493      1.0  0.65036  0.24387  0.64084  1.0000
  C   C3549     1.0  0.69978  0.49323  0.75511  1.0000
  Fe  Fe247     1.0  0.65222  0.28996  0.66520  1.0000
  S   S494      1.0  0.66603  0.27435  0.64262  1.0000
  S   S495      1.0  0.65143  0.31611  0.68218  1.0000
  Fe  Fe248     1.0  0.65398  0.27606  0.62406  1.0000
  S   S496      1.0  0.65668  0.28705  0.58832  1.0000
  Fe  Fe249     1.0  0.66110  0.24366  0.66122  1.0000
  S   S497      1.0  0.67234  0.21382  0.67357  1.0000
  S   S498      1.0  0.64048  0.29436  0.64504  1.0000
  S   S499      1.0  0.64804  0.25899  0.68486  1.0000
  H   H2846     1.0  0.73728  0.01706  0.97477  1.0000
  S   S500      1.0  0.64221  0.23973  0.53407  1.0000
  S   S501      1.0  0.68539  0.47450  0.90591  1.0000
  Fe  Fe250     1.0  0.70586  0.37380  0.74363  1.0000
  S   S502      1.0  0.69406  0.39162  0.72348  1.0000
  S   S503      1.0  0.72378  0.36795  0.73449  1.0000
  Fe  Fe251     1.0  0.68889  0.35793  0.78029  1.0000
  S   S504      1.0  0.67575  0.37369  0.76269  1.0000
  S   S505      1.0  0.68607  0.34032  0.81425  1.0000
  Fe  Fe252     1.0  0.68720  0.36192  0.73463  1.0000
  S   S506      1.0  0.68662  0.34410  0.71029  1.0000
  Fe  Fe253     1.0  0.68369  0.40187  0.75329  1.0000
  S   S507      1.0  0.67331  0.43506  0.75527  1.0000
  S   S508      1.0  0.69962  0.34374  0.75352  1.0000
  S   S509      1.0  0.69614  0.38653  0.77232  1.0000
  C   C3550     1.0  0.77930  0.47825  0.76724  1.0000
  C   C3551     1.0  0.68142  0.46403  0.79377  1.0000
  C   C3552     1.0  0.68196  0.44982  0.78093  1.0000
  C   C3553     1.0  0.67337  0.45186  0.77179  1.0000
  C   C3554     1.0  0.66443  0.46840  0.77523  1.0000
  C   C3555     1.0  0.69385  0.17281  0.49247  1.0000
  H   H2847     1.0  0.68807  0.46259  0.80061  1.0000
  H   H2848     1.0  0.68905  0.43760  0.77775  1.0000
  H   H2849     1.0  0.65780  0.47035  0.76813  1.0000
  C   C3556     1.0  0.61619  0.14741  0.68020  1.0000
  C   C3557     1.0  0.66135  0.32202  0.69135  1.0000
  C   C3558     1.0  0.65820  0.33635  0.70504  1.0000
  C   C3559     1.0  0.66578  0.34279  0.71153  1.0000
  C   C3560     1.0  0.67665  0.33540  0.70394  1.0000
  C   C3561     1.0  0.67982  0.32082  0.69051  1.0000
  C   C3562     1.0  0.67223  0.31397  0.68443  1.0000
  H   H2850     1.0  0.64981  0.34269  0.71049  1.0000
  H   H2851     1.0  0.66320  0.35385  0.72200  1.0000
  H   H2852     1.0  0.68819  0.31492  0.68457  1.0000
  H   H2853     1.0  0.67479  0.30304  0.67382  1.0000
  C   C3563     1.0  0.65246  0.27378  0.57359  1.0000
  C   C3564     1.0  0.65225  0.28308  0.55231  1.0000
  C   C3565     1.0  0.64905  0.27291  0.54008  1.0000
  C   C3566     1.0  0.64607  0.25320  0.54906  1.0000
  C   C3567     1.0  0.64621  0.24394  0.57039  1.0000
  C   C3568     1.0  0.64943  0.25414  0.58257  1.0000
  H   H2854     1.0  0.65455  0.29825  0.54529  1.0000
  H   H2855     1.0  0.64886  0.28037  0.52374  1.0000
  H   H2856     1.0  0.64398  0.22866  0.57747  1.0000
  H   H2857     1.0  0.64964  0.24668  0.59882  1.0000
  C   C3569     1.0  0.70039  0.40283  0.91855  1.0000
  C   C3570     1.0  0.70490  0.41647  0.90046  1.0000
  C   C3571     1.0  0.70023  0.43850  0.89623  1.0000
  C   C3572     1.0  0.69127  0.44698  0.91039  1.0000
  C   C3573     1.0  0.68695  0.43336  0.92870  1.0000
  C   C3574     1.0  0.69139  0.41131  0.93260  1.0000
  H   H2858     1.0  0.71187  0.41005  0.88955  1.0000
  H   H2859     1.0  0.70352  0.44893  0.88199  1.0000
  H   H2860     1.0  0.68006  0.43985  0.93972  1.0000
  H   H2861     1.0  0.68790  0.40085  0.94662  1.0000
  C   C3575     1.0  0.71652  0.32204  0.83928  1.0000
  C   C3576     1.0  0.70748  0.33555  0.84849  1.0000
  C   C3577     1.0  0.69808  0.34074  0.84102  1.0000
  C   C3578     1.0  0.69779  0.33306  0.82387  1.0000
  C   C3579     1.0  0.70683  0.31949  0.81463  1.0000
  C   C3580     1.0  0.71614  0.31369  0.82258  1.0000
  H   H2862     1.0  0.70769  0.34174  0.86155  1.0000
  H   H2863     1.0  0.69109  0.35088  0.84844  1.0000
  H   H2864     1.0  0.70664  0.31344  0.80143  1.0000
  H   H2865     1.0  0.72313  0.30324  0.81543  1.0000
  C   C3581     1.0  0.76572  0.34363  0.90545  1.0000
  C   C3582     1.0  0.76385  0.36458  0.89360  1.0000
  C   C3583     1.0  0.77048  0.37822  0.89202  1.0000
  C   C3584     1.0  0.70750  0.45981  0.95263  1.0000
  C   C3585     1.0  0.77997  0.02939  0.77251  1.0000
  C   C3586     1.0  0.77428  0.33631  0.91564  1.0000
  H   H2866     1.0  0.75740  0.37025  0.88539  1.0000
  H   H2867     1.0  0.76899  0.39447  0.88297  1.0000
  C   C3587     1.0  0.69594  0.44187  0.68456  1.0000
  C   C3588     1.0  0.74204  0.41846  0.69139  1.0000
  C   C3589     1.0  0.73237  0.41763  0.68758  1.0000
  C   C3590     1.0  0.72637  0.40287  0.70124  1.0000
  C   C3591     1.0  0.73030  0.38828  0.71818  1.0000
  C   C3592     1.0  0.74002  0.38897  0.72168  1.0000
  C   C3593     1.0  0.74576  0.40427  0.70859  1.0000
  C   C3594     1.0  0.60443  0.25240  0.60423  1.0000
  H   H2868     1.0  0.71889  0.40238  0.69837  1.0000
  H   H2869     1.0  0.74308  0.37771  0.73468  1.0000
  H   H2870     1.0  0.75326  0.40470  0.71126  1.0000
  C   C3595     1.0  0.76389  0.41721  0.77835  1.0000
  C   C3596     1.0  0.75517  0.43429  0.78074  1.0000
  C   C3597     1.0  0.74688  0.43243  0.79865  1.0000
  C   C3598     1.0  0.74713  0.41342  0.81401  1.0000
  C   C3599     1.0  0.75567  0.39595  0.81131  1.0000
  C   C3600     1.0  0.76415  0.39797  0.79360  1.0000
  H   H2871     1.0  0.75491  0.44911  0.76898  1.0000
  H   H2872     1.0  0.74020  0.44576  0.80076  1.0000
  H   H2873     1.0  0.75597  0.38126  0.82324  1.0000
  H   H2874     1.0  0.77087  0.38469  0.79172  1.0000
  C   C3601     1.0  0.68306  0.16658  0.62986  1.0000
  C   C3602     1.0  0.68465  0.15989  0.65053  1.0000
  C   C3603     1.0  0.68143  0.17450  0.66385  1.0000
  C   C3604     1.0  0.67657  0.19583  0.65655  1.0000
  C   C3605     1.0  0.67532  0.20270  0.63565  1.0000
  C   C3606     1.0  0.67861  0.18811  0.62230  1.0000
  H   H2875     1.0  0.68847  0.14352  0.65621  1.0000
  H   H2876     1.0  0.68262  0.16921  0.67984  1.0000
  H   H2877     1.0  0.67185  0.21925  0.62970  1.0000
  H   H2878     1.0  0.67746  0.19339  0.60626  1.0000
  C   C3607     1.0  0.69166  0.06285  0.57338  1.0000
  C   C3608     1.0  0.68924  0.05629  0.55752  1.0000
  C   C3609     1.0  0.69291  0.06516  0.53611  1.0000
  C   C3610     1.0  0.69936  0.08004  0.53048  1.0000
  C   C3611     1.0  0.70203  0.08614  0.54634  1.0000
  C   C3612     1.0  0.69804  0.07788  0.56776  1.0000
  H   H2879     1.0  0.68439  0.04456  0.56187  1.0000
  H   H2880     1.0  0.69090  0.06018  0.52400  1.0000
  H   H2881     1.0  0.70711  0.09745  0.54194  1.0000
  H   H2882     1.0  0.70000  0.08289  0.57990  1.0000
  C   C3613     1.0  0.72113  0.09682  0.70309  1.0000
  C   C3614     1.0  0.71970  0.07682  0.71564  1.0000
  C   C3615     1.0  0.71471  0.06439  0.70931  1.0000
  C   C3616     1.0  0.71102  0.07200  0.69050  1.0000
  C   C3617     1.0  0.71218  0.09225  0.67819  1.0000
  C   C3618     1.0  0.71732  0.10455  0.68438  1.0000
  H   H2883     1.0  0.72228  0.07104  0.73035  1.0000
  H   H2884     1.0  0.71362  0.04897  0.71913  1.0000
  H   H2885     1.0  0.70933  0.09819  0.66365  1.0000
  H   H2886     1.0  0.71841  0.11993  0.67453  1.0000
  C   C3619     1.0  0.73404  0.02965  0.82172  1.0000
  C   C3620     1.0  0.60540  0.30389  0.51616  1.0000
  C   C3621     1.0  0.68762  0.28782  0.76524  1.0000
  H   H2887     1.0  0.74711  0.03626  0.85254  1.0000
  C   C3622     1.0  0.74179  0.49409  0.76085  1.0000
  H   H2888     1.0  0.74400  0.02519  0.79148  1.0000
  H   H2889     1.0  0.65488  0.36589  0.65765  1.0000
  H   H2890     1.0  0.72526  0.02923  0.85380  1.0000
  H   H2891     1.0  0.67420  0.29211  0.55026  1.0000
  P   P117      1.0  0.64869  0.07836  0.58481  1.0000
  C   C3623     1.0  0.62617  0.09007  0.65978  1.0000
  C   C3624     1.0  0.63331  0.10317  0.64793  1.0000
  C   C3625     1.0  0.64247  0.10199  0.65495  1.0000
  C   C3626     1.0  0.64427  0.08822  0.67413  1.0000
  C   C3627     1.0  0.63704  0.07541  0.68599  1.0000
  C   C3628     1.0  0.62810  0.07610  0.67869  1.0000
  H   H2892     1.0  0.63191  0.11381  0.63318  1.0000
  H   H2893     1.0  0.64804  0.11190  0.64570  1.0000
  H   H2894     1.0  0.63841  0.06480  0.70079  1.0000
  H   H2895     1.0  0.62266  0.06583  0.68775  1.0000
  C   C3629     1.0  0.71738  0.45377  0.73744  1.0000
  H   H2896     1.0  0.61879  0.33700  0.57834  1.0000
  C   C3630     1.0  0.78224  0.00136  0.73361  1.0000
  C   C3631     1.0  0.65259  0.14307  0.70412  1.0000
  C   C3632     1.0  0.76579  0.42852  0.83124  1.0000
  H   H2897     1.0  0.59225  0.21764  0.69218  1.0000
  H   H2898     1.0  0.77448  0.45230  0.81167  1.0000
  H   H2899     1.0  0.78335  0.29514  0.97674  1.0000
  H   H2900     1.0  0.75808  0.43940  0.83175  1.0000
  H   H2901     1.0  0.75921  0.40157  0.85039  1.0000
  H   H2902     1.0  0.71392  0.33771  0.50778  1.0000
  H   H2903     1.0  0.66916  0.26493  0.71723  1.0000
  H   H2904     1.0  0.60929  0.11967  0.69378  1.0000
  H   H2905     1.0  0.69075  0.00464  0.87502  1.0000
  C   C3633     1.0  0.67009  0.11509  0.57670  1.0000
  C   C3634     1.0  0.66365  0.13490  0.57984  1.0000
  C   C3635     1.0  0.65259  0.13783  0.58401  1.0000
  H   H2906     1.0  0.66724  0.14786  0.57926  1.0000
  H   H2907     1.0  0.64758  0.15310  0.58677  1.0000
  H   H2908     1.0  0.67395  0.11229  0.73728  1.0000
  C   C3636     1.0  0.61049  0.29092  0.60574  1.0000
  C   C3637     1.0  0.77611  0.04385  0.83770  1.0000
  C   C3638     1.0  0.76836  0.05584  0.85109  1.0000
  C   C3639     1.0  0.75790  0.05276  0.85711  1.0000
  C   C3640     1.0  0.75522  0.03824  0.84885  1.0000
  P   P118      1.0  0.74758  0.07025  0.87173  1.0000
  C   C3641     1.0  0.75260  0.07940  0.88919  1.0000
  C   C3642     1.0  0.74241  0.09125  0.85137  1.0000
  C   C3643     1.0  0.74608  0.11039  0.84408  1.0000
  C   C3644     1.0  0.74247  0.12600  0.82741  1.0000
  C   C3645     1.0  0.73561  0.12219  0.81721  1.0000
  C   C3646     1.0  0.73216  0.10293  0.82399  1.0000
  C   C3647     1.0  0.73558  0.08746  0.84090  1.0000
  C   C3648     1.0  0.74794  0.09955  0.89423  1.0000
  C   C3649     1.0  0.75194  0.10663  0.90762  1.0000
  C   C3650     1.0  0.76044  0.09345  0.91642  1.0000
  C   C3651     1.0  0.76483  0.07305  0.91215  1.0000
  C   C3652     1.0  0.76087  0.06594  0.89878  1.0000
  C   C3653     1.0  0.73762  0.05590  0.88863  1.0000
  C   C3654     1.0  0.74072  0.03497  0.90004  1.0000
  C   C3655     1.0  0.73304  0.02400  0.91363  1.0000
  C   C3656     1.0  0.72225  0.03380  0.91595  1.0000
  C   C3657     1.0  0.71911  0.05474  0.90484  1.0000
  C   C3658     1.0  0.72677  0.06586  0.89138  1.0000
  H   H2909     1.0  0.61639  0.20380  0.63775  1.0000
  C   C3659     1.0  0.65788  0.15717  0.62852  1.0000
  H   H2910     1.0  0.75320  0.32636  0.96075  1.0000
  H   H2911     1.0  0.77048  0.06793  0.85616  1.0000
  P   P119      1.0  0.59940  0.27813  0.61191  1.0000
  H   H2912     1.0  0.75201  0.11305  0.85068  1.0000
  H   H2913     1.0  0.74533  0.14072  0.82183  1.0000
  H   H2914     1.0  0.73326  0.13387  0.80361  1.0000
  H   H2915     1.0  0.72707  0.09965  0.81578  1.0000
  H   H2916     1.0  0.73314  0.07230  0.84534  1.0000
  H   H2917     1.0  0.74127  0.10983  0.88776  1.0000
  H   H2918     1.0  0.74846  0.12236  0.91111  1.0000
  H   H2919     1.0  0.76363  0.09894  0.92664  1.0000
  H   H2920     1.0  0.77136  0.06276  0.91916  1.0000
  H   H2921     1.0  0.76431  0.04998  0.89587  1.0000
  H   H2922     1.0  0.74907  0.02716  0.89863  1.0000
  C   C3660     1.0  0.61926  0.22489  0.65422  1.0000
  C   C3661     1.0  0.66723  0.02415  0.56475  1.0000
  H   H2923     1.0  0.71075  0.06244  0.90678  1.0000
  H   H2924     1.0  0.72422  0.08222  0.88324  1.0000
  C   C3662     1.0  0.66814  0.39447  0.81261  1.0000
  C   C3663     1.0  0.65996  0.41203  0.80793  1.0000
  C   C3664     1.0  0.65745  0.42906  0.81805  1.0000
  C   C3665     1.0  0.66317  0.42863  0.83273  1.0000
  C   C3666     1.0  0.67152  0.41112  0.83732  1.0000
  C   C3667     1.0  0.67397  0.39411  0.82702  1.0000
  P   P120      1.0  0.67953  0.41040  0.85534  1.0000
  C   C3668     1.0  0.69218  0.41672  0.84058  1.0000
  C   C3669     1.0  0.67330  0.43027  0.87117  1.0000
  C   C3670     1.0  0.67024  0.42434  0.89329  1.0000
  C   C3671     1.0  0.66567  0.44007  0.90526  1.0000
  C   C3672     1.0  0.66400  0.46173  0.89524  1.0000
  C   C3673     1.0  0.66698  0.46768  0.87326  1.0000
  C   C3674     1.0  0.67189  0.45208  0.86133  1.0000
  C   C3675     1.0  0.69852  0.42242  0.85066  1.0000
  C   C3676     1.0  0.70815  0.42814  0.83937  1.0000
  C   C3677     1.0  0.71129  0.42917  0.81766  1.0000
  C   C3678     1.0  0.70493  0.42389  0.80739  1.0000
  C   C3679     1.0  0.69553  0.41723  0.81885  1.0000
  C   C3680     1.0  0.68137  0.38418  0.87273  1.0000
  C   C3681     1.0  0.69014  0.37641  0.88237  1.0000
  C   C3682     1.0  0.69145  0.35621  0.89595  1.0000
  C   C3683     1.0  0.68400  0.34364  0.90009  1.0000
  C   C3684     1.0  0.67511  0.35142  0.89096  1.0000
  C   C3685     1.0  0.67373  0.37170  0.87751  1.0000
  H   H2925     1.0  0.67010  0.38117  0.80492  1.0000
  H   H2926     1.0  0.65571  0.41262  0.79615  1.0000
  H   H2927     1.0  0.65123  0.44288  0.81414  1.0000
  H   H2928     1.0  0.66104  0.44213  0.84012  1.0000
  H   H2929     1.0  0.68049  0.38063  0.82993  1.0000
  H   H2930     1.0  0.67153  0.40770  0.90146  1.0000
  H   H2931     1.0  0.59494  0.28946  0.50824  1.0000
  H   H2932     1.0  0.60184  0.32002  0.50896  1.0000
  C   C3686     1.0  0.73469  0.49340  0.67509  1.0000
  H   H2933     1.0  0.67452  0.45706  0.84436  1.0000
  H   H2934     1.0  0.69589  0.42275  0.86722  1.0000
  H   H2935     1.0  0.71306  0.43232  0.84733  1.0000
  H   H2936     1.0  0.71863  0.43417  0.80889  1.0000
  H   H2937     1.0  0.70722  0.42499  0.79054  1.0000
  H   H2938     1.0  0.69084  0.41298  0.81056  1.0000
  H   H2939     1.0  0.69598  0.38583  0.87966  1.0000
  H   H2940     1.0  0.69830  0.35031  0.90318  1.0000
  H   H2941     1.0  0.68512  0.32789  0.91041  1.0000
  H   H2942     1.0  0.66931  0.34170  0.89420  1.0000
  H   H2943     1.0  0.66673  0.37752  0.87077  1.0000
  C   C3687     1.0  0.78468  0.08379  0.69701  1.0000
  C   C3688     1.0  0.70554  0.42308  0.96034  1.0000
  C   C3689     1.0  0.73967  0.47024  0.88524  1.0000
  H   H2944     1.0  0.66433  0.45120  0.59157  1.0000
  H   H2945     1.0  0.75878  0.26099  0.77201  1.0000
  C   C3690     1.0  0.59764  0.28156  0.65339  1.0000
  C   C3691     1.0  0.73772  0.48965  0.78266  1.0000
  C   C3692     1.0  0.75370  0.38927  0.94788  1.0000
  H   H2946     1.0  0.67930  0.30743  0.74089  1.0000
  C   C3693     1.0  0.73715  0.36342  0.97007  1.0000
  H   H2947     1.0  0.64119  0.13749  0.73374  1.0000
  C   C3694     1.0  0.76291  0.39646  0.94607  1.0000
  C   C3695     1.0  0.76605  0.41259  0.92900  1.0000
  C   C3696     1.0  0.76009  0.42160  0.91344  1.0000
  C   C3697     1.0  0.75091  0.41463  0.91504  1.0000
  C   C3698     1.0  0.74765  0.39873  0.93229  1.0000
  C   C3699     1.0  0.77627  0.39258  0.84009  1.0000
  C   C3700     1.0  0.74880  0.49064  0.93642  1.0000
  C   C3701     1.0  0.78575  0.07540  0.73375  1.0000
  P   P121      1.0  0.68603  0.30262  0.50573  1.0000
  H   H2948     1.0  0.66065  0.47394  0.90451  1.0000
  C   C3702     1.0  0.69585  0.00928  0.85976  1.0000
  H   H2949     1.0  0.78417  0.04610  0.83307  1.0000
  H   H2950     1.0  0.65587  0.35317  0.53907  1.0000
  C   C3703     1.0  0.58925  0.21645  0.55360  1.0000
  C   C3704     1.0  0.69376  0.32301  0.49722  1.0000
  H   H2951     1.0  0.76411  0.17630  0.90934  1.0000
  C   C3705     1.0  0.63856  0.05479  0.62248  1.0000
  C   C3706     1.0  0.76380  0.00517  0.75234  1.0000
  C   C3707     1.0  0.68392  0.27058  0.48912  1.0000
  H   H2952     1.0  0.77335  0.41757  0.92745  1.0000
  H   H2953     1.0  0.76277  0.43354  0.89985  1.0000
  H   H2954     1.0  0.61696  0.31390  0.52605  1.0000
  H   H2955     1.0  0.67078  0.06000  0.51789  1.0000
  C   C3708     1.0  0.73151  0.02045  0.84334  1.0000
  H   H2956     1.0  0.77820  0.28589  0.90377  1.0000
  C   C3709     1.0  0.77005  0.32664  0.82637  1.0000
  H   H2957     1.0  0.71633  0.02525  0.92654  1.0000
  H   H2958     1.0  0.74191  0.48553  0.66577  1.0000
  C   C3710     1.0  0.68084  0.21484  0.75206  1.0000
  C   C3711     1.0  0.67147  0.21664  0.74570  1.0000
  C   C3712     1.0  0.67163  0.20564  0.73067  1.0000
  C   C3713     1.0  0.68113  0.19285  0.72200  1.0000
  C   C3714     1.0  0.69064  0.19151  0.72775  1.0000
  C   C3715     1.0  0.69041  0.20229  0.74317  1.0000
  P   P122      1.0  0.70268  0.17433  0.71671  1.0000
  C   C3716     1.0  0.70069  0.14737  0.72813  1.0000
  C   C3717     1.0  0.70498  0.17995  0.68825  1.0000
  C   C3718     1.0  0.71281  0.16571  0.67713  1.0000
  C   C3719     1.0  0.71439  0.16914  0.65518  1.0000
  C   C3720     1.0  0.70833  0.18713  0.64411  1.0000
  C   C3721     1.0  0.70090  0.20197  0.65496  1.0000
  C   C3722     1.0  0.69926  0.19849  0.67694  1.0000
  C   C3723     1.0  0.70132  0.13804  0.74927  1.0000
  C   C3724     1.0  0.69994  0.11707  0.75812  1.0000
  C   C3725     1.0  0.69762  0.10551  0.74612  1.0000
  C   C3726     1.0  0.69651  0.11502  0.72539  1.0000
  C   C3727     1.0  0.69798  0.13591  0.71643  1.0000
  C   C3728     1.0  0.71435  0.17882  0.72188  1.0000
  C   C3729     1.0  0.71629  0.19961  0.71589  1.0000
  C   C3730     1.0  0.72572  0.20320  0.71806  1.0000
  C   C3731     1.0  0.73328  0.18605  0.72626  1.0000
  C   C3732     1.0  0.73144  0.16532  0.73218  1.0000
  C   C3733     1.0  0.72207  0.16167  0.72982  1.0000
  H   H2959     1.0  0.68065  0.22328  0.76381  1.0000
  H   H2960     1.0  0.66409  0.22659  0.75236  1.0000
  H   H2961     1.0  0.66443  0.20705  0.72553  1.0000
  H   H2962     1.0  0.68107  0.18423  0.71053  1.0000
  H   H2963     1.0  0.69755  0.20094  0.74844  1.0000
  H   H2964     1.0  0.71755  0.15173  0.68555  1.0000
  H   H2965     1.0  0.72018  0.15764  0.64681  1.0000
  H   H2966     1.0  0.70932  0.18946  0.62719  1.0000
  H   H2967     1.0  0.69609  0.21579  0.64646  1.0000
  H   H2968     1.0  0.69335  0.21008  0.68494  1.0000
  H   H2969     1.0  0.70311  0.14681  0.75874  1.0000
  H   H2970     1.0  0.70086  0.10963  0.77414  1.0000
  H   H2971     1.0  0.69684  0.08906  0.75270  1.0000
  H   H2972     1.0  0.69492  0.10587  0.71596  1.0000
  H   H2973     1.0  0.69719  0.14280  0.70026  1.0000
  H   H2974     1.0  0.71059  0.21292  0.70909  1.0000
  H   H2975     1.0  0.72724  0.21920  0.71307  1.0000
  H   H2976     1.0  0.74066  0.18868  0.72774  1.0000
  H   H2977     1.0  0.73741  0.15192  0.73811  1.0000
  H   H2978     1.0  0.72108  0.14536  0.73363  1.0000
  C   C3734     1.0  0.76458  0.14090  0.79377  1.0000
  H   H2979     1.0  0.63941  0.12357  0.58868  1.0000
  C   C3735     1.0  0.66533  0.40326  0.71430  1.0000
  C   C3736     1.0  0.69438  0.25123  0.56406  1.0000
  H   H2980     1.0  0.74643  0.42126  0.90268  1.0000
  C   C3737     1.0  0.71465  0.28698  0.74914  1.0000
  C   C3738     1.0  0.64797  0.12097  0.58501  1.0000
  C   C3739     1.0  0.66550  0.09829  0.57762  1.0000
  C   C3740     1.0  0.72166  0.30096  0.74176  1.0000
  C   C3741     1.0  0.72172  0.31517  0.72214  1.0000
  H   H2981     1.0  0.72667  0.30156  0.75170  1.0000
  H   H2982     1.0  0.72676  0.32675  0.71692  1.0000
  H   H2983     1.0  0.71449  0.32699  0.69510  1.0000
  C   C3742     1.0  0.70885  0.38406  0.67178  1.0000
  C   C3743     1.0  0.71638  0.39132  0.65420  1.0000
  C   C3744     1.0  0.71320  0.40314  0.63550  1.0000
  C   C3745     1.0  0.70244  0.40818  0.63456  1.0000
  C   C3746     1.0  0.69475  0.40187  0.65255  1.0000
  C   C3747     1.0  0.69811  0.38912  0.67088  1.0000
  P   P123      1.0  0.68073  0.40910  0.65206  1.0000
  C   C3748     1.0  0.67322  0.41544  0.67723  1.0000
  C   C3749     1.0  0.67813  0.43221  0.63101  1.0000
  C   C3750     1.0  0.68280  0.44976  0.62757  1.0000
  C   C3751     1.0  0.78289  0.23529  0.89581  1.0000
  H   H2984     1.0  0.78105  0.09394  0.68414  1.0000
  C   C3752     1.0  0.66949  0.45080  0.60163  1.0000
  C   C3753     1.0  0.67144  0.43290  0.61791  1.0000
  C   C3754     1.0  0.67075  0.39884  0.69454  1.0000
  C   C3755     1.0  0.66457  0.44104  0.69984  1.0000
  C   C3756     1.0  0.66999  0.43667  0.68001  1.0000
  C   C3757     1.0  0.67684  0.38666  0.64831  1.0000
  C   C3758     1.0  0.66614  0.38489  0.65494  1.0000
  C   C3759     1.0  0.66308  0.36763  0.65196  1.0000
  H   H2985     1.0  0.61863  0.26100  0.58202  1.0000
  C   C3760     1.0  0.61242  0.21256  0.59236  1.0000
  H   H2986     1.0  0.60317  0.14082  0.50612  1.0000
  H   H2987     1.0  0.71132  0.37453  0.68620  1.0000
  H   H2988     1.0  0.72469  0.38758  0.65505  1.0000
  H   H2989     1.0  0.71909  0.40834  0.62172  1.0000
  H   H2990     1.0  0.70020  0.41696  0.61980  1.0000
  H   H2991     1.0  0.69244  0.38310  0.68456  1.0000
  H   H2992     1.0  0.68795  0.44964  0.63752  1.0000
  H   H2993     1.0  0.77415  0.19830  0.91709  1.0000
  H   H2994     1.0  0.71689  0.46411  0.67746  1.0000
  H   H2995     1.0  0.74296  0.48064  0.79323  1.0000
  H   H2996     1.0  0.66771  0.41968  0.62013  1.0000
  H   H2997     1.0  0.67312  0.38239  0.69283  1.0000
  H   H2998     1.0  0.66227  0.45736  0.70208  1.0000
  H   H2999     1.0  0.67169  0.44992  0.66713  1.0000
  H   H3000     1.0  0.66016  0.39671  0.66258  1.0000
  C   C3761     1.0  0.66231  0.42433  0.71700  1.0000
  C   C3762     1.0  0.59882  0.14115  0.52208  1.0000
  H   H3001     1.0  0.58859  0.26754  0.55478  1.0000
  C   C3763     1.0  0.67064  0.35213  0.64221  1.0000
  C   C3764     1.0  0.70181  0.44389  0.96384  1.0000
  H   H3002     1.0  0.77734  0.00101  0.86614  1.0000
  H   H3003     1.0  0.59372  0.06776  0.64470  1.0000
  C   C3765     1.0  0.77827  0.25711  0.89475  1.0000
  H   H3004     1.0  0.60504  0.28698  0.64791  1.0000
  H   H3005     1.0  0.60982  0.20529  0.55459  1.0000
  C   C3766     1.0  0.78145  0.08897  0.71687  1.0000
  H   H3006     1.0  0.59067  0.06141  0.60908  1.0000
  C   C3767     1.0  0.58974  0.13246  0.53024  1.0000
  C   C3768     1.0  0.71666  0.13514  0.53593  1.0000
  C   C3769     1.0  0.71363  0.12589  0.55735  1.0000
  C   C3770     1.0  0.70287  0.12904  0.56739  1.0000
  C   C3771     1.0  0.69513  0.14139  0.55606  1.0000
  C   C3772     1.0  0.69810  0.15090  0.53460  1.0000
  C   C3773     1.0  0.70894  0.14771  0.52459  1.0000
  P   P124      1.0  0.68805  0.16805  0.52057  1.0000
  C   C3774     1.0  0.67758  0.15393  0.52488  1.0000
  C   C3775     1.0  0.68280  0.19294  0.52963  1.0000
  C   C3776     1.0  0.67605  0.20992  0.51877  1.0000
  C   C3777     1.0  0.67156  0.22877  0.52623  1.0000
  C   C3778     1.0  0.67393  0.23112  0.54428  1.0000
  C   C3779     1.0  0.68072  0.21448  0.55506  1.0000
  C   C3780     1.0  0.68514  0.19545  0.54782  1.0000
  C   C3781     1.0  0.66685  0.16474  0.52684  1.0000
  C   C3782     1.0  0.65901  0.15377  0.52857  1.0000
  C   C3783     1.0  0.66178  0.13202  0.52816  1.0000
  C   C3784     1.0  0.67239  0.12105  0.52672  1.0000
  C   C3785     1.0  0.68021  0.13190  0.52536  1.0000
  S   S510      1.0  0.70409  0.09157  0.50384  1.0000
  H   H3007     1.0  0.74042  0.39400  0.93316  1.0000
  H   H3008     1.0  0.72498  0.13243  0.52806  1.0000
  H   H3009     1.0  0.71958  0.11606  0.56615  1.0000
  H   H3010     1.0  0.70051  0.12186  0.58398  1.0000
  H   H3011     1.0  0.68686  0.14392  0.56422  1.0000
  H   H3012     1.0  0.71148  0.15477  0.50805  1.0000
  H   H3013     1.0  0.66362  0.43550  0.92233  1.0000
  C   C3786     1.0  0.67232  0.31697  0.51048  1.0000
  H   H3014     1.0  0.67040  0.24573  0.55008  1.0000
  H   H3015     1.0  0.68244  0.21619  0.56923  1.0000
  H   H3016     1.0  0.69029  0.18283  0.55666  1.0000
  H   H3017     1.0  0.66441  0.18156  0.52704  1.0000
  C   C3787     1.0  0.70923  0.02190  0.82090  1.0000
  H   H3018     1.0  0.65571  0.12362  0.52918  1.0000
  H   H3019     1.0  0.67462  0.10410  0.52663  1.0000
  H   H3020     1.0  0.68837  0.12312  0.52434  1.0000
  H   H3021     1.0  0.77561  0.33433  0.82889  1.0000
  H   H3022     1.0  0.65956  0.08477  0.54030  1.0000
  C   C3788     1.0  0.72085  0.35855  0.79146  1.0000
  C   C3789     1.0  0.71921  0.37237  0.80485  1.0000
  C   C3790     1.0  0.72787  0.37556  0.81038  1.0000
  C   C3791     1.0  0.73813  0.36423  0.80322  1.0000
  C   C3792     1.0  0.73983  0.34995  0.79006  1.0000
  C   C3793     1.0  0.73108  0.34730  0.78414  1.0000
  P   P125      1.0  0.75316  0.33526  0.78128  1.0000
  C   C3794     1.0  0.76109  0.35262  0.76196  1.0000
  C   C3795     1.0  0.75876  0.32458  0.80452  1.0000
  C   C3796     1.0  0.76658  0.33334  0.80735  1.0000
  H   H3023     1.0  0.75299  0.43819  0.96140  1.0000
  H   H3024     1.0  0.76082  0.01564  0.82865  1.0000
  C   C3797     1.0  0.75802  0.30234  0.83997  1.0000
  C   C3798     1.0  0.75440  0.30931  0.82112  1.0000
  C   C3799     1.0  0.77099  0.34360  0.75040  1.0000
  H   H3025     1.0  0.76053  0.00166  0.96934  1.0000
  C   C3800     1.0  0.67231  0.48037  0.79737  1.0000
  C   C3801     1.0  0.76378  0.38800  0.74294  1.0000
  C   C3802     1.0  0.75757  0.37494  0.75824  1.0000
  C   C3803     1.0  0.75299  0.31505  0.76811  1.0000
  H   H3026     1.0  0.78245  0.46136  0.77262  1.0000
  C   C3804     1.0  0.67418  0.46815  0.59831  1.0000
  H   H3027     1.0  0.68445  0.48110  0.60872  1.0000
  C   C3805     1.0  0.72211  0.46584  0.88641  1.0000
  S   S511      1.0  0.77543  0.43674  0.69597  1.0000
  H   H3028     1.0  0.71415  0.35603  0.78714  1.0000
  H   H3029     1.0  0.71120  0.38022  0.81121  1.0000
  H   H3030     1.0  0.72665  0.38665  0.82041  1.0000
  H   H3031     1.0  0.74472  0.36653  0.80805  1.0000
  H   H3032     1.0  0.73196  0.33637  0.77424  1.0000
  H   H3033     1.0  0.76968  0.34602  0.79532  1.0000
  P   P126      1.0  0.74945  0.36929  0.97089  1.0000
  H   H3034     1.0  0.70425  0.47592  0.95517  1.0000
  H   H3035     1.0  0.75426  0.29117  0.85295  1.0000
  H   H3036     1.0  0.74789  0.30338  0.81979  1.0000
  C   C3806     1.0  0.58986  0.06344  0.66118  1.0000
  C   C3807     1.0  0.76296  0.02666  0.83511  1.0000
  C   C3808     1.0  0.74981  0.32156  0.74868  1.0000
  H   H3037     1.0  0.76093  0.40522  0.73999  1.0000
  H   H3038     1.0  0.74999  0.38246  0.76676  1.0000
  H   H3039     1.0  0.70095  0.41094  0.96851  1.0000
  S   S512      1.0  0.75162  0.45198  0.72425  1.0000
  C   C3809     1.0  0.61863  0.27969  0.53475  1.0000
  H   H3040     1.0  0.68175  0.25332  0.68591  1.0000
  C   C3810     1.0  0.69564  0.23491  0.77945  1.0000
  C   C3811     1.0  0.71852  0.49080  0.70207  1.0000
  C   C3812     1.0  0.71482  0.31531  0.70985  1.0000
  C   C3813     1.0  0.76643  0.40708  0.84160  1.0000
  C   C3814     1.0  0.67762  0.26347  0.71540  1.0000
  C   C3815     1.0  0.73254  0.00733  0.76645  1.0000
  S   S513      1.0  0.76997  0.04163  0.72695  1.0000
  H   H3041     1.0  0.71430  0.27693  0.76487  1.0000
  C   C3816     1.0  0.66172  0.06793  0.54739  1.0000
  H   H3042     1.0  0.62400  0.17324  0.55132  1.0000
  H   H3043     1.0  0.75591  0.01502  0.75591  1.0000
  C   C3817     1.0  0.70782  0.30134  0.71718  1.0000
  C   C3818     1.0  0.69563  0.25543  0.69505  1.0000
  H   H3044     1.0  0.70111  0.25046  0.68124  1.0000
  C   C3819     1.0  0.78489  0.42130  0.81837  1.0000
  C   C3820     1.0  0.68139  0.26807  0.73071  1.0000
  H   H3045     1.0  0.67574  0.27240  0.74460  1.0000
  C   C3821     1.0  0.73644  0.35632  0.95280  1.0000
  H   H3046     1.0  0.67879  0.26439  0.58087  1.0000
  C   C3822     1.0  0.61979  0.27951  0.61287  1.0000
  C   C3823     1.0  0.70774  0.28692  0.73680  1.0000
  H   H3047     1.0  0.69491  0.27347  0.79232  1.0000
  C   C3824     1.0  0.62292  0.18582  0.53742  1.0000
  C   C3825     1.0  0.65441  0.10102  0.58175  1.0000
  C   C3826     1.0  0.68198  0.28153  0.54844  1.0000
  C   C3827     1.0  0.68453  0.26565  0.56591  1.0000
  C   C3828     1.0  0.70170  0.25266  0.54468  1.0000
  C   C3829     1.0  0.73635  0.46046  0.85593  1.0000
  C   C3830     1.0  0.61407  0.24871  0.58926  1.0000
  C   C3831     1.0  0.69231  0.26695  0.72802  1.0000
  C   C3832     1.0  0.69941  0.26035  0.71017  1.0000
  H   H3048     1.0  0.65833  0.42770  0.73247  1.0000
  C   C3833     1.0  0.72230  0.41685  0.75611  1.0000
  H   H3049     1.0  0.76774  0.38967  0.95775  1.0000
  H   H3050     1.0  0.76936  0.08948  0.78854  1.0000
  H   H3051     1.0  0.70788  0.25898  0.70796  1.0000
  C   C3834     1.0  0.65462  0.04998  0.64367  1.0000
  C   C3835     1.0  0.67280  0.31818  0.76991  1.0000
  H   H3052     1.0  0.68248  0.29756  0.81464  1.0000
  H   H3053     1.0  0.66357  0.39028  0.72758  1.0000
  C   C3836     1.0  0.68934  0.28323  0.52896  1.0000
  Fe  Fe254     1.0  0.75418  0.48548  0.71248  1.0000
  H   H3054     1.0  0.63227  0.05642  0.61458  1.0000
  C   C3837     1.0  0.77204  0.01419  0.73822  1.0000
  C   C3838     1.0  0.76421  0.12364  0.78608  1.0000
  C   C3839     1.0  0.68857  0.28540  0.78606  1.0000
  H   H3055     1.0  0.69626  0.23883  0.57759  1.0000
  H   H3056     1.0  0.69409  0.20598  0.80320  1.0000
  H   H3057     1.0  0.65891  0.18297  0.60104  1.0000
  P   P127      1.0  0.69741  0.27186  0.74809  1.0000
  C   C3840     1.0  0.76899  0.34546  0.97991  1.0000
  C   C3841     1.0  0.76936  0.10289  0.79468  1.0000
  C   C3842     1.0  0.68155  0.29905  0.79877  1.0000
  H   H3058     1.0  0.70210  0.30263  0.70799  1.0000
  C   C3843     1.0  0.65777  0.06017  0.56891  1.0000
  C   C3844     1.0  0.66809  0.05387  0.53458  1.0000
  H   H3059     1.0  0.76075  0.15698  0.78707  1.0000
  H   H3060     1.0  0.59364  0.08906  0.66955  1.0000
  C   C3845     1.0  0.69919  0.26857  0.52720  1.0000
  C   C3846     1.0  0.64727  0.06440  0.61216  1.0000
  C   C3847     1.0  0.66065  0.03814  0.57757  1.0000
  H   H3061     1.0  0.73450  0.03186  0.67071  1.0000
  H   H3062     1.0  0.67598  0.02123  0.53321  1.0000
  Fe  Fe255     1.0  0.64437  0.25282  0.49870  1.0000
  H   H3063     1.0  0.70342  0.30965  0.52075  1.0000
  C   C3848     1.0  0.67090  0.03200  0.54321  1.0000
  H   H3064     1.0  0.65787  0.03164  0.59416  1.0000
  C   C3849     1.0  0.66387  0.48235  0.78796  1.0000
  C   C3850     1.0  0.74971  0.30640  0.73797  1.0000
  C   C3851     1.0  0.72341  0.00383  0.69867  1.0000
  C   C3852     1.0  0.59870  0.23603  0.61253  1.0000
  C   C3853     1.0  0.78049  0.01791  0.92952  1.0000
  C   C3854     1.0  0.65534  0.06175  0.62288  1.0000
  C   C3855     1.0  0.72685  0.35243  0.95193  1.0000
  H   H3065     1.0  0.70928  0.24130  0.54317  1.0000
  H   H3066     1.0  0.66268  0.14504  0.61991  1.0000
  H   H3067     1.0  0.67867  0.11253  0.57381  1.0000
  C   C3856     1.0  0.67368  0.31544  0.79071  1.0000
  C   C3857     1.0  0.63603  0.08708  0.57684  1.0000
  C   C3858     1.0  0.59156  0.29517  0.57522  1.0000
  H   H3068     1.0  0.67061  0.08297  0.57558  1.0000
  H   H3069     1.0  0.66851  0.32645  0.80040  1.0000
  H   H3070     1.0  0.71852  0.24293  0.74355  1.0000
  H   H3071     1.0  0.70489  0.26931  0.51220  1.0000
  C   C3859     1.0  0.64589  0.04061  0.65389  1.0000
  H   H3072     1.0  0.62667  0.22735  0.64337  1.0000
  C   C3860     1.0  0.70249  0.24560  0.76270  1.0000
  C   C3861     1.0  0.67981  0.30454  0.75719  1.0000
  C   C3862     1.0  0.77451  0.09953  0.81139  1.0000
  S   S514      1.0  0.65641  0.09002  0.49048  1.0000
  C   C3863     1.0  0.76922  0.13737  0.81103  1.0000
  H   H3073     1.0  0.76886  0.15074  0.81761  1.0000
  C   C3864     1.0  0.71786  0.35573  0.96811  1.0000
  H   H3074     1.0  0.68735  0.24259  0.78411  1.0000
  H   H3075     1.0  0.63780  0.11690  0.71240  1.0000
  C   C3865     1.0  0.71314  0.23514  0.75669  1.0000
  H   H3076     1.0  0.66562  0.48439  0.86540  1.0000
  H   H3077     1.0  0.65335  0.18840  0.69697  1.0000
  C   C3866     1.0  0.77405  0.11666  0.82017  1.0000
  H   H3078     1.0  0.62570  0.22588  0.57265  1.0000
  H   H3079     1.0  0.66226  0.06859  0.61523  1.0000
  C   C3867     1.0  0.69942  0.21414  0.79024  1.0000
  C   C3868     1.0  0.65577  0.17858  0.61788  1.0000
  H   H3080     1.0  0.64807  0.21090  0.62079  1.0000
  H   H3081     1.0  0.66691  0.33126  0.76339  1.0000
  C   C3869     1.0  0.74026  0.45442  0.94498  1.0000
  H   H3082     1.0  0.66608  0.14767  0.67813  1.0000
  P   P128      1.0  0.72427  0.47549  0.92234  1.0000
  C   C3870     1.0  0.64976  0.19434  0.62907  1.0000
  H   H3083     1.0  0.77640  0.04511  0.76463  1.0000
  H   H3084     1.0  0.67949  0.12808  0.69910  1.0000
  C   C3871     1.0  0.71692  0.21443  0.76762  1.0000
  H   H3085     1.0  0.66824  0.33854  0.64035  1.0000
  C   C3872     1.0  0.75287  0.28456  0.74642  1.0000
  H   H3086     1.0  0.72517  0.20645  0.76310  1.0000
  C   C3873     1.0  0.63786  0.04304  0.64332  1.0000
  H   H3087     1.0  0.63526  0.31621  0.59068  1.0000
  C   C3874     1.0  0.71006  0.20391  0.78433  1.0000
  C   C3875     1.0  0.67112  0.12983  0.70663  1.0000
  H   H3088     1.0  0.70656  0.48469  0.76199  1.0000
  H   H3089     1.0  0.72162  0.40028  0.75978  1.0000
  H   H3090     1.0  0.73345  0.41084  0.77597  1.0000
  C   C3876     1.0  0.68440  0.37097  0.63857  1.0000
  C   C3877     1.0  0.61475  0.20402  0.53915  1.0000
  C   C3878     1.0  0.65720  0.12371  0.73780  1.0000
  S   S515      1.0  0.62106  0.25469  0.67532  1.0000
  C   C3879     1.0  0.66346  0.14080  0.69466  1.0000
  C   C3880     1.0  0.64600  0.18876  0.65093  1.0000
  S   S516      1.0  0.74966  0.43669  0.67425  1.0000
  H   H3091     1.0  0.77584  0.32000  0.92455  1.0000
  C   C3881     1.0  0.61811  0.22878  0.58368  1.0000
  H   H3092     1.0  0.64900  0.32545  0.49515  1.0000
  C   C3882     1.0  0.58988  0.07547  0.67520  1.0000
  H   H3093     1.0  0.72044  0.45725  0.85906  1.0000
  Fe  Fe256     1.0  0.76844  0.44326  0.72855  1.0000
  H   H3094     1.0  0.71300  0.18782  0.79270  1.0000
  C   C3883     1.0  0.66800  0.12106  0.72813  1.0000
  C   C3884     1.0  0.65399  0.15145  0.65031  1.0000
  H   H3095     1.0  0.64135  0.20122  0.65930  1.0000
  S   S517      1.0  0.60112  0.16301  0.57073  1.0000
  H   H3096     1.0  0.64163  0.07567  0.54745  1.0000
  H   H3097     1.0  0.62754  0.10014  0.60450  1.0000
  C   C3885     1.0  0.61342  0.21159  0.65100  1.0000
  C   C3886     1.0  0.64815  0.16725  0.66172  1.0000
  H   H3098     1.0  0.65561  0.13473  0.65833  1.0000
  C   C3887     1.0  0.60565  0.23220  0.68491  1.0000
  C   C3888     1.0  0.61524  0.23558  0.67109  1.0000
  H   H3099     1.0  0.61464  0.21376  0.72334  1.0000
  C   C3889     1.0  0.61390  0.30049  0.52581  1.0000
  C   C3890     1.0  0.64953  0.13497  0.72592  1.0000
  C   C3891     1.0  0.64487  0.19357  0.70297  1.0000
  H   H3100     1.0  0.65476  0.11712  0.75451  1.0000
  H   H3101     1.0  0.64691  0.21912  0.71421  1.0000
  H   H3102     1.0  0.72630  0.34716  0.93850  1.0000
  P   P129      1.0  0.64263  0.15955  0.68960  1.0000
  C   C3892     1.0  0.64125  0.21106  0.71268  1.0000
  Fe  Fe257     1.0  0.60426  0.12117  0.64231  1.0000
  C   C3893     1.0  0.61903  0.32094  0.58796  1.0000
  H   H3103     1.0  0.67788  0.26748  0.50333  1.0000
  H   H3104     1.0  0.59863  0.28510  0.56770  1.0000
  S   S518      1.0  0.60914  0.15156  0.62295  1.0000
  C   C3894     1.0  0.63761  0.18292  0.70093  1.0000
  C   C3895     1.0  0.63503  0.08391  0.55770  1.0000
  C   C3896     1.0  0.71570  0.99722  0.69310  1.0000
  C   C3897     1.0  0.71643  0.43232  0.74243  1.0000
  H   H3105     1.0  0.69077  0.45663  0.73141  1.0000
  C   C3898     1.0  0.60354  0.20910  0.66461  1.0000
  H   H3106     1.0  0.77373  0.14571  0.89204  1.0000
  C   C3899     1.0  0.62707  0.09773  0.58953  1.0000
  C   C3900     1.0  0.63036  0.21838  0.71997  1.0000
  C   C3901     1.0  0.63214  0.14653  0.69129  1.0000
  C   C3902     1.0  0.63162  0.12606  0.70402  1.0000
  C   C3903     1.0  0.62863  0.28865  0.60740  1.0000
  C   C3904     1.0  0.61012  0.31182  0.59336  1.0000
  H   H3107     1.0  0.63580  0.27956  0.61277  1.0000
  H   H3108     1.0  0.60305  0.32112  0.58777  1.0000
  C   C3905     1.0  0.62812  0.19993  0.49995  1.0000
  H   H3109     1.0  0.68936  0.04306  0.85811  1.0000
  Fe  Fe258     1.0  0.75870  0.44872  0.69083  1.0000
  H   H3110     1.0  0.72957  0.42840  0.67405  1.0000
  Fe  Fe259     1.0  0.77635  0.47141  0.68726  1.0000
  H   H3111     1.0  0.70144  0.05420  0.82377  1.0000
  H   H3112     1.0  0.73717  0.44019  0.94814  1.0000
  H   H3113     1.0  0.67409  0.20844  0.50473  1.0000
  H   H3114     1.0  0.67265  0.48199  0.58568  1.0000
  C   C3906     1.0  0.62667  0.19014  0.70855  1.0000
  H   H3115     1.0  0.62753  0.23249  0.72672  1.0000
  C   C3907     1.0  0.59330  0.27530  0.63985  1.0000
  H   H3116     1.0  0.70790  0.00772  0.69278  1.0000
  C   C3908     1.0  0.62953  0.18369  0.51777  1.0000
  Fe  Fe260     1.0  0.68858  0.49286  0.87218  1.0000
  C   C3909     1.0  0.71493  0.41817  0.94551  1.0000
  C   C3910     1.0  0.62309  0.20786  0.71800  1.0000
  C   C3911     1.0  0.62445  0.15698  0.67918  1.0000
  H   H3117     1.0  0.62484  0.17255  0.66890  1.0000
  H   H3118     1.0  0.68336  0.43947  0.71237  1.0000
  C   C3912     1.0  0.66508  0.31526  0.49973  1.0000
  H   H3119     1.0  0.74727  0.33845  0.74193  1.0000
  H   H3120     1.0  0.74404  0.08808  0.67139  1.0000
  C   C3913     1.0  0.62529  0.09132  0.55145  1.0000
  S   S519      1.0  0.72217  0.48989  0.81823  1.0000
  H   H3121     1.0  0.60897  0.10788  0.55917  1.0000
  C   C3914     1.0  0.62323  0.11670  0.70530  1.0000
  H   H3122     1.0  0.62087  0.18236  0.70715  1.0000
  H   H3123     1.0  0.62293  0.10082  0.71496  1.0000
  H   H3124     1.0  0.77856  0.08371  0.81781  1.0000
  C   C3915     1.0  0.61742  0.10545  0.58298  1.0000
  H   H3125     1.0  0.61068  0.11425  0.59248  1.0000
  C   C3916     1.0  0.61649  0.10210  0.56408  1.0000
  H   H3126     1.0  0.62459  0.08880  0.53671  1.0000
  C   C3917     1.0  0.59253  0.28060  0.67461  1.0000
  H   H3127     1.0  0.64311  0.34967  0.52020  1.0000
  H   H3128     1.0  0.74520  0.47378  0.89219  1.0000
  H   H3129     1.0  0.63941  0.13639  0.50076  1.0000
  H   H3130     1.0  0.75276  0.27282  0.73813  1.0000
  C   C3918     1.0  0.61556  0.12729  0.69331  1.0000
  C   C3919     1.0  0.72579  0.46073  0.86653  1.0000
  H   H3131     1.0  0.76047  0.47025  0.95395  1.0000
  C   C3920     1.0  0.74207  0.01825  0.80820  1.0000
  C   C3921     1.0  0.72898  0.42272  0.76520  1.0000
  H   H3132     1.0  0.77542  0.10327  0.71936  1.0000
  H   H3133     1.0  0.72533  0.47570  0.74230  1.0000
  S   S520      1.0  0.59247  0.12170  0.62399  1.0000
  H   H3134     1.0  0.77385  0.32638  0.75311  1.0000
  C   C3922     1.0  0.59589  0.24958  0.50040  1.0000
  C   C3923     1.0  0.77502  0.43568  0.81973  1.0000
  C   C3924     1.0  0.71701  0.45498  0.93782  1.0000
  S   S521      1.0  0.69416  0.47785  0.84398  1.0000
  H   H3135     1.0  0.77952  0.02039  0.81921  1.0000
  H   H3136     1.0  0.66077  0.04844  0.65195  1.0000
  H   H3137     1.0  0.63575  0.16949  0.51632  1.0000
  C   C3925     1.0  0.75625  0.27792  0.76552  1.0000
  C   C3926     1.0  0.59684  0.15061  0.55563  1.0000
  H   H3138     1.0  0.61032  0.15558  0.67073  1.0000
  H   H3139     1.0  0.69499  0.14043  0.48962  1.0000
  C   C3927     1.0  0.60161  0.28648  0.51556  1.0000
  C   C3928     1.0  0.75639  0.29308  0.77627  1.0000
  C   C3929     1.0  0.59187  0.23665  0.54710  1.0000
  H   H3140     1.0  0.60249  0.24013  0.69806  1.0000
  H   H3141     1.0  0.73222  0.02737  0.73557  1.0000
  C   C3930     1.0  0.74417  0.07114  0.67733  1.0000
  C   C3931     1.0  0.72430  0.45937  0.74626  1.0000
  H   H3142     1.0  0.59330  0.19078  0.51467  1.0000
  C   C3932     1.0  0.70953  0.45906  0.68537  1.0000
  H   H3143     1.0  0.77564  0.01880  0.96252  1.0000
  C   C3933     1.0  0.69062  0.44511  0.70473  1.0000
  H   H3144     1.0  0.73456  0.07006  0.65689  1.0000
  H   H3145     1.0  0.75375  0.06729  0.69963  1.0000
  C   C3934     1.0  0.61288  0.21997  0.52113  1.0000
  Fe  Fe261     1.0  0.59642  0.15338  0.60618  1.0000
  C   C3935     1.0  0.77843  0.18552  0.90888  1.0000
  H   H3146     1.0  0.75921  0.28750  0.79079  1.0000
  C   C3936     1.0  0.73880  0.06100  0.66923  1.0000
  C   C3937     1.0  0.74952  0.05951  0.69343  1.0000
  H   H3147     1.0  0.60929  0.15721  0.52820  1.0000
  H   H3148     1.0  0.71125  0.42738  0.73575  1.0000
  C   C3938     1.0  0.76349  0.99748  0.93752  1.0000
  C   C3939     1.0  0.72062  0.43404  0.93426  1.0000
  H   H3149     1.0  0.59828  0.20365  0.61338  1.0000
  H   H3150     1.0  0.78483  0.34983  0.72619  1.0000
  H   H3151     1.0  0.73085  0.46372  0.69401  1.0000
  H   H3152     1.0  0.72766  0.43009  0.92230  1.0000
  C   C3940     1.0  0.74368  0.02773  0.69415  1.0000
  H   H3153     1.0  0.62532  0.27704  0.54195  1.0000
  H   H3154     1.0  0.78333  0.01465  0.89738  1.0000
  C   C3941     1.0  0.77361  0.37902  0.73144  1.0000
  C   C3942     1.0  0.74932  0.03788  0.70174  1.0000
  H   H3155     1.0  0.69430  0.44787  0.97477  1.0000
  C   C3943     1.0  0.60652  0.26544  0.52406  1.0000
  C   C3944     1.0  0.73550  0.47381  0.93313  1.0000
  H   H3156     1.0  0.66607  0.24144  0.51822  1.0000
  C   C3945     1.0  0.77338  0.01561  0.78539  1.0000
  C   C3946     1.0  0.73864  0.03931  0.67742  1.0000
  H   H3157     1.0  0.75353  0.02910  0.71419  1.0000
  C   C3947     1.0  0.76836  0.48624  0.77333  1.0000
  H   H3158     1.0  0.68715  0.34148  0.62836  1.0000
  H   H3159     1.0  0.62022  0.26346  0.62258  1.0000
  H   H3160     1.0  0.71040  0.35306  0.96707  1.0000
  H   H3161     1.0  0.61902  0.24616  0.54012  1.0000
  S   S522      1.0  0.77446  0.42001  0.75631  1.0000
  C   C3948     1.0  0.70541  0.44880  0.67488  1.0000
  C   C3949     1.0  0.74922  0.45321  0.95251  1.0000
  C   C3950     1.0  0.77723  0.35679  0.73519  1.0000
  H   H3162     1.0  0.69469  0.20573  0.48934  1.0000
  C   C3951     1.0  0.76017  0.34562  0.97234  1.0000
  C   C3952     1.0  0.73476  0.01129  0.74436  1.0000
  H   H3163     1.0  0.65684  0.49493  0.79044  1.0000
  C   C3953     1.0  0.70772  0.33829  0.50006  1.0000
  C   C3954     1.0  0.72987  0.44404  0.76043  1.0000
  S   S523      1.0  0.59480  0.19527  0.66084  1.0000
  H   H3164     1.0  0.74712  0.31168  0.72313  1.0000
  H   H3165     1.0  0.77182  0.26478  0.88656  1.0000
  Fe  Fe262     1.0  0.59582  0.16792  0.64564  1.0000
  C   C3955     1.0  0.65457  0.32695  0.50338  1.0000
  C   C3956     1.0  0.77812  0.15565  0.89510  1.0000
  H   H3166     1.0  0.64523  0.03197  0.67019  1.0000
  C   C3957     1.0  0.61503  0.26221  0.53372  1.0000
  C   C3958     1.0  0.60232  0.15033  0.53470  1.0000
  H   H3167     1.0  0.69281  0.43364  0.67665  1.0000
  C   C3959     1.0  0.69906  0.49098  0.73545  1.0000
  C   C3960     1.0  0.59983  0.21935  0.68160  1.0000
  C   C3961     1.0  0.65125  0.34063  0.51750  1.0000
  C   C3962     1.0  0.77407  0.01398  0.94978  1.0000
  C   C3963     1.0  0.70176  0.32235  0.50732  1.0000
  H   H3168     1.0  0.71385  0.46623  0.89433  1.0000
  H   H3169     1.0  0.63093  0.03634  0.65145  1.0000
  C   C3964     1.0  0.69484  0.45492  0.71547  1.0000
  P   P130      1.0  0.60178  0.24278  0.52317  1.0000
  C   C3965     1.0  0.70180  0.03734  0.83091  1.0000
  C   C3966     1.0  0.58973  0.29477  0.59680  1.0000
  H   H3170     1.0  0.73902  0.45675  0.84036  1.0000
  H   H3171     1.0  0.65078  0.16221  0.53030  1.0000
  H   H3172     1.0  0.73500  0.44876  0.76740  1.0000
  H   H3173     1.0  0.77648  0.37596  0.84784  1.0000
  C   C3967     1.0  0.77272  0.17290  0.90477  1.0000
  H   H3174     1.0  0.75146  0.46525  0.85688  1.0000
  S   S524      1.0  0.77031  0.47723  0.72014  1.0000
  H   H3175     1.0  0.69270  0.37187  0.63343  1.0000
  C   C3968     1.0  0.68129  0.35376  0.63556  1.0000
  H   H3176     1.0  0.72858  0.02041  0.77444  1.0000
  C   C3969     1.0  0.75976  0.32704  0.96671  1.0000
  C   C3970     1.0  0.77341  0.02947  0.82958  1.0000
  C   C3971     1.0  0.76552  0.00420  0.95366  1.0000
  C   C3972     1.0  0.78190  0.26906  0.90437  1.0000
  C   C3973     1.0  0.66895  0.33094  0.52448  1.0000
  C   C3974     1.0  0.77680  0.30902  0.97579  1.0000
  C   C3975     1.0  0.77840  0.01163  0.91308  1.0000
  H   H3177     1.0  0.76822  0.30647  0.85767  1.0000
  C   C3976     1.0  0.76585  0.31100  0.84262  1.0000
  H   H3178     1.0  0.76484  0.02079  0.78725  1.0000
  C   C3977     1.0  0.76806  0.30888  0.96839  1.0000
  C   C3978     1.0  0.76997  0.00110  0.91716  1.0000
  C   C3979     1.0  0.70427  0.46223  0.70579  1.0000
  C   C3980     1.0  0.60265  0.21632  0.60648  1.0000
  C   C3981     1.0  0.78604  0.49194  0.75440  1.0000
  C   C3982     1.0  0.78088  0.35007  0.91414  1.0000
  H   H3179     1.0  0.77839  0.38936  0.71968  1.0000
  S   S525      1.0  0.76045  0.48285  0.67873  1.0000
  C   C3983     1.0  0.65844  0.34262  0.52806  1.0000
  H   H3180     1.0  0.73550  0.00794  0.92254  1.0000
  C   C3984     1.0  0.72906  0.47035  0.89604  1.0000
  H   H3181     1.0  0.75013  0.48832  0.75454  1.0000
  C   C3985     1.0  0.72807  0.36661  0.98637  1.0000
  H   H3182     1.0  0.70966  0.44594  0.65939  1.0000
  C   C3986     1.0  0.72831  0.48102  0.69092  1.0000
  H   H3183     1.0  0.59296  0.20447  0.54417  1.0000
  C   C3987     1.0  0.77901  0.37101  0.90213  1.0000
  C   C3988     1.0  0.74329  0.46531  0.86522  1.0000
  H   H3184     1.0  0.78014  0.22651  0.88781  1.0000
  H   H3185     1.0  0.63356  0.09848  0.49841  1.0000
  C   C3989     1.0  0.68082  0.46763  0.61129  1.0000
  H   H3186     1.0  0.74324  0.35412  0.93977  1.0000
  C   C3990     1.0  0.69506  0.03104  0.85029  1.0000
  H   H3187     1.0  0.76320  0.47545  0.78273  1.0000
  C   C3991     1.0  0.75348  0.47129  0.94823  1.0000
  H   H3188     1.0  0.71755  0.40227  0.94212  1.0000
  H   H3189     1.0  0.67446  0.33271  0.53272  1.0000
  C   C3992     1.0  0.73987  0.49191  0.92882  1.0000
  P   P131      1.0  0.70976  0.47429  0.72027  1.0000
  H   H3190     1.0  0.76779  0.29485  0.96349  1.0000
  S   S526      1.0  0.77832  0.11321  0.84371  1.0000
  S   S527      1.0  0.59205  0.13701  0.66677  1.0000
  C   C3993     1.0  0.71847  0.36282  0.98533  1.0000
  H   H3191     1.0  0.72139  0.01924  0.70291  1.0000
  H   H3192     1.0  0.71459  0.02692  0.80611  1.0000
  H   H3193     1.0  0.74144  0.41269  0.97843  1.0000
  C   C3994     1.0  0.58717  0.99727  0.72351  1.0000
  H   H3194     1.0  0.66954  0.00724  0.57154  1.0000
  H   H3195     1.0  0.78286  0.07939  0.74917  1.0000
  C   C3995     1.0  0.58792  0.14153  0.56397  1.0000
  H   H3196     1.0  0.76957  0.35936  0.98456  1.0000
  H   H3197     1.0  0.59135  0.23791  0.62415  1.0000
  C   C3996     1.0  0.73739  0.00029  0.85156  1.0000
  C   C3997     1.0  0.78560  0.39964  0.82864  1.0000
  H   H3198     1.0  0.59017  0.01171  0.71964  1.0000
  C   C3998     1.0  0.77717  0.32721  0.98182  1.0000
  P   P132      1.0  0.74359  0.99976  0.70527  1.0000
  C   C3999     1.0  0.71006  0.00014  0.83030  1.0000
  C   C4000     1.0  0.58692  0.25177  0.55972  1.0000
  C   C4001     1.0  0.74768  0.99785  0.81631  1.0000
  H   H3199     1.0  0.76836  0.99610  0.90460  1.0000
  H   H3200     1.0  0.78389  0.32725  0.98780  1.0000
  Fe  Fe263     1.0  0.60906  0.85102  0.09672  1.0000
  H   H3201     1.0  0.78259  0.56159  0.34728  1.0000
  S   S528      1.0  0.62246  0.86830  0.07976  1.0000
  H   H3202     1.0  0.69957  0.65218  0.25411  1.0000
  H   H3203     1.0  0.70396  0.95897  0.32115  1.0000
  Fe  Fe264     1.0  0.67108  0.86777  0.11654  1.0000
  S   S529      1.0  0.67919  0.84787  0.09234  1.0000
  S   S530      1.0  0.65402  0.86949  0.13415  1.0000
  Fe  Fe265     1.0  0.69098  0.88299  0.11364  1.0000
  S   S531      1.0  0.70096  0.86471  0.08892  1.0000
  S   S532      1.0  0.69610  0.90510  0.12720  1.0000
  Fe  Fe266     1.0  0.68664  0.87578  0.07449  1.0000
  S   S533      1.0  0.68845  0.88696  0.03934  1.0000
  Fe  Fe267     1.0  0.69289  0.83806  0.10852  1.0000
  S   S534      1.0  0.70211  0.80387  0.11217  1.0000
  S   S535      1.0  0.67729  0.89682  0.09726  1.0000
  S   S536      1.0  0.68408  0.85525  0.13475  1.0000
  Fe  Fe268     1.0  0.76229  0.94753  0.13917  1.0000
  S   S537      1.0  0.75812  0.94433  0.17424  1.0000
  S   S538      1.0  0.77312  0.96778  0.11555  1.0000
  Fe  Fe269     1.0  0.74900  0.91586  0.14046  1.0000
  S   S539      1.0  0.74377  0.91012  0.17567  1.0000
  S   S540      1.0  0.74499  0.89727  0.12123  1.0000
  Fe  Fe270     1.0  0.74153  0.94569  0.17139  1.0000
  S   S541      1.0  0.72563  0.96609  0.18355  1.0000
  Fe  Fe271     1.0  0.76072  0.90925  0.17533  1.0000
  S   S542      1.0  0.76984  0.88050  0.19436  1.0000
  S   S543      1.0  0.74559  0.95149  0.13585  1.0000
  S   S544      1.0  0.76613  0.91230  0.14035  1.0000
  C   C4002     1.0  0.60957  0.74779  0.04814  1.0000
  C   C4003     1.0  0.70474  0.72417  0.06929  1.0000
  C   C4004     1.0  0.65946  0.56137  0.22313  1.0000
  H   H3204     1.0  0.59765  0.73347  0.10857  1.0000
  C   C4005     1.0  0.77532  0.53911  0.29358  1.0000
  H   H3205     1.0  0.73402  0.83087  0.99758  1.0000
  Fe  Fe272     1.0  0.76776  0.52068  0.38907  1.0000
  S   S545      1.0  0.76105  0.55382  0.37281  1.0000
  C   C4006     1.0  0.69218  0.52432  0.29547  1.0000
  Fe  Fe273     1.0  0.74546  0.54350  0.38256  1.0000
  S   S546      1.0  0.73088  0.56343  0.39977  1.0000
  C   C4007     1.0  0.69543  0.64944  0.01184  1.0000
  Fe  Fe274     1.0  0.69291  0.60480  0.32631  1.0000
  S   S547      1.0  0.67746  0.60811  0.31769  1.0000
  S   S548      1.0  0.69445  0.61881  0.35179  1.0000
  Fe  Fe275     1.0  0.70525  0.57902  0.29396  1.0000
  S   S549      1.0  0.69101  0.57995  0.28174  1.0000
  S   S550      1.0  0.72248  0.56366  0.28672  1.0000
  Fe  Fe276     1.0  0.68645  0.61455  0.28395  1.0000
  S   S551      1.0  0.67857  0.64287  0.26169  1.0000
  Fe  Fe277     1.0  0.68308  0.57326  0.31639  1.0000
  S   S552      1.0  0.67081  0.55286  0.33158  1.0000
  S   S553      1.0  0.70148  0.61423  0.29286  1.0000
  S   S554      1.0  0.69765  0.56956  0.32805  1.0000
  H   H3206     1.0  0.76625  0.50295  0.27946  1.0000
  S   S555      1.0  0.65990  0.65325  0.01228  1.0000
  Fe  Fe278     1.0  0.65221  0.69347  0.13408  1.0000
  S   S556      1.0  0.65909  0.71912  0.10954  1.0000
  S   S557      1.0  0.63466  0.69439  0.14245  1.0000
  Fe  Fe279     1.0  0.67365  0.66982  0.14536  1.0000
  S   S558      1.0  0.68227  0.69372  0.12109  1.0000
  S   S559      1.0  0.68283  0.64173  0.16581  1.0000
  Fe  Fe280     1.0  0.66830  0.71824  0.13291  1.0000
  S   S560      1.0  0.66727  0.74836  0.14278  1.0000
  Fe  Fe281     1.0  0.67220  0.69204  0.09997  1.0000
  S   S561      1.0  0.67871  0.69370  0.06508  1.0000
  S   S562      1.0  0.66032  0.69463  0.15848  1.0000
  S   S563      1.0  0.66474  0.66604  0.12311  1.0000
  C   C4008     1.0  0.66473  0.66535  0.02689  1.0000
  C   C4009     1.0  0.67170  0.67913  0.01675  1.0000
  C   C4010     1.0  0.67573  0.68806  0.02870  1.0000
  C   C4011     1.0  0.67283  0.68331  0.05082  1.0000
  C   C4012     1.0  0.66559  0.67009  0.06098  1.0000
  C   C4013     1.0  0.66154  0.66113  0.04902  1.0000
  C   C4014     1.0  0.64973  0.80889  0.01000  1.0000
  H   H3207     1.0  0.68140  0.69809  0.02080  1.0000
  H   H3208     1.0  0.66329  0.66635  0.07804  1.0000
  H   H3209     1.0  0.65607  0.65061  0.05693  1.0000
  C   C4015     1.0  0.68005  0.64250  0.23499  1.0000
  C   C4016     1.0  0.68707  0.62590  0.22601  1.0000
  C   C4017     1.0  0.68803  0.62613  0.20465  1.0000
  C   C4018     1.0  0.68180  0.64261  0.19228  1.0000
  C   C4019     1.0  0.67489  0.65934  0.20127  1.0000
  C   C4020     1.0  0.67404  0.65931  0.22251  1.0000
  H   H3210     1.0  0.69164  0.61280  0.23559  1.0000
  H   H3211     1.0  0.69362  0.61349  0.19767  1.0000
  H   H3212     1.0  0.67015  0.67226  0.19196  1.0000
  H   H3213     1.0  0.66861  0.67225  0.22936  1.0000
  H   H3214     1.0  0.73311  0.99026  0.42467  1.0000
  S   S564      1.0  0.73754  0.49664  0.22902  1.0000
  H   H3215     1.0  0.72792  0.50456  0.32621  1.0000
  H   H3216     1.0  0.77474  0.97120  0.05774  1.0000
  H   H3217     1.0  0.71373  0.93350  0.03688  1.0000
  C   C4021     1.0  0.72081  0.57815  0.38609  1.0000
  C   C4022     1.0  0.72088  0.57532  0.36625  1.0000
  C   C4023     1.0  0.71284  0.58783  0.35548  1.0000
  C   C4024     1.0  0.70470  0.60309  0.36466  1.0000
  C   C4025     1.0  0.70469  0.60593  0.38447  1.0000
  C   C4026     1.0  0.71265  0.59335  0.39523  1.0000
  H   H3218     1.0  0.72704  0.56333  0.35930  1.0000
  H   H3219     1.0  0.71297  0.58566  0.34009  1.0000
  H   H3220     1.0  0.69843  0.61771  0.39159  1.0000
  H   H3221     1.0  0.71252  0.59555  0.41059  1.0000
  C   C4027     1.0  0.70878  0.61860  0.46290  1.0000
  C   C4028     1.0  0.71842  0.52792  0.34429  1.0000
  C   C4029     1.0  0.72245  0.97534  0.41799  1.0000
  P   P133      1.0  0.61512  0.75493  0.02010  1.0000
  C   C4030     1.0  0.73724  0.53581  0.26530  1.0000
  C   C4031     1.0  0.72652  0.54603  0.26971  1.0000
  C   C4032     1.0  0.71928  0.54227  0.26037  1.0000
  P   P134      1.0  0.66472  0.58240  0.22607  1.0000
  H   H3222     1.0  0.74286  0.53890  0.27237  1.0000
  H   H3223     1.0  0.71100  0.55019  0.26392  1.0000
  C   C4033     1.0  0.74942  0.96698  0.33440  1.0000
  S   S565      1.0  0.77177  0.50718  0.35997  1.0000
  H   H3224     1.0  0.59890  0.77876  0.04924  1.0000
  C   C4034     1.0  0.77156  0.96224  0.32509  1.0000
  C   C4035     1.0  0.76706  0.94424  0.33362  1.0000
  C   C4036     1.0  0.75599  0.94661  0.33849  1.0000
  H   H3225     1.0  0.68939  0.51825  0.34257  1.0000
  H   H3226     1.0  0.75595  0.98098  0.28698  1.0000
  H   H3227     1.0  0.77209  0.92849  0.33651  1.0000
  H   H3228     1.0  0.75256  0.93259  0.34457  1.0000
  C   C4037     1.0  0.76502  0.63769  0.43446  1.0000
  C   C4038     1.0  0.71456  0.93749  0.06697  1.0000
  H   H3229     1.0  0.70119  0.50746  0.47387  1.0000
  H   H3230     1.0  0.64969  0.72297  0.22448  1.0000
  C   C4039     1.0  0.78097  0.89861  0.23602  1.0000
  C   C4040     1.0  0.77488  0.88105  0.21562  1.0000
  C   C4041     1.0  0.77784  0.86141  0.22906  1.0000
  H   H3231     1.0  0.69277  0.55669  0.42008  1.0000
  H   H3232     1.0  0.59200  0.90087  0.23348  1.0000
  H   H3233     1.0  0.67493  0.73984  0.01889  1.0000
  C   C4042     1.0  0.77636  0.89980  0.21910  1.0000
  H   H3234     1.0  0.77677  0.84689  0.22639  1.0000
  C   C4043     1.0  0.71090  0.98889  0.24570  1.0000
  H   H3235     1.0  0.77421  0.91502  0.20853  1.0000
  H   H3236     1.0  0.59265  0.88930  0.14093  1.0000
  C   C4044     1.0  0.69696  0.72288  0.05981  1.0000
  C   C4045     1.0  0.65534  0.62496  0.17428  1.0000
  H   H3237     1.0  0.64919  0.66028  0.20615  1.0000
  C   C4046     1.0  0.65947  0.60636  0.18790  1.0000
  C   C4047     1.0  0.69271  0.78783  0.11996  1.0000
  C   C4048     1.0  0.69538  0.76695  0.11643  1.0000
  C   C4049     1.0  0.68761  0.75446  0.12300  1.0000
  C   C4050     1.0  0.67735  0.76280  0.13354  1.0000
  C   C4051     1.0  0.67486  0.78338  0.13733  1.0000
  C   C4052     1.0  0.68241  0.79604  0.13021  1.0000
  H   H3238     1.0  0.70336  0.76059  0.10849  1.0000
  H   H3239     1.0  0.68955  0.73841  0.12023  1.0000
  H   H3240     1.0  0.66703  0.78955  0.14583  1.0000
  H   H3241     1.0  0.68029  0.81202  0.13321  1.0000
  C   C4053     1.0  0.70968  0.90192  0.12654  1.0000
  C   C4054     1.0  0.71737  0.88544  0.11849  1.0000
  C   C4055     1.0  0.72817  0.88366  0.11768  1.0000
  C   C4056     1.0  0.73135  0.89866  0.12438  1.0000
  C   C4057     1.0  0.72365  0.91486  0.13286  1.0000
  C   C4058     1.0  0.71283  0.91639  0.13405  1.0000
  H   H3242     1.0  0.71500  0.87408  0.11288  1.0000
  H   H3243     1.0  0.73408  0.87078  0.11159  1.0000
  H   H3244     1.0  0.72604  0.92638  0.13826  1.0000
  H   H3245     1.0  0.70689  0.92909  0.14045  1.0000
  C   C4059     1.0  0.69473  0.82751  0.02774  1.0000
  C   C4060     1.0  0.69307  0.84434  0.03788  1.0000
  C   C4061     1.0  0.69115  0.86560  0.02666  1.0000
  H   H3246     1.0  0.75813  0.55307  0.48391  1.0000
  H   H3247     1.0  0.69590  0.81115  0.03667  1.0000
  H   H3248     1.0  0.69326  0.84079  0.05438  1.0000
  H   H3249     1.0  0.59170  0.76988  0.08755  1.0000
  H   H3250     1.0  0.70897  0.94961  0.28612  1.0000
  C   C4062     1.0  0.62266  0.75884  0.13343  1.0000
  C   C4063     1.0  0.62932  0.73874  0.13125  1.0000
  C   C4064     1.0  0.62644  0.71987  0.14429  1.0000
  C   C4065     1.0  0.74594  0.86054  0.99173  1.0000
  H   H3251     1.0  0.75430  0.95349  0.21437  1.0000
  H   H3252     1.0  0.62491  0.77329  0.12333  1.0000
  H   H3253     1.0  0.63667  0.73791  0.11952  1.0000
  C   C4066     1.0  0.71349  0.66582  0.24246  1.0000
  C   C4067     1.0  0.61894  0.83447  0.16966  1.0000
  C   C4068     1.0  0.63099  0.86951  0.09502  1.0000
  C   C4069     1.0  0.62794  0.86618  0.11704  1.0000
  C   C4070     1.0  0.63492  0.86700  0.12884  1.0000
  C   C4071     1.0  0.64510  0.87064  0.11874  1.0000
  C   C4072     1.0  0.64811  0.87447  0.09665  1.0000
  C   C4073     1.0  0.64100  0.87411  0.08485  1.0000
  H   H3254     1.0  0.62017  0.86317  0.12499  1.0000
  H   H3255     1.0  0.63253  0.86422  0.14588  1.0000
  H   H3256     1.0  0.65593  0.87747  0.08871  1.0000
  H   H3257     1.0  0.64331  0.87690  0.06784  1.0000
  C   C4074     1.0  0.72966  0.98874  0.41253  1.0000
  H   H3258     1.0  0.77467  0.94001  0.08794  1.0000
  C   C4075     1.0  0.75559  0.97348  0.23317  1.0000
  H   H3259     1.0  0.61054  0.70569  0.09067  1.0000
  C   C4076     1.0  0.69989  0.71576  0.04091  1.0000
  C   C4077     1.0  0.59790  0.96384  0.18240  1.0000
  C   C4078     1.0  0.76125  0.94960  0.99461  1.0000
  C   C4079     1.0  0.63728  0.80961  0.10849  1.0000
  C   C4080     1.0  0.64645  0.81737  0.09766  1.0000
  C   C4081     1.0  0.65282  0.82116  0.10888  1.0000
  C   C4082     1.0  0.64998  0.81750  0.13090  1.0000
  C   C4083     1.0  0.64093  0.80920  0.14201  1.0000
  C   C4084     1.0  0.63454  0.80548  0.13059  1.0000
  H   H3260     1.0  0.59965  0.78831  0.99900  1.0000
  C   C4085     1.0  0.72581  0.89093  0.00534  1.0000
  C   C4086     1.0  0.63654  0.74086  0.17481  1.0000
  C   C4087     1.0  0.63923  0.76088  0.16813  1.0000
  H   H3261     1.0  0.63225  0.80693  0.09981  1.0000
  H   H3262     1.0  0.64853  0.82096  0.08059  1.0000
  H   H3263     1.0  0.65981  0.82755  0.10054  1.0000
  H   H3264     1.0  0.65487  0.82144  0.13897  1.0000
  H   H3265     1.0  0.62742  0.79939  0.13883  1.0000
  H   H3266     1.0  0.76339  0.60545  0.44050  1.0000
  H   H3267     1.0  0.64063  0.72851  0.16594  1.0000
  H   H3268     1.0  0.64544  0.76373  0.15417  1.0000
  C   C4088     1.0  0.68850  0.56113  0.40751  1.0000
  H   H3269     1.0  0.67252  0.93068  0.03522  1.0000
  H   H3270     1.0  0.78535  0.95582  0.18389  1.0000
  C   C4089     1.0  0.72149  0.97720  0.24242  1.0000
  C   C4090     1.0  0.65215  0.76124  0.00028  1.0000
  H   H3271     1.0  0.67294  0.60498  0.38238  1.0000
  S   S566      1.0  0.61010  0.81719  0.09477  1.0000
  C   C4091     1.0  0.66048  0.87462  0.01038  1.0000
  C   C4092     1.0  0.66452  0.91831  0.01907  1.0000
  H   H3272     1.0  0.64399  0.58171  0.22022  1.0000
  C   C4093     1.0  0.71550  0.71826  0.05987  1.0000
  Fe  Fe282     1.0  0.60208  0.81297  0.12910  1.0000
  C   C4094     1.0  0.59662  0.84561  0.03289  1.0000
  H   H3273     1.0  0.59983  0.96187  0.13138  1.0000
  S   S567      1.0  0.77233  0.55494  0.31247  1.0000
  C   C4095     1.0  0.75601  0.54792  0.21308  1.0000
  C   C4096     1.0  0.76672  0.54135  0.21431  1.0000
  C   C4097     1.0  0.76496  0.57178  0.22908  1.0000
  C   C4098     1.0  0.75418  0.57857  0.22787  1.0000
  C   C4099     1.0  0.74973  0.56638  0.21996  1.0000
  P   P135      1.0  0.74622  0.60225  0.23731  1.0000
  C   C4100     1.0  0.74234  0.59600  0.26585  1.0000
  C   C4101     1.0  0.75432  0.62201  0.22912  1.0000
  C   C4102     1.0  0.75426  0.63450  0.24294  1.0000
  H   H3274     1.0  0.74700  0.98386  0.18778  1.0000
  S   S568      1.0  0.78499  0.49730  0.24453  1.0000
  C   C4103     1.0  0.59131  0.82971  0.00354  1.0000
  C   C4104     1.0  0.76090  0.62480  0.20878  1.0000
  C   C4105     1.0  0.73325  0.60869  0.27629  1.0000
  C   C4106     1.0  0.73056  0.60482  0.29837  1.0000
  C   C4107     1.0  0.73692  0.58825  0.31018  1.0000
  C   C4108     1.0  0.74588  0.57540  0.29997  1.0000
  C   C4109     1.0  0.74862  0.57923  0.27792  1.0000
  C   C4110     1.0  0.73446  0.61281  0.22622  1.0000
  C   C4111     1.0  0.72587  0.60256  0.23421  1.0000
  C   C4112     1.0  0.71666  0.61046  0.22613  1.0000
  C   C4113     1.0  0.71590  0.62881  0.20994  1.0000
  C   C4114     1.0  0.72441  0.63919  0.20179  1.0000
  C   C4115     1.0  0.73366  0.63126  0.20989  1.0000
  C   C4116     1.0  0.76108  0.65920  0.42598  1.0000
  H   H3275     1.0  0.76851  0.58048  0.23574  1.0000
  H   H3276     1.0  0.74140  0.57069  0.21945  1.0000
  H   H3277     1.0  0.74936  0.63255  0.25877  1.0000
  S   S569      1.0  0.78540  0.95936  0.31775  1.0000
  H   H3278     1.0  0.61582  0.91772  0.09162  1.0000
  H   H3279     1.0  0.76108  0.61524  0.19793  1.0000
  H   H3280     1.0  0.72818  0.62138  0.26741  1.0000
  H   H3281     1.0  0.72341  0.61428  0.30640  1.0000
  H   H3282     1.0  0.73485  0.58510  0.32724  1.0000
  H   H3283     1.0  0.75066  0.56226  0.30916  1.0000
  H   H3284     1.0  0.75560  0.56892  0.27057  1.0000
  H   H3285     1.0  0.72634  0.58830  0.24664  1.0000
  H   H3286     1.0  0.71014  0.60223  0.23250  1.0000
  H   H3287     1.0  0.70871  0.63502  0.20379  1.0000
  H   H3288     1.0  0.72377  0.65346  0.18930  1.0000
  H   H3289     1.0  0.74010  0.63962  0.20338  1.0000
  C   C4117     1.0  0.66309  0.72154  0.19812  1.0000
  C   C4118     1.0  0.67410  0.71960  0.19131  1.0000
  C   C4119     1.0  0.68034  0.71762  0.20568  1.0000
  C   C4120     1.0  0.67536  0.71825  0.22683  1.0000
  P   P136      1.0  0.69445  0.71656  0.19672  1.0000
  C   C4121     1.0  0.70181  0.69679  0.21485  1.0000
  C   C4122     1.0  0.69944  0.70733  0.17228  1.0000
  C   C4123     1.0  0.69721  0.68832  0.17108  1.0000
  C   C4124     1.0  0.70111  0.68061  0.15248  1.0000
  C   C4125     1.0  0.70728  0.69177  0.13492  1.0000
  C   C4126     1.0  0.70976  0.71044  0.13613  1.0000
  C   C4127     1.0  0.70597  0.71809  0.15481  1.0000
  C   C4128     1.0  0.71238  0.69718  0.21383  1.0000
  C   C4129     1.0  0.69733  0.68016  0.22915  1.0000
  C   C4130     1.0  0.69612  0.74329  0.19423  1.0000
  C   C4131     1.0  0.69350  0.75969  0.17706  1.0000
  C   C4132     1.0  0.69504  0.78025  0.17480  1.0000
  C   C4133     1.0  0.69883  0.78483  0.19005  1.0000
  C   C4134     1.0  0.70095  0.76889  0.20775  1.0000
  C   C4135     1.0  0.69954  0.74822  0.20992  1.0000
  H   H3290     1.0  0.65833  0.72327  0.18685  1.0000
  H   H3291     1.0  0.67768  0.71982  0.17478  1.0000
  H   H3292     1.0  0.69239  0.67950  0.18450  1.0000
  H   H3293     1.0  0.69919  0.66609  0.15160  1.0000
  H   H3294     1.0  0.71009  0.68594  0.12041  1.0000
  H   H3295     1.0  0.71457  0.71909  0.12255  1.0000
  H   H3296     1.0  0.70815  0.73237  0.15542  1.0000
  H   H3297     1.0  0.71612  0.70935  0.20230  1.0000
  H   H3298     1.0  0.68939  0.67880  0.22966  1.0000
  H   H3299     1.0  0.69034  0.75654  0.16530  1.0000
  H   H3300     1.0  0.69327  0.79271  0.16123  1.0000
  H   H3301     1.0  0.69999  0.80081  0.18822  1.0000
  H   H3302     1.0  0.70368  0.77256  0.21979  1.0000
  H   H3303     1.0  0.70106  0.73621  0.22392  1.0000
  H   H3304     1.0  0.75790  0.65666  0.99271  1.0000
  C   C4136     1.0  0.74577  0.91042  0.23314  1.0000
  C   C4137     1.0  0.74799  0.88847  0.23388  1.0000
  C   C4138     1.0  0.75025  0.87375  0.25219  1.0000
  C   C4139     1.0  0.74991  0.88094  0.27008  1.0000
  C   C4140     1.0  0.74728  0.90298  0.26972  1.0000
  C   C4141     1.0  0.74558  0.91766  0.25088  1.0000
  P   P137      1.0  0.74599  0.91278  0.29300  1.0000
  C   C4142     1.0  0.73241  0.92634  0.30205  1.0000
  C   C4143     1.0  0.74945  0.89115  0.31472  1.0000
  C   C4144     1.0  0.74284  0.87644  0.32434  1.0000
  C   C4145     1.0  0.74531  0.85969  0.34127  1.0000
  C   C4146     1.0  0.75437  0.85759  0.34880  1.0000
  C   C4147     1.0  0.76090  0.87235  0.33955  1.0000
  C   C4148     1.0  0.75843  0.88915  0.32270  1.0000
  C   C4149     1.0  0.72938  0.93120  0.32214  1.0000
  C   C4150     1.0  0.71912  0.94274  0.32909  1.0000
  C   C4151     1.0  0.71463  0.94413  0.29632  1.0000
  C   C4152     1.0  0.72487  0.93259  0.28932  1.0000
  C   C4153     1.0  0.75499  0.93065  0.28586  1.0000
  C   C4154     1.0  0.75147  0.95157  0.28923  1.0000
  C   C4155     1.0  0.75870  0.96485  0.28429  1.0000
  C   C4156     1.0  0.76948  0.95727  0.27625  1.0000
  C   C4157     1.0  0.77296  0.93663  0.27234  1.0000
  C   C4158     1.0  0.76575  0.92340  0.27705  1.0000
  H   H3305     1.0  0.74426  0.92179  0.21874  1.0000
  H   H3306     1.0  0.74833  0.88289  0.21998  1.0000
  H   H3307     1.0  0.75250  0.85678  0.25235  1.0000
  H   H3308     1.0  0.75185  0.86926  0.28396  1.0000
  H   H3309     1.0  0.74385  0.93473  0.25013  1.0000
  H   H3310     1.0  0.73577  0.87798  0.31871  1.0000
  H   H3311     1.0  0.74020  0.84836  0.34860  1.0000
  C   C4159     1.0  0.63958  0.84067  0.02301  1.0000
  H   H3312     1.0  0.76791  0.87083  0.34542  1.0000
  H   H3313     1.0  0.76355  0.90049  0.31624  1.0000
  H   H3314     1.0  0.73508  0.92683  0.33215  1.0000
  H   H3315     1.0  0.71705  0.94724  0.34424  1.0000
  H   H3316     1.0  0.72678  0.92904  0.27387  1.0000
  H   H3317     1.0  0.74323  0.95759  0.29600  1.0000
  H   H3318     1.0  0.78355  0.96535  0.36291  1.0000
  H   H3319     1.0  0.77511  0.96736  0.27322  1.0000
  H   H3320     1.0  0.75007  0.97015  0.38651  1.0000
  H   H3321     1.0  0.76860  0.90721  0.27454  1.0000
  C   C4160     1.0  0.61852  0.79205  0.02707  1.0000
  C   C4161     1.0  0.58894  0.98562  0.14741  1.0000
  H   H3322     1.0  0.69465  0.64239  0.04530  1.0000
  H   H3323     1.0  0.64100  0.96633  0.02908  1.0000
  C   C4162     1.0  0.74961  0.58093  0.43875  1.0000
  C   C4163     1.0  0.75113  0.56367  0.42927  1.0000
  P   P138      1.0  0.74376  0.60776  0.42638  1.0000
  P   P139      1.0  0.69699  0.51948  0.40067  1.0000
  H   H3324     1.0  0.75006  0.58971  0.46711  1.0000
  H   H3325     1.0  0.70835  0.59027  0.45369  1.0000
  C   C4164     1.0  0.74462  0.60955  0.39873  1.0000
  C   C4165     1.0  0.75467  0.60569  0.38518  1.0000
  C   C4166     1.0  0.75551  0.60693  0.36373  1.0000
  C   C4167     1.0  0.74634  0.61181  0.35571  1.0000
  C   C4168     1.0  0.73633  0.61607  0.36901  1.0000
  C   C4169     1.0  0.73545  0.61515  0.39039  1.0000
  H   H3326     1.0  0.73457  0.95329  0.07639  1.0000
  C   C4170     1.0  0.78077  0.51374  0.26321  1.0000
  C   C4171     1.0  0.66823  0.83763  0.00776  1.0000
  H   H3327     1.0  0.73099  0.94352  0.01826  1.0000
  H   H3328     1.0  0.74914  0.56619  0.41415  1.0000
  C   C4172     1.0  0.72279  0.52781  0.24687  1.0000
  C   C4173     1.0  0.59130  0.82873  0.03997  1.0000
  H   H3329     1.0  0.76183  0.60131  0.39130  1.0000
  H   H3330     1.0  0.76326  0.60330  0.35346  1.0000
  H   H3331     1.0  0.74700  0.61193  0.33929  1.0000
  H   H3332     1.0  0.72920  0.61950  0.36290  1.0000
  H   H3333     1.0  0.72759  0.61834  0.40031  1.0000
  H   H3334     1.0  0.65845  0.88095  0.04132  1.0000
  C   C4174     1.0  0.75505  0.85431  0.16172  1.0000
  C   C4175     1.0  0.76175  0.84694  0.17602  1.0000
  C   C4176     1.0  0.75750  0.84097  0.19763  1.0000
  C   C4177     1.0  0.74656  0.84221  0.20495  1.0000
  C   C4178     1.0  0.73982  0.84897  0.19059  1.0000
  C   C4179     1.0  0.74410  0.85552  0.16898  1.0000
  P   P140      1.0  0.72562  0.85242  0.20005  1.0000
  C   C4180     1.0  0.72230  0.83240  0.22350  1.0000
  C   C4181     1.0  0.72126  0.87891  0.20556  1.0000
  C   C4182     1.0  0.72211  0.88214  0.22474  1.0000
  C   C4183     1.0  0.71920  0.90276  0.22875  1.0000
  C   C4184     1.0  0.71556  0.92029  0.21355  1.0000
  C   C4185     1.0  0.71504  0.91728  0.19418  1.0000
  C   C4186     1.0  0.71795  0.89668  0.19012  1.0000
  C   C4187     1.0  0.71297  0.83713  0.23875  1.0000
  C   C4188     1.0  0.71026  0.82148  0.25674  1.0000
  C   C4189     1.0  0.71678  0.80093  0.25947  1.0000
  C   C4190     1.0  0.72595  0.79597  0.24410  1.0000
  C   C4191     1.0  0.72867  0.81159  0.22607  1.0000
  C   C4192     1.0  0.71953  0.84835  0.18106  1.0000
  C   C4193     1.0  0.72490  0.83284  0.16897  1.0000
  C   C4194     1.0  0.72010  0.82899  0.15479  1.0000
  C   C4195     1.0  0.70985  0.84039  0.15276  1.0000
  C   C4196     1.0  0.70436  0.85554  0.16504  1.0000
  C   C4197     1.0  0.70913  0.85937  0.17930  1.0000
  H   H3335     1.0  0.75827  0.85984  0.14507  1.0000
  H   H3336     1.0  0.77017  0.84680  0.17049  1.0000
  H   H3337     1.0  0.76269  0.83633  0.20871  1.0000
  H   H3338     1.0  0.74336  0.83839  0.22180  1.0000
  H   H3339     1.0  0.73898  0.86213  0.15775  1.0000
  H   H3340     1.0  0.72516  0.86880  0.23647  1.0000
  H   H3341     1.0  0.71992  0.90528  0.24347  1.0000
  H   H3342     1.0  0.71338  0.93629  0.21657  1.0000
  H   H3343     1.0  0.71263  0.93106  0.18210  1.0000
  H   H3344     1.0  0.71783  0.89472  0.17479  1.0000
  H   H3345     1.0  0.70775  0.85289  0.23671  1.0000
  H   H3346     1.0  0.70309  0.82528  0.26855  1.0000
  H   H3347     1.0  0.71468  0.78883  0.27345  1.0000
  H   H3348     1.0  0.73095  0.77999  0.24613  1.0000
  H   H3349     1.0  0.73572  0.80741  0.21415  1.0000
  H   H3350     1.0  0.73283  0.82375  0.17043  1.0000
  H   H3351     1.0  0.72433  0.81731  0.14520  1.0000
  H   H3352     1.0  0.69648  0.86469  0.16317  1.0000
  H   H3353     1.0  0.70469  0.87103  0.18878  1.0000
  H   H3354     1.0  0.59505  0.71804  0.99534  1.0000
  H   H3355     1.0  0.71896  0.52284  0.39800  1.0000
  C   C4198     1.0  0.60081  0.73729  0.09166  1.0000
  H   H3356     1.0  0.71721  0.52413  0.24019  1.0000
  H   H3357     1.0  0.76072  0.65890  0.24732  1.0000
  C   C4199     1.0  0.68887  0.49962  0.40955  1.0000
  C   C4200     1.0  0.69750  0.65214  0.03006  1.0000
  H   H3358     1.0  0.67384  0.57909  0.36123  1.0000
  H   H3359     1.0  0.63323  0.73280  0.03983  1.0000
  Fe  Fe283     1.0  0.75523  0.50103  0.36998  1.0000
  C   C4201     1.0  0.73008  0.61241  0.44063  1.0000
  C   C4202     1.0  0.65979  0.60694  0.20841  1.0000
  C   C4203     1.0  0.65150  0.64430  0.18097  1.0000
  C   C4204     1.0  0.73348  0.51706  0.24302  1.0000
  H   H3360     1.0  0.77708  0.99184  0.23206  1.0000
  H   H3361     1.0  0.74240  0.99474  0.04855  1.0000
  H   H3362     1.0  0.75289  0.82963  0.00915  1.0000
  H   H3363     1.0  0.75672  0.52965  0.43165  1.0000
  H   H3364     1.0  0.70214  0.74497  0.00396  1.0000
  C   C4205     1.0  0.70996  0.98653  0.21097  1.0000
  C   C4206     1.0  0.71071  0.53158  0.36246  1.0000
  H   H3365     1.0  0.73708  0.91133  0.99738  1.0000
  H   H3366     1.0  0.76294  0.97790  0.03304  1.0000
  H   H3367     1.0  0.76240  0.96558  0.99267  1.0000
  C   C4207     1.0  0.74684  0.64928  0.41761  1.0000
  C   C4208     1.0  0.70819  0.90936  0.99934  1.0000
  C   C4209     1.0  0.65101  0.52877  0.21915  1.0000
  C   C4210     1.0  0.76724  0.65217  0.21623  1.0000
  H   H3368     1.0  0.67353  0.51360  0.27673  1.0000
  C   C4211     1.0  0.67784  0.57407  0.37429  1.0000
  H   H3369     1.0  0.72683  0.70621  0.03417  1.0000
  H   H3370     1.0  0.64824  0.65866  0.17042  1.0000
  H   H3371     1.0  0.60338  0.86751  0.00571  1.0000
  C   C4212     1.0  0.61689  0.72122  0.15946  1.0000
  S   S570      1.0  0.59306  0.86394  0.08819  1.0000
  C   C4213     1.0  0.78439  0.56676  0.43597  1.0000
  C   C4214     1.0  0.66946  0.74418  0.00843  1.0000
  H   H3372     1.0  0.70825  0.54749  0.36566  1.0000
  H   H3373     1.0  0.72179  0.54099  0.33344  1.0000
  C   C4215     1.0  0.75527  0.54283  0.43931  1.0000
  C   C4216     1.0  0.59925  0.85451  0.01119  1.0000
  H   H3374     1.0  0.61662  0.78531  0.04380  1.0000
  H   H3375     1.0  0.72628  0.68228  0.22708  1.0000
  H   H3376     1.0  0.70544  0.99030  0.19887  1.0000
  C   C4217     1.0  0.62984  0.73131  0.99203  1.0000
  H   H3377     1.0  0.63221  0.90704  0.14364  1.0000
  C   C4218     1.0  0.61164  0.91499  0.10804  1.0000
  C   C4219     1.0  0.75990  0.62196  0.43449  1.0000
  C   C4220     1.0  0.71317  0.60126  0.45301  1.0000
  C   C4221     1.0  0.68390  0.55324  0.37856  1.0000
  H   H3378     1.0  0.73404  0.71512  0.98928  1.0000
  H   H3379     1.0  0.61639  0.84312  0.22558  1.0000
  C   C4222     1.0  0.72045  0.94320  0.07794  1.0000
  C   C4223     1.0  0.60129  0.90654  0.15063  1.0000
  C   C4224     1.0  0.58859  0.82087  0.02528  1.0000
  S   S571      1.0  0.60240  0.84572  0.13161  1.0000
  C   C4225     1.0  0.74915  0.98703  0.20077  1.0000
  C   C4226     1.0  0.66541  0.84802  0.04092  1.0000
  C   C4227     1.0  0.66891  0.83231  0.02896  1.0000
  H   H3380     1.0  0.64563  0.84003  0.99005  1.0000
  H   H3381     1.0  0.66607  0.84393  0.05728  1.0000
  H   H3382     1.0  0.67233  0.81612  0.03605  1.0000
  C   C4228     1.0  0.69143  0.86991  0.00502  1.0000
  C   C4229     1.0  0.67221  0.76799  0.07869  1.0000
  C   C4230     1.0  0.68182  0.77240  0.06576  1.0000
  C   C4231     1.0  0.68360  0.77464  0.04390  1.0000
  C   C4232     1.0  0.67568  0.77293  0.03493  1.0000
  C   C4233     1.0  0.66608  0.76804  0.04789  1.0000
  C   C4234     1.0  0.66437  0.76587  0.06983  1.0000
  P   P141      1.0  0.65524  0.76879  0.03644  1.0000
  C   C4235     1.0  0.65939  0.75760  0.01317  1.0000
  C   C4236     1.0  0.64657  0.75240  0.05521  1.0000
  C   C4237     1.0  0.63581  0.76095  0.06317  1.0000
  C   C4238     1.0  0.62940  0.74782  0.07800  1.0000
  C   C4239     1.0  0.63361  0.72600  0.08462  1.0000
  C   C4240     1.0  0.64422  0.71730  0.07640  1.0000
  C   C4241     1.0  0.65068  0.73045  0.06181  1.0000
  H   H3383     1.0  0.77309  0.98361  0.20164  1.0000
  H   H3384     1.0  0.71738  0.94349  0.09453  1.0000
  C   C4242     1.0  0.72379  0.59808  0.44206  1.0000
  C   C4243     1.0  0.75589  0.93290  0.06678  1.0000
  C   C4244     1.0  0.74071  0.52131  0.25198  1.0000
  C   C4245     1.0  0.64886  0.79678  0.03085  1.0000
  H   H3385     1.0  0.60857  0.71937  0.01329  1.0000
  H   H3386     1.0  0.76174  0.52441  0.30684  1.0000
  C   C4246     1.0  0.64369  0.80711  0.04766  1.0000
  H   H3387     1.0  0.67074  0.76645  0.09563  1.0000
  H   H3388     1.0  0.68784  0.77424  0.07270  1.0000
  H   H3389     1.0  0.69099  0.77835  0.03378  1.0000
  H   H3390     1.0  0.67696  0.77603  0.01788  1.0000
  H   H3391     1.0  0.65687  0.76301  0.08014  1.0000
  H   H3392     1.0  0.63230  0.77764  0.05813  1.0000
  H   H3393     1.0  0.62119  0.75458  0.08458  1.0000
  H   H3394     1.0  0.62873  0.71590  0.09651  1.0000
  H   H3395     1.0  0.64751  0.70043  0.08176  1.0000
  H   H3396     1.0  0.65894  0.72353  0.05585  1.0000
  H   H3397     1.0  0.69124  0.51094  0.44677  1.0000
  H   H3398     1.0  0.61787  0.71438  0.05235  1.0000
  C   C4247     1.0  0.76732  0.63983  0.20238  1.0000
  C   C4248     1.0  0.62737  0.73661  0.01188  1.0000
  H   H3399     1.0  0.64416  0.77069  0.00420  1.0000
  C   C4249     1.0  0.76273  0.92904  0.08041  1.0000
  H   H3400     1.0  0.67998  0.71719  0.23811  1.0000
  H   H3401     1.0  0.64328  0.79823  0.06384  1.0000
  H   H3402     1.0  0.69102  0.63758  0.01292  1.0000
  H   H3403     1.0  0.70239  0.72963  0.08399  1.0000
  C   C4250     1.0  0.71495  0.51927  0.41445  1.0000
  C   C4251     1.0  0.67264  0.52496  0.34261  1.0000
  H   H3404     1.0  0.60128  0.95574  0.19611  1.0000
  C   C4252     1.0  0.71533  0.89042  0.00585  1.0000
  H   H3405     1.0  0.72497  0.65408  0.01563  1.0000
  C   C4253     1.0  0.62321  0.82184  0.99907  1.0000
  P   P142      1.0  0.73522  0.86682  0.01387  1.0000
  C   C4254     1.0  0.73992  0.87165  0.03456  1.0000
  C   C4255     1.0  0.72864  0.84457  0.02539  1.0000
  C   C4256     1.0  0.72243  0.84244  0.04608  1.0000
  C   C4257     1.0  0.71724  0.82541  0.05489  1.0000
  C   C4258     1.0  0.71805  0.81054  0.04308  1.0000
  C   C4259     1.0  0.72408  0.81267  0.02239  1.0000
  C   C4260     1.0  0.72942  0.82951  0.01363  1.0000
  C   C4261     1.0  0.75036  0.86254  0.03748  1.0000
  C   C4262     1.0  0.75375  0.86640  0.05372  1.0000
  C   C4263     1.0  0.74677  0.87929  0.06719  1.0000
  C   C4264     1.0  0.73640  0.88837  0.06440  1.0000
  C   C4265     1.0  0.73296  0.88451  0.04828  1.0000
  H   H3406     1.0  0.63591  0.85748  0.02010  1.0000
  H   H3407     1.0  0.72446  0.80145  0.01306  1.0000
  C   C4266     1.0  0.72808  0.68602  0.00282  1.0000
  C   C4267     1.0  0.59596  0.73335  0.99645  1.0000
  C   C4268     1.0  0.77930  0.57202  0.41901  1.0000
  C   C4269     1.0  0.68268  0.52728  0.28914  1.0000
  C   C4270     1.0  0.75203  0.66498  0.41743  1.0000
  H   H3408     1.0  0.73044  0.64039  0.45082  1.0000
  P   P143      1.0  0.65422  0.90139  0.99891  1.0000
  H   H3409     1.0  0.71258  0.87556  0.01135  1.0000
  H   H3410     1.0  0.69015  0.88626  0.99613  1.0000
  H   H3411     1.0  0.72145  0.85397  0.05544  1.0000
  H   H3412     1.0  0.71239  0.82394  0.07080  1.0000
  H   H3413     1.0  0.71381  0.79766  0.04989  1.0000
  C   C4271     1.0  0.60518  0.75401  0.00719  1.0000
  C   C4272     1.0  0.68240  0.51160  0.34640  1.0000
  H   H3414     1.0  0.75594  0.85256  0.02733  1.0000
  H   H3415     1.0  0.76180  0.85935  0.05593  1.0000
  H   H3416     1.0  0.74936  0.88219  0.07988  1.0000
  H   H3417     1.0  0.73098  0.89839  0.07482  1.0000
  H   H3418     1.0  0.72481  0.89144  0.04671  1.0000
  C   C4273     1.0  0.76694  0.96544  0.37583  1.0000
  C   C4274     1.0  0.75386  0.98510  0.32665  1.0000
  H   H3419     1.0  0.75248  0.53824  0.20748  1.0000
  H   H3420     1.0  0.77494  0.97368  0.15627  1.0000
  C   C4275     1.0  0.59750  0.75779  0.07988  1.0000
  C   C4276     1.0  0.63477  0.72827  0.02490  1.0000
  C   C4277     1.0  0.66435  0.71994  0.23364  1.0000
  H   H3421     1.0  0.66058  0.71989  0.25009  1.0000
  H   H3422     1.0  0.61938  0.83181  0.15433  1.0000
  C   C4278     1.0  0.67909  0.57498  0.21962  1.0000
  C   C4279     1.0  0.69566  0.55629  0.23072  1.0000
  C   C4280     1.0  0.70131  0.56066  0.20982  1.0000
  C   C4281     1.0  0.69588  0.57213  0.19377  1.0000
  C   C4282     1.0  0.68480  0.57931  0.19862  1.0000
  C   C4283     1.0  0.66057  0.58480  0.25339  1.0000
  C   C4284     1.0  0.66477  0.59823  0.26020  1.0000
  C   C4285     1.0  0.66212  0.59952  0.28141  1.0000
  C   C4286     1.0  0.65550  0.58688  0.29620  1.0000
  C   C4287     1.0  0.65140  0.57317  0.28970  1.0000
  C   C4288     1.0  0.65386  0.57218  0.26836  1.0000
  C   C4289     1.0  0.70313  0.66487  0.24300  1.0000
  H   H3423     1.0  0.70990  0.55522  0.20611  1.0000
  H   H3424     1.0  0.70025  0.57582  0.17757  1.0000
  H   H3425     1.0  0.68081  0.58849  0.18598  1.0000
  H   H3426     1.0  0.66532  0.61015  0.28639  1.0000
  H   H3427     1.0  0.65373  0.58743  0.31277  1.0000
  H   H3428     1.0  0.64642  0.56311  0.30132  1.0000
  H   H3429     1.0  0.65065  0.56129  0.26382  1.0000
  C   C4290     1.0  0.71178  0.94937  0.31611  1.0000
  C   C4291     1.0  0.77789  0.55590  0.41086  1.0000
  H   H3430     1.0  0.77397  0.56022  0.39782  1.0000
  H   H3431     1.0  0.78126  0.93075  0.26585  1.0000
  C   C4292     1.0  0.76948  0.96052  0.06014  1.0000
  C   C4293     1.0  0.66117  0.86909  0.03170  1.0000
  S   S572      1.0  0.74756  0.53288  0.35254  1.0000
  C   C4294     1.0  0.71558  0.51313  0.45125  1.0000
  C   C4295     1.0  0.72616  0.96967  0.22356  1.0000
  C   C4296     1.0  0.69462  0.83186  0.00626  1.0000
  C   C4297     1.0  0.68462  0.56339  0.23560  1.0000
  H   H3432     1.0  0.69979  0.54733  0.24323  1.0000
  C   C4298     1.0  0.78439  0.54037  0.27731  1.0000
  S   S573      1.0  0.69598  0.81067  0.99415  1.0000
  H   H3433     1.0  0.73410  0.95993  0.22135  1.0000
  H   H3434     1.0  0.63559  0.90347  0.03410  1.0000
  H   H3435     1.0  0.62599  0.72174  0.19694  1.0000
  C   C4299     1.0  0.75563  0.95089  0.04993  1.0000
  C   C4300     1.0  0.62829  0.73705  0.19231  1.0000
  H   H3436     1.0  0.67018  0.60763  0.24910  1.0000
  H   H3437     1.0  0.66238  0.59152  0.18241  1.0000
  C   C4301     1.0  0.62639  0.95635  0.15541  1.0000
  H   H3438     1.0  0.61728  0.89975  0.03830  1.0000
  H   H3439     1.0  0.65516  0.62447  0.15844  1.0000
  H   H3440     1.0  0.71168  0.64598  0.46985  1.0000
  H   H3441     1.0  0.63956  0.94066  0.01013  1.0000
  H   H3442     1.0  0.68860  0.72706  0.06726  1.0000
  H   H3443     1.0  0.62604  0.88038  0.22196  1.0000
  H   H3444     1.0  0.60830  0.88020  0.24621  1.0000
  H   H3445     1.0  0.67123  0.90519  0.01612  1.0000
  H   H3446     1.0  0.70701  0.93308  0.07521  1.0000
  C   C4302     1.0  0.66531  0.93290  0.02976  1.0000
  H   H3447     1.0  0.78236  0.91293  0.23841  1.0000
  H   H3448     1.0  0.70623  0.83765  0.14147  1.0000
  C   C4303     1.0  0.65822  0.72159  0.21928  1.0000
  Fe  Fe284     1.0  0.76387  0.53974  0.34454  1.0000
  C   C4304     1.0  0.64755  0.95285  0.02638  1.0000
  H   H3449     1.0  0.71244  0.96253  0.40670  1.0000
  H   H3450     1.0  0.72029  0.96691  0.43422  1.0000
  C   C4305     1.0  0.63897  0.82891  0.04374  1.0000
  C   C4306     1.0  0.72050  0.51745  0.42986  1.0000
  H   H3451     1.0  0.77208  0.63305  0.44098  1.0000
  C   C4307     1.0  0.65610  0.62659  0.21485  1.0000
  C   C4308     1.0  0.65196  0.64515  0.20117  1.0000
  C   C4309     1.0  0.64672  0.93816  0.01580  1.0000
  H   H3452     1.0  0.65634  0.62785  0.23032  1.0000
  H   H3453     1.0  0.75633  0.84462  0.36188  1.0000
  C   C4310     1.0  0.74681  0.68722  0.99002  1.0000
  H   H3454     1.0  0.72154  0.71923  0.06724  1.0000
  C   C4311     1.0  0.62276  0.75328  0.20325  1.0000
  C   C4312     1.0  0.65202  0.82024  0.17995  1.0000
  C   C4313     1.0  0.71816  0.68184  0.22775  1.0000
  H   H3455     1.0  0.60275  0.86407  0.20485  1.0000
  H   H3456     1.0  0.71790  0.65395  0.25328  1.0000
  H   H3457     1.0  0.75874  0.96004  0.24458  1.0000
  C   C4314     1.0  0.65680  0.95010  0.03354  1.0000
  H   H3458     1.0  0.65741  0.96131  0.04194  1.0000
  C   C4315     1.0  0.73025  0.94860  0.06758  1.0000
  C   C4316     1.0  0.75061  0.62767  0.42656  1.0000
  C   C4317     1.0  0.72820  0.94306  0.03500  1.0000
  H   H3459     1.0  0.68043  0.55964  0.25188  1.0000
  C   C4318     1.0  0.72188  0.92943  0.99141  1.0000
  P   P144      1.0  0.74679  0.95582  0.03235  1.0000
  C   C4319     1.0  0.78021  0.97473  0.20728  1.0000
  H   H3460     1.0  0.61461  0.70675  0.16957  1.0000
  H   H3461     1.0  0.69373  0.71490  0.03376  1.0000
  C   C4320     1.0  0.73096  0.66357  0.00848  1.0000
  C   C4321     1.0  0.64642  0.70808  0.99936  1.0000
  C   C4322     1.0  0.72569  0.62954  0.45100  1.0000
  S   S574      1.0  0.60588  0.78481  0.15544  1.0000
  C   C4323     1.0  0.62464  0.93713  0.15353  1.0000
  C   C4324     1.0  0.75674  0.97794  0.38115  1.0000
  C   C4325     1.0  0.62289  0.89895  0.02330  1.0000
  C   C4326     1.0  0.63328  0.90117  0.02081  1.0000
  H   H3462     1.0  0.76154  0.52297  0.46611  1.0000
  P   P145      1.0  0.61147  0.93139  0.16250  1.0000
  C   C4327     1.0  0.71065  0.70950  0.03147  1.0000
  H   H3463     1.0  0.64777  0.51620  0.21752  1.0000
  C   C4328     1.0  0.65508  0.92038  0.01271  1.0000
  C   C4329     1.0  0.71846  0.71089  0.04105  1.0000
  S   S575      1.0  0.75195  0.51093  0.40081  1.0000
  C   C4330     1.0  0.61984  0.89491  0.00677  1.0000
  C   C4331     1.0  0.64895  0.56574  0.22058  1.0000
  C   C4332     1.0  0.59974  0.90106  0.22290  1.0000
  H   H3464     1.0  0.65013  0.91486  0.13162  1.0000
  C   C4333     1.0  0.67724  0.58856  0.38636  1.0000
  H   H3465     1.0  0.67653  0.54159  0.29095  1.0000
  C   C4334     1.0  0.61846  0.78099  0.01210  1.0000
  H   H3466     1.0  0.77646  0.58864  0.41207  1.0000
  C   C4335     1.0  0.75317  0.91968  0.01470  1.0000
  C   C4336     1.0  0.61238  0.72683  0.05985  1.0000
  C   C4337     1.0  0.61038  0.84946  0.17814  1.0000
  C   C4338     1.0  0.63329  0.92216  0.14497  1.0000
  H   H3467     1.0  0.72862  0.51962  0.42511  1.0000
  C   C4339     1.0  0.62554  0.77327  0.19679  1.0000
  H   H3468     1.0  0.65417  0.80177  0.99667  1.0000
  C   C4340     1.0  0.70440  0.51657  0.42038  1.0000
  H   H3469     1.0  0.72708  0.58453  0.43448  1.0000
  C   C4341     1.0  0.72074  0.98396  0.38164  1.0000
  C   C4342     1.0  0.60812  0.72172  0.08159  1.0000
  C   C4343     1.0  0.78146  0.53430  0.41972  1.0000
  C   C4344     1.0  0.71802  0.97290  0.40252  1.0000
  H   H3470     1.0  0.65368  0.76661  0.18776  1.0000
  C   C4345     1.0  0.77118  0.55328  0.22227  1.0000
  H   H3471     1.0  0.65311  0.94884  0.13492  1.0000
  P   P146      1.0  0.63762  0.80282  0.17061  1.0000
  H   H3472     1.0  0.76510  0.67133  0.42592  1.0000
  H   H3473     1.0  0.76801  0.94841  0.37707  1.0000
  H   H3474     1.0  0.69333  0.53608  0.30250  1.0000
  C   C4346     1.0  0.75794  0.53904  0.45882  1.0000
  C   C4347     1.0  0.64516  0.94566  0.14006  1.0000
  C   C4348     1.0  0.61053  0.74126  0.16235  1.0000
  C   C4349     1.0  0.76882  0.52542  0.29441  1.0000
  C   C4350     1.0  0.72184  0.50739  0.34015  1.0000
  C   C4351     1.0  0.67905  0.50360  0.40386  1.0000
  H   H3475     1.0  0.75074  0.92192  0.06962  1.0000
  C   C4352     1.0  0.71506  0.63266  0.46199  1.0000
  C   C4353     1.0  0.70285  0.66795  0.02877  1.0000
  S   S576      1.0  0.77950  0.51356  0.41030  1.0000
  C   C4354     1.0  0.59866  0.77293  0.99845  1.0000
  S   S577      1.0  0.73581  0.96916  0.33737  1.0000
  C   C4355     1.0  0.75607  0.55601  0.46876  1.0000
  H   H3476     1.0  0.77243  0.64178  0.18673  1.0000
  H   H3477     1.0  0.61999  0.93314  0.11693  1.0000
  H   H3478     1.0  0.60432  0.85832  0.16928  1.0000
  C   C4356     1.0  0.61969  0.90167  0.19574  1.0000
  H   H3479     1.0  0.65612  0.52619  0.34512  1.0000
  C   C4357     1.0  0.66392  0.85868  0.99852  1.0000
  C   C4358     1.0  0.76071  0.64951  0.23649  1.0000
  C   C4359     1.0  0.68261  0.58212  0.40290  1.0000
  C   C4360     1.0  0.61048  0.91382  0.18849  1.0000
  H   H3480     1.0  0.76275  0.91539  0.09365  1.0000
  H   H3481     1.0  0.67420  0.68251  0.99973  1.0000
  C   C4361     1.0  0.75167  0.57681  0.45900  1.0000
  H   H3482     1.0  0.74802  0.91233  0.02853  1.0000
  C   C4362     1.0  0.76947  0.94290  0.07719  1.0000
  C   C4363     1.0  0.60908  0.91886  0.14410  1.0000
  C   C4364     1.0  0.64419  0.71380  0.01880  1.0000
  C   C4365     1.0  0.77864  0.98501  0.14348  1.0000
  C   C4366     1.0  0.60893  0.88942  0.23009  1.0000
  H   H3483     1.0  0.72594  0.97350  0.25461  1.0000
  C   C4367     1.0  0.71839  0.93762  0.04544  1.0000
  H   H3484     1.0  0.58913  0.82382  0.99223  1.0000
  H   H3485     1.0  0.74906  0.68163  0.41061  1.0000
  H   H3486     1.0  0.67374  0.53658  0.22612  1.0000
  C   C4368     1.0  0.70616  0.68131  0.00919  1.0000
  C   C4369     1.0  0.59868  0.89870  0.13591  1.0000
  H   H3487     1.0  0.60202  0.89618  0.10344  1.0000
  H   H3488     1.0  0.61615  0.75054  0.21643  1.0000
  H   H3489     1.0  0.63484  0.83674  0.05677  1.0000
  C   C4370     1.0  0.61414  0.92327  0.12259  1.0000
  C   C4371     1.0  0.60388  0.90278  0.11469  1.0000
  H   H3490     1.0  0.59711  0.90308  0.16697  1.0000
  H   H3491     1.0  0.62752  0.90158  0.18562  1.0000
  H   H3492     1.0  0.61991  0.96805  0.16217  1.0000
  C   C4372     1.0  0.61890  0.88958  0.21646  1.0000
  P   P147      1.0  0.71426  0.69980  0.00730  1.0000
  C   C4373     1.0  0.60169  0.76287  0.05815  1.0000
  H   H3493     1.0  0.77152  0.52674  0.20956  1.0000
  H   H3494     1.0  0.67594  0.51866  0.39422  1.0000
  C   C4374     1.0  0.63662  0.96058  0.14867  1.0000
  C   C4375     1.0  0.73433  0.94807  0.04611  1.0000
  C   C4376     1.0  0.60949  0.85268  0.19822  1.0000
  H   H3495     1.0  0.73989  0.65394  0.41078  1.0000
  H   H3496     1.0  0.74209  0.97881  0.99078  1.0000
  Fe  Fe285     1.0  0.59348  0.82966  0.08925  1.0000
  H   H3497     1.0  0.64981  0.70709  0.02904  1.0000
  C   C4377     1.0  0.60047  0.91300  0.20214  1.0000
  H   H3498     1.0  0.63795  0.97538  0.15021  1.0000
  H   H3499     1.0  0.66628  0.50815  0.22242  1.0000
  C   C4378     1.0  0.70634  0.51476  0.37658  1.0000
  C   C4379     1.0  0.66461  0.78058  0.19467  1.0000
  C   C4380     1.0  0.66368  0.51607  0.34788  1.0000
  C   C4381     1.0  0.64349  0.92649  0.13820  1.0000
  C   C4382     1.0  0.62079  0.81246  0.02056  1.0000
  C   C4383     1.0  0.77140  0.51316  0.27891  1.0000
  C   C4384     1.0  0.60152  0.95603  0.16370  1.0000
  H   H3500     1.0  0.63162  0.81687  0.21066  1.0000
  C   C4385     1.0  0.76495  0.98274  0.32217  1.0000
  C   C4386     1.0  0.63384  0.77719  0.17918  1.0000
  C   C4387     1.0  0.77572  0.97501  0.36786  1.0000
  H   H3501     1.0  0.62106  0.78567  0.20532  1.0000
  H   H3502     1.0  0.70432  0.66976  0.04314  1.0000
  C   C4388     1.0  0.72044  0.97465  0.20766  1.0000
  C   C4389     1.0  0.72900  0.91061  0.99821  1.0000
  C   C4390     1.0  0.64477  0.54950  0.21853  1.0000
  C   C4391     1.0  0.74168  0.65306  0.00483  1.0000
  C   C4392     1.0  0.75415  0.94072  0.01234  1.0000
  H   H3503     1.0  0.59320  0.92187  0.19698  1.0000
  H   H3504     1.0  0.62035  0.82127  0.03222  1.0000
  C   C4393     1.0  0.62582  0.82609  0.20131  1.0000
  C   C4394     1.0  0.62679  0.82286  0.18106  1.0000
  C   C4395     1.0  0.65552  0.78144  0.18780  1.0000
  H   H3505     1.0  0.66957  0.76520  0.20003  1.0000
  C   C4396     1.0  0.66566  0.54045  0.22393  1.0000
  H   H3506     1.0  0.68244  0.59360  0.41174  1.0000
  H   H3507     1.0  0.68465  0.54257  0.36840  1.0000
  C   C4397     1.0  0.75316  0.96979  0.21586  1.0000
  C   C4398     1.0  0.61340  0.76014  0.14944  1.0000
  C   C4399     1.0  0.59713  0.96735  0.14605  1.0000
  C   C4400     1.0  0.64914  0.80129  0.18041  1.0000
  H   H3508     1.0  0.60342  0.74217  0.17480  1.0000
  C   C4401     1.0  0.78383  0.87872  0.24958  1.0000
  C   C4402     1.0  0.68910  0.54643  0.39548  1.0000
  H   H3509     1.0  0.64736  0.83573  0.17375  1.0000
  H   H3510     1.0  0.66346  0.83406  0.18564  1.0000
  C   C4403     1.0  0.66743  0.79951  0.19411  1.0000
  C   C4404     1.0  0.66116  0.81933  0.18664  1.0000
  H   H3511     1.0  0.67453  0.79882  0.19921  1.0000
  H   H3512     1.0  0.74900  0.51345  0.24868  1.0000
  C   C4405     1.0  0.61718  0.84092  0.20985  1.0000
  H   H3513     1.0  0.62459  0.83798  0.99401  1.0000
  H   H3514     1.0  0.59871  0.85177  0.04412  1.0000
  H   H3515     1.0  0.63668  0.55301  0.21644  1.0000
  C   C4406     1.0  0.75881  0.90805  0.99912  1.0000
  C   C4407     1.0  0.64501  0.83074  0.00614  1.0000
  H   H3516     1.0  0.70711  0.50369  0.29947  1.0000
  H   H3517     1.0  0.65373  0.69700  0.99459  1.0000
  C   C4408     1.0  0.69943  0.51263  0.44191  1.0000
  C   C4409     1.0  0.66144  0.52424  0.22190  1.0000
  C   C4410     1.0  0.69868  0.66265  0.99232  1.0000
  H   H3518     1.0  0.70009  0.90898  0.99986  1.0000
  H   H3519     1.0  0.71994  0.51174  0.46309  1.0000
  C   C4411     1.0  0.77874  0.98527  0.12251  1.0000
  H   H3520     1.0  0.77941  0.54781  0.22367  1.0000
  C   C4412     1.0  0.73609  0.69778  0.99364  1.0000
  C   C4413     1.0  0.74125  0.99044  0.99999  1.0000
  H   H3521     1.0  0.70053  0.62108  0.47133  1.0000
  C   C4414     1.0  0.78247  0.97942  0.22434  1.0000
  C   C4415     1.0  0.68099  0.51148  0.28119  1.0000
  C   C4416     1.0  0.69325  0.85307  0.99483  1.0000
  C   C4417     1.0  0.59674  0.84640  0.99648  1.0000
  C   C4418     1.0  0.74320  0.98393  0.02050  1.0000
  C   C4419     1.0  0.67249  0.73577  0.99024  1.0000
  H   H3522     1.0  0.77229  0.66367  0.21134  1.0000
  C   C4420     1.0  0.70000  0.50565  0.29389  1.0000
  H   H3523     1.0  0.71734  0.98207  0.36960  1.0000
  C   C4421     1.0  0.78662  0.52902  0.43662  1.0000
  C   C4422     1.0  0.64067  0.89970  0.00160  1.0000
  C   C4423     1.0  0.71145  0.92882  0.99210  1.0000
  H   H3524     1.0  0.61180  0.89309  0.00881  1.0000
  C   C4424     1.0  0.75419  0.99442  0.23534  1.0000
  H   H3525     1.0  0.78330  0.59922  0.34430  1.0000
  C   C4425     1.0  0.75347  0.84104  0.99413  1.0000
  H   H3526     1.0  0.78435  0.84493  0.25635  1.0000
  C   C4426     1.0  0.78216  0.86030  0.24601  1.0000
  C   C4427     1.0  0.60367  0.73417  0.00643  1.0000
  C   C4428     1.0  0.74960  0.66487  0.99558  1.0000
  C   C4429     1.0  0.62125  0.79027  0.99048  1.0000
  H   H3527     1.0  0.67105  0.82541  0.99847  1.0000
  C   C4430     1.0  0.70403  0.67848  0.99094  1.0000
  C   C4431     1.0  0.58964  0.98200  0.18373  1.0000
  H   H3528     1.0  0.74383  0.63572  0.00913  1.0000
  C   C4432     1.0  0.70503  0.51075  0.45729  1.0000
  C   C4433     1.0  0.70517  0.99329  0.22997  1.0000
  C   C4434     1.0  0.76268  0.96438  0.04638  1.0000
  S   S578      1.0  0.78555  0.58768  0.44616  1.0000
  S   S579      1.0  0.58795  0.81720  0.06705  1.0000
  H   H3529     1.0  0.75790  0.89197  0.00074  1.0000
  Fe  Fe286     1.0  0.61538  0.83517  0.90241  1.0000
  H   H3530     1.0  0.59532  0.87446  0.85887  1.0000
  S   S580      1.0  0.63090  0.84286  0.88258  1.0000
  C   C4435     1.0  0.76648  0.90558  0.80369  1.0000
  C   C4436     1.0  0.76406  0.50805  0.76704  1.0000
  C   C4437     1.0  0.77070  0.52185  0.75460  1.0000
  S   S581      1.0  0.60540  0.81730  0.89469  1.0000
  Fe  Fe287     1.0  0.75265  0.96267  0.92411  1.0000
  Fe  Fe288     1.0  0.73932  0.93242  0.92371  1.0000
  S   S582      1.0  0.75099  0.91982  0.89687  1.0000
  S   S583      1.0  0.72510  0.91875  0.94234  1.0000
  Fe  Fe289     1.0  0.75210  0.95404  0.88287  1.0000
  S   S584      1.0  0.75370  0.96471  0.84772  1.0000
  S   S585      1.0  0.75164  0.92916  0.94167  1.0000
  S   S586      1.0  0.73919  0.96697  0.90841  1.0000
  Fe  Fe290     1.0  0.67390  0.83864  0.93865  1.0000
  H   H3531     1.0  0.60847  0.71735  0.90684  1.0000
  S   S587      1.0  0.65615  0.85085  0.94587  1.0000
  Fe  Fe291     1.0  0.69545  0.85047  0.91852  1.0000
  S   S588      1.0  0.70432  0.81821  0.93253  1.0000
  S   S589      1.0  0.70475  0.87439  0.89615  1.0000
  Fe  Fe292     1.0  0.69286  0.80528  0.92325  1.0000
  S   S590      1.0  0.69941  0.78054  0.90317  1.0000
  H   H3532     1.0  0.71711  0.64249  0.79624  1.0000
  H   H3533     1.0  0.62621  0.66052  0.88414  1.0000
  S   S591      1.0  0.68486  0.83750  0.90698  1.0000
  S   S592      1.0  0.68370  0.85481  0.94875  1.0000
  C   C4438     1.0  0.77614  0.97068  0.75805  1.0000
  C   C4439     1.0  0.71516  0.63643  0.78471  1.0000
  S   S593      1.0  0.74047  0.51257  0.72013  1.0000
  P   P148      1.0  0.78370  0.83475  0.81930  1.0000
  H   H3534     1.0  0.59900  0.97921  0.74155  1.0000
  C   C4440     1.0  0.71244  0.51451  0.90368  1.0000
  C   C4441     1.0  0.65327  0.60587  0.91679  1.0000
  C   C4442     1.0  0.73366  0.99089  0.69829  1.0000
  C   C4443     1.0  0.75086  0.55883  0.72610  1.0000
  H   H3535     1.0  0.67638  0.89189  0.97594  1.0000
  S   S594      1.0  0.69323  0.52746  0.81543  1.0000
  H   H3536     1.0  0.64948  0.75508  0.97260  1.0000
  C   C4444     1.0  0.76372  0.82447  0.83481  1.0000
  S   S595      1.0  0.67558  0.51834  0.85926  1.0000
  H   H3537     1.0  0.73694  0.52524  0.65958  1.0000
  C   C4445     1.0  0.63515  0.68468  0.87948  1.0000
  Fe  Fe293     1.0  0.68784  0.53852  0.84625  1.0000
  S   S596      1.0  0.68525  0.57387  0.84651  1.0000
  C   C4446     1.0  0.70635  0.53536  0.90340  1.0000
  H   H3538     1.0  0.66314  0.86243  0.98225  1.0000
  C   C4447     1.0  0.65431  0.60522  0.89578  1.0000
  C   C4448     1.0  0.77777  0.96502  0.67959  1.0000
  S   S597      1.0  0.67808  0.66509  0.91690  1.0000
  S   S598      1.0  0.65307  0.70998  0.91302  1.0000
  C   C4449     1.0  0.75662  0.81085  0.84028  1.0000
  C   C4450     1.0  0.74309  0.97378  0.74569  1.0000
  H   H3539     1.0  0.77382  0.76650  0.82557  1.0000
  S   S599      1.0  0.70043  0.68105  0.93284  1.0000
  H   H3540     1.0  0.70354  0.54481  0.88931  1.0000
  H   H3541     1.0  0.76701  0.85703  0.79567  1.0000
  C   C4451     1.0  0.68282  0.58181  0.87081  1.0000
  C   C4452     1.0  0.68237  0.60323  0.87078  1.0000
  C   C4453     1.0  0.68055  0.60986  0.88991  1.0000
  C   C4454     1.0  0.67908  0.59512  0.90925  1.0000
  C   C4455     1.0  0.67940  0.57380  0.90921  1.0000
  C   C4456     1.0  0.68129  0.56715  0.89014  1.0000
  H   H3542     1.0  0.68350  0.61470  0.85592  1.0000
  H   H3543     1.0  0.68030  0.62629  0.88973  1.0000
  H   H3544     1.0  0.67504  0.93084  0.91397  1.0000
  H   H3545     1.0  0.68154  0.55066  0.89043  1.0000
  H   H3546     1.0  0.73416  0.98374  0.79525  1.0000
  S   S600      1.0  0.77848  0.94359  0.77084  1.0000
  H   H3547     1.0  0.65480  0.59112  0.92844  1.0000
  H   H3548     1.0  0.74359  0.95991  0.69395  1.0000
  C   C4457     1.0  0.76024  0.79001  0.83683  1.0000
  C   C4458     1.0  0.72430  0.51377  0.75538  1.0000
  C   C4459     1.0  0.72688  0.49659  0.79087  1.0000
  C   C4460     1.0  0.65495  0.92518  0.95758  1.0000
  S   S601      1.0  0.67089  0.49951  0.81260  1.0000
  H   H3549     1.0  0.71912  0.52295  0.74476  1.0000
  H   H3550     1.0  0.75390  0.98912  0.80580  1.0000
  H   H3551     1.0  0.73810  0.51788  0.81668  1.0000
  S   S602      1.0  0.58955  0.82234  0.94161  1.0000
  C   C4461     1.0  0.61967  0.74901  0.93432  1.0000
  C   C4462     1.0  0.62726  0.89260  0.98789  1.0000
  H   H3552     1.0  0.74085  0.88935  0.96889  1.0000
  C   C4463     1.0  0.74558  0.98910  0.83804  1.0000
  C   C4464     1.0  0.71705  0.95049  0.84980  1.0000
  H   H3553     1.0  0.66762  0.73343  0.96315  1.0000
  H   H3554     1.0  0.65660  0.58990  0.89119  1.0000
  C   C4465     1.0  0.69407  0.95435  0.86414  1.0000
  C   C4466     1.0  0.77555  0.77853  0.92107  1.0000
  C   C4467     1.0  0.69948  0.75304  0.91295  1.0000
  C   C4468     1.0  0.69212  0.74531  0.93081  1.0000
  C   C4469     1.0  0.69222  0.72318  0.93699  1.0000
  C   C4470     1.0  0.69993  0.70880  0.92585  1.0000
  C   C4471     1.0  0.70757  0.71654  0.90874  1.0000
  C   C4472     1.0  0.70717  0.73857  0.90199  1.0000
  H   H3555     1.0  0.68627  0.75634  0.93958  1.0000
  H   H3556     1.0  0.62136  0.78199  0.97861  1.0000
  H   H3557     1.0  0.71358  0.70551  0.90019  1.0000
  H   H3558     1.0  0.71288  0.74441  0.88824  1.0000
  C   C4473     1.0  0.78195  0.54068  0.68221  1.0000
  H   H3559     1.0  0.72806  0.87031  0.96126  1.0000
  C   C4474     1.0  0.62592  0.67629  0.88621  1.0000
  C   C4475     1.0  0.71958  0.90662  0.92908  1.0000
  C   C4476     1.0  0.71147  0.89579  0.94062  1.0000
  C   C4477     1.0  0.70719  0.88522  0.93069  1.0000
  C   C4478     1.0  0.71061  0.88635  0.90895  1.0000
  C   C4479     1.0  0.71860  0.89752  0.89727  1.0000
  C   C4480     1.0  0.72317  0.90745  0.90737  1.0000
  H   H3560     1.0  0.70869  0.89506  0.95743  1.0000
  H   H3561     1.0  0.70120  0.87630  0.93986  1.0000
  H   H3562     1.0  0.72129  0.89840  0.88043  1.0000
  H   H3563     1.0  0.72937  0.91590  0.89836  1.0000
  H   H3564     1.0  0.62394  0.85451  0.92326  1.0000
  H   H3565     1.0  0.59235  0.91591  0.78647  1.0000
  H   H3566     1.0  0.78232  0.94739  0.83815  1.0000
  Fe  Fe294     1.0  0.66655  0.65880  0.97701  1.0000
  C   C4481     1.0  0.62206  0.72678  0.94232  1.0000
  C   C4482     1.0  0.62358  0.81066  0.98405  1.0000
  C   C4483     1.0  0.63821  0.74710  0.91644  1.0000
  H   H3567     1.0  0.77525  0.84772  0.85943  1.0000
  C   C4484     1.0  0.68435  0.96743  0.85994  1.0000
  C   C4485     1.0  0.73591  0.57805  0.74863  1.0000
  H   H3568     1.0  0.72009  0.54296  0.68045  1.0000
  C   C4486     1.0  0.74080  0.96985  0.76779  1.0000
  C   C4487     1.0  0.63792  0.84717  0.89910  1.0000
  C   C4488     1.0  0.64902  0.84455  0.89325  1.0000
  C   C4489     1.0  0.65472  0.84570  0.90746  1.0000
  C   C4490     1.0  0.64930  0.85001  0.92734  1.0000
  C   C4491     1.0  0.63819  0.85348  0.93279  1.0000
  C   C4492     1.0  0.63252  0.85199  0.91876  1.0000
  H   H3569     1.0  0.65324  0.84081  0.87810  1.0000
  H   H3570     1.0  0.66328  0.84302  0.90310  1.0000
  H   H3571     1.0  0.63393  0.85697  0.94804  1.0000
  C   C4493     1.0  0.68170  0.51536  0.73892  1.0000
  C   C4494     1.0  0.71071  0.75712  0.95077  1.0000
  C   C4495     1.0  0.78657  0.83149  0.87892  1.0000
  H   H3572     1.0  0.71530  0.98878  0.88027  1.0000
  H   H3573     1.0  0.69907  0.56019  0.92110  1.0000
  H   H3574     1.0  0.69194  0.50737  0.78203  1.0000
  H   H3575     1.0  0.77721  0.61195  0.58382  1.0000
  C   C4496     1.0  0.67688  0.91073  0.94434  1.0000
  C   C4497     1.0  0.77462  0.89963  0.81477  1.0000
  C   C4498     1.0  0.73189  0.53222  0.81461  1.0000
  C   C4499     1.0  0.70336  0.99364  0.84984  1.0000
  C   C4500     1.0  0.72376  0.53683  0.83190  1.0000
  H   H3576     1.0  0.72994  0.94848  0.68399  1.0000
  H   H3577     1.0  0.78193  0.82716  0.55082  1.0000
  S   S603      1.0  0.60161  0.86078  0.91240  1.0000
  S   S604      1.0  0.68235  0.63945  0.96370  1.0000
  Fe  Fe295     1.0  0.60432  0.79955  0.92862  1.0000
  H   H3578     1.0  0.74831  0.81647  0.84716  1.0000
  H   H3579     1.0  0.70063  0.77522  0.97365  1.0000
  C   C4501     1.0  0.73597  0.92994  0.82623  1.0000
  H   H3580     1.0  0.73667  0.54734  0.74258  1.0000
  C   C4502     1.0  0.76175  0.83606  0.97712  1.0000
  Fe  Fe296     1.0  0.68482  0.67061  0.94150  1.0000
  C   C4503     1.0  0.77045  0.58051  0.55553  1.0000
  H   H3581     1.0  0.72059  0.73499  0.93154  1.0000
  C   C4504     1.0  0.66009  0.93253  0.93675  1.0000
  H   H3582     1.0  0.74383  0.59281  0.57576  1.0000
  C   C4505     1.0  0.75687  0.98550  0.69557  1.0000
  H   H3583     1.0  0.65556  0.94384  0.92574  1.0000
  C   C4506     1.0  0.73164  0.54522  0.79447  1.0000
  C   C4507     1.0  0.67105  0.92526  0.93011  1.0000
  C   C4508     1.0  0.61585  0.70828  0.89903  1.0000
  H   H3584     1.0  0.71613  0.98864  0.82247  1.0000
  S   S605      1.0  0.65802  0.65292  0.95534  1.0000
  C   C4509     1.0  0.58867  0.95975  0.74088  1.0000
  C   C4510     1.0  0.75489  0.86944  0.95477  1.0000
  H   H3585     1.0  0.78199  0.83871  0.89215  1.0000
  C   C4511     1.0  0.70580  0.96466  0.88997  1.0000
  C   C4512     1.0  0.77099  0.78273  0.82810  1.0000
  H   H3586     1.0  0.70474  0.66612  0.77371  1.0000
  H   H3587     1.0  0.73646  0.50697  0.91937  1.0000
  H   H3588     1.0  0.71602  0.50170  0.95419  1.0000
  H   H3589     1.0  0.63417  0.69745  0.94250  1.0000
  C   C4513     1.0  0.60297  0.89830  0.80718  1.0000
  H   H3590     1.0  0.71437  0.50822  0.88960  1.0000
  C   C4514     1.0  0.64055  0.72481  0.92372  1.0000
  H   H3591     1.0  0.74042  0.86216  0.92864  1.0000
  H   H3592     1.0  0.72234  0.70425  0.96170  1.0000
  H   H3593     1.0  0.69738  0.94019  0.94126  1.0000
  H   H3594     1.0  0.77251  0.96942  0.65092  1.0000
  H   H3595     1.0  0.67588  0.52678  0.76793  1.0000
  C   C4515     1.0  0.76373  0.89017  0.79693  1.0000
  C   C4516     1.0  0.77781  0.99497  0.79535  1.0000
  H   H3596     1.0  0.70698  0.96428  0.94708  1.0000
  H   H3597     1.0  0.73798  0.60842  0.75124  1.0000
  H   H3598     1.0  0.70822  0.52132  0.70705  1.0000
  C   C4517     1.0  0.77897  0.97551  0.85073  1.0000
  Fe  Fe297     1.0  0.60087  0.84007  0.94493  1.0000
  C   C4518     1.0  0.70629  0.74238  0.98837  1.0000
  C   C4519     1.0  0.74143  0.59448  0.74438  1.0000
  H   H3599     1.0  0.74332  0.95389  0.77683  1.0000
  C   C4520     1.0  0.76392  0.78654  0.57002  1.0000
  C   C4521     1.0  0.75591  0.79176  0.58727  1.0000
  C   C4522     1.0  0.75841  0.79742  0.60354  1.0000
  C   C4523     1.0  0.76891  0.79796  0.60255  1.0000
  C   C4524     1.0  0.78127  0.61739  0.63674  1.0000
  C   C4525     1.0  0.74033  0.99465  0.73381  1.0000
  H   H3600     1.0  0.77066  0.80227  0.61539  1.0000
  H   H3601     1.0  0.67820  0.56231  0.92407  1.0000
  H   H3602     1.0  0.75022  0.58609  0.60845  1.0000
  C   C4526     1.0  0.78244  0.53292  0.61137  1.0000
  H   H3603     1.0  0.77274  0.98405  0.80491  1.0000
  C   C4527     1.0  0.76698  0.78277  0.93785  1.0000
  C   C4528     1.0  0.74666  0.87456  0.97175  1.0000
  H   H3604     1.0  0.76762  0.82117  0.97916  1.0000
  H   H3605     1.0  0.72500  0.60517  0.79256  1.0000
  H   H3606     1.0  0.68779  0.90554  0.87447  1.0000
  C   C4529     1.0  0.71539  0.55458  0.82911  1.0000
  H   H3607     1.0  0.64629  0.65360  0.78906  1.0000
  C   C4530     1.0  0.70644  0.96478  0.93122  1.0000
  Fe  Fe298     1.0  0.66253  0.68283  0.93360  1.0000
  C   C4531     1.0  0.68681  0.92284  0.87032  1.0000
  H   H3608     1.0  0.76201  0.78204  0.55744  1.0000
  H   H3609     1.0  0.74777  0.79136  0.58807  1.0000
  H   H3610     1.0  0.75221  0.80134  0.61699  1.0000
  H   H3611     1.0  0.76972  0.90836  0.96898  1.0000
  H   H3612     1.0  0.70798  0.61489  0.74361  1.0000
  C   C4532     1.0  0.77443  0.78706  0.56898  1.0000
  H   H3613     1.0  0.77490  0.53118  0.60982  1.0000
  S   S606      1.0  0.60041  0.85774  0.96946  1.0000
  H   H3614     1.0  0.59330  0.76121  0.87967  1.0000
  C   C4533     1.0  0.70726  0.53179  0.93959  1.0000
  H   H3615     1.0  0.62612  0.77628  0.91543  1.0000
  C   C4534     1.0  0.58957  0.75232  0.98753  1.0000
  H   H3616     1.0  0.76265  0.92235  0.79958  1.0000
  C   C4535     1.0  0.59467  0.88385  0.84313  1.0000
  H   H3617     1.0  0.70647  0.68831  0.97555  1.0000
  H   H3618     1.0  0.75450  0.54492  0.71910  1.0000
  C   C4536     1.0  0.71420  0.57097  0.75427  1.0000
  C   C4537     1.0  0.71616  0.57263  0.73235  1.0000
  C   C4538     1.0  0.70950  0.56600  0.72379  1.0000
  C   C4539     1.0  0.70078  0.55794  0.73699  1.0000
  C   C4540     1.0  0.69864  0.55671  0.75872  1.0000
  C   C4541     1.0  0.70531  0.56321  0.76734  1.0000
  C   C4542     1.0  0.78198  0.63075  0.59929  1.0000
  H   H3619     1.0  0.78132  0.78530  0.88726  1.0000
  H   H3620     1.0  0.72283  0.57897  0.72184  1.0000
  H   H3621     1.0  0.71116  0.56698  0.70695  1.0000
  H   H3622     1.0  0.69568  0.55254  0.73045  1.0000
  H   H3623     1.0  0.69185  0.55056  0.76899  1.0000
  C   C4543     1.0  0.77466  0.78848  0.90029  1.0000
  C   C4544     1.0  0.75752  0.79700  0.93389  1.0000
  C   C4545     1.0  0.75660  0.80711  0.91304  1.0000
  C   C4546     1.0  0.76523  0.80273  0.89628  1.0000
  P   P149      1.0  0.74461  0.82593  0.90740  1.0000
  C   C4547     1.0  0.73740  0.81457  0.89570  1.0000
  C   C4548     1.0  0.73581  0.83239  0.93152  1.0000
  C   C4549     1.0  0.72907  0.81863  0.94403  1.0000
  C   C4550     1.0  0.72195  0.82365  0.96236  1.0000
  C   C4551     1.0  0.72151  0.84238  0.96843  1.0000
  C   C4552     1.0  0.72845  0.85574  0.95653  1.0000
  C   C4553     1.0  0.73549  0.85098  0.93798  1.0000
  C   C4554     1.0  0.72727  0.82585  0.89231  1.0000
  C   C4555     1.0  0.72129  0.81688  0.88441  1.0000
  C   C4556     1.0  0.72525  0.79635  0.88029  1.0000
  C   C4557     1.0  0.73528  0.78488  0.88381  1.0000
  C   C4558     1.0  0.74135  0.79391  0.89149  1.0000
  C   C4559     1.0  0.74876  0.84961  0.89012  1.0000
  C   C4560     1.0  0.75671  0.85696  0.89425  1.0000
  C   C4561     1.0  0.76035  0.87474  0.88071  1.0000
  C   C4562     1.0  0.75609  0.88540  0.86295  1.0000
  C   C4563     1.0  0.74818  0.87822  0.85870  1.0000
  C   C4564     1.0  0.74450  0.86041  0.87223  1.0000
  C   C4565     1.0  0.70543  0.75973  0.97117  1.0000
  H   H3624     1.0  0.75101  0.80013  0.94711  1.0000
  H   H3625     1.0  0.76469  0.81045  0.88010  1.0000
  H   H3626     1.0  0.72914  0.80419  0.93944  1.0000
  H   H3627     1.0  0.71662  0.81321  0.97167  1.0000
  C   C4566     1.0  0.69525  0.93198  0.86916  1.0000
  Fe  Fe299     1.0  0.67418  0.63561  0.94026  1.0000
  H   H3628     1.0  0.72390  0.84145  0.89620  1.0000
  H   H3629     1.0  0.71340  0.82562  0.88214  1.0000
  H   H3630     1.0  0.72041  0.78919  0.87484  1.0000
  H   H3631     1.0  0.73823  0.76880  0.88095  1.0000
  H   H3632     1.0  0.74899  0.78453  0.89448  1.0000
  H   H3633     1.0  0.76010  0.84901  0.90800  1.0000
  H   H3634     1.0  0.76646  0.88034  0.88405  1.0000
  H   H3635     1.0  0.75885  0.89939  0.85267  1.0000
  H   H3636     1.0  0.74484  0.88651  0.84498  1.0000
  H   H3637     1.0  0.73835  0.85529  0.86858  1.0000
  P   P150      1.0  0.64754  0.66906  0.86735  1.0000
  C   C4567     1.0  0.65021  0.64418  0.88634  1.0000
  C   C4568     1.0  0.64694  0.66438  0.84257  1.0000
  C   C4569     1.0  0.65623  0.65420  0.83020  1.0000
  C   C4570     1.0  0.65597  0.65024  0.81104  1.0000
  C   C4571     1.0  0.64649  0.65678  0.80386  1.0000
  C   C4572     1.0  0.63727  0.66739  0.81581  1.0000
  C   C4573     1.0  0.63748  0.67127  0.83506  1.0000
  C   C4574     1.0  0.64923  0.64468  0.90750  1.0000
  H   H3638     1.0  0.70267  0.92154  0.87244  1.0000
  H   H3639     1.0  0.62498  0.88873  0.97534  1.0000
  C   C4575     1.0  0.65272  0.62426  0.88061  1.0000
  C   C4576     1.0  0.65802  0.68358  0.86058  1.0000
  C   C4577     1.0  0.66675  0.67613  0.87032  1.0000
  C   C4578     1.0  0.67479  0.68771  0.86456  1.0000
  C   C4579     1.0  0.67411  0.70681  0.84928  1.0000
  C   C4580     1.0  0.66550  0.71418  0.83934  1.0000
  C   C4581     1.0  0.65753  0.70253  0.84485  1.0000
  H   H3640     1.0  0.64178  0.71084  0.87991  1.0000
  H   H3641     1.0  0.66364  0.64896  0.83561  1.0000
  H   H3642     1.0  0.66313  0.64192  0.80187  1.0000
  H   H3643     1.0  0.77614  0.57917  0.54069  1.0000
  H   H3644     1.0  0.62994  0.67256  0.81017  1.0000
  H   H3645     1.0  0.63027  0.67968  0.84388  1.0000
  H   H3646     1.0  0.64736  0.65983  0.91230  1.0000
  H   H3647     1.0  0.78264  0.57208  0.57311  1.0000
  H   H3648     1.0  0.65352  0.62312  0.86457  1.0000
  H   H3649     1.0  0.66737  0.66152  0.88239  1.0000
  H   H3650     1.0  0.68151  0.68199  0.87211  1.0000
  H   H3651     1.0  0.68024  0.71590  0.84523  1.0000
  H   H3652     1.0  0.66498  0.72899  0.82750  1.0000
  H   H3653     1.0  0.65088  0.70842  0.83704  1.0000
  C   C4582     1.0  0.72332  0.56325  0.79154  1.0000
  C   C4583     1.0  0.72226  0.52568  0.68314  1.0000
  H   H3654     1.0  0.70999  0.77052  0.93745  1.0000
  C   C4584     1.0  0.71597  0.50210  0.92197  1.0000
  C   C4585     1.0  0.71701  0.60718  0.76791  1.0000
  H   H3655     1.0  0.75214  0.50466  0.93301  1.0000
  H   H3656     1.0  0.75777  0.89500  0.78747  1.0000
  P   P151      1.0  0.72268  0.57975  0.76545  1.0000
  S   S607      1.0  0.66965  0.69031  0.95648  1.0000
  H   H3657     1.0  0.74722  0.96065  0.73786  1.0000
  H   H3658     1.0  0.73780  0.54078  0.78128  1.0000
  C   C4586     1.0  0.77809  0.79636  0.82255  1.0000
  H   H3659     1.0  0.68537  0.90514  0.93919  1.0000
  C   C4587     1.0  0.71559  0.51329  0.69830  1.0000
  C   C4588     1.0  0.59291  0.90737  0.80243  1.0000
  C   C4589     1.0  0.77699  0.79300  0.58513  1.0000
  C   C4590     1.0  0.63768  0.89474  0.98537  1.0000
  C   C4591     1.0  0.67715  0.93594  0.86625  1.0000
  C   C4592     1.0  0.62503  0.71657  0.89268  1.0000
  H   H3660     1.0  0.78224  0.91726  0.93786  1.0000
  H   H3661     1.0  0.70518  0.53854  0.95349  1.0000
  Fe  Fe300     1.0  0.68214  0.50463  0.82986  1.0000
  S   S608      1.0  0.68114  0.80538  0.95431  1.0000
  C   C4593     1.0  0.78506  0.95582  0.84659  1.0000
  S   S609      1.0  0.67678  0.60231  0.93389  1.0000
  H   H3662     1.0  0.75955  0.97637  0.77323  1.0000
  S   S610      1.0  0.70037  0.51391  0.86116  1.0000
  C   C4594     1.0  0.75626  0.57532  0.72183  1.0000
  C   C4595     1.0  0.76680  0.93805  0.97894  1.0000
  H   H3663     1.0  0.77706  0.91187  0.81899  1.0000
  C   C4596     1.0  0.61631  0.68809  0.89588  1.0000
  H   H3664     1.0  0.70349  0.56205  0.78421  1.0000
  Fe  Fe301     1.0  0.76339  0.91920  0.91350  1.0000
  C   C4597     1.0  0.67593  0.95822  0.86101  1.0000
  C   C4598     1.0  0.77494  0.96878  0.70002  1.0000
  H   H3665     1.0  0.71210  0.97240  0.68315  1.0000
  H   H3666     1.0  0.64441  0.75502  0.90635  1.0000
  H   H3667     1.0  0.65012  0.62586  0.93890  1.0000
  H   H3668     1.0  0.60924  0.68146  0.90120  1.0000
  H   H3669     1.0  0.75473  0.77949  0.84096  1.0000
  H   H3670     1.0  0.76411  0.57433  0.71150  1.0000
  H   H3671     1.0  0.77191  0.94542  0.96490  1.0000
  H   H3672     1.0  0.70968  0.94806  0.82594  1.0000
  C   C4599     1.0  0.77026  0.97195  0.66691  1.0000
  H   H3673     1.0  0.76900  0.84677  0.94431  1.0000
  H   H3674     1.0  0.77471  0.55053  0.68929  1.0000
  S   S611      1.0  0.76561  0.95240  0.89744  1.0000
  H   H3675     1.0  0.75419  0.98807  0.66464  1.0000
  C   C4600     1.0  0.72642  0.93424  0.81969  1.0000
  H   H3676     1.0  0.78268  0.61861  0.65142  1.0000
  H   H3677     1.0  0.70025  0.65219  0.74740  1.0000
  H   H3678     1.0  0.61009  0.90010  0.79504  1.0000
  H   H3679     1.0  0.59404  0.78158  0.90477  1.0000
  H   H3680     1.0  0.64978  0.79826  0.95942  1.0000
  C   C4601     1.0  0.78331  0.55189  0.61553  1.0000
  C   C4602     1.0  0.73590  0.97062  0.69349  1.0000
  H   H3681     1.0  0.72706  0.95100  0.87005  1.0000
  C   C4603     1.0  0.70074  0.95100  0.90739  1.0000
  C   C4604     1.0  0.73563  0.98666  0.77816  1.0000
  C   C4605     1.0  0.60384  0.88666  0.82757  1.0000
  C   C4606     1.0  0.78184  0.52037  0.68001  1.0000
  H   H3682     1.0  0.68323  0.98468  0.85574  1.0000
  H   H3683     1.0  0.64342  0.89201  0.97095  1.0000
  H   H3684     1.0  0.67457  0.52352  0.73297  1.0000
  P   P152      1.0  0.70502  0.96575  0.86333  1.0000
  H   H3685     1.0  0.69670  0.93995  0.90534  1.0000
  C   C4607     1.0  0.77984  0.87815  0.81961  1.0000
  H   H3686     1.0  0.71578  0.84655  0.98235  1.0000
  C   C4608     1.0  0.70379  0.54401  0.92132  1.0000
  C   C4609     1.0  0.63249  0.71469  0.93706  1.0000
  C   C4610     1.0  0.72669  0.94616  0.85624  1.0000
  H   H3687     1.0  0.70840  0.58103  0.80722  1.0000
  H   H3688     1.0  0.74347  0.93239  0.84966  1.0000
  H   H3689     1.0  0.78396  0.64240  0.58487  1.0000
  H   H3690     1.0  0.76803  0.53431  0.64824  1.0000
  C   C4611     1.0  0.70819  0.64973  0.77203  1.0000
  H   H3691     1.0  0.73982  0.59495  0.67059  1.0000
  H   H3692     1.0  0.75580  0.60578  0.72776  1.0000
  H   H3693     1.0  0.75673  0.58947  0.54175  1.0000
  S   S612      1.0  0.60637  0.76356  0.93896  1.0000
  H   H3694     1.0  0.62536  0.81822  0.96745  1.0000
  C   C4612     1.0  0.71006  0.62068  0.75513  1.0000
  H   H3695     1.0  0.75363  0.60193  0.63812  1.0000
  H   H3696     1.0  0.72633  0.92987  0.80540  1.0000
  C   C4613     1.0  0.78396  0.89915  0.87520  1.0000
  H   H3697     1.0  0.74000  0.55771  0.69161  1.0000
  C   C4614     1.0  0.62784  0.75919  0.92172  1.0000
  C   C4615     1.0  0.77690  0.86246  0.81344  1.0000
  C   C4616     1.0  0.77444  0.81755  0.82526  1.0000
  C   C4617     1.0  0.67175  0.90317  0.96512  1.0000
  H   H3698     1.0  0.61161  0.87957  0.83133  1.0000
  S   S613      1.0  0.77653  0.89019  0.91832  1.0000
  H   H3699     1.0  0.77717  0.91247  0.87452  1.0000
  H   H3700     1.0  0.69367  0.85656  0.97812  1.0000
  C   C4618     1.0  0.73607  0.93568  0.84460  1.0000
  C   C4619     1.0  0.75953  0.58637  0.55615  1.0000
  C   C4620     1.0  0.76899  0.86870  0.80159  1.0000
  H   H3701     1.0  0.75539  0.88042  0.93947  1.0000
  C   C4621     1.0  0.71150  0.97838  0.91400  1.0000
  H   H3702     1.0  0.78582  0.95698  0.67353  1.0000
  C   C4622     1.0  0.78283  0.83683  0.86031  1.0000
  C   C4623     1.0  0.71699  0.94447  0.83142  1.0000
  C   C4624     1.0  0.66534  0.74001  0.97717  1.0000
  C   C4625     1.0  0.65071  0.62556  0.92264  1.0000
  H   H3703     1.0  0.77451  0.51473  0.68534  1.0000
  C   C4626     1.0  0.71959  0.61526  0.78263  1.0000
  H   H3704     1.0  0.75417  0.52786  0.68034  1.0000
  C   C4627     1.0  0.71807  0.97736  0.68765  1.0000
  H   H3705     1.0  0.77154  0.98214  0.84560  1.0000
  H   H3706     1.0  0.70594  0.94332  0.98670  1.0000
  Fe  Fe302     1.0  0.69184  0.82147  0.96207  1.0000
  C   C4628     1.0  0.72014  0.50867  0.77723  1.0000
  C   C4629     1.0  0.71513  0.56770  0.80904  1.0000
  C   C4630     1.0  0.78565  0.88618  0.89474  1.0000
  H   H3707     1.0  0.66845  0.96836  0.85771  1.0000
  C   C4631     1.0  0.75987  0.98237  0.67478  1.0000
  C   C4632     1.0  0.77413  0.57654  0.57402  1.0000
  C   C4633     1.0  0.69233  0.73664  0.86265  1.0000
  C   C4634     1.0  0.69086  0.71929  0.87963  1.0000
  C   C4635     1.0  0.68158  0.72091  0.89540  1.0000
  C   C4636     1.0  0.67371  0.73972  0.89422  1.0000
  C   C4637     1.0  0.67517  0.75730  0.87740  1.0000
  C   C4638     1.0  0.68448  0.75560  0.86147  1.0000
  P   P153      1.0  0.66506  0.78171  0.87651  1.0000
  C   C4639     1.0  0.66003  0.78599  0.90317  1.0000
  C   C4640     1.0  0.67103  0.80377  0.86020  1.0000
  C   C4641     1.0  0.67653  0.81359  0.86852  1.0000
  C   C4642     1.0  0.68122  0.83048  0.85572  1.0000
  C   C4643     1.0  0.68051  0.83765  0.83454  1.0000
  C   C4644     1.0  0.67522  0.82776  0.82604  1.0000
  C   C4645     1.0  0.67056  0.81079  0.83875  1.0000
  C   C4646     1.0  0.66707  0.78148  0.91665  1.0000
  C   C4647     1.0  0.66334  0.78551  0.93699  1.0000
  C   C4648     1.0  0.65261  0.79429  0.94398  1.0000
  C   C4649     1.0  0.64549  0.79795  0.93104  1.0000
  C   C4650     1.0  0.64914  0.79382  0.91074  1.0000
  C   C4651     1.0  0.65439  0.78001  0.86590  1.0000
  C   C4652     1.0  0.65318  0.76021  0.86430  1.0000
  C   C4653     1.0  0.64450  0.75919  0.85714  1.0000
  C   C4654     1.0  0.63696  0.77781  0.85167  1.0000
  C   C4655     1.0  0.63818  0.79755  0.85302  1.0000
  C   C4656     1.0  0.64691  0.79867  0.85989  1.0000
  H   H3708     1.0  0.69963  0.73552  0.85067  1.0000
  H   H3709     1.0  0.69701  0.70473  0.88095  1.0000
  H   H3710     1.0  0.68056  0.70778  0.90888  1.0000
  H   H3711     1.0  0.66657  0.74060  0.90665  1.0000
  H   H3712     1.0  0.68581  0.76897  0.84837  1.0000
  H   H3713     1.0  0.67727  0.80828  0.88481  1.0000
  H   H3714     1.0  0.68541  0.83800  0.86228  1.0000
  H   H3715     1.0  0.68410  0.85083  0.82473  1.0000
  H   H3716     1.0  0.67471  0.83325  0.80958  1.0000
  H   H3717     1.0  0.66662  0.80317  0.83178  1.0000
  H   H3718     1.0  0.67548  0.77513  0.91133  1.0000
  H   H3719     1.0  0.66877  0.78185  0.94733  1.0000
  H   H3720     1.0  0.68646  0.71714  0.95046  1.0000
  H   H3721     1.0  0.63719  0.80470  0.93644  1.0000
  H   H3722     1.0  0.64342  0.79734  0.90101  1.0000
  H   H3723     1.0  0.65867  0.74547  0.86933  1.0000
  H   H3724     1.0  0.64347  0.74389  0.85636  1.0000
  H   H3725     1.0  0.63009  0.77692  0.84668  1.0000
  H   H3726     1.0  0.63224  0.81202  0.84927  1.0000
  H   H3727     1.0  0.64765  0.81406  0.86120  1.0000
  C   C4657     1.0  0.63468  0.70465  0.88336  1.0000
  S   S614      1.0  0.75257  0.98531  0.94357  1.0000
  C   C4658     1.0  0.78358  0.63272  0.61824  1.0000
  C   C4659     1.0  0.68245  0.51734  0.75853  1.0000
  H   H3728     1.0  0.76083  0.84039  0.83805  1.0000
  C   C4660     1.0  0.78225  0.98613  0.86222  1.0000
  C   C4661     1.0  0.69151  0.50638  0.76652  1.0000
  C   C4662     1.0  0.74075  0.56019  0.73945  1.0000
  C   C4663     1.0  0.69001  0.50237  0.72733  1.0000
  C   C4664     1.0  0.65513  0.75246  0.98237  1.0000
  C   C4665     1.0  0.70103  0.95117  0.92791  1.0000
  S   S615      1.0  0.61535  0.81551  0.93517  1.0000
  C   C4666     1.0  0.75155  0.59308  0.73102  1.0000
  H   H3729     1.0  0.72375  0.52618  0.84730  1.0000
  H   H3730     1.0  0.62475  0.73196  0.89564  1.0000
  H   H3731     1.0  0.61577  0.71882  0.95208  1.0000
  C   C4667     1.0  0.78162  0.51388  0.74824  1.0000
  C   C4668     1.0  0.76250  0.85035  0.95748  1.0000
  C   C4669     1.0  0.71335  0.51093  0.93993  1.0000
  H   H3732     1.0  0.73567  0.99360  0.86830  1.0000
  Fe  Fe303     1.0  0.59141  0.84130  0.90801  1.0000
  C   C4670     1.0  0.77812  0.61339  0.59879  1.0000
  C   C4671     1.0  0.77592  0.59777  0.61730  1.0000
  C   C4672     1.0  0.77752  0.59993  0.63626  1.0000
  P   P154      1.0  0.77194  0.57408  0.61683  1.0000
  C   C4673     1.0  0.76174  0.56863  0.64036  1.0000
  C   C4674     1.0  0.76692  0.57861  0.59331  1.0000
  C   C4675     1.0  0.75596  0.58446  0.59385  1.0000
  C   C4676     1.0  0.75229  0.58828  0.57531  1.0000
  H   H3733     1.0  0.67062  0.92879  0.86715  1.0000
  C   C4677     1.0  0.76458  0.97924  0.70787  1.0000
  H   H3734     1.0  0.74330  0.92230  0.81703  1.0000
  C   C4678     1.0  0.76184  0.54773  0.65252  1.0000
  C   C4679     1.0  0.75399  0.54395  0.67087  1.0000
  C   C4680     1.0  0.74600  0.56088  0.67728  1.0000
  C   C4681     1.0  0.74590  0.58176  0.66543  1.0000
  C   C4682     1.0  0.75375  0.58564  0.64706  1.0000
  H   H3735     1.0  0.76768  0.77504  0.95395  1.0000
  H   H3736     1.0  0.70892  0.55790  0.84241  1.0000
  H   H3737     1.0  0.76267  0.98255  0.72344  1.0000
  C   C4683     1.0  0.72814  0.96397  0.68803  1.0000
  H   H3738     1.0  0.77614  0.58780  0.65060  1.0000
  C   C4684     1.0  0.71765  0.71970  0.96460  1.0000
  C   C4685     1.0  0.70566  0.64187  0.75722  1.0000
  C   C4686     1.0  0.71676  0.73709  0.94747  1.0000
  C   C4687     1.0  0.73177  0.51573  0.67139  1.0000
  C   C4688     1.0  0.76585  0.98335  0.76213  1.0000
  H   H3739     1.0  0.64123  0.71270  0.97067  1.0000
  H   H3740     1.0  0.76739  0.53878  0.74980  1.0000
  H   H3741     1.0  0.78079  0.96379  0.70978  1.0000
  H   H3742     1.0  0.78650  0.75043  0.58822  1.0000
  C   C4689     1.0  0.71122  0.97829  0.89345  1.0000
  H   H3743     1.0  0.64649  0.93127  0.96257  1.0000
  H   H3744     1.0  0.71581  0.98870  0.91656  1.0000
  H   H3745     1.0  0.78289  0.76754  0.92416  1.0000
  H   H3746     1.0  0.78057  0.78274  0.55560  1.0000
  H   H3747     1.0  0.78648  0.52507  0.73865  1.0000
  C   C4690     1.0  0.76556  0.91728  0.98119  1.0000
  H   H3748     1.0  0.71176  0.51400  0.78348  1.0000
  C   C4691     1.0  0.66072  0.91010  0.97178  1.0000
  H   H3749     1.0  0.78494  0.81963  0.78120  1.0000
  H   H3750     1.0  0.62448  0.73821  0.98125  1.0000
  C   C4692     1.0  0.78433  0.97968  0.74374  1.0000
  C   C4693     1.0  0.73512  0.50633  0.74724  1.0000
  H   H3751     1.0  0.78643  0.79038  0.81609  1.0000
  C   C4694     1.0  0.63932  0.71696  0.98589  1.0000
  H   H3752     1.0  0.69696  0.66071  0.97823  1.0000
  Fe  Fe304     1.0  0.70482  0.50133  0.83155  1.0000
  C   C4695     1.0  0.71248  0.72221  0.98523  1.0000
  H   H3753     1.0  0.75558  0.51425  0.77170  1.0000
  H   H3754     1.0  0.72452  0.94440  0.98513  1.0000
  H   H3755     1.0  0.78635  0.87390  0.82764  1.0000
  C   C4696     1.0  0.59224  0.97878  0.73591  1.0000
  H   H3756     1.0  0.75295  0.69636  0.98283  1.0000
  H   H3757     1.0  0.59260  0.94545  0.75046  1.0000
  H   H3758     1.0  0.68030  0.72557  0.98652  1.0000
  H   H3759     1.0  0.68930  0.50101  0.71216  1.0000
  C   C4697     1.0  0.59087  0.77209  0.98868  1.0000
  Fe  Fe305     1.0  0.80058  0.03171  0.16183  1.0000
  C   C4698     1.0  0.95749  0.38701  0.03549  1.0000
  Fe  Fe306     1.0  0.81239  0.05859  0.17328  1.0000
  S   S616      1.0  0.81579  0.03409  0.20234  1.0000
  S   S617      1.0  0.81571  0.09180  0.16067  1.0000
  H   H3760     1.0  0.92289  0.20035  0.04360  1.0000
  Fe  Fe307     1.0  0.79896  0.03055  0.20792  1.0000
  S   S618      1.0  0.81761  0.03485  0.15251  1.0000
  S   S619      1.0  0.79514  0.05733  0.18064  1.0000
  Fe  Fe308     1.0  0.86229  0.14758  0.14022  1.0000
  S   S620      1.0  0.85082  0.17134  0.12187  1.0000
  S   S621      1.0  0.85963  0.11401  0.15632  1.0000
  Fe  Fe309     1.0  0.87639  0.18053  0.13243  1.0000
  S   S622      1.0  0.86591  0.20595  0.11328  1.0000
  S   S623      1.0  0.89118  0.18550  0.13918  1.0000
  Fe  Fe310     1.0  0.85254  0.19458  0.13862  1.0000
  S   S624      1.0  0.83874  0.21605  0.15554  1.0000
  Fe  Fe311     1.0  0.86544  0.17959  0.09872  1.0000
  S   S625      1.0  0.86843  0.18226  0.06362  1.0000
  S   S626      1.0  0.86306  0.17035  0.15862  1.0000
  S   S627      1.0  0.87699  0.15467  0.11606  1.0000
  Fe  Fe312     1.0  0.80953  0.37520  0.08813  1.0000
  S   S628      1.0  0.80279  0.34722  0.10899  1.0000
  S   S629      1.0  0.80048  0.40470  0.06965  1.0000
  Fe  Fe313     1.0  0.83052  0.35929  0.10217  1.0000
  S   S630      1.0  0.82576  0.33008  0.12476  1.0000
  S   S631      1.0  0.84634  0.36834  0.09362  1.0000
  Fe  Fe314     1.0  0.81908  0.32756  0.09870  1.0000
  S   S632      1.0  0.82206  0.29646  0.08870  1.0000
  Fe  Fe315     1.0  0.80987  0.35190  0.13348  1.0000
  S   S633      1.0  0.80066  0.34900  0.16730  1.0000
  S   S634      1.0  0.82509  0.35516  0.07524  1.0000
  S   S635      1.0  0.81543  0.38146  0.11343  1.0000
  H   H3761     1.0  0.82477  0.37091  0.99493  1.0000
  Fe  Fe316     1.0  0.90521  0.33641  0.11368  1.0000
  S   S636      1.0  0.91712  0.31369  0.13194  1.0000
  S   S637      1.0  0.90915  0.34751  0.07806  1.0000
  Fe  Fe317     1.0  0.88785  0.33976  0.15292  1.0000
  S   S638      1.0  0.89838  0.31710  0.17384  1.0000
  S   S639      1.0  0.87050  0.35219  0.16648  1.0000
  Fe  Fe318     1.0  0.91102  0.33565  0.15497  1.0000
  S   S640      1.0  0.91986  0.34374  0.17574  1.0000
  Fe  Fe319     1.0  0.90348  0.29737  0.14907  1.0000
  S   S641      1.0  0.90605  0.26098  0.15752  1.0000
  S   S642      1.0  0.89997  0.35968  0.13538  1.0000
  S   S643      1.0  0.89207  0.31879  0.12953  1.0000
  C   C4699     1.0  0.81661  0.36024  0.28594  1.0000
  H   H3762     1.0  0.82797  0.33993  0.24962  1.0000
  C   C4700     1.0  0.80354  0.47655  0.10628  1.0000
  H   H3763     1.0  0.94927  0.49505  0.38988  1.0000
  C   C4701     1.0  0.85338  0.02076  0.20435  1.0000
  S   S644      1.0  0.97018  0.45542  0.35737  1.0000
  C   C4702     1.0  0.86568  0.45333  0.99210  1.0000
  C   C4703     1.0  0.80486  0.46661  0.17488  1.0000
  C   C4704     1.0  0.80343  0.35376  0.24964  1.0000
  H   H3764     1.0  0.88950  0.13188  0.04593  1.0000
  C   C4705     1.0  0.80213  0.37217  0.25730  1.0000
  C   C4706     1.0  0.79186  0.38494  0.26201  1.0000
  C   C4707     1.0  0.85957  0.18451  0.03085  1.0000
  S   S645      1.0  0.96256  0.43078  0.19646  1.0000
  S   S646      1.0  0.95737  0.39016  0.16876  1.0000
  H   H3765     1.0  0.82466  0.12808  0.13887  1.0000
  C   C4708     1.0  0.89760  0.31483  0.03939  1.0000
  Fe  Fe320     1.0  0.96031  0.41701  0.23138  1.0000
  S   S647      1.0  0.94720  0.43037  0.25666  1.0000
  H   H3766     1.0  0.88598  0.44815  0.42793  1.0000
  S   S648      1.0  0.96108  0.38359  0.22877  1.0000
  C   C4709     1.0  0.83818  0.38869  0.21098  1.0000
  C   C4710     1.0  0.89208  0.24201  0.04804  1.0000
  H   H3767     1.0  0.84295  0.01536  0.06173  1.0000
  C   C4711     1.0  0.92280  0.49472  0.40427  1.0000
  C   C4712     1.0  0.94858  0.47599  0.28447  1.0000
  C   C4713     1.0  0.94698  0.45722  0.28122  1.0000
  C   C4714     1.0  0.94836  0.45453  0.26062  1.0000
  C   C4715     1.0  0.95072  0.47111  0.24336  1.0000
  C   C4716     1.0  0.95104  0.33716  0.00853  1.0000
  C   C4717     1.0  0.83228  0.06430  0.30398  1.0000
  H   H3768     1.0  0.94516  0.44439  0.29460  1.0000
  H   H3769     1.0  0.95166  0.46918  0.22749  1.0000
  P   P155      1.0  0.94924  0.47701  0.15393  1.0000
  H   H3770     1.0  0.88672  0.24922  0.03737  1.0000
  C   C4718     1.0  0.93765  0.44484  0.16590  1.0000
  H   H3771     1.0  0.78999  0.47273  0.31582  1.0000
  H   H3772     1.0  0.86969  0.13374  0.06632  1.0000
  C   C4719     1.0  0.87606  0.07549  0.09882  1.0000
  C   C4720     1.0  0.89772  0.30572  0.06073  1.0000
  H   H3773     1.0  0.86925  0.38377  0.99513  1.0000
  S   S649      1.0  0.89332  0.30139  0.02507  1.0000
  H   H3774     1.0  0.83605  0.15929  0.06622  1.0000
  C   C4721     1.0  0.82736  0.01155  0.07999  1.0000
  C   C4722     1.0  0.93025  0.35704  0.17320  1.0000
  C   C4723     1.0  0.93269  0.35868  0.19167  1.0000
  C   C4724     1.0  0.94090  0.36877  0.19067  1.0000
  C   C4725     1.0  0.94684  0.37735  0.17109  1.0000
  C   C4726     1.0  0.94435  0.37591  0.15258  1.0000
  C   C4727     1.0  0.93612  0.36585  0.15359  1.0000
  H   H3775     1.0  0.92824  0.35193  0.20693  1.0000
  H   H3776     1.0  0.94268  0.36973  0.20505  1.0000
  H   H3777     1.0  0.94886  0.38249  0.13734  1.0000
  H   H3778     1.0  0.93438  0.36475  0.13923  1.0000
  C   C4728     1.0  0.90455  0.34399  0.04194  1.0000
  C   C4729     1.0  0.90452  0.33499  0.06341  1.0000
  C   C4730     1.0  0.90108  0.31583  0.07271  1.0000
  H   H3779     1.0  0.90723  0.35876  0.03458  1.0000
  H   H3780     1.0  0.90120  0.30852  0.08906  1.0000
  C   C4731     1.0  0.93669  0.17918  0.05387  1.0000
  Fe  Fe321     1.0  0.97866  0.37933  0.22625  1.0000
  C   C4732     1.0  0.85260  0.36485  0.11429  1.0000
  C   C4733     1.0  0.84758  0.35817  0.13534  1.0000
  C   C4734     1.0  0.85295  0.35485  0.15157  1.0000
  C   C4735     1.0  0.86344  0.35764  0.14658  1.0000
  C   C4736     1.0  0.86841  0.36438  0.12552  1.0000
  C   C4737     1.0  0.86294  0.36826  0.10942  1.0000
  H   H3781     1.0  0.83968  0.35517  0.13898  1.0000
  H   H3782     1.0  0.84913  0.34933  0.16780  1.0000
  H   H3783     1.0  0.87651  0.36648  0.12160  1.0000
  H   H3784     1.0  0.86686  0.37323  0.09311  1.0000
  C   C4738     1.0  0.79314  0.37411  0.17201  1.0000
  C   C4739     1.0  0.84935  0.09452  0.01899  1.0000
  C   C4740     1.0  0.85196  0.33406  0.00175  1.0000
  H   H3785     1.0  0.81948  0.31935  0.99169  1.0000
  C   C4741     1.0  0.93317  0.28578  0.06669  1.0000
  C   C4742     1.0  0.79200  0.39165  0.15513  1.0000
  H   H3786     1.0  0.80241  0.15322  0.99201  1.0000
  H   H3787     1.0  0.80303  0.39033  0.21513  1.0000
  C   C4743     1.0  0.79004  0.13451  0.17705  1.0000
  H   H3788     1.0  0.79475  0.38946  0.13909  1.0000
  H   H3789     1.0  0.93409  0.39064  0.36558  1.0000
  C   C4744     1.0  0.80290  0.38957  0.01365  1.0000
  C   C4745     1.0  0.80426  0.38812  0.03408  1.0000
  C   C4746     1.0  0.80047  0.40609  0.04324  1.0000
  C   C4747     1.0  0.79580  0.42563  0.03167  1.0000
  C   C4748     1.0  0.94004  0.49171  0.42183  1.0000
  C   C4749     1.0  0.90909  0.06067  0.00889  1.0000
  H   H3790     1.0  0.80787  0.37305  0.04302  1.0000
  H   H3791     1.0  0.83166  0.00127  0.23340  1.0000
  P   P156      1.0  0.87820  0.10486  0.03646  1.0000
  C   C4750     1.0  0.89439  0.20796  0.14368  1.0000
  C   C4751     1.0  0.90261  0.20356  0.15433  1.0000
  C   C4752     1.0  0.90588  0.22010  0.15826  1.0000
  C   C4753     1.0  0.90115  0.24158  0.15137  1.0000
  C   C4754     1.0  0.89293  0.24637  0.14038  1.0000
  C   C4755     1.0  0.88954  0.22952  0.13655  1.0000
  H   H3792     1.0  0.90649  0.18711  0.15974  1.0000
  H   H3793     1.0  0.91221  0.21614  0.16669  1.0000
  H   H3794     1.0  0.88922  0.26292  0.13490  1.0000
  H   H3795     1.0  0.88334  0.23318  0.12787  1.0000
  C   C4756     1.0  0.83374  0.23826  0.13734  1.0000
  C   C4757     1.0  0.83545  0.23700  0.11629  1.0000
  C   C4758     1.0  0.83134  0.25468  0.10170  1.0000
  C   C4759     1.0  0.82607  0.27401  0.10783  1.0000
  C   C4760     1.0  0.82425  0.27524  0.12897  1.0000
  C   C4761     1.0  0.82801  0.25727  0.14378  1.0000
  H   H3796     1.0  0.83994  0.22236  0.11129  1.0000
  H   H3797     1.0  0.83247  0.25350  0.08555  1.0000
  H   H3798     1.0  0.81985  0.28990  0.13396  1.0000
  H   H3799     1.0  0.82667  0.25821  0.16011  1.0000
  H   H3800     1.0  0.80551  0.32764  0.33040  1.0000
  C   C4762     1.0  0.85867  0.17852  0.05279  1.0000
  C   C4763     1.0  0.85018  0.16931  0.06552  1.0000
  C   C4764     1.0  0.84253  0.16661  0.05635  1.0000
  P   P157      1.0  0.84762  0.40761  0.01250  1.0000
  H   H3801     1.0  0.84955  0.16413  0.08238  1.0000
  H   H3802     1.0  0.87285  0.06665  0.03203  1.0000
  C   C4765     1.0  0.82812  0.09705  0.15933  1.0000
  C   C4766     1.0  0.83567  0.08232  0.16990  1.0000
  C   C4767     1.0  0.84537  0.08758  0.16868  1.0000
  C   C4768     1.0  0.84755  0.10749  0.15693  1.0000
  C   C4769     1.0  0.84006  0.12186  0.14602  1.0000
  C   C4770     1.0  0.83037  0.11675  0.14736  1.0000
  H   H3803     1.0  0.83403  0.06699  0.17910  1.0000
  H   H3804     1.0  0.85117  0.07627  0.17694  1.0000
  H   H3805     1.0  0.84163  0.13699  0.13662  1.0000
  C   C4771     1.0  0.85735  0.34777  0.04728  1.0000
  C   C4772     1.0  0.86768  0.34096  0.03619  1.0000
  C   C4773     1.0  0.87186  0.35403  0.01738  1.0000
  C   C4774     1.0  0.86581  0.37411  0.00981  1.0000
  C   C4775     1.0  0.85555  0.38142  0.02133  1.0000
  C   C4776     1.0  0.85133  0.36789  0.03994  1.0000
  S   S650      1.0  0.98187  0.38948  0.19093  1.0000
  C   C4777     1.0  0.83979  0.41736  0.03579  1.0000
  H   H3806     1.0  0.85790  0.13347  0.02923  1.0000
  C   C4778     1.0  0.80938  0.22964  0.18342  1.0000
  C   C4779     1.0  0.88704  0.13979  0.03118  1.0000
  C   C4780     1.0  0.87240  0.09270  0.10892  1.0000
  C   C4781     1.0  0.80279  0.05631  0.25327  1.0000
  C   C4782     1.0  0.80945  0.46929  0.12206  1.0000
  C   C4783     1.0  0.82880  0.42595  0.03794  1.0000
  C   C4784     1.0  0.82272  0.43193  0.05674  1.0000
  C   C4785     1.0  0.82755  0.42940  0.07345  1.0000
  C   C4786     1.0  0.83845  0.42089  0.07143  1.0000
  C   C4787     1.0  0.84456  0.41489  0.05270  1.0000
  C   C4788     1.0  0.78781  0.32062  0.07994  1.0000
  H   H3807     1.0  0.82481  0.42747  0.02546  1.0000
  C   C4789     1.0  0.85862  0.44035  0.00464  1.0000
  C   C4790     1.0  0.78763  0.17727  0.17866  1.0000
  C   C4791     1.0  0.95020  0.32360  0.99674  1.0000
  H   H3808     1.0  0.95086  0.16176  0.06533  1.0000
  H   H3809     1.0  0.85399  0.33768  0.06177  1.0000
  H   H3810     1.0  0.87247  0.32562  0.04217  1.0000
  H   H3811     1.0  0.87985  0.34859  0.00872  1.0000
  H   H3812     1.0  0.95816  0.30650  0.11183  1.0000
  H   H3813     1.0  0.84343  0.37302  0.04905  1.0000
  C   C4792     1.0  0.81094  0.20843  0.18175  1.0000
  H   H3814     1.0  0.83601  0.37462  0.01645  1.0000
  H   H3815     1.0  0.82011  0.27034  0.05210  1.0000
  H   H3816     1.0  0.80114  0.46462  0.27379  1.0000
  C   C4793     1.0  0.98127  0.45225  0.29677  1.0000
  H   H3817     1.0  0.81418  0.43779  0.05862  1.0000
  H   H3818     1.0  0.84210  0.41782  0.08476  1.0000
  H   H3819     1.0  0.85292  0.40745  0.05178  1.0000
  H   H3820     1.0  0.95798  0.43269  0.14769  1.0000
  H   H3821     1.0  0.93195  0.44328  0.22589  1.0000
  C   C4794     1.0  0.82796  0.38517  0.99087  1.0000
  H   H3822     1.0  0.80982  0.37421  0.33810  1.0000
  H   H3823     1.0  0.81602  0.19603  0.19096  1.0000
  C   C4795     1.0  0.82751  0.26271  0.04296  1.0000
  C   C4796     1.0  0.82158  0.08774  0.03302  1.0000
  C   C4797     1.0  0.82018  0.09872  0.04906  1.0000
  C   C4798     1.0  0.81843  0.12119  0.04391  1.0000
  P   P158      1.0  0.82023  0.08438  0.07610  1.0000
  C   C4799     1.0  0.82289  0.05584  0.07779  1.0000
  C   C4800     1.0  0.83055  0.08841  0.08629  1.0000
  C   C4801     1.0  0.83295  0.07482  0.10518  1.0000
  C   C4802     1.0  0.84042  0.07818  0.11418  1.0000
  C   C4803     1.0  0.84563  0.09501  0.10432  1.0000
  C   C4804     1.0  0.84360  0.10817  0.08516  1.0000
  C   C4805     1.0  0.83609  0.10492  0.07611  1.0000
  C   C4806     1.0  0.83297  0.04539  0.06820  1.0000
  C   C4807     1.0  0.83518  0.02333  0.06923  1.0000
  C   C4808     1.0  0.81515  0.04381  0.08888  1.0000
  C   C4809     1.0  0.80724  0.09267  0.09220  1.0000
  C   C4810     1.0  0.80613  0.09644  0.11229  1.0000
  H   H3824     1.0  0.83428  0.07083  0.31511  1.0000
  H   H3825     1.0  0.92889  0.48875  0.45181  1.0000
  C   C4811     1.0  0.81253  0.00469  0.26250  1.0000
  C   C4812     1.0  0.79808  0.09395  0.08520  1.0000
  H   H3826     1.0  0.80593  0.41983  0.23516  1.0000
  H   H3827     1.0  0.82248  0.07055  0.03651  1.0000
  H   H3828     1.0  0.81693  0.13012  0.05606  1.0000
  H   H3829     1.0  0.82878  0.06204  0.11338  1.0000
  H   H3830     1.0  0.84192  0.06813  0.12918  1.0000
  H   H3831     1.0  0.85106  0.09807  0.11183  1.0000
  H   H3832     1.0  0.84772  0.12114  0.07751  1.0000
  H   H3833     1.0  0.83464  0.11550  0.06142  1.0000
  H   H3834     1.0  0.83910  0.05435  0.05990  1.0000
  C   C4813     1.0  0.86999  0.11361  0.09715  1.0000
  H   H3835     1.0  0.80739  0.05118  0.09695  1.0000
  H   H3836     1.0  0.81299  0.09564  0.11821  1.0000
  C   C4814     1.0  0.78769  0.01502  0.11035  1.0000
  C   C4815     1.0  0.79605  0.10079  0.12539  1.0000
  H   H3837     1.0  0.82390  0.31930  0.33623  1.0000
  H   H3838     1.0  0.79876  0.09082  0.06988  1.0000
  H   H3839     1.0  0.84281  0.12804  0.01852  1.0000
  H   H3840     1.0  0.85396  0.23608  0.00964  1.0000
  C   C4816     1.0  0.97360  0.44968  0.26927  1.0000
  C   C4817     1.0  0.97125  0.43003  0.28114  1.0000
  C   C4818     1.0  0.97369  0.42167  0.30114  1.0000
  C   C4819     1.0  0.97438  0.36229  0.30147  1.0000
  P   P159      1.0  0.96900  0.39871  0.31870  1.0000
  C   C4820     1.0  0.95647  0.40788  0.33579  1.0000
  C   C4821     1.0  0.96708  0.38162  0.30401  1.0000
  C   C4822     1.0  0.95802  0.38748  0.29532  1.0000
  C   C4823     1.0  0.95633  0.37433  0.28411  1.0000
  H   H3841     1.0  0.94866  0.38169  0.99469  1.0000
  C   C4824     1.0  0.89014  0.08692  0.02612  1.0000
  C   C4825     1.0  0.78884  0.37699  0.19276  1.0000
  C   C4826     1.0  0.94923  0.39436  0.34499  1.0000
  C   C4827     1.0  0.93963  0.40115  0.35861  1.0000
  C   C4828     1.0  0.93723  0.42140  0.36330  1.0000
  C   C4829     1.0  0.94441  0.43492  0.35428  1.0000
  C   C4830     1.0  0.95397  0.42823  0.34054  1.0000
  H   H3842     1.0  0.81179  0.06924  0.28119  1.0000
  C   C4831     1.0  0.89147  0.08220  0.00636  1.0000
  H   H3843     1.0  0.95433  0.19372  0.07229  1.0000
  C   C4832     1.0  0.94444  0.32328  0.09864  1.0000
  H   H3844     1.0  0.91640  0.05054  0.00223  1.0000
  H   H3845     1.0  0.86023  0.01729  0.19179  1.0000
  H   H3846     1.0  0.80662  0.13448  0.16480  1.0000
  H   H3847     1.0  0.97143  0.45635  0.25410  1.0000
  H   H3848     1.0  0.96720  0.42189  0.27497  1.0000
  H   H3849     1.0  0.82579  0.47690  0.19872  1.0000
  H   H3850     1.0  0.95234  0.40242  0.29687  1.0000
  H   H3851     1.0  0.94949  0.37934  0.27689  1.0000
  H   H3852     1.0  0.84293  0.02719  0.27357  1.0000
  C   C4833     1.0  0.89715  0.46861  0.41273  1.0000
  H   H3853     1.0  0.84150  0.05756  0.23472  1.0000
  H   H3854     1.0  0.95105  0.37851  0.34172  1.0000
  H   H3855     1.0  0.85061  0.34849  0.00732  1.0000
  C   C4834     1.0  0.88771  0.24543  0.99200  1.0000
  H   H3856     1.0  0.94268  0.45056  0.35800  1.0000
  H   H3857     1.0  0.95940  0.43898  0.33391  1.0000
  S   S651      1.0  0.79286  0.03481  0.13502  1.0000
  C   C4835     1.0  0.79808  0.40921  0.00226  1.0000
  H   H3858     1.0  0.96753  0.37851  0.36403  1.0000
  H   H3859     1.0  0.93001  0.41803  0.17517  1.0000
  H   H3860     1.0  0.86616  0.19141  0.02085  1.0000
  C   C4836     1.0  0.80373  0.44826  0.27157  1.0000
  C   C4837     1.0  0.80694  0.43146  0.28780  1.0000
  C   C4838     1.0  0.93334  0.44403  0.20909  1.0000
  H   H3861     1.0  0.79041  0.39878  0.26873  1.0000
  P   P160      1.0  0.80944  0.17684  0.16298  1.0000
  C   C4839     1.0  0.81473  0.17995  0.13472  1.0000
  C   C4840     1.0  0.80165  0.47969  0.18957  1.0000
  H   H3862     1.0  0.98126  0.35989  0.38478  1.0000
  H   H3863     1.0  0.92985  0.42651  0.37402  1.0000
  C   C4841     1.0  0.83728  0.23685  0.02141  1.0000
  C   C4842     1.0  0.95896  0.33673  0.06183  1.0000
  H   H3864     1.0  0.82178  0.11845  0.22064  1.0000
  C   C4843     1.0  0.82137  0.19452  0.12429  1.0000
  C   C4844     1.0  0.82462  0.19889  0.10225  1.0000
  C   C4845     1.0  0.82128  0.18879  0.09040  1.0000
  H   H3865     1.0  0.98156  0.48179  0.17330  1.0000
  C   C4846     1.0  0.82172  0.00050  0.29016  1.0000
  C   C4847     1.0  0.81924  0.15970  0.17771  1.0000
  C   C4848     1.0  0.81634  0.14422  0.19596  1.0000
  C   C4849     1.0  0.82401  0.13068  0.20693  1.0000
  C   C4850     1.0  0.83457  0.13284  0.20014  1.0000
  C   C4851     1.0  0.83740  0.14878  0.18264  1.0000
  C   C4852     1.0  0.82980  0.16215  0.17144  1.0000
  C   C4853     1.0  0.79466  0.42720  0.01127  1.0000
  C   C4854     1.0  0.89012  0.15894  0.01990  1.0000
  C   C4855     1.0  0.81710  0.41239  0.16772  1.0000
  C   C4856     1.0  0.80324  0.24620  0.17112  1.0000
  C   C4857     1.0  0.88120  0.16048  0.99268  1.0000
  H   H3866     1.0  0.91903  0.41693  0.42219  1.0000
  C   C4858     1.0  0.81902  0.01210  0.27083  1.0000
  C   C4859     1.0  0.96569  0.40722  0.00205  1.0000
  C   C4860     1.0  0.98359  0.36581  0.36791  1.0000
  H   H3867     1.0  0.92631  0.46691  0.32759  1.0000
  H   H3868     1.0  0.82388  0.20290  0.13314  1.0000
  H   H3869     1.0  0.82967  0.21024  0.09427  1.0000
  H   H3870     1.0  0.82365  0.19253  0.07330  1.0000
  S   S652      1.0  0.78934  0.02347  0.24113  1.0000
  H   H3871     1.0  0.85503  0.44211  0.02070  1.0000
  H   H3872     1.0  0.82047  0.24133  0.03487  1.0000
  C   C4861     1.0  0.97583  0.37635  0.35606  1.0000
  H   H3873     1.0  0.84061  0.12214  0.20828  1.0000
  H   H3874     1.0  0.79285  0.43954  0.03869  1.0000
  H   H3875     1.0  0.97960  0.47682  0.26886  1.0000
  C   C4862     1.0  0.86342  0.21901  0.17160  1.0000
  C   C4863     1.0  0.85658  0.20916  0.18896  1.0000
  C   C4864     1.0  0.84887  0.22139  0.20214  1.0000
  C   C4865     1.0  0.84818  0.24342  0.19839  1.0000
  C   C4866     1.0  0.85512  0.25341  0.18116  1.0000
  C   C4867     1.0  0.86261  0.24109  0.16757  1.0000
  P   P161      1.0  0.85541  0.28113  0.17774  1.0000
  C   C4868     1.0  0.84285  0.29462  0.19168  1.0000
  C   C4869     1.0  0.86602  0.28253  0.18871  1.0000
  C   C4870     1.0  0.87477  0.26523  0.19087  1.0000
  C   C4871     1.0  0.88288  0.26653  0.19950  1.0000
  C   C4872     1.0  0.88234  0.28506  0.20605  1.0000
  C   C4873     1.0  0.87379  0.30252  0.20352  1.0000
  C   C4874     1.0  0.86569  0.30132  0.19478  1.0000
  C   C4875     1.0  0.84098  0.29221  0.21369  1.0000
  C   C4876     1.0  0.83096  0.30068  0.22504  1.0000
  C   C4877     1.0  0.82275  0.31163  0.21448  1.0000
  C   C4878     1.0  0.82461  0.31453  0.19257  1.0000
  C   C4879     1.0  0.83463  0.30625  0.18116  1.0000
  C   C4880     1.0  0.85763  0.29291  0.14982  1.0000
  C   C4881     1.0  0.85139  0.29027  0.13740  1.0000
  C   C4882     1.0  0.85266  0.30044  0.11604  1.0000
  C   C4883     1.0  0.86056  0.31226  0.10670  1.0000
  C   C4884     1.0  0.86717  0.31397  0.11867  1.0000
  C   C4885     1.0  0.86562  0.30463  0.14024  1.0000
  H   H3876     1.0  0.86943  0.20953  0.16136  1.0000
  H   H3877     1.0  0.85720  0.19206  0.19218  1.0000
  H   H3878     1.0  0.84348  0.21373  0.21532  1.0000
  H   H3879     1.0  0.84226  0.25242  0.20904  1.0000
  H   H3880     1.0  0.86807  0.24846  0.15428  1.0000
  H   H3881     1.0  0.87555  0.25081  0.18561  1.0000
  H   H3882     1.0  0.88978  0.25341  0.20047  1.0000
  H   H3883     1.0  0.88877  0.28617  0.21228  1.0000
  H   H3884     1.0  0.87367  0.31731  0.20753  1.0000
  H   H3885     1.0  0.85934  0.31528  0.19223  1.0000
  H   H3886     1.0  0.84719  0.28317  0.22214  1.0000
  H   H3887     1.0  0.82951  0.29832  0.24205  1.0000
  H   H3888     1.0  0.81489  0.31767  0.22320  1.0000
  H   H3889     1.0  0.81824  0.32293  0.18435  1.0000
  H   H3890     1.0  0.83578  0.30875  0.16425  1.0000
  H   H3891     1.0  0.84537  0.28077  0.14433  1.0000
  H   H3892     1.0  0.84758  0.29899  0.10667  1.0000
  H   H3893     1.0  0.86163  0.32013  0.09019  1.0000
  H   H3894     1.0  0.87329  0.32312  0.11131  1.0000
  H   H3895     1.0  0.87060  0.30685  0.14933  1.0000
  H   H3896     1.0  0.82476  0.07248  0.21980  1.0000
  H   H3897     1.0  0.80689  0.43484  0.30267  1.0000
  C   C4886     1.0  0.78744  0.41223  0.15897  1.0000
  H   H3898     1.0  0.79604  0.40706  0.34169  1.0000
  H   H3899     1.0  0.80048  0.32617  0.00885  1.0000
  C   C4887     1.0  0.89431  0.44892  0.42267  1.0000
  C   C4888     1.0  0.79795  0.08669  0.22553  1.0000
  C   C4889     1.0  0.95312  0.38660  0.00306  1.0000
  H   H3900     1.0  0.97277  0.49404  0.22809  1.0000
  H   H3901     1.0  0.96861  0.40650  0.03210  1.0000
  H   H3902     1.0  0.89738  0.21363  0.99831  1.0000
  C   C4890     1.0  0.98170  0.46029  0.13418  1.0000
  C   C4891     1.0  0.97483  0.42892  0.13863  1.0000
  C   C4892     1.0  0.96445  0.44074  0.14388  1.0000
  C   C4893     1.0  0.82320  0.46077  0.17741  1.0000
  C   C4894     1.0  0.93055  0.37869  0.04708  1.0000
  H   H3903     1.0  0.79535  0.10301  0.14110  1.0000
  H   H3904     1.0  0.93885  0.31807  0.11296  1.0000
  H   H3905     1.0  0.80655  0.15816  0.12992  1.0000
  C   C4895     1.0  0.80309  0.32840  0.03829  1.0000
  H   H3906     1.0  0.90767  0.40301  0.02948  1.0000
  C   C4896     1.0  0.80649  0.42288  0.24977  1.0000
  C   C4897     1.0  0.80988  0.40589  0.26585  1.0000
  C   C4898     1.0  0.96260  0.46227  0.14501  1.0000
  C   C4899     1.0  0.93225  0.42982  0.18052  1.0000
  C   C4900     1.0  0.93245  0.32184  0.01757  1.0000
  H   H3907     1.0  0.92674  0.33944  0.04225  1.0000
  C   C4901     1.0  0.84275  0.04336  0.22868  1.0000
  C   C4902     1.0  0.89580  0.21944  0.08112  1.0000
  C   C4903     1.0  0.80318  0.37396  0.35162  1.0000
  H   H3908     1.0  0.97614  0.41203  0.13882  1.0000
  C   C4904     1.0  0.89854  0.07903  0.03681  1.0000
  C   C4905     1.0  0.87799  0.25912  0.99819  1.0000
  C   C4906     1.0  0.81162  0.16949  0.12262  1.0000
  H   H3909     1.0  0.79327  0.48661  0.19466  1.0000
  C   C4907     1.0  0.91049  0.40483  0.05883  1.0000
  C   C4908     1.0  0.81151  0.33548  0.31900  1.0000
  C   C4909     1.0  0.83713  0.03980  0.28042  1.0000
  H   H3910     1.0  0.81050  0.01301  0.24746  1.0000
  C   C4910     1.0  0.85800  0.11773  0.02738  1.0000
  H   H3911     1.0  0.83296  0.36366  0.27837  1.0000
  H   H3912     1.0  0.86746  0.46485  0.99856  1.0000
  C   C4911     1.0  0.81021  0.41099  0.18771  1.0000
  H   H3913     1.0  0.84377  0.33435  0.22078  1.0000
  C   C4912     1.0  0.81006  0.41035  0.28496  1.0000
  H   H3914     1.0  0.85028  0.45027  0.09250  1.0000
  C   C4913     1.0  0.96363  0.35514  0.28163  1.0000
  C   C4914     1.0  0.84939  0.11467  0.02147  1.0000
  C   C4915     1.0  0.79467  0.29668  0.10992  1.0000
  H   H3915     1.0  0.82533  0.40837  0.22828  1.0000
  C   C4916     1.0  0.81565  0.45694  0.16878  1.0000
  C   C4917     1.0  0.93871  0.45913  0.19451  1.0000
  C   C4918     1.0  0.83958  0.35045  0.22247  1.0000
  H   H3916     1.0  0.98154  0.35740  0.30764  1.0000
  H   H3917     1.0  0.88040  0.06570  0.06925  1.0000
  C   C4919     1.0  0.81651  0.07201  0.22681  1.0000
  H   H3918     1.0  0.82283  0.43342  0.08819  1.0000
  C   C4920     1.0  0.80630  0.32589  0.01736  1.0000
  C   C4921     1.0  0.79470  0.34858  0.24617  1.0000
  C   C4922     1.0  0.80875  0.39108  0.20025  1.0000
  H   H3919     1.0  0.83751  0.33764  0.31030  1.0000
  Fe  Fe322     1.0  0.81952  0.01007  0.18227  1.0000
  H   H3920     1.0  0.80028  0.04452  0.26716  1.0000
  C   C4923     1.0  0.79547  0.30355  0.08809  1.0000
  C   C4924     1.0  0.83052  0.35375  0.23861  1.0000
  C   C4925     1.0  0.80638  0.20364  0.16762  1.0000
  C   C4926     1.0  0.79534  0.39261  0.35373  1.0000
  H   H3921     1.0  0.93687  0.27178  0.03979  1.0000
  H   H3922     1.0  0.84134  0.40217  0.20060  1.0000
  H   H3923     1.0  0.83154  0.45331  0.17316  1.0000
  C   C4927     1.0  0.85188  0.18195  0.02171  1.0000
  C   C4928     1.0  0.92781  0.38592  0.06600  1.0000
  H   H3924     1.0  0.87120  0.08981  0.12595  1.0000
  H   H3925     1.0  0.81146  0.26182  0.98954  1.0000
  C   C4929     1.0  0.90108  0.33396  0.02995  1.0000
  C   C4930     1.0  0.81738  0.02177  0.08991  1.0000
  C   C4931     1.0  0.81964  0.06337  0.28468  1.0000
  H   H3926     1.0  0.93914  0.29537  0.06000  1.0000
  H   H3927     1.0  0.89535  0.29062  0.06805  1.0000
  H   H3928     1.0  0.79050  0.40095  0.40585  1.0000
  C   C4932     1.0  0.82503  0.37464  0.24079  1.0000
  C   C4933     1.0  0.87162  0.11742  0.07516  1.0000
  C   C4934     1.0  0.84656  0.25939  0.02939  1.0000
  C   C4935     1.0  0.83689  0.26922  0.04094  1.0000
  P   P162      1.0  0.85832  0.26943  0.02546  1.0000
  C   C4936     1.0  0.86092  0.27083  0.04983  1.0000
  C   C4937     1.0  0.87019  0.25151  0.01510  1.0000
  C   C4938     1.0  0.87235  0.23018  0.02607  1.0000
  C   C4939     1.0  0.88213  0.21659  0.02010  1.0000
  H   H3929     1.0  0.97108  0.31792  0.07894  1.0000
  C   C4940     1.0  0.79968  0.46209  0.10029  1.0000
  C   C4941     1.0  0.93019  0.42927  0.20211  1.0000
  C   C4942     1.0  0.85625  0.25921  0.06928  1.0000
  C   C4943     1.0  0.85921  0.25869  0.08779  1.0000
  C   C4944     1.0  0.86727  0.26874  0.08682  1.0000
  C   C4945     1.0  0.87196  0.28035  0.06752  1.0000
  C   C4946     1.0  0.86880  0.28139  0.04908  1.0000
  C   C4947     1.0  0.85618  0.29527  0.00793  1.0000
  H   H3930     1.0  0.96251  0.34523  0.27239  1.0000
  H   H3931     1.0  0.97106  0.41774  0.99306  1.0000
  H   H3932     1.0  0.97018  0.48885  0.13959  1.0000
  C   C4948     1.0  0.97132  0.47215  0.13941  1.0000
  C   C4949     1.0  0.91776  0.39873  0.07195  1.0000
  C   C4950     1.0  0.83541  0.02993  0.23648  1.0000
  C   C4951     1.0  0.82710  0.04742  0.27516  1.0000
  H   H3933     1.0  0.83659  0.28193  0.04844  1.0000
  H   H3934     1.0  0.86657  0.22429  0.03968  1.0000
  C   C4952     1.0  0.94089  0.31602  0.00118  1.0000
  H   H3935     1.0  0.81327  0.23328  0.19373  1.0000
  C   C4953     1.0  0.87763  0.07921  0.07685  1.0000
  C   C4954     1.0  0.80887  0.35024  0.30097  1.0000
  H   H3936     1.0  0.85058  0.25000  0.07011  1.0000
  H   H3937     1.0  0.85540  0.25016  0.10287  1.0000
  H   H3938     1.0  0.86989  0.26755  0.10104  1.0000
  H   H3939     1.0  0.87822  0.28813  0.06671  1.0000
  H   H3940     1.0  0.87281  0.28975  0.03409  1.0000
  H   H3941     1.0  0.87765  0.05928  0.10808  1.0000
  H   H3942     1.0  0.93551  0.22738  0.01022  1.0000
  H   H3943     1.0  0.79507  0.46763  0.08813  1.0000
  H   H3944     1.0  0.89791  0.08333  0.05155  1.0000
  H   H3945     1.0  0.85350  0.31348  0.03183  1.0000
  C   C4955     1.0  0.82075  0.37363  0.17292  1.0000
  C   C4956     1.0  0.82466  0.32263  0.01787  1.0000
  C   C4957     1.0  0.82149  0.32652  0.03825  1.0000
  C   C4958     1.0  0.81072  0.32947  0.04845  1.0000
  H   H3946     1.0  0.81243  0.39764  0.29782  1.0000
  H   H3947     1.0  0.91385  0.48996  0.43667  1.0000
  C   C4959     1.0  0.94115  0.45934  0.17278  1.0000
  H   H3948     1.0  0.83298  0.31977  0.01012  1.0000
  H   H3949     1.0  0.82740  0.32673  0.04636  1.0000
  H   H3950     1.0  0.80841  0.33239  0.06429  1.0000
  C   C4960     1.0  0.79886  0.14398  0.17029  1.0000
  C   C4961     1.0  0.83971  0.04828  0.29472  1.0000
  C   C4962     1.0  0.88716  0.16935  0.00068  1.0000
  C   C4963     1.0  0.93004  0.49043  0.43493  1.0000
  C   C4964     1.0  0.91948  0.47905  0.35616  1.0000
  H   H3951     1.0  0.88529  0.08897  0.99736  1.0000
  C   C4965     1.0  0.85775  0.07720  0.02311  1.0000
  C   C4966     1.0  0.90792  0.46978  0.40600  1.0000
  H   H3952     1.0  0.93943  0.44456  0.14929  1.0000
  H   H3953     1.0  0.95644  0.38238  0.05253  1.0000
  C   C4967     1.0  0.82691  0.35584  0.28959  1.0000
  H   H3954     1.0  0.85732  0.04916  0.20676  1.0000
  C   C4968     1.0  0.80247  0.35505  0.36694  1.0000
  H   H3955     1.0  0.85762  0.06152  0.02144  1.0000
  C   C4969     1.0  0.91578  0.45099  0.40953  1.0000
  C   C4970     1.0  0.91291  0.43134  0.41945  1.0000
  C   C4971     1.0  0.96433  0.40080  0.02401  1.0000
  C   C4972     1.0  0.90218  0.43030  0.42601  1.0000
  C   C4973     1.0  0.95535  0.31673  0.09800  1.0000
  C   C4974     1.0  0.78800  0.09830  0.09836  1.0000
  P   P163      1.0  0.78930  0.33023  0.05168  1.0000
  H   H3956     1.0  0.79435  0.41881  0.42960  1.0000
  C   C4975     1.0  0.98346  0.43861  0.13404  1.0000
  H   H3957     1.0  0.94666  0.49104  0.42850  1.0000
  H   H3958     1.0  0.79192  0.09802  0.21780  1.0000
  C   C4976     1.0  0.91334  0.39845  0.03955  1.0000
  C   C4977     1.0  0.82184  0.33085  0.32232  1.0000
  C   C4978     1.0  0.94075  0.33661  0.08093  1.0000
  H   H3959     1.0  0.89476  0.16573  0.02619  1.0000
  H   H3960     1.0  0.79685  0.21713  0.14394  1.0000
  H   H3961     1.0  0.91438  0.05970  0.03664  1.0000
  H   H3962     1.0  0.92520  0.31610  0.02110  1.0000
  Fe  Fe323     1.0  0.98003  0.42225  0.19652  1.0000
  C   C4979     1.0  0.92314  0.28787  0.99353  1.0000
  H   H3963     1.0  0.91896  0.46336  0.36592  1.0000
  H   H3964     1.0  0.92415  0.45154  0.40464  1.0000
  C   C4980     1.0  0.90794  0.06578  0.02829  1.0000
  H   H3965     1.0  0.78903  0.44925  0.35146  1.0000
  H   H3966     1.0  0.81134  0.01265  0.09857  1.0000
  H   H3967     1.0  0.80078  0.35372  0.29880  1.0000
  C   C4981     1.0  0.97891  0.43274  0.30858  1.0000
  Fe  Fe324     1.0  0.89414  0.31273  0.99000  1.0000
  C   C4982     1.0  0.92150  0.49148  0.42625  1.0000
  H   H3968     1.0  0.79398  0.25445  0.14738  1.0000
  H   H3969     1.0  0.79091  0.44237  0.00258  1.0000
  C   C4983     1.0  0.88888  0.22840  0.06729  1.0000
  H   H3970     1.0  0.83221  0.17434  0.15792  1.0000
  H   H3971     1.0  0.89332  0.20891  0.09610  1.0000
  H   H3972     1.0  0.81252  0.16573  0.09134  1.0000
  H   H3973     1.0  0.83744  0.22430  0.01383  1.0000
  C   C4984     1.0  0.87574  0.10025  0.06483  1.0000
  H   H3974     1.0  0.79884  0.46341  0.16888  1.0000
  H   H3975     1.0  0.82175  0.12966  0.99053  1.0000
  C   C4985     1.0  0.88094  0.13091  0.02330  1.0000
  C   C4986     1.0  0.79860  0.24157  0.15716  1.0000
  C   C4987     1.0  0.85171  0.03871  0.21276  1.0000
  H   H3976     1.0  0.90441  0.25708  0.02740  1.0000
  H   H3977     1.0  0.90261  0.41421  0.06375  1.0000
  H   H3978     1.0  0.83862  0.41021  0.16543  1.0000
  C   C4988     1.0  0.80868  0.08716  0.21729  1.0000
  C   C4989     1.0  0.84322  0.17341  0.03451  1.0000
  H   H3979     1.0  0.81114  0.34336  0.24628  1.0000
  H   H3980     1.0  0.97834  0.33438  0.28814  1.0000
  H   H3981     1.0  0.80095  0.28424  0.11595  1.0000
  C   C4990     1.0  0.92106  0.27748  0.01480  1.0000
  C   C4991     1.0  0.97258  0.34905  0.29049  1.0000
  H   H3982     1.0  0.86676  0.12684  0.10514  1.0000
  H   H3983     1.0  0.94802  0.47757  0.30029  1.0000
  H   H3984     1.0  0.93512  0.16521  0.05100  1.0000
  H   H3985     1.0  0.82681  0.00558  0.29691  1.0000
  C   C4992     1.0  0.83719  0.01184  0.22801  1.0000
  C   C4993     1.0  0.83452  0.38716  0.00283  1.0000
  S   S653      1.0  0.97761  0.41152  0.23176  1.0000
  C   C4994     1.0  0.80167  0.44041  0.11015  1.0000
  C   C4995     1.0  0.90593  0.22403  0.07568  1.0000
  Fe  Fe325     1.0  0.96413  0.39683  0.19374  1.0000
  H   H3986     1.0  0.88102  0.22487  0.07148  1.0000
  H   H3987     1.0  0.93225  0.34116  0.08162  1.0000
  H   H3988     1.0  0.79863  0.42916  0.10561  1.0000
  C   C4996     1.0  0.83347  0.43428  0.13911  1.0000
  C   C4997     1.0  0.82903  0.39209  0.22687  1.0000
  C   C4998     1.0  0.82951  0.34115  0.30770  1.0000
  H   H3989     1.0  0.85054  0.36535  0.19637  1.0000
  C   C4999     1.0  0.81896  0.13230  0.02288  1.0000
  H   H3990     1.0  0.80226  0.29586  0.07762  1.0000
  C   C5000     1.0  0.90219  0.24659  0.04249  1.0000
  H   H3991     1.0  0.90111  0.34105  0.01346  1.0000
  C   C5001     1.0  0.87820  0.14124  0.00376  1.0000
  H   H3992     1.0  0.81804  0.14957  0.01891  1.0000
  C   C5002     1.0  0.90921  0.23769  0.05628  1.0000
  H   H3993     1.0  0.80091  0.45700  0.24012  1.0000
  C   C5003     1.0  0.82225  0.07180  0.29900  1.0000
  H   H3994     1.0  0.80819  0.14244  0.20182  1.0000
  H   H3995     1.0  0.95831  0.34288  0.00476  1.0000
  P   P164      1.0  0.82375  0.03632  0.25683  1.0000
  H   H3996     1.0  0.91120  0.21680  0.08660  1.0000
  H   H3997     1.0  0.91593  0.28644  0.02637  1.0000
  H   H3998     1.0  0.92634  0.41710  0.21344  1.0000
  C   C5004     1.0  0.94799  0.34413  0.06268  1.0000
  H   H3999     1.0  0.80877  0.41645  0.13371  1.0000
  C   C5005     1.0  0.85635  0.42524  0.99643  1.0000
  C   C5006     1.0  0.80752  0.43317  0.12600  1.0000
  H   H4000     1.0  0.82337  0.09043  0.99959  1.0000
  H   H4001     1.0  0.80567  0.42515  0.19354  1.0000
  C   C5007     1.0  0.93202  0.24425  0.00583  1.0000
  C   C5008     1.0  0.86677  0.10072  0.03020  1.0000
  C   C5009     1.0  0.80360  0.44397  0.25252  1.0000
  H   H4002     1.0  0.88375  0.20035  0.02912  1.0000
  S   S654      1.0  0.80297  0.00482  0.18971  1.0000
  C   C5010     1.0  0.85387  0.31410  0.01545  1.0000
  C   C5011     1.0  0.82771  0.24646  0.03327  1.0000
  H   H4003     1.0  0.81645  0.08411  0.30630  1.0000
  H   H4004     1.0  0.81243  0.35712  0.20221  1.0000
  C   C5012     1.0  0.92976  0.19911  0.04975  1.0000
  H   H4005     1.0  0.93332  0.38131  0.07640  1.0000
  C   C5013     1.0  0.82199  0.09896  0.01204  1.0000
  C   C5014     1.0  0.95206  0.37932  0.02500  1.0000
  P   P165      1.0  0.92250  0.24277  0.04885  1.0000
  H   H4006     1.0  0.91151  0.25208  0.09120  1.0000
  C   C5015     1.0  0.82095  0.12115  0.00691  1.0000
  C   C5016     1.0  0.93165  0.21726  0.05373  1.0000
  C   C5017     1.0  0.92544  0.25562  0.02114  1.0000
  P   P166      1.0  0.81342  0.37863  0.26215  1.0000
  C   C5018     1.0  0.91762  0.26126  0.08408  1.0000
  C   C5019     1.0  0.84769  0.44176  0.10853  1.0000
  H   H4007     1.0  0.83130  0.45737  0.11000  1.0000
  H   H4008     1.0  0.82745  0.39419  0.14470  1.0000
  C   C5020     1.0  0.94555  0.17724  0.06196  1.0000
  H   H4009     1.0  0.89995  0.41508  0.43379  1.0000
  H   H4010     1.0  0.81238  0.48066  0.12655  1.0000
  H   H4011     1.0  0.79573  0.33455  0.23998  1.0000
  C   C5021     1.0  0.81154  0.44748  0.13195  1.0000
  H   H4012     1.0  0.86342  0.42282  0.11102  1.0000
  H   H4013     1.0  0.82449  0.35921  0.16692  1.0000
  H   H4014     1.0  0.91552  0.40348  0.08699  1.0000
  H   H4015     1.0  0.81099  0.09889  0.20314  1.0000
  C   C5022     1.0  0.94059  0.21520  0.06177  1.0000
  C   C5023     1.0  0.94751  0.19524  0.06587  1.0000
  C   C5024     1.0  0.92394  0.26022  0.06379  1.0000
  H   H4016     1.0  0.92541  0.38065  0.01868  1.0000
  C   C5025     1.0  0.85511  0.42638  0.11895  1.0000
  C   C5026     1.0  0.83691  0.44573  0.11855  1.0000
  C   C5027     1.0  0.94246  0.34360  0.02458  1.0000
  H   H4017     1.0  0.84747  0.04235  0.29869  1.0000
  H   H4018     1.0  0.91419  0.27523  0.11119  1.0000
  C   C5028     1.0  0.91911  0.27443  0.09555  1.0000
  C   C5029     1.0  0.80019  0.22040  0.15534  1.0000
  C   C5030     1.0  0.82231  0.39353  0.16032  1.0000
  H   H4019     1.0  0.96469  0.34143  0.04754  1.0000
  H   H4020     1.0  0.80537  0.37552  0.00692  1.0000
  C   C5031     1.0  0.81401  0.37241  0.19291  1.0000
  H   H4021     1.0  0.92784  0.29729  0.09543  1.0000
  C   C5032     1.0  0.93179  0.27248  0.05527  1.0000
  C   C5033     1.0  0.97831  0.46109  0.27739  1.0000
  H   H4022     1.0  0.94220  0.22887  0.06512  1.0000
  C   C5034     1.0  0.88979  0.22415  0.00296  1.0000
  C   C5035     1.0  0.92681  0.28681  0.08676  1.0000
  H   H4023     1.0  0.85754  0.40319  0.14755  1.0000
  H   H4024     1.0  0.79109  0.11785  0.17657  1.0000
  C   C5036     1.0  0.81364  0.05610  0.24461  1.0000
  C   C5037     1.0  0.85179  0.41529  0.13956  1.0000
  P   P167      1.0  0.81947  0.43804  0.15180  1.0000
  C   C5038     1.0  0.84104  0.41932  0.14966  1.0000
  C   C5039     1.0  0.86639  0.08022  0.02893  1.0000
  H   H4025     1.0  0.85261  0.18689  0.00478  1.0000
  C   C5040     1.0  0.84340  0.36792  0.20865  1.0000
  S   S655      1.0  0.83313  0.17129  0.02356  1.0000
  C   C5041     1.0  0.81493  0.17384  0.10059  1.0000
  H   H4026     1.0  0.79808  0.28990  0.03670  1.0000
  C   C5042     1.0  0.96261  0.32326  0.07952  1.0000
  H   H4027     1.0  0.79331  0.34005  0.39618  1.0000
  C   C5043     1.0  0.84667  0.24342  0.01927  1.0000
  C   C5044     1.0  0.93328  0.33535  0.02939  1.0000
  H   H4028     1.0  0.80229  0.26267  0.17206  1.0000
  C   C5045     1.0  0.97884  0.38423  0.33420  1.0000
  C   C5046     1.0  0.90088  0.06897  0.99788  1.0000
  H   H4029     1.0  0.84559  0.15033  0.17741  1.0000
  H   H4030     1.0  0.80857  0.34064  0.36537  1.0000
  C   C5047     1.0  0.92337  0.38557  0.03360  1.0000
  C   C5048     1.0  0.81706  0.32238  0.00745  1.0000
  C   C5049     1.0  0.79774  0.16544  0.17093  1.0000
  P   P168      1.0  0.94332  0.36135  0.03974  1.0000
  H   H4031     1.0  0.87386  0.13443  0.99682  1.0000
  H   H4032     1.0  0.81404  0.99769  0.13725  1.0000
  C   C5050     1.0  0.79500  0.07135  0.24357  1.0000
  H   H4033     1.0  0.84287  0.09239  0.01372  1.0000
  C   C5051     1.0  0.83888  0.40536  0.99742  1.0000
  H   H4034     1.0  0.87668  0.27565  0.98995  1.0000
  H   H4035     1.0  0.98073  0.42672  0.32400  1.0000
  C   C5052     1.0  0.96004  0.40019  0.99162  1.0000
  C   C5053     1.0  0.81996  0.47406  0.19198  1.0000
  Fe  Fe326     1.0  0.96511  0.48958  0.34043  1.0000
  C   C5054     1.0  0.79389  0.35471  0.38432  1.0000
  C   C5055     1.0  0.78966  0.29471  0.03667  1.0000
  C   C5056     1.0  0.78778  0.01473  0.13111  1.0000
  C   C5057     1.0  0.92361  0.48100  0.33440  1.0000
  P   P169      1.0  0.91183  0.49500  0.39332  1.0000
  C   C5058     1.0  0.84613  0.00733  0.21200  1.0000
  H   H4036     1.0  0.94020  0.30597  0.99164  1.0000
  H   H4037     1.0  0.78949  0.36332  0.20576  1.0000
  H   H4038     1.0  0.98633  0.47941  0.34960  1.0000
  H   H4039     1.0  0.89090  0.48280  0.41057  1.0000
  H   H4040     1.0  0.96253  0.47708  0.18189  1.0000
  H   H4041     1.0  0.79010  0.26819  0.02369  1.0000
  H   H4042     1.0  0.94132  0.46990  0.20046  1.0000
  C   C5059     1.0  0.94150  0.49410  0.40005  1.0000
  H   H4043     1.0  0.80189  0.49339  0.09879  1.0000
  H   H4044     1.0  0.88942  0.18431  0.99193  1.0000
  C   C5060     1.0  0.98410  0.44748  0.35399  1.0000
  C   C5061     1.0  0.80919  0.48345  0.19811  1.0000
  H   H4045     1.0  0.98450  0.41387  0.35866  1.0000
  H   H4046     1.0  0.79097  0.02684  0.09745  1.0000
  H   H4047     1.0  0.80662  0.49344  0.20968  1.0000
  C   C5062     1.0  0.95739  0.49284  0.17901  1.0000
  H   H4048     1.0  0.98517  0.46062  0.30306  1.0000
  C   C5063     1.0  0.95171  0.49032  0.24672  1.0000
  H   H4049     1.0  0.92698  0.49063  0.15001  1.0000
  C   C5064     1.0  0.78891  0.42762  0.41933  1.0000
  C   C5065     1.0  0.94311  0.48931  0.13153  1.0000
  H   H4050     1.0  0.95799  0.49046  0.10847  1.0000
  C   C5066     1.0  0.93198  0.49413  0.13437  1.0000
  C   C5067     1.0  0.78699  0.10156  0.11850  1.0000
  C   C5068     1.0  0.95098  0.49254  0.26716  1.0000
  C   C5069     1.0  0.94939  0.49404  0.11110  1.0000
  C   C5070     1.0  0.81361  0.00305  0.82250  1.0000
  Fe  Fe327     1.0  0.83285  0.20300  0.94562  1.0000
  S   S656      1.0  0.84659  0.18253  0.92738  1.0000
  S   S657      1.0  0.82297  0.23077  0.92682  1.0000
  H   H4051     1.0  0.79709  0.39864  0.75041  1.0000
  S   S658      1.0  0.85156  0.15475  0.97271  1.0000
  H   H4052     1.0  0.86751  0.13719  0.77799  1.0000
  Fe  Fe328     1.0  0.85560  0.18495  0.95019  1.0000
  S   S659      1.0  0.87228  0.19171  0.94153  1.0000
  Fe  Fe329     1.0  0.84095  0.15489  0.95169  1.0000
  S   S660      1.0  0.83830  0.12371  0.94777  1.0000
  S   S661      1.0  0.84210  0.20703  0.96688  1.0000
  S   S662      1.0  0.82666  0.17541  0.96862  1.0000
  C   C5071     1.0  0.79495  0.16352  0.89372  1.0000
  S   S663      1.0  0.80784  0.08776  0.84366  1.0000
  C   C5072     1.0  0.80224  0.39440  0.76151  1.0000
  Fe  Fe330     1.0  0.79671  0.05155  0.89482  1.0000
  S   S664      1.0  0.81424  0.05096  0.88350  1.0000
  H   H4053     1.0  0.81652  0.12245  0.77729  1.0000
  Fe  Fe331     1.0  0.80932  0.08700  0.87634  1.0000
  S   S665      1.0  0.81633  0.11398  0.87865  1.0000
  Fe  Fe332     1.0  0.81100  0.05181  0.85215  1.0000
  S   S666      1.0  0.82291  0.03384  0.82828  1.0000
  H   H4054     1.0  0.79327  0.26855  0.92191  1.0000
  S   S667      1.0  0.79376  0.05049  0.86402  1.0000
  H   H4055     1.0  0.91983  0.37544  0.90678  1.0000
  S   S668      1.0  0.80796  0.39779  0.92366  1.0000
  H   H4056     1.0  0.79616  0.41428  0.84949  1.0000
  Fe  Fe333     1.0  0.80631  0.34010  0.95523  1.0000
  S   S669      1.0  0.81184  0.34782  0.92006  1.0000
  C   C5073     1.0  0.98026  0.39599  0.81516  1.0000
  Fe  Fe334     1.0  0.82101  0.36839  0.92598  1.0000
  S   S670      1.0  0.83776  0.36676  0.90699  1.0000
  Fe  Fe335     1.0  0.79834  0.37631  0.92110  1.0000
  C   C5074     1.0  0.79690  0.05185  0.71066  1.0000
  H   H4057     1.0  0.93662  0.40583  0.94448  1.0000
  C   C5075     1.0  0.93734  0.38866  0.87232  1.0000
  C   C5076     1.0  0.79693  0.31900  0.83071  1.0000
  S   S671      1.0  0.90373  0.29130  0.96754  1.0000
  Fe  Fe336     1.0  0.96460  0.43072  0.89545  1.0000
  Fe  Fe337     1.0  0.88463  0.34673  0.95555  1.0000
  S   S672      1.0  0.89389  0.32851  0.93045  1.0000
  S   S673      1.0  0.87215  0.37713  0.94985  1.0000
  Fe  Fe338     1.0  0.88913  0.29945  0.95388  1.0000
  S   S674      1.0  0.87902  0.28199  0.94498  1.0000
  Fe  Fe339     1.0  0.90754  0.32234  0.94639  1.0000
  S   S675      1.0  0.92406  0.32572  0.92707  1.0000
  S   S676      1.0  0.87932  0.31839  0.97826  1.0000
  S   S677      1.0  0.89861  0.34313  0.96960  1.0000
  Fe  Fe340     1.0  0.96452  0.39043  0.92993  1.0000
  S   S678      1.0  0.95359  0.36991  0.95369  1.0000
  C   C5077     1.0  0.96484  0.44835  0.84041  1.0000
  H   H4058     1.0  0.87064  0.26044  0.89739  1.0000
  C   C5078     1.0  0.98531  0.38162  0.83069  1.0000
  S   S679      1.0  0.96788  0.39599  0.89456  1.0000
  C   C5079     1.0  0.85436  0.31672  0.97309  1.0000
  H   H4059     1.0  0.87214  0.43440  0.94707  1.0000
  C   C5080     1.0  0.93488  0.37165  0.86737  1.0000
  H   H4060     1.0  0.93920  0.24595  0.97269  1.0000
  H   H4061     1.0  0.87814  0.22299  0.89508  1.0000
  C   C5081     1.0  0.93199  0.33859  0.93459  1.0000
  C   C5082     1.0  0.94169  0.34206  0.92098  1.0000
  C   C5083     1.0  0.94825  0.35214  0.92636  1.0000
  C   C5084     1.0  0.94525  0.35850  0.94568  1.0000
  C   C5085     1.0  0.93556  0.35498  0.95935  1.0000
  C   C5086     1.0  0.92892  0.34520  0.95380  1.0000
  H   H4062     1.0  0.94418  0.33670  0.90629  1.0000
  H   H4063     1.0  0.95573  0.35458  0.91578  1.0000
  H   H4064     1.0  0.93319  0.35980  0.97436  1.0000
  H   H4065     1.0  0.92152  0.34258  0.96452  1.0000
  C   C5087     1.0  0.84690  0.36940  0.92006  1.0000
  C   C5088     1.0  0.85651  0.35431  0.92008  1.0000
  C   C5089     1.0  0.86426  0.35655  0.92925  1.0000
  C   C5090     1.0  0.86252  0.37428  0.93808  1.0000
  C   C5091     1.0  0.85288  0.38950  0.93805  1.0000
  C   C5092     1.0  0.84502  0.38693  0.92928  1.0000
  H   H4066     1.0  0.85788  0.34068  0.91324  1.0000
  H   H4067     1.0  0.87153  0.34448  0.92952  1.0000
  H   H4068     1.0  0.85145  0.40320  0.94490  1.0000
  H   H4069     1.0  0.83764  0.39878  0.92913  1.0000
  C   C5093     1.0  0.83847  0.06445  0.75833  1.0000
  C   C5094     1.0  0.82218  0.01342  0.81664  1.0000
  C   C5095     1.0  0.80175  0.08356  0.79319  1.0000
  C   C5096     1.0  0.87416  0.21598  0.94493  1.0000
  C   C5097     1.0  0.86558  0.23320  0.94799  1.0000
  C   C5098     1.0  0.86725  0.25289  0.94887  1.0000
  C   C5099     1.0  0.87751  0.25568  0.94700  1.0000
  C   C5100     1.0  0.88614  0.23829  0.94455  1.0000
  C   C5101     1.0  0.88446  0.21855  0.94341  1.0000
  H   H4070     1.0  0.85768  0.23165  0.94880  1.0000
  H   H4071     1.0  0.86054  0.26625  0.95051  1.0000
  H   H4072     1.0  0.89412  0.24028  0.94268  1.0000
  H   H4073     1.0  0.89119  0.20539  0.94090  1.0000
  C   C5102     1.0  0.83216  0.12129  0.92846  1.0000
  C   C5103     1.0  0.83080  0.13755  0.91054  1.0000
  C   C5104     1.0  0.82598  0.13498  0.89548  1.0000
  C   C5105     1.0  0.82239  0.11617  0.89818  1.0000
  C   C5106     1.0  0.82379  0.09984  0.91604  1.0000
  C   C5107     1.0  0.82869  0.10238  0.93103  1.0000
  H   H4074     1.0  0.83354  0.15203  0.90827  1.0000
  H   H4075     1.0  0.82501  0.14767  0.88168  1.0000
  H   H4076     1.0  0.82112  0.08526  0.91830  1.0000
  H   H4077     1.0  0.82976  0.08962  0.94474  1.0000
  C   C5108     1.0  0.79845  0.43828  0.71510  1.0000
  H   H4078     1.0  0.92680  0.37202  0.86699  1.0000
  H   H4079     1.0  0.94373  0.46584  0.82011  1.0000
  C   C5109     1.0  0.81729  0.25171  0.94030  1.0000
  C   C5110     1.0  0.81400  0.27255  0.92903  1.0000
  C   C5111     1.0  0.81008  0.28964  0.93949  1.0000
  C   C5112     1.0  0.80934  0.28585  0.96125  1.0000
  C   C5113     1.0  0.81210  0.26484  0.97267  1.0000
  C   C5114     1.0  0.81618  0.24780  0.96218  1.0000
  H   H4080     1.0  0.81472  0.27551  0.91215  1.0000
  H   H4081     1.0  0.80761  0.30570  0.93074  1.0000
  P   P170      1.0  0.80023  0.48136  0.74684  1.0000
  H   H4082     1.0  0.81858  0.23168  0.97099  1.0000
  S   S680      1.0  0.96020  0.42532  0.93067  1.0000
  H   H4083     1.0  0.84020  0.25384  0.89253  1.0000
  H   H4084     1.0  0.85496  0.31772  0.95650  1.0000
  C   C5115     1.0  0.81336  0.12848  0.79165  1.0000
  H   H4085     1.0  0.85201  0.32489  0.86188  1.0000
  C   C5116     1.0  0.93771  0.45634  0.82492  1.0000
  C   C5117     1.0  0.83599  0.42219  0.98075  1.0000
  H   H4086     1.0  0.84814  0.21681  0.88878  1.0000
  C   C5118     1.0  0.95785  0.46355  0.85144  1.0000
  H   H4087     1.0  0.86644  0.28883  0.91442  1.0000
  H   H4088     1.0  0.88798  0.42911  0.88802  1.0000
  H   H4089     1.0  0.91698  0.42067  0.84120  1.0000
  H   H4090     1.0  0.98132  0.37975  0.84721  1.0000
  H   H4091     1.0  0.90866  0.48874  0.61413  1.0000
  C   C5119     1.0  0.95341  0.35309  0.86309  1.0000
  C   C5120     1.0  0.80266  0.46564  0.72718  1.0000
  H   H4092     1.0  0.78975  0.15236  0.81932  1.0000
  C   C5121     1.0  0.83563  0.09377  0.78360  1.0000
  H   H4093     1.0  0.98246  0.34684  0.72850  1.0000
  H   H4094     1.0  0.85625  0.11084  0.79621  1.0000
  C   C5122     1.0  0.84284  0.09847  0.85674  1.0000
  H   H4095     1.0  0.86706  0.20090  0.89072  1.0000
  C   C5123     1.0  0.93397  0.41678  0.93082  1.0000
  C   C5124     1.0  0.98569  0.39915  0.79396  1.0000
  C   C5125     1.0  0.81276  0.00559  0.73556  1.0000
  C   C5126     1.0  0.95971  0.47937  0.92668  1.0000
  H   H4096     1.0  0.97221  0.40494  0.81961  1.0000
  C   C5127     1.0  0.80436  0.38538  0.79784  1.0000
  C   C5128     1.0  0.79101  0.22513  0.90702  1.0000
  C   C5129     1.0  0.94289  0.35386  0.86293  1.0000
  C   C5130     1.0  0.82919  0.42040  0.96917  1.0000
  C   C5131     1.0  0.93415  0.25473  0.98452  1.0000
  S   S681      1.0  0.81655  0.35864  0.96128  1.0000
  C   C5132     1.0  0.81539  0.38345  0.79039  1.0000
  C   C5133     1.0  0.81978  0.38713  0.76863  1.0000
  C   C5134     1.0  0.81319  0.39275  0.75420  1.0000
  C   C5135     1.0  0.79309  0.32486  0.86618  1.0000
  C   C5136     1.0  0.79490  0.23748  0.91588  1.0000
  C   C5137     1.0  0.80674  0.38538  0.84070  1.0000
  C   C5138     1.0  0.81608  0.37005  0.84395  1.0000
  C   C5139     1.0  0.82219  0.37221  0.85676  1.0000
  C   C5140     1.0  0.81904  0.38968  0.86645  1.0000
  C   C5141     1.0  0.80975  0.40497  0.86338  1.0000
  C   C5142     1.0  0.80359  0.40281  0.85065  1.0000
  H   H4097     1.0  0.94129  0.44216  0.85552  1.0000
  H   H4098     1.0  0.79348  0.35615  0.86863  1.0000
  C   C5143     1.0  0.93268  0.40879  0.91476  1.0000
  Fe  Fe341     1.0  0.97747  0.42324  0.92860  1.0000
  P   P171      1.0  0.79705  0.19690  0.90894  1.0000
  H   H4099     1.0  0.82063  0.37939  0.80119  1.0000
  H   H4100     1.0  0.82828  0.38578  0.76294  1.0000
  H   H4101     1.0  0.81655  0.39583  0.73735  1.0000
  C   C5144     1.0  0.80253  0.13811  0.79652  1.0000
  H   H4102     1.0  0.79469  0.06094  0.67865  1.0000
  H   H4103     1.0  0.81851  0.35619  0.83693  1.0000
  H   H4104     1.0  0.82925  0.36010  0.85968  1.0000
  H   H4105     1.0  0.82365  0.39107  0.87679  1.0000
  H   H4106     1.0  0.80707  0.41799  0.87167  1.0000
  C   C5145     1.0  0.85276  0.12644  0.78771  1.0000
  H   H4107     1.0  0.90201  0.36791  0.92227  1.0000
  C   C5146     1.0  0.91484  0.44939  0.66675  1.0000
  H   H4108     1.0  0.82695  0.43339  0.95635  1.0000
  H   H4109     1.0  0.97439  0.48842  0.90942  1.0000
  H   H4110     1.0  0.84238  0.32083  0.92192  1.0000
  H   H4111     1.0  0.81643  0.43031  0.81870  1.0000
  C   C5147     1.0  0.83720  0.07633  0.83317  1.0000
  C   C5148     1.0  0.84039  0.10904  0.83710  1.0000
  H   H4112     1.0  0.92701  0.47010  0.91021  1.0000
  H   H4113     1.0  0.96732  0.43205  0.84875  1.0000
  H   H4114     1.0  0.93126  0.28466  0.96183  1.0000
  S   S682      1.0  0.79190  0.36710  0.95583  1.0000
  C   C5149     1.0  0.79436  0.31138  0.85260  1.0000
  H   H4115     1.0  0.82048  0.13363  0.83455  1.0000
  H   H4116     1.0  0.80146  0.23022  0.92383  1.0000
  C   C5150     1.0  0.79456  0.18182  0.97316  1.0000
  C   C5151     1.0  0.83162  0.01470  0.73744  1.0000
  H   H4117     1.0  0.92426  0.45624  0.88227  1.0000
  C   C5152     1.0  0.81074  0.46823  0.70879  1.0000
  H   H4118     1.0  0.84228  0.25366  0.93382  1.0000
  C   C5153     1.0  0.95461  0.48457  0.84061  1.0000
  H   H4119     1.0  0.96406  0.36951  0.86791  1.0000
  C   C5154     1.0  0.93625  0.44302  0.84506  1.0000
  H   H4120     1.0  0.83494  0.32033  0.95971  1.0000
  H   H4121     1.0  0.86525  0.34742  0.85063  1.0000
  C   C5155     1.0  0.93155  0.45720  0.81091  1.0000
  H   H4122     1.0  0.79736  0.13915  0.78623  1.0000
  H   H4123     1.0  0.83909  0.04923  0.85913  1.0000
  H   H4124     1.0  0.79105  0.31905  0.88316  1.0000
  H   H4125     1.0  0.79196  0.42695  0.80903  1.0000
  H   H4126     1.0  0.78752  0.34435  0.92194  1.0000
  H   H4127     1.0  0.95000  0.40124  0.87531  1.0000
  H   H4128     1.0  0.95665  0.31954  0.98370  1.0000
  S   S683      1.0  0.79098  0.48256  0.66689  1.0000
  C   C5156     1.0  0.89387  0.39781  0.90571  1.0000
  S   S684      1.0  0.95319  0.45685  0.87878  1.0000
  H   H4129     1.0  0.83493  0.06734  0.82465  1.0000
  H   H4130     1.0  0.83564  0.25318  0.97172  1.0000
  H   H4131     1.0  0.83964  0.05292  0.74880  1.0000
  S   S685      1.0  0.80504  0.30695  0.97466  1.0000
  H   H4132     1.0  0.78858  0.00836  0.72260  1.0000
  H   H4133     1.0  0.87936  0.34032  0.87061  1.0000
  C   C5157     1.0  0.96887  0.45448  0.81860  1.0000
  C   C5158     1.0  0.92843  0.43076  0.85153  1.0000
  C   C5159     1.0  0.95877  0.49073  0.81895  1.0000
  H   H4134     1.0  0.87992  0.31082  0.90244  1.0000
  C   C5160     1.0  0.87054  0.45127  0.97133  1.0000
  H   H4135     1.0  0.80285  0.08427  0.74212  1.0000
  H   H4136     1.0  0.80159  0.09400  0.80314  1.0000
  C   C5161     1.0  0.79783  0.39073  0.78318  1.0000
  C   C5162     1.0  0.90661  0.44509  0.68422  1.0000
  C   C5163     1.0  0.89816  0.46175  0.68984  1.0000
  C   C5164     1.0  0.98233  0.47288  0.84243  1.0000
  H   H4137     1.0  0.84869  0.28706  0.85440  1.0000
  H   H4138     1.0  0.96107  0.40519  0.97462  1.0000
  H   H4139     1.0  0.96080  0.48428  0.72091  1.0000
  S   S686      1.0  0.79199  0.08741  0.88994  1.0000
  H   H4140     1.0  0.85043  0.35092  0.97026  1.0000
  H   H4141     1.0  0.80278  0.10797  0.76456  1.0000
  H   H4142     1.0  0.90684  0.42891  0.69354  1.0000
  H   H4143     1.0  0.89186  0.45852  0.70357  1.0000
  C   C5165     1.0  0.93195  0.43887  0.92918  1.0000
  H   H4144     1.0  0.82647  0.31049  0.90710  1.0000
  Fe  Fe342     1.0  0.80259  0.38634  0.95865  1.0000
  C   C5166     1.0  0.79808  0.34020  0.82238  1.0000
  H   H4145     1.0  0.93319  0.44497  0.94144  1.0000
  H   H4146     1.0  0.79784  0.30857  0.82018  1.0000
  H   H4147     1.0  0.84465  0.10720  0.86627  1.0000
  H   H4148     1.0  0.80095  0.46079  0.82279  1.0000
  C   C5167     1.0  0.80238  0.09141  0.77153  1.0000
  C   C5168     1.0  0.80438  0.45675  0.80745  1.0000
  P   P172      1.0  0.79839  0.38116  0.82581  1.0000
  H   H4149     1.0  0.88604  0.39437  0.91266  1.0000
  H   H4150     1.0  0.79056  0.44739  0.74435  1.0000
  C   C5169     1.0  0.91299  0.38713  0.90209  1.0000
  C   C5170     1.0  0.79031  0.25929  0.91470  1.0000
  C   C5171     1.0  0.92402  0.44444  0.81692  1.0000
  H   H4151     1.0  0.78928  0.39223  0.78840  1.0000
  C   C5172     1.0  0.92843  0.45299  0.91166  1.0000
  H   H4152     1.0  0.82210  0.08023  0.80217  1.0000
  C   C5173     1.0  0.83002  0.06540  0.77589  1.0000
  H   H4153     1.0  0.91752  0.49313  0.57632  1.0000
  C   C5174     1.0  0.90286  0.38283  0.91104  1.0000
  C   C5175     1.0  0.82876  0.19530  0.88459  1.0000
  C   C5176     1.0  0.82983  0.19570  0.86328  1.0000
  C   C5177     1.0  0.82093  0.19661  0.85578  1.0000
  C   C5178     1.0  0.81098  0.19696  0.86964  1.0000
  C   C5179     1.0  0.80993  0.19580  0.89121  1.0000
  C   C5180     1.0  0.81885  0.19542  0.89851  1.0000
  C   C5181     1.0  0.89788  0.48266  0.67790  1.0000
  C   C5182     1.0  0.79874  0.18349  0.93537  1.0000
  S   S687      1.0  0.97173  0.48354  0.78104  1.0000
  H   H4154     1.0  0.81627  0.49334  0.76170  1.0000
  C   C5183     1.0  0.79669  0.45021  0.73034  1.0000
  H   H4155     1.0  0.81994  0.40055  0.96518  1.0000
  H   H4156     1.0  0.80136  0.05583  0.81867  1.0000
  H   H4157     1.0  0.94089  0.34052  0.85970  1.0000
  C   C5184     1.0  0.80537  0.16300  0.93869  1.0000
  C   C5185     1.0  0.80671  0.15215  0.95901  1.0000
  H   H4158     1.0  0.87893  0.16852  0.97780  1.0000
  H   H4159     1.0  0.79333  0.29505  0.85907  1.0000
  C   C5186     1.0  0.98383  0.37783  0.73029  1.0000
  C   C5187     1.0  0.83088  0.00732  0.80079  1.0000
  C   C5188     1.0  0.79106  0.02249  0.76919  1.0000
  C   C5189     1.0  0.79689  0.35377  0.83597  1.0000
  C   C5190     1.0  0.83961  0.06586  0.85286  1.0000
  C   C5191     1.0  0.92258  0.43100  0.83705  1.0000
  H   H4160     1.0  0.82451  0.42154  0.78351  1.0000
  H   H4161     1.0  0.83559  0.19480  0.89047  1.0000
  H   H4162     1.0  0.83756  0.19538  0.85262  1.0000
  H   H4163     1.0  0.82174  0.19705  0.83924  1.0000
  H   H4164     1.0  0.80412  0.19796  0.86357  1.0000
  H   H4165     1.0  0.81820  0.19523  0.91495  1.0000
  H   H4166     1.0  0.90582  0.43724  0.87257  1.0000
  H   H4167     1.0  0.85962  0.41181  0.96893  1.0000
  C   C5192     1.0  0.86829  0.43633  0.96304  1.0000
  C   C5193     1.0  0.90597  0.48699  0.66000  1.0000
  C   C5194     1.0  0.84408  0.16666  0.76528  1.0000
  H   H4168     1.0  0.80950  0.15537  0.92555  1.0000
  C   C5195     1.0  0.85917  0.14129  0.77735  1.0000
  H   H4169     1.0  0.91939  0.44478  0.80590  1.0000
  H   H4170     1.0  0.84040  0.12593  0.83163  1.0000
  C   C5196     1.0  0.84409  0.09277  0.76584  1.0000
  H   H4171     1.0  0.80356  0.15899  0.89005  1.0000
  C   C5197     1.0  0.81309  0.43956  0.80517  1.0000
  H   H4172     1.0  0.79988  0.34589  0.80540  1.0000
  H   H4173     1.0  0.92115  0.47345  0.64162  1.0000
  C   C5198     1.0  0.81242  0.45635  0.69351  1.0000
  C   C5199     1.0  0.96603  0.47581  0.80796  1.0000
  C   C5200     1.0  0.81993  0.12622  0.80555  1.0000
  C   C5201     1.0  0.78922  0.15085  0.88980  1.0000
  H   H4174     1.0  0.97451  0.44298  0.81010  1.0000
  C   C5202     1.0  0.94794  0.38796  0.87208  1.0000
  C   C5203     1.0  0.83757  0.09806  0.82507  1.0000
  C   C5204     1.0  0.80025  0.46904  0.78987  1.0000
  H   H4175     1.0  0.93273  0.46756  0.79532  1.0000
  P   P173      1.0  0.92726  0.41226  0.87684  1.0000
  P   P174      1.0  0.79961  0.04013  0.75243  1.0000
  C   C5205     1.0  0.80112  0.05679  0.76807  1.0000
  C   C5206     1.0  0.81234  0.02383  0.74272  1.0000
  C   C5207     1.0  0.82185  0.02839  0.74347  1.0000
  H   H4176     1.0  0.81399  0.00312  0.90293  1.0000
  C   C5208     1.0  0.79822  0.14576  0.81511  1.0000
  H   H4177     1.0  0.84967  0.10309  0.76165  1.0000
  C   C5209     1.0  0.82858  0.08003  0.78840  1.0000
  C   C5210     1.0  0.79365  0.05687  0.73072  1.0000
  H   H4178     1.0  0.94413  0.47261  0.94011  1.0000
  C   C5211     1.0  0.80136  0.06213  0.80209  1.0000
  C   C5212     1.0  0.80091  0.04883  0.78967  1.0000
  C   C5213     1.0  0.95593  0.37016  0.86762  1.0000
  C   C5214     1.0  0.80133  0.16157  0.97626  1.0000
  H   H4179     1.0  0.98299  0.45575  0.84612  1.0000
  C   C5215     1.0  0.85483  0.16140  0.76615  1.0000
  H   H4180     1.0  0.93419  0.39164  0.91635  1.0000
  S   S688      1.0  0.98146  0.38760  0.93126  1.0000
  H   H4181     1.0  0.84073  0.18222  0.75652  1.0000
  H   H4182     1.0  0.82173  0.04214  0.74920  1.0000
  H   H4183     1.0  0.85803  0.28234  0.98064  1.0000
  H   H4184     1.0  0.92148  0.43653  0.66260  1.0000
  H   H4185     1.0  0.80146  0.15005  0.84309  1.0000
  C   C5216     1.0  0.92704  0.44504  0.89565  1.0000
  H   H4186     1.0  0.98162  0.41026  0.78213  1.0000
  H   H4187     1.0  0.79373  0.48277  0.79176  1.0000
  H   H4188     1.0  0.80033  0.03241  0.79698  1.0000
  H   H4189     1.0  0.80276  0.03751  0.70788  1.0000
  C   C5217     1.0  0.83282  0.30206  0.84988  1.0000
  C   C5218     1.0  0.82259  0.31207  0.85894  1.0000
  C   C5219     1.0  0.82038  0.31533  0.87947  1.0000
  C   C5220     1.0  0.82836  0.30823  0.89110  1.0000
  C   C5221     1.0  0.83859  0.29783  0.88227  1.0000
  C   C5222     1.0  0.84081  0.29501  0.86147  1.0000
  P   P175      1.0  0.84885  0.28764  0.89736  1.0000
  C   C5223     1.0  0.85852  0.30440  0.88851  1.0000
  C   C5224     1.0  0.84313  0.28721  0.92503  1.0000
  C   C5225     1.0  0.84089  0.30598  0.93261  1.0000
  C   C5226     1.0  0.83669  0.30572  0.95407  1.0000
  C   C5227     1.0  0.83497  0.28661  0.96823  1.0000
  C   C5228     1.0  0.83711  0.26792  0.96078  1.0000
  C   C5229     1.0  0.84094  0.26827  0.93921  1.0000
  C   C5230     1.0  0.86633  0.30103  0.90003  1.0000
  C   C5231     1.0  0.87397  0.31357  0.89329  1.0000
  C   C5232     1.0  0.87363  0.33020  0.87539  1.0000
  C   C5233     1.0  0.86568  0.33415  0.86415  1.0000
  C   C5234     1.0  0.85817  0.32129  0.87062  1.0000
  C   C5235     1.0  0.85489  0.26044  0.89437  1.0000
  C   C5236     1.0  0.84863  0.24768  0.89216  1.0000
  C   C5237     1.0  0.85308  0.22651  0.89024  1.0000
  C   C5238     1.0  0.86373  0.21763  0.89116  1.0000
  C   C5239     1.0  0.86999  0.23011  0.89355  1.0000
  C   C5240     1.0  0.86563  0.25145  0.89505  1.0000
  H   H4190     1.0  0.83455  0.29953  0.83397  1.0000
  H   H4191     1.0  0.81638  0.31729  0.85006  1.0000
  H   H4192     1.0  0.81246  0.32317  0.88651  1.0000
  H   H4193     1.0  0.81569  0.47955  0.70590  1.0000
  H   H4194     1.0  0.96337  0.46730  0.93859  1.0000
  S   S689      1.0  0.98153  0.43156  0.89331  1.0000
  H   H4195     1.0  0.84391  0.06901  0.88025  1.0000
  C   C5241     1.0  0.97672  0.48480  0.85777  1.0000
  C   C5242     1.0  0.79238  0.06522  0.69392  1.0000
  H   H4196     1.0  0.82935  0.15617  0.77472  1.0000
  H   H4197     1.0  0.83757  0.01501  0.79622  1.0000
  C   C5243     1.0  0.83765  0.15184  0.77565  1.0000
  H   H4198     1.0  0.80688  0.00743  0.83490  1.0000
  H   H4199     1.0  0.79355  0.42694  0.71744  1.0000
  H   H4200     1.0  0.87611  0.46112  0.96171  1.0000
  H   H4201     1.0  0.97299  0.47658  0.87306  1.0000
  Fe  Fe343     1.0  0.79079  0.08651  0.85760  1.0000
  C   C5244     1.0  0.80480  0.14440  0.82852  1.0000
  C   C5245     1.0  0.90511  0.42177  0.88283  1.0000
  C   C5246     1.0  0.91421  0.40641  0.88748  1.0000
  C   C5247     1.0  0.84194  0.13166  0.78704  1.0000
  C   C5248     1.0  0.91458  0.47030  0.65477  1.0000
  H   H4202     1.0  0.82468  0.05450  0.78016  1.0000
  C   C5249     1.0  0.80622  0.44150  0.69660  1.0000
  H   H4203     1.0  0.81200  0.13646  0.96127  1.0000
  H   H4204     1.0  0.95958  0.33918  0.85996  1.0000
  H   H4205     1.0  0.85981  0.17290  0.75810  1.0000
  C   C5250     1.0  0.78959  0.18134  0.90277  1.0000
  C   C5251     1.0  0.81562  0.13487  0.82368  1.0000
  C   C5252     1.0  0.92939  0.42285  0.89689  1.0000
  C   C5253     1.0  0.89499  0.41734  0.89174  1.0000
  C   C5254     1.0  0.81345  0.44666  0.76776  1.0000
  C   C5255     1.0  0.86118  0.42348  0.97549  1.0000
  H   H4206     1.0  0.83892  0.01784  0.73865  1.0000
  H   H4207     1.0  0.85206  0.07736  0.73967  1.0000
  C   C5256     1.0  0.80229  0.07795  0.75890  1.0000
  C   C5257     1.0  0.94886  0.48242  0.92756  1.0000
  C   C5258     1.0  0.84548  0.07818  0.75326  1.0000
  S   S690      1.0  0.98235  0.43759  0.95046  1.0000
  Fe  Fe344     1.0  0.83756  0.17698  0.98798  1.0000
  C   C5259     1.0  0.80469  0.46393  0.76992  1.0000
  C   C5260     1.0  0.84238  0.07693  0.86470  1.0000
  H   H4208     1.0  0.81719  0.44283  0.75242  1.0000
  P   P176      1.0  0.83374  0.11233  0.80028  1.0000
  H   H4209     1.0  0.80723  0.43297  0.68435  1.0000
  S   S691      1.0  0.79561  0.41215  0.97720  1.0000
  C   C5261     1.0  0.96593  0.49151  0.91016  1.0000
  H   H4210     1.0  0.85273  0.48616  0.60325  1.0000
  C   C5262     1.0  0.82525  0.40183  0.97412  1.0000
  H   H4211     1.0  0.81828  0.45919  0.67893  1.0000
  C   C5263     1.0  0.81763  0.43457  0.78533  1.0000
  H   H4212     1.0  0.89361  0.25145  0.97871  1.0000
  C   C5264     1.0  0.79442  0.34591  0.85791  1.0000
  H   H4213     1.0  0.97786  0.38660  0.72118  1.0000
  C   C5265     1.0  0.79319  0.19269  0.95282  1.0000
  C   C5266     1.0  0.92972  0.27653  0.97837  1.0000
  S   S692      1.0  0.78759  0.38807  0.89825  1.0000
  H   H4214     1.0  0.98662  0.40626  0.73504  1.0000
  C   C5267     1.0  0.83194  0.99639  0.73067  1.0000
  C   C5268     1.0  0.85202  0.33540  0.98070  1.0000
  H   H4215     1.0  0.78777  0.20816  0.95085  1.0000
  Fe  Fe345     1.0  0.98451  0.39611  0.89579  1.0000
  C   C5269     1.0  0.79542  0.00207  0.78000  1.0000
  S   S693      1.0  0.79112  0.03026  0.92594  1.0000
  H   H4216     1.0  0.79343  0.13702  0.88298  1.0000
  H   H4217     1.0  0.83892  0.43676  0.97677  1.0000
  H   H4218     1.0  0.83033  0.00871  0.87545  1.0000
  H   H4219     1.0  0.90185  0.06538  0.98262  1.0000
  H   H4220     1.0  0.83187  0.28625  0.98493  1.0000
  H   H4221     1.0  0.80551  0.00150  0.73528  1.0000
  H   H4222     1.0  0.80394  0.99647  0.77827  1.0000
  C   C5270     1.0  0.85626  0.29670  0.98673  1.0000
  H   H4223     1.0  0.79040  0.18910  0.98654  1.0000
  C   C5271     1.0  0.98641  0.35543  0.73445  1.0000
  H   H4224     1.0  0.91957  0.30470  0.98878  1.0000
  C   C5272     1.0  0.82650  0.99607  0.87612  1.0000
  Fe  Fe346     1.0  0.81572  0.90782  0.28797  1.0000
  S   S694      1.0  0.83200  0.91311  0.26956  1.0000
  Fe  Fe347     1.0  0.80405  0.88078  0.32781  1.0000
  S   S695      1.0  0.80471  0.85054  0.35357  1.0000
  H   H4225     1.0  0.80649  0.94553  0.22559  1.0000
  S   S696      1.0  0.81182  0.87555  0.29510  1.0000
  S   S697      1.0  0.80941  0.91159  0.32160  1.0000
  H   H4226     1.0  0.79552  0.53179  0.36379  1.0000
  Fe  Fe348     1.0  0.84421  0.75205  0.45061  1.0000
  H   H4227     1.0  0.84147  0.68248  0.47766  1.0000
  S   S698      1.0  0.86049  0.74387  0.43005  1.0000
  Fe  Fe349     1.0  0.82652  0.79173  0.45314  1.0000
  H   H4228     1.0  0.83880  0.58267  0.43885  1.0000
  S   S699      1.0  0.82225  0.82688  0.43753  1.0000
  H   H4229     1.0  0.90601  0.52601  0.42153  1.0000
  C   C5273     1.0  0.81266  0.54719  0.41232  1.0000
  C   C5274     1.0  0.79173  0.91946  0.14857  1.0000
  H   H4230     1.0  0.85689  0.80920  0.30864  1.0000
  S   S700      1.0  0.84143  0.77963  0.46599  1.0000
  S   S701      1.0  0.82997  0.76543  0.43577  1.0000
  Fe  Fe350     1.0  0.81371  0.61626  0.45688  1.0000
  S   S702      1.0  0.81536  0.58948  0.44115  1.0000
  S   S703      1.0  0.82059  0.64454  0.43654  1.0000
  H   H4231     1.0  0.84058  0.54283  0.42161  1.0000
  H   H4232     1.0  0.87747  0.54289  0.38197  1.0000
  C   C5275     1.0  0.80693  0.67444  0.45857  1.0000
  C   C5276     1.0  0.91281  0.61250  0.36684  1.0000
  C   C5277     1.0  0.96468  0.57541  0.22916  1.0000
  C   C5278     1.0  0.81709  0.98065  0.14220  1.0000
  C   C5279     1.0  0.80474  0.64003  0.40377  1.0000
  Fe  Fe351     1.0  0.90629  0.58208  0.46208  1.0000
  P   P177      1.0  0.92330  0.62606  0.36398  1.0000
  S   S704      1.0  0.92239  0.56098  0.45209  1.0000
  Fe  Fe352     1.0  0.89428  0.62882  0.46123  1.0000
  C   C5280     1.0  0.94938  0.59691  0.32520  1.0000
  C   C5281     1.0  0.81069  0.60416  0.38541  1.0000
  C   C5282     1.0  0.82533  0.58136  0.35256  1.0000
  C   C5283     1.0  0.94753  0.59883  0.22496  1.0000
  Fe  Fe353     1.0  0.88342  0.59581  0.45727  1.0000
  S   S705      1.0  0.87357  0.59446  0.43567  1.0000
  C   C5284     1.0  0.83777  0.86772  0.36316  1.0000
  S   S706      1.0  0.89817  0.60728  0.43854  1.0000
  C   C5285     1.0  0.93564  0.54876  0.41628  1.0000
  C   C5286     1.0  0.92512  0.55628  0.42645  1.0000
  C   C5287     1.0  0.91691  0.56052  0.41584  1.0000
  C   C5288     1.0  0.91922  0.55752  0.39513  1.0000
  H   H4233     1.0  0.94203  0.54543  0.42443  1.0000
  H   H4234     1.0  0.90878  0.56614  0.42360  1.0000
  H   H4235     1.0  0.91280  0.56056  0.38721  1.0000
  C   C5289     1.0  0.84733  0.55654  0.45902  1.0000
  H   H4236     1.0  0.79441  0.52813  0.25033  1.0000
  C   C5290     1.0  0.86486  0.56002  0.45976  1.0000
  C   C5291     1.0  0.86354  0.57971  0.44533  1.0000
  C   C5292     1.0  0.85426  0.58746  0.43741  1.0000
  C   C5293     1.0  0.82720  0.97093  0.13232  1.0000
  Fe  Fe354     1.0  0.79911  0.58650  0.46109  1.0000
  S   S707      1.0  0.95323  0.51614  0.27034  1.0000
  C   C5294     1.0  0.92285  0.63185  0.38897  1.0000
  H   H4237     1.0  0.86369  0.86071  0.32671  1.0000
  H   H4238     1.0  0.87998  0.71107  0.47983  1.0000
  C   C5295     1.0  0.87633  0.83720  0.28499  1.0000
  H   H4239     1.0  0.83468  0.56845  0.39058  1.0000
  H   H4240     1.0  0.80465  0.54897  0.41061  1.0000
  H   H4241     1.0  0.83325  0.61672  0.30721  1.0000
  P   P178      1.0  0.81482  0.57964  0.37594  1.0000
  C   C5296     1.0  0.91627  0.49723  0.36506  1.0000
  C   C5297     1.0  0.87012  0.72065  0.43687  1.0000
  C   C5298     1.0  0.86759  0.70253  0.45204  1.0000
  S   S708      1.0  0.89691  0.66252  0.45076  1.0000
  C   C5299     1.0  0.88629  0.68426  0.44558  1.0000
  C   C5300     1.0  0.88874  0.70259  0.43088  1.0000
  C   C5301     1.0  0.88068  0.72048  0.42623  1.0000
  H   H4242     1.0  0.85947  0.70273  0.46061  1.0000
  H   H4243     1.0  0.96703  0.53322  0.22438  1.0000
  H   H4244     1.0  0.89692  0.70285  0.42283  1.0000
  H   H4245     1.0  0.88268  0.73442  0.41454  1.0000
  C   C5302     1.0  0.85094  0.63545  0.46124  1.0000
  H   H4246     1.0  0.84732  0.55022  0.32751  1.0000
  C   C5303     1.0  0.81165  0.70692  0.45985  1.0000
  S   S709      1.0  0.80808  0.73114  0.46838  1.0000
  H   H4247     1.0  0.98228  0.60847  0.19346  1.0000
  C   C5304     1.0  0.81696  0.66836  0.44588  1.0000
  C   C5305     1.0  0.82423  0.68169  0.44009  1.0000
  C   C5306     1.0  0.82165  0.70082  0.44719  1.0000
  S   S710      1.0  0.78950  0.87503  0.27138  1.0000
  C   C5307     1.0  0.95223  0.58352  0.36081  1.0000
  H   H4248     1.0  0.83193  0.67705  0.43033  1.0000
  H   H4249     1.0  0.82733  0.71100  0.44264  1.0000
  C   C5308     1.0  0.80994  0.84455  0.37638  1.0000
  C   C5309     1.0  0.81118  0.82347  0.38836  1.0000
  C   C5310     1.0  0.81491  0.81795  0.40710  1.0000
  C   C5311     1.0  0.81747  0.83349  0.41405  1.0000
  C   C5312     1.0  0.81625  0.85463  0.40206  1.0000
  C   C5313     1.0  0.81254  0.86015  0.38320  1.0000
  H   H4250     1.0  0.80910  0.81137  0.38326  1.0000
  H   H4251     1.0  0.81561  0.80175  0.41634  1.0000
  H   H4252     1.0  0.81815  0.86676  0.40743  1.0000
  H   H4253     1.0  0.81153  0.87647  0.37413  1.0000
  C   C5314     1.0  0.83237  0.93380  0.24658  1.0000
  C   C5315     1.0  0.82328  0.94949  0.24271  1.0000
  C   C5316     1.0  0.82371  0.96505  0.22366  1.0000
  C   C5317     1.0  0.83319  0.96464  0.20824  1.0000
  C   C5318     1.0  0.84232  0.94927  0.21234  1.0000
  C   C5319     1.0  0.84196  0.93415  0.23156  1.0000
  H   H4254     1.0  0.81594  0.94970  0.25439  1.0000
  H   H4255     1.0  0.81666  0.97710  0.22081  1.0000
  H   H4256     1.0  0.84970  0.94900  0.20057  1.0000
  H   H4257     1.0  0.84904  0.92223  0.23451  1.0000
  H   H4258     1.0  0.82919  0.92572  0.19272  1.0000
  H   H4259     1.0  0.80190  0.89844  0.22597  1.0000
  C   C5320     1.0  0.93601  0.60944  0.35446  1.0000
  H   H4260     1.0  0.83104  0.87497  0.24747  1.0000
  H   H4261     1.0  0.95207  0.59684  0.30852  1.0000
  H   H4262     1.0  0.80310  0.98150  0.26748  1.0000
  C   C5321     1.0  0.84608  0.57617  0.44457  1.0000
  C   C5322     1.0  0.84502  0.81374  0.38485  1.0000
  C   C5323     1.0  0.84829  0.80324  0.40374  1.0000
  C   C5324     1.0  0.83095  0.94884  0.13846  1.0000
  H   H4263     1.0  0.85775  0.53313  0.47768  1.0000
  C   C5325     1.0  0.90337  0.61613  0.38213  1.0000
  Fe  Fe355     1.0  0.79620  0.89330  0.28650  1.0000
  S   S711      1.0  0.96358  0.51874  0.35273  1.0000
  C   C5326     1.0  0.80382  0.55257  0.36951  1.0000
  S   S712      1.0  0.83679  0.54311  0.46857  1.0000
  H   H4264     1.0  0.87490  0.80018  0.38655  1.0000
  C   C5327     1.0  0.92260  0.61548  0.40725  1.0000
  H   H4265     1.0  0.92255  0.59945  0.40657  1.0000
  C   C5328     1.0  0.79613  0.88590  0.17309  1.0000
  H   H4266     1.0  0.96324  0.57385  0.33349  1.0000
  C   C5329     1.0  0.86656  0.80411  0.38601  1.0000
  H   H4267     1.0  0.92261  0.66580  0.37685  1.0000
  C   C5330     1.0  0.90929  0.68083  0.32705  1.0000
  H   H4268     1.0  0.79702  0.60715  0.35733  1.0000
  S   S713      1.0  0.93215  0.54816  0.35830  1.0000
  H   H4269     1.0  0.79664  0.94609  0.15201  1.0000
  Fe  Fe356     1.0  0.97076  0.53236  0.31894  1.0000
  C   C5331     1.0  0.83330  0.60180  0.31890  1.0000
  C   C5332     1.0  0.80093  0.89566  0.18278  1.0000
  C   C5333     1.0  0.92969  0.66112  0.33429  1.0000
  C   C5334     1.0  0.78855  0.56504  0.35323  1.0000
  C   C5335     1.0  0.88292  0.55061  0.40559  1.0000
  H   H4270     1.0  0.96418  0.50500  0.19751  1.0000
  H   H4271     1.0  0.84744  0.58458  0.30107  1.0000
  H   H4272     1.0  0.79365  0.97235  0.24418  1.0000
  C   C5336     1.0  0.88376  0.53909  0.39050  1.0000
  H   H4273     1.0  0.90248  0.62627  0.39283  1.0000
  H   H4274     1.0  0.92226  0.60683  0.44063  1.0000
  H   H4275     1.0  0.93470  0.61932  0.32167  1.0000
  S   S714      1.0  0.80541  0.56253  0.48808  1.0000
  C   C5337     1.0  0.90526  0.58993  0.35464  1.0000
  H   H4276     1.0  0.83663  0.81740  0.38470  1.0000
  H   H4277     1.0  0.88780  0.60923  0.39593  1.0000
  H   H4278     1.0  0.78807  0.92877  0.13545  1.0000
  C   C5338     1.0  0.92256  0.65269  0.39050  1.0000
  H   H4279     1.0  0.81079  0.52309  0.44112  1.0000
  H   H4280     1.0  0.83319  0.54791  0.35999  1.0000
  C   C5339     1.0  0.87399  0.85101  0.29876  1.0000
  H   H4281     1.0  0.91653  0.70610  0.30555  1.0000
  C   C5340     1.0  0.82554  0.91361  0.20445  1.0000
  H   H4282     1.0  0.87209  0.55382  0.46571  1.0000
  S   S715      1.0  0.97355  0.50240  0.30743  1.0000
  H   H4283     1.0  0.95707  0.57309  0.37171  1.0000
  C   C5341     1.0  0.78895  0.58623  0.35159  1.0000
  C   C5342     1.0  0.83138  0.89961  0.21898  1.0000
  C   C5343     1.0  0.88611  0.69317  0.37405  1.0000
  C   C5344     1.0  0.89307  0.67939  0.38650  1.0000
  C   C5345     1.0  0.88936  0.66420  0.40391  1.0000
  C   C5346     1.0  0.87864  0.66305  0.40929  1.0000
  C   C5347     1.0  0.87153  0.67722  0.39719  1.0000
  C   C5348     1.0  0.87540  0.69191  0.37919  1.0000
  P   P179      1.0  0.85774  0.67540  0.40363  1.0000
  C   C5349     1.0  0.85623  0.65671  0.39007  1.0000
  C   C5350     1.0  0.85376  0.66550  0.43178  1.0000
  C   C5351     1.0  0.85489  0.64341  0.43991  1.0000
  C   C5352     1.0  0.84605  0.64949  0.47483  1.0000
  C   C5353     1.0  0.83325  0.56312  0.34879  1.0000
  H   H4284     1.0  0.82792  0.92082  0.34578  1.0000
  C   C5354     1.0  0.84910  0.67956  0.44564  1.0000
  C   C5355     1.0  0.84734  0.64724  0.39738  1.0000
  C   C5356     1.0  0.84651  0.63154  0.38812  1.0000
  C   C5357     1.0  0.85450  0.62526  0.37131  1.0000
  C   C5358     1.0  0.86334  0.63473  0.36374  1.0000
  C   C5359     1.0  0.86422  0.65037  0.37308  1.0000
  C   C5360     1.0  0.84929  0.70155  0.39685  1.0000
  C   C5361     1.0  0.83953  0.70370  0.39162  1.0000
  C   C5362     1.0  0.83259  0.72377  0.38844  1.0000
  C   C5363     1.0  0.83540  0.74188  0.39016  1.0000
  C   C5364     1.0  0.84519  0.73996  0.39487  1.0000
  C   C5365     1.0  0.85205  0.71987  0.39842  1.0000
  H   H4285     1.0  0.88896  0.70506  0.36064  1.0000
  H   H4286     1.0  0.90130  0.68062  0.38292  1.0000
  H   H4287     1.0  0.89474  0.65369  0.41368  1.0000
  H   H4288     1.0  0.87594  0.65130  0.42306  1.0000
  H   H4289     1.0  0.87011  0.70261  0.36933  1.0000
  H   H4290     1.0  0.85863  0.63232  0.42962  1.0000
  H   H4291     1.0  0.80965  0.53929  0.37588  1.0000
  C   C5366     1.0  0.82530  0.60062  0.33733  1.0000
  S   S716      1.0  0.83387  0.98296  0.18369  1.0000
  H   H4292     1.0  0.84818  0.69670  0.43992  1.0000
  H   H4293     1.0  0.84120  0.65139  0.41076  1.0000
  H   H4294     1.0  0.83977  0.62389  0.39451  1.0000
  H   H4295     1.0  0.85391  0.61286  0.36436  1.0000
  H   H4296     1.0  0.86960  0.62969  0.35086  1.0000
  H   H4297     1.0  0.87123  0.65713  0.36728  1.0000
  H   H4298     1.0  0.83704  0.68985  0.39080  1.0000
  H   H4299     1.0  0.82488  0.72517  0.38534  1.0000
  H   H4300     1.0  0.82988  0.75731  0.38840  1.0000
  H   H4301     1.0  0.84731  0.75388  0.39668  1.0000
  H   H4302     1.0  0.85935  0.71857  0.40313  1.0000
  C   C5367     1.0  0.81942  0.55975  0.39763  1.0000
  H   H4303     1.0  0.80307  0.97621  0.16593  1.0000
  C   C5368     1.0  0.84129  0.58369  0.31543  1.0000
  C   C5369     1.0  0.81093  0.96845  0.15881  1.0000
  C   C5370     1.0  0.79696  0.94855  0.20319  1.0000
  C   C5371     1.0  0.79910  0.95321  0.22053  1.0000
  H   H4304     1.0  0.80443  0.88589  0.19581  1.0000
  C   C5372     1.0  0.82621  0.53084  0.43285  1.0000
  S   S717      1.0  0.80078  0.92520  0.27661  1.0000
  C   C5373     1.0  0.81021  0.89847  0.22340  1.0000
  H   H4305     1.0  0.81905  0.61466  0.33964  1.0000
  C   C5374     1.0  0.81604  0.88461  0.23795  1.0000
  C   C5375     1.0  0.95978  0.56516  0.24918  1.0000
  C   C5376     1.0  0.95846  0.59237  0.21711  1.0000
  H   H4306     1.0  0.90419  0.65382  0.34950  1.0000
  C   C5377     1.0  0.80410  0.57383  0.36846  1.0000
  H   H4307     1.0  0.98227  0.54745  0.18270  1.0000
  C   C5378     1.0  0.94326  0.51783  0.16328  1.0000
  P   P180      1.0  0.97878  0.56662  0.21914  1.0000
  H   H4308     1.0  0.93759  0.65386  0.33728  1.0000
  H   H4309     1.0  0.92093  0.59582  0.34140  1.0000
  H   H4310     1.0  0.83850  0.85634  0.37789  1.0000
  C   C5379     1.0  0.79672  0.59063  0.35908  1.0000
  H   H4311     1.0  0.83211  0.98054  0.11995  1.0000
  C   C5380     1.0  0.92451  0.50109  0.32139  1.0000
  C   C5381     1.0  0.94244  0.59623  0.36843  1.0000
  H   H4312     1.0  0.78942  0.55094  0.27654  1.0000
  H   H4313     1.0  0.80124  0.66431  0.46303  1.0000
  P   P181      1.0  0.80704  0.93092  0.18794  1.0000
  C   C5382     1.0  0.79184  0.96844  0.23115  1.0000
  C   C5383     1.0  0.89498  0.60664  0.38377  1.0000
  C   C5384     1.0  0.94885  0.57157  0.25691  1.0000
  H   H4314     1.0  0.94510  0.56314  0.27215  1.0000
  H   H4315     1.0  0.93423  0.59315  0.25086  1.0000
  Fe  Fe357     1.0  0.94800  0.53037  0.34248  1.0000
  C   C5385     1.0  0.93956  0.60960  0.33275  1.0000
  C   C5386     1.0  0.78730  0.95906  0.19702  1.0000
  C   C5387     1.0  0.97518  0.52555  0.22539  1.0000
  H   H4316     1.0  0.92219  0.53475  0.32016  1.0000
  H   H4317     1.0  0.95326  0.50335  0.23345  1.0000
  C   C5388     1.0  0.79150  0.89778  0.15608  1.0000
  C   C5389     1.0  0.95158  0.52890  0.18507  1.0000
  H   H4318     1.0  0.94277  0.61183  0.21556  1.0000
  H   H4319     1.0  0.92798  0.50252  0.30462  1.0000
  C   C5390     1.0  0.81490  0.94653  0.16599  1.0000
  H   H4320     1.0  0.95219  0.54098  0.19244  1.0000
  H   H4321     1.0  0.79463  0.60002  0.39999  1.0000
  C   C5391     1.0  0.87016  0.82211  0.28872  1.0000
  C   C5392     1.0  0.89592  0.59355  0.37003  1.0000
  H   H4322     1.0  0.93998  0.59530  0.38523  1.0000
  C   C5393     1.0  0.82663  0.88515  0.23574  1.0000
  H   H4323     1.0  0.93739  0.52171  0.15377  1.0000
  C   C5394     1.0  0.98204  0.57684  0.19093  1.0000
  C   C5395     1.0  0.91782  0.69073  0.31648  1.0000
  C   C5396     1.0  0.98530  0.57205  0.15506  1.0000
  H   H4324     1.0  0.85325  0.60247  0.42600  1.0000
  C   C5397     1.0  0.81511  0.63441  0.39222  1.0000
  C   C5398     1.0  0.92972  0.55048  0.38474  1.0000
  H   H4325     1.0  0.83873  0.94125  0.13063  1.0000
  H   H4326     1.0  0.83948  0.90056  0.21777  1.0000
  H   H4327     1.0  0.82769  0.91948  0.15951  1.0000
  H   H4328     1.0  0.94607  0.54044  0.38754  1.0000
  C   C5399     1.0  0.82474  0.93660  0.15500  1.0000
  C   C5400     1.0  0.89264  0.52256  0.38660  1.0000
  C   C5401     1.0  0.83179  0.90431  0.34521  1.0000
  C   C5402     1.0  0.80428  0.69375  0.46549  1.0000
  H   H4329     1.0  0.78945  0.63158  0.41583  1.0000
  C   C5403     1.0  0.94404  0.53349  0.17275  1.0000
  Fe  Fe358     1.0  0.82151  0.56811  0.46930  1.0000
  C   C5404     1.0  0.78720  0.52747  0.26246  1.0000
  H   H4330     1.0  0.82632  0.61173  0.37523  1.0000
  C   C5405     1.0  0.93795  0.54594  0.39540  1.0000
  C   C5406     1.0  0.92118  0.65091  0.34473  1.0000
  S   S718      1.0  0.94886  0.49994  0.33306  1.0000
  H   H4331     1.0  0.96440  0.55195  0.25873  1.0000
  S   S719      1.0  0.82116  0.59509  0.48342  1.0000
  C   C5407     1.0  0.83291  0.54365  0.41858  1.0000
  Fe  Fe359     1.0  0.82114  0.74774  0.46588  1.0000
  H   H4332     1.0  0.93878  0.54917  0.17054  1.0000
  S   S720      1.0  0.83573  0.73183  0.47908  1.0000
  C   C5408     1.0  0.85249  0.81983  0.36642  1.0000
  C   C5409     1.0  0.86331  0.81495  0.36711  1.0000
  P   P182      1.0  0.84800  0.83389  0.34236  1.0000
  C   C5410     1.0  0.84136  0.86130  0.34373  1.0000
  C   C5411     1.0  0.85919  0.83475  0.32006  1.0000
  C   C5412     1.0  0.91369  0.59933  0.35306  1.0000
  H   H4333     1.0  0.92142  0.64371  0.44325  1.0000
  H   H4334     1.0  0.92150  0.67308  0.41139  1.0000
  H   H4335     1.0  0.93462  0.68867  0.31211  1.0000
  C   C5413     1.0  0.86546  0.84979  0.31624  1.0000
  C   C5414     1.0  0.84012  0.87672  0.32504  1.0000
  C   C5415     1.0  0.83545  0.89814  0.32582  1.0000
  C   C5416     1.0  0.94272  0.58838  0.24483  1.0000
  C   C5417     1.0  0.92239  0.61963  0.42660  1.0000
  H   H4336     1.0  0.79181  0.54097  0.45809  1.0000
  C   C5418     1.0  0.83928  0.81941  0.33866  1.0000
  C   C5419     1.0  0.83063  0.83024  0.32914  1.0000
  C   C5420     1.0  0.82411  0.81875  0.32590  1.0000
  C   C5421     1.0  0.82612  0.79645  0.33223  1.0000
  C   C5422     1.0  0.83475  0.78551  0.34160  1.0000
  C   C5423     1.0  0.84131  0.79692  0.34483  1.0000
  C   C5424     1.0  0.92202  0.64037  0.42804  1.0000
  H   H4337     1.0  0.88948  0.58592  0.37159  1.0000
  C   C5425     1.0  0.80106  0.91756  0.17561  1.0000
  H   H4338     1.0  0.85154  0.61838  0.46707  1.0000
  H   H4339     1.0  0.86926  0.81936  0.35318  1.0000
  C   C5426     1.0  0.98252  0.53763  0.22434  1.0000
  C   C5427     1.0  0.86162  0.82085  0.30619  1.0000
  H   H4340     1.0  0.89315  0.51368  0.37495  1.0000
  C   C5428     1.0  0.92204  0.65692  0.41003  1.0000
  S   S721      1.0  0.95505  0.54641  0.30971  1.0000
  H   H4341     1.0  0.84272  0.87226  0.30982  1.0000
  H   H4342     1.0  0.83447  0.90990  0.31135  1.0000
  H   H4343     1.0  0.81222  0.87378  0.25119  1.0000
  H   H4344     1.0  0.88288  0.83831  0.27133  1.0000
  C   C5429     1.0  0.79654  0.92927  0.15817  1.0000
  H   H4345     1.0  0.82870  0.84755  0.32462  1.0000
  H   H4346     1.0  0.81725  0.82731  0.31912  1.0000
  H   H4347     1.0  0.82087  0.78775  0.33010  1.0000
  H   H4348     1.0  0.83629  0.76822  0.34652  1.0000
  H   H4349     1.0  0.84795  0.78818  0.35218  1.0000
  C   C5430     1.0  0.84525  0.67154  0.46712  1.0000
  H   H4350     1.0  0.82088  0.64357  0.39109  1.0000
  H   H4351     1.0  0.78939  0.51236  0.44361  1.0000
  C   C5431     1.0  0.81608  0.53262  0.42973  1.0000
  C   C5432     1.0  0.82953  0.55813  0.40106  1.0000
  H   H4352     1.0  0.96196  0.60059  0.20162  1.0000
  H   H4353     1.0  0.90137  0.68852  0.32436  1.0000
  C   C5433     1.0  0.87567  0.68407  0.45601  1.0000
  C   C5434     1.0  0.84124  0.56435  0.33033  1.0000
  H   H4354     1.0  0.86153  0.78995  0.41901  1.0000
  H   H4355     1.0  0.90616  0.57925  0.34439  1.0000
  Fe  Fe360     1.0  0.95712  0.51507  0.30109  1.0000
  C   C5435     1.0  0.81500  0.91252  0.20601  1.0000
  C   C5436     1.0  0.91094  0.66105  0.34122  1.0000
  C   C5437     1.0  0.95570  0.58389  0.33925  1.0000
  C   C5438     1.0  0.91705  0.51736  0.35182  1.0000
  H   H4356     1.0  0.84737  0.99350  0.20536  1.0000
  C   C5439     1.0  0.92801  0.68090  0.32013  1.0000
  C   C5440     1.0  0.85680  0.54825  0.46636  1.0000
  H   H4357     1.0  0.82903  0.99448  0.08078  1.0000
  C   C5441     1.0  0.79735  0.62778  0.40617  1.0000
  C   C5442     1.0  0.93291  0.49583  0.39126  1.0000
  S   S722      1.0  0.79704  0.61495  0.47513  1.0000
  H   H4358     1.0  0.94950  0.50666  0.07799  1.0000
  C   C5443     1.0  0.89100  0.54575  0.41664  1.0000
  H   H4359     1.0  0.87373  0.66994  0.46742  1.0000
  H   H4360     1.0  0.91863  0.50681  0.11926  1.0000
  C   C5444     1.0  0.81112  0.97522  0.29288  1.0000
  H   H4361     1.0  0.86581  0.74326  0.47195  1.0000
  H   H4362     1.0  0.79571  0.86921  0.17920  1.0000
  H   H4363     1.0  0.81989  0.97315  0.31596  1.0000
  C   C5445     1.0  0.79593  0.54823  0.36232  1.0000
  Fe  Fe361     1.0  0.79413  0.92715  0.31068  1.0000
  C   C5446     1.0  0.81813  0.61642  0.38323  1.0000
  H   H4364     1.0  0.78760  0.89019  0.14898  1.0000
  C   C5447     1.0  0.92121  0.51926  0.33010  1.0000
  H   H4365     1.0  0.82998  0.89380  0.37897  1.0000
  C   C5448     1.0  0.90074  0.51731  0.39788  1.0000
  H   H4366     1.0  0.98473  0.59378  0.27553  1.0000
  C   C5449     1.0  0.98527  0.60636  0.16100  1.0000
  H   H4367     1.0  0.89038  0.55490  0.42818  1.0000
  C   C5450     1.0  0.80032  0.60987  0.39711  1.0000
  H   H4368     1.0  0.91475  0.53154  0.35839  1.0000
  C   C5451     1.0  0.89987  0.52915  0.41288  1.0000
  H   H4369     1.0  0.84244  0.79907  0.41799  1.0000
  H   H4370     1.0  0.87871  0.86284  0.29580  1.0000
  C   C5452     1.0  0.97838  0.50333  0.22742  1.0000
  S   S723      1.0  0.98259  0.55306  0.31178  1.0000
  H   H4371     1.0  0.87192  0.81152  0.27795  1.0000
  C   C5453     1.0  0.94999  0.49741  0.16623  1.0000
  C   C5454     1.0  0.83296  0.88911  0.36387  1.0000
  C   C5455     1.0  0.85904  0.79833  0.40433  1.0000
  S   S724      1.0  0.90393  0.60479  0.48312  1.0000
  S   S725      1.0  0.89171  0.56907  0.47974  1.0000
  C   C5456     1.0  0.81782  0.98208  0.30106  1.0000
  C   C5457     1.0  0.98636  0.59328  0.14711  1.0000
  C   C5458     1.0  0.93352  0.50788  0.09668  1.0000
  H   H4372     1.0  0.87603  0.56338  0.40872  1.0000
  H   H4373     1.0  0.98634  0.56167  0.14440  1.0000
  H   H4374     1.0  0.82874  0.52001  0.44671  1.0000
  C   C5459     1.0  0.94460  0.50327  0.09375  1.0000
  C   C5460     1.0  0.95829  0.50862  0.18806  1.0000
  H   H4375     1.0  0.79652  0.69847  0.47528  1.0000
  H   H4376     1.0  0.80258  0.65342  0.41151  1.0000
  S   S726      1.0  0.87879  0.61962  0.47806  1.0000
  C   C5461     1.0  0.98202  0.58241  0.25087  1.0000
  H   H4377     1.0  0.97408  0.58072  0.25945  1.0000
  S   S727      1.0  0.81656  0.77512  0.48243  1.0000
  C   C5462     1.0  0.80843  0.98661  0.27368  1.0000
  C   C5463     1.0  0.98641  0.57652  0.23128  1.0000
  C   C5464     1.0  0.98303  0.56394  0.17688  1.0000
  S   S728      1.0  0.78816  0.89675  0.31963  1.0000
  H   H4378     1.0  0.80796  0.96113  0.30141  1.0000
  H   H4379     1.0  0.93422  0.49817  0.37433  1.0000
  H   H4380     1.0  0.92983  0.51486  0.08320  1.0000
  H   H4381     1.0  0.98612  0.62280  0.15487  1.0000
  C   C5465     1.0  0.78802  0.54518  0.44482  1.0000
  C   C5466     1.0  0.92722  0.50335  0.11699  1.0000
  C   C5467     1.0  0.98313  0.59817  0.18284  1.0000
  C   C5468     1.0  0.86650  0.73605  0.48817  1.0000
  H   H4382     1.0  0.81711  0.64682  0.48857  1.0000
  H   H4383     1.0  0.83762  0.98596  0.84903  1.0000
  C   C5469     1.0  0.80631  0.51702  0.71735  1.0000
  H   H4384     1.0  0.82551  0.66643  0.50308  1.0000
  C   C5470     1.0  0.94422  0.49773  0.91195  1.0000
  Fe  Fe362     1.0  0.80766  0.89508  0.80418  1.0000
  S   S729      1.0  0.82327  0.90128  0.78379  1.0000
  S   S730      1.0  0.80796  0.86956  0.83407  1.0000
  Fe  Fe363     1.0  0.79538  0.92853  0.77404  1.0000
  S   S731      1.0  0.81013  0.93711  0.75123  1.0000
  C   C5471     1.0  0.79321  0.55379  0.61721  1.0000
  Fe  Fe364     1.0  0.81654  0.90129  0.75663  1.0000
  S   S732      1.0  0.82732  0.88141  0.73292  1.0000
  Fe  Fe365     1.0  0.81529  0.93625  0.78074  1.0000
  S   S733      1.0  0.82408  0.96055  0.78243  1.0000
  S   S734      1.0  0.80137  0.89294  0.77744  1.0000
  S   S735      1.0  0.80017  0.92973  0.80307  1.0000
  Fe  Fe366     1.0  0.82149  0.80175  0.66780  1.0000
  S   S736      1.0  0.83871  0.79426  0.65113  1.0000
  S   S737      1.0  0.81207  0.82966  0.68374  1.0000
  Fe  Fe367     1.0  0.81669  0.76436  0.65600  1.0000
  S   S738      1.0  0.83348  0.75370  0.63897  1.0000
  S   S739      1.0  0.80375  0.74844  0.65630  1.0000
  Fe  Fe368     1.0  0.83793  0.75983  0.66613  1.0000
  S   S740      1.0  0.85043  0.73562  0.68199  1.0000
  Fe  Fe369     1.0  0.83285  0.78867  0.62515  1.0000
  S   S741      1.0  0.83868  0.80203  0.59021  1.0000
  S   S742      1.0  0.82109  0.76756  0.68461  1.0000
  S   S743      1.0  0.81574  0.79905  0.64039  1.0000
  Fe  Fe370     1.0  0.81696  0.62196  0.66303  1.0000
  S   S744      1.0  0.81589  0.59014  0.68517  1.0000
  C   C5472     1.0  0.81232  0.53277  0.70876  1.0000
  Fe  Fe371     1.0  0.82110  0.60343  0.62406  1.0000
  S   S745      1.0  0.82065  0.57027  0.64317  1.0000
  S   S746      1.0  0.82599  0.60923  0.58847  1.0000
  Fe  Fe372     1.0  0.80639  0.58630  0.66427  1.0000
  Fe  Fe373     1.0  0.83019  0.57692  0.66234  1.0000
  S   S747      1.0  0.84372  0.55157  0.67368  1.0000
  S   S748      1.0  0.80613  0.61952  0.64386  1.0000
  S   S749      1.0  0.83190  0.60872  0.64149  1.0000
  C   C5473     1.0  0.90791  0.54249  0.69029  1.0000
  C   C5474     1.0  0.80057  0.51510  0.66356  1.0000
  H   H4385     1.0  0.93229  0.58904  0.62993  1.0000
  S   S750      1.0  0.97003  0.57916  0.74404  1.0000
  Fe  Fe374     1.0  0.97083  0.51905  0.76937  1.0000
  S   S751      1.0  0.95971  0.54530  0.78454  1.0000
  H   H4386     1.0  0.81296  0.70826  0.61270  1.0000
  Fe  Fe375     1.0  0.95687  0.56140  0.75198  1.0000
  S   S752      1.0  0.93955  0.57388  0.74952  1.0000
  Fe  Fe376     1.0  0.97380  0.56059  0.77553  1.0000
  S   S753      1.0  0.97634  0.57719  0.79851  1.0000
  S   S754      1.0  0.96711  0.53394  0.73746  1.0000
  S   S755      1.0  0.83264  0.75178  0.52818  1.0000
  H   H4387     1.0  0.87274  0.53681  0.53420  1.0000
  H   H4388     1.0  0.79232  0.84248  0.63936  1.0000
  C   C5475     1.0  0.93832  0.57425  0.63096  1.0000
  C   C5476     1.0  0.85952  0.74506  0.50464  1.0000
  H   H4389     1.0  0.80991  0.75178  0.55402  1.0000
  C   C5477     1.0  0.87999  0.68293  0.55960  1.0000
  Fe  Fe377     1.0  0.91175  0.61674  0.65355  1.0000
  S   S756      1.0  0.90952  0.63364  0.62085  1.0000
  S   S757      1.0  0.92712  0.61803  0.66076  1.0000
  Fe  Fe378     1.0  0.89131  0.60056  0.66389  1.0000
  S   S758      1.0  0.88745  0.61610  0.63206  1.0000
  S   S759      1.0  0.88243  0.57804  0.68966  1.0000
  Fe  Fe379     1.0  0.90487  0.60430  0.61950  1.0000
  S   S760      1.0  0.91282  0.58889  0.59155  1.0000
  Fe  Fe380     1.0  0.89237  0.64427  0.63605  1.0000
  S   S761      1.0  0.88465  0.67832  0.62295  1.0000
  S   S762      1.0  0.90843  0.58649  0.65096  1.0000
  S   S763      1.0  0.89488  0.62973  0.66902  1.0000
  C   C5478     1.0  0.89101  0.58866  0.55006  1.0000
  C   C5479     1.0  0.90205  0.58458  0.54261  1.0000
  C   C5480     1.0  0.90873  0.58398  0.55571  1.0000
  C   C5481     1.0  0.90439  0.58767  0.57617  1.0000
  C   C5482     1.0  0.89337  0.59119  0.58375  1.0000
  C   C5483     1.0  0.88671  0.59153  0.57079  1.0000
  H   H4390     1.0  0.90544  0.58201  0.52677  1.0000
  H   H4391     1.0  0.91726  0.58128  0.54973  1.0000
  H   H4392     1.0  0.88996  0.59399  0.59947  1.0000
  H   H4393     1.0  0.87819  0.59451  0.57670  1.0000
  C   C5484     1.0  0.79783  0.76612  0.59226  1.0000
  C   C5485     1.0  0.79646  0.80443  0.55669  1.0000
  C   C5486     1.0  0.86463  0.74171  0.57665  1.0000
  H   H4394     1.0  0.81126  0.54396  0.69402  1.0000
  C   C5487     1.0  0.78882  0.98844  0.79298  1.0000
  C   C5488     1.0  0.96786  0.60821  0.64609  1.0000
  H   H4395     1.0  0.95634  0.50699  0.81080  1.0000
  C   C5489     1.0  0.93613  0.58628  0.72483  1.0000
  C   C5490     1.0  0.92609  0.58641  0.72201  1.0000
  C   C5491     1.0  0.92323  0.59596  0.70240  1.0000
  C   C5492     1.0  0.93032  0.60588  0.68565  1.0000
  C   C5493     1.0  0.94026  0.60611  0.68861  1.0000
  C   C5494     1.0  0.94319  0.59623  0.70809  1.0000
  H   H4396     1.0  0.92055  0.57892  0.73500  1.0000
  H   H4397     1.0  0.91556  0.59571  0.70021  1.0000
  H   H4398     1.0  0.94575  0.61386  0.67574  1.0000
  H   H4399     1.0  0.95083  0.59653  0.71031  1.0000
  C   C5495     1.0  0.97921  0.52917  0.88293  1.0000
  H   H4400     1.0  0.81181  0.91622  0.95197  1.0000
  H   H4401     1.0  0.83471  0.49877  0.62416  1.0000
  C   C5496     1.0  0.91885  0.54108  0.68683  1.0000
  H   H4402     1.0  0.94493  0.50375  0.74264  1.0000
  H   H4403     1.0  0.96769  0.62173  0.63275  1.0000
  C   C5497     1.0  0.79014  0.82061  0.54416  1.0000
  H   H4404     1.0  0.82684  0.53757  0.61990  1.0000
  H   H4405     1.0  0.80285  0.68239  0.57992  1.0000
  C   C5498     1.0  0.80193  0.70771  0.65789  1.0000
  H   H4406     1.0  0.80779  0.50524  0.65630  1.0000
  C   C5499     1.0  0.79112  0.50764  0.67047  1.0000
  H   H4407     1.0  0.81232  0.78485  0.55707  1.0000
  H   H4408     1.0  0.80298  0.65553  0.56254  1.0000
  C   C5500     1.0  0.85331  0.56652  0.54201  1.0000
  H   H4409     1.0  0.83474  0.70872  0.52500  1.0000
  C   C5501     1.0  0.85399  0.56016  0.67864  1.0000
  C   C5502     1.0  0.85540  0.58130  0.67103  1.0000
  C   C5503     1.0  0.86423  0.58700  0.67390  1.0000
  C   C5504     1.0  0.87147  0.57168  0.68491  1.0000
  C   C5505     1.0  0.86986  0.55078  0.69300  1.0000
  C   C5506     1.0  0.86126  0.54498  0.68960  1.0000
  H   H4410     1.0  0.84978  0.59320  0.66275  1.0000
  H   H4411     1.0  0.86534  0.60327  0.66789  1.0000
  H   H4412     1.0  0.87536  0.53895  0.70168  1.0000
  H   H4413     1.0  0.86024  0.52865  0.69548  1.0000
  C   C5507     1.0  0.81870  0.60189  0.57452  1.0000
  C   C5508     1.0  0.80906  0.59559  0.58449  1.0000
  C   C5509     1.0  0.80316  0.59104  0.57255  1.0000
  C   C5510     1.0  0.80681  0.59275  0.55067  1.0000
  C   C5511     1.0  0.81663  0.59829  0.54095  1.0000
  C   C5512     1.0  0.82251  0.60299  0.55279  1.0000
  H   H4414     1.0  0.80606  0.59473  0.60127  1.0000
  C   C5513     1.0  0.84649  0.57779  0.50377  1.0000
  H   H4415     1.0  0.81950  0.59996  0.52415  1.0000
  H   H4416     1.0  0.82996  0.60785  0.54498  1.0000
  C   C5514     1.0  0.85933  0.71899  0.66551  1.0000
  C   C5515     1.0  0.86177  0.72656  0.64361  1.0000
  C   C5516     1.0  0.86951  0.71379  0.63080  1.0000
  C   C5517     1.0  0.87465  0.69319  0.63967  1.0000
  C   C5518     1.0  0.87204  0.68537  0.66151  1.0000
  C   C5519     1.0  0.86447  0.69841  0.67443  1.0000
  H   H4417     1.0  0.85792  0.74251  0.63663  1.0000
  H   H4418     1.0  0.87160  0.71989  0.61397  1.0000
  H   H4419     1.0  0.87598  0.66951  0.66847  1.0000
  H   H4420     1.0  0.86250  0.69252  0.69133  1.0000
  C   C5520     1.0  0.80803  0.72035  0.66087  1.0000
  C   C5521     1.0  0.81750  0.71046  0.66773  1.0000
  C   C5522     1.0  0.82070  0.68806  0.67221  1.0000
  C   C5523     1.0  0.81461  0.67537  0.66942  1.0000
  C   C5524     1.0  0.79435  0.82827  0.52279  1.0000
  C   C5525     1.0  0.95738  0.53275  0.68638  1.0000
  H   H4421     1.0  0.82220  0.72001  0.67029  1.0000
  H   H4422     1.0  0.82786  0.68053  0.67824  1.0000
  C   C5526     1.0  0.83718  0.78835  0.57248  1.0000
  C   C5527     1.0  0.83903  0.79708  0.55061  1.0000
  C   C5528     1.0  0.83770  0.78623  0.53652  1.0000
  C   C5529     1.0  0.83294  0.75785  0.56607  1.0000
  C   C5530     1.0  0.83421  0.76865  0.58004  1.0000
  H   H4423     1.0  0.84138  0.81232  0.54460  1.0000
  H   H4424     1.0  0.83057  0.74267  0.57215  1.0000
  H   H4425     1.0  0.83287  0.76169  0.59670  1.0000
  C   C5531     1.0  0.82286  0.86644  0.72021  1.0000
  C   C5532     1.0  0.81220  0.87057  0.71891  1.0000
  C   C5533     1.0  0.80906  0.85902  0.70784  1.0000
  C   C5534     1.0  0.81646  0.84300  0.69821  1.0000
  C   C5535     1.0  0.82707  0.83852  0.69993  1.0000
  C   C5536     1.0  0.83026  0.85035  0.71068  1.0000
  H   H4426     1.0  0.80642  0.88288  0.72616  1.0000
  H   H4427     1.0  0.80083  0.86258  0.70665  1.0000
  H   H4428     1.0  0.83285  0.82626  0.69258  1.0000
  H   H4429     1.0  0.83852  0.84704  0.71159  1.0000
  H   H4430     1.0  0.84283  0.64319  0.49125  1.0000
  C   C5537     1.0  0.79243  0.82357  0.77999  1.0000
  C   C5538     1.0  0.81445  0.71949  0.54979  1.0000
  C   C5539     1.0  0.80234  0.74784  0.53142  1.0000
  C   C5540     1.0  0.79446  0.94672  0.85390  1.0000
  C   C5541     1.0  0.79112  0.80907  0.60116  1.0000
  H   H4431     1.0  0.79458  0.71534  0.65265  1.0000
  H   H4432     1.0  0.85028  0.68246  0.62968  1.0000
  H   H4433     1.0  0.92651  0.52349  0.55855  1.0000
  C   C5542     1.0  0.79384  0.74839  0.59301  1.0000
  Fe  Fe381     1.0  0.83182  0.76055  0.49365  1.0000
  H   H4434     1.0  0.80343  0.80677  0.83108  1.0000
  C   C5543     1.0  0.90393  0.53478  0.67736  1.0000
  C   C5544     1.0  0.88252  0.73433  0.55539  1.0000
  H   H4435     1.0  0.83292  0.68927  0.61990  1.0000
  C   C5545     1.0  0.79178  0.83335  0.62873  1.0000
  C   C5546     1.0  0.79963  0.87704  0.85718  1.0000
  C   C5547     1.0  0.80146  0.86457  0.87677  1.0000
  C   C5548     1.0  0.80214  0.53716  0.61430  1.0000
  H   H4436     1.0  0.79658  0.73918  0.50879  1.0000
  H   H4437     1.0  0.79888  0.93114  0.85105  1.0000
  H   H4438     1.0  0.80820  0.85114  0.87740  1.0000
  C   C5549     1.0  0.87772  0.54665  0.57724  1.0000
  C   C5550     1.0  0.83454  0.76661  0.54436  1.0000
  C   C5551     1.0  0.79248  0.83024  0.59333  1.0000
  C   C5552     1.0  0.85664  0.67045  0.51237  1.0000
  C   C5553     1.0  0.88885  0.85047  0.62756  1.0000
  C   C5554     1.0  0.88586  0.87284  0.62344  1.0000
  C   C5555     1.0  0.87625  0.88323  0.61728  1.0000
  C   C5556     1.0  0.86959  0.87127  0.61533  1.0000
  C   C5557     1.0  0.87246  0.84878  0.61975  1.0000
  C   C5558     1.0  0.88220  0.83846  0.62565  1.0000
  P   P183      1.0  0.86387  0.83350  0.61692  1.0000
  C   C5559     1.0  0.85015  0.84532  0.62734  1.0000
  C   C5560     1.0  0.86569  0.83312  0.58939  1.0000
  C   C5561     1.0  0.86209  0.81781  0.58400  1.0000
  C   C5562     1.0  0.86308  0.81776  0.56282  1.0000
  C   C5563     1.0  0.86784  0.83279  0.54680  1.0000
  C   C5564     1.0  0.87160  0.84792  0.55198  1.0000
  C   C5565     1.0  0.87051  0.84816  0.57319  1.0000
  C   C5566     1.0  0.84187  0.84356  0.61929  1.0000
  C   C5567     1.0  0.83127  0.85189  0.62806  1.0000
  C   C5568     1.0  0.82884  0.86236  0.64468  1.0000
  C   C5569     1.0  0.83701  0.86448  0.65260  1.0000
  C   C5570     1.0  0.84761  0.85577  0.64419  1.0000
  C   C5571     1.0  0.86701  0.80638  0.63202  1.0000
  C   C5572     1.0  0.86208  0.80102  0.65346  1.0000
  C   C5573     1.0  0.86423  0.77986  0.66486  1.0000
  C   C5574     1.0  0.87144  0.76400  0.65509  1.0000
  C   C5575     1.0  0.87659  0.76926  0.63391  1.0000
  C   C5576     1.0  0.87447  0.79041  0.62246  1.0000
  H   H4439     1.0  0.89631  0.84242  0.63232  1.0000
  H   H4440     1.0  0.89100  0.88211  0.62504  1.0000
  H   H4441     1.0  0.87393  0.90057  0.61407  1.0000
  H   H4442     1.0  0.86218  0.87955  0.61045  1.0000
  H   H4443     1.0  0.88466  0.82116  0.62890  1.0000
  H   H4444     1.0  0.85829  0.80616  0.59624  1.0000
  H   H4445     1.0  0.86851  0.83281  0.53040  1.0000
  H   H4446     1.0  0.87524  0.85966  0.53953  1.0000
  H   H4447     1.0  0.87336  0.86017  0.57678  1.0000
  H   H4448     1.0  0.84344  0.83526  0.60667  1.0000
  H   H4449     1.0  0.82491  0.84973  0.62230  1.0000
  H   H4450     1.0  0.82060  0.86830  0.65184  1.0000
  H   H4451     1.0  0.85377  0.85686  0.65117  1.0000
  H   H4452     1.0  0.85630  0.81291  0.66131  1.0000
  H   H4453     1.0  0.86002  0.77555  0.68112  1.0000
  H   H4454     1.0  0.87283  0.74753  0.66387  1.0000
  H   H4455     1.0  0.88204  0.75680  0.62631  1.0000
  H   H4456     1.0  0.87856  0.79421  0.60610  1.0000
  C   C5577     1.0  0.86682  0.75905  0.58135  1.0000
  H   H4457     1.0  0.87856  0.77736  0.57689  1.0000
  C   C5578     1.0  0.87530  0.70853  0.51357  1.0000
  C   C5579     1.0  0.96552  0.58932  0.64505  1.0000
  H   H4458     1.0  0.85672  0.73849  0.58290  1.0000
  H   H4459     1.0  0.86065  0.76866  0.59127  1.0000
  H   H4460     1.0  0.87314  0.66648  0.54476  1.0000
  C   C5580     1.0  0.92295  0.52109  0.57531  1.0000
  H   H4461     1.0  0.81947  0.79785  0.51923  1.0000
  H   H4462     1.0  0.95933  0.52072  0.63588  1.0000
  H   H4463     1.0  0.80076  0.63429  0.50970  1.0000
  C   C5581     1.0  0.79655  0.91589  0.94744  1.0000
  H   H4464     1.0  0.86872  0.51989  0.64088  1.0000
  H   H4465     1.0  0.94668  0.52158  0.88341  1.0000
  H   H4466     1.0  0.79411  0.85847  0.60097  1.0000
  H   H4467     1.0  0.85431  0.59648  0.62313  1.0000
  H   H4468     1.0  0.89318  0.53883  0.58464  1.0000
  C   C5582     1.0  0.79036  0.81235  0.63662  1.0000
  C   C5583     1.0  0.85691  0.60264  0.56320  1.0000
  C   C5584     1.0  0.85029  0.69067  0.51420  1.0000
  C   C5585     1.0  0.93866  0.55909  0.61987  1.0000
  C   C5586     1.0  0.79284  0.84229  0.60710  1.0000
  C   C5587     1.0  0.80432  0.93257  0.90460  1.0000
  H   H4469     1.0  0.80501  0.97523  0.90380  1.0000
  C   C5588     1.0  0.80146  0.73360  0.52049  1.0000
  C   C5589     1.0  0.83918  0.51023  0.61334  1.0000
  C   C5590     1.0  0.87707  0.53728  0.54540  1.0000
  H   H4470     1.0  0.83170  0.70210  0.58225  1.0000
  C   C5591     1.0  0.97639  0.53230  0.65070  1.0000
  C   C5592     1.0  0.80883  0.74072  0.54607  1.0000
  H   H4471     1.0  0.85370  0.70471  0.50813  1.0000
  C   C5593     1.0  0.80735  0.76264  0.59890  1.0000
  C   C5594     1.0  0.87687  0.76394  0.57324  1.0000
  H   H4472     1.0  0.84749  0.70924  0.55450  1.0000
  C   C5595     1.0  0.81977  0.53411  0.71907  1.0000
  C   C5596     1.0  0.79019  0.92024  0.93281  1.0000
  C   C5597     1.0  0.83113  0.99126  0.79080  1.0000
  H   H4473     1.0  0.88827  0.69335  0.57716  1.0000
  H   H4474     1.0  0.79417  0.56810  0.62049  1.0000
  H   H4475     1.0  0.83910  0.79301  0.51972  1.0000
  H   H4476     1.0  0.81776  0.65720  0.63305  1.0000
  C   C5598     1.0  0.81277  0.74180  0.60612  1.0000
  H   H4477     1.0  0.86623  0.68910  0.60225  1.0000
  C   C5599     1.0  0.94625  0.53980  0.62168  1.0000
  C   C5600     1.0  0.85491  0.59825  0.60642  1.0000
  H   H4478     1.0  0.80815  0.82559  0.49714  1.0000
  H   H4479     1.0  0.93677  0.54131  0.72826  1.0000
  C   C5601     1.0  0.81130  0.80431  0.52628  1.0000
  C   C5602     1.0  0.95720  0.50069  0.71450  1.0000
  H   H4480     1.0  0.83507  0.87231  0.66576  1.0000
  C   C5603     1.0  0.97080  0.59208  0.68139  1.0000
  H   H4481     1.0  0.79383  0.63850  0.54662  1.0000
  C   C5604     1.0  0.87187  0.54690  0.56273  1.0000
  C   C5605     1.0  0.98056  0.51707  0.83288  1.0000
  C   C5606     1.0  0.79789  0.95741  0.86527  1.0000
  H   H4482     1.0  0.78985  0.80514  0.65330  1.0000
  P   P184      1.0  0.80918  0.94433  0.87729  1.0000
  C   C5607     1.0  0.81621  0.96424  0.87678  1.0000
  H   H4483     1.0  0.80154  0.67365  0.61862  1.0000
  C   C5608     1.0  0.81076  0.92785  0.91929  1.0000
  C   C5609     1.0  0.95368  0.55158  0.64459  1.0000
  C   C5610     1.0  0.88804  0.52871  0.54202  1.0000
  C   C5611     1.0  0.86806  0.71709  0.53031  1.0000
  H   H4484     1.0  0.89542  0.53617  0.68025  1.0000
  C   C5612     1.0  0.82555  0.96728  0.86158  1.0000
  Fe  Fe382     1.0  0.88867  0.59408  0.49883  1.0000
  C   C5613     1.0  0.79095  0.89452  0.85642  1.0000
  H   H4485     1.0  0.79827  0.76450  0.52807  1.0000
  C   C5614     1.0  0.81219  0.97715  0.89185  1.0000
  C   C5615     1.0  0.81736  0.92372  0.86337  1.0000
  C   C5616     1.0  0.82119  0.92905  0.84144  1.0000
  C   C5617     1.0  0.82690  0.91316  0.83023  1.0000
  C   C5618     1.0  0.82851  0.89165  0.84069  1.0000
  C   C5619     1.0  0.82458  0.88609  0.86247  1.0000
  C   C5620     1.0  0.81904  0.90203  0.87382  1.0000
  C   C5621     1.0  0.89385  0.52923  0.55615  1.0000
  S   S764      1.0  0.88234  0.59056  0.53390  1.0000
  C   C5622     1.0  0.97050  0.60959  0.66427  1.0000
  H   H4486     1.0  0.83946  0.98535  0.72676  1.0000
  H   H4487     1.0  0.92188  0.54757  0.69654  1.0000
  H   H4488     1.0  0.81875  0.93078  0.91424  1.0000
  H   H4489     1.0  0.79566  0.58652  0.58018  1.0000
  H   H4490     1.0  0.88858  0.72512  0.54499  1.0000
  H   H4491     1.0  0.93414  0.64982  0.71796  1.0000
  C   C5623     1.0  0.80069  0.53542  0.66577  1.0000
  H   H4492     1.0  0.82891  0.95780  0.84971  1.0000
  C   C5624     1.0  0.80047  0.82133  0.76187  1.0000
  C   C5625     1.0  0.80720  0.71235  0.52390  1.0000
  C   C5626     1.0  0.88769  0.64706  0.55316  1.0000
  C   C5627     1.0  0.97607  0.50693  0.85326  1.0000
  H   H4493     1.0  0.81957  0.94546  0.83282  1.0000
  H   H4494     1.0  0.82985  0.91759  0.81331  1.0000
  H   H4495     1.0  0.83255  0.87928  0.83180  1.0000
  H   H4496     1.0  0.82557  0.86936  0.87042  1.0000
  H   H4497     1.0  0.81580  0.89725  0.89055  1.0000
  H   H4498     1.0  0.79223  0.96995  0.74034  1.0000
  H   H4499     1.0  0.97310  0.59290  0.69532  1.0000
  C   C5628     1.0  0.92310  0.53556  0.58677  1.0000
  C   C5629     1.0  0.91820  0.53303  0.60823  1.0000
  C   C5630     1.0  0.91334  0.51564  0.61855  1.0000
  C   C5631     1.0  0.88867  0.53792  0.57392  1.0000
  H   H4500     1.0  0.97976  0.53425  0.82879  1.0000
  C   C5632     1.0  0.89250  0.52838  0.64241  1.0000
  C   C5633     1.0  0.88994  0.55086  0.63817  1.0000
  C   C5634     1.0  0.87979  0.56196  0.63514  1.0000
  C   C5635     1.0  0.87217  0.55073  0.63630  1.0000
  C   C5636     1.0  0.87473  0.52842  0.63991  1.0000
  C   C5637     1.0  0.88491  0.51724  0.64267  1.0000
  S   S765      1.0  0.98520  0.53302  0.76284  1.0000
  C   C5638     1.0  0.92582  0.53159  0.67066  1.0000
  C   C5639     1.0  0.92187  0.52374  0.65775  1.0000
  H   H4501     1.0  0.88180  0.69500  0.51638  1.0000
  S   S766      1.0  0.79127  0.57378  0.67835  1.0000
  H   H4502     1.0  0.92663  0.54934  0.57882  1.0000
  H   H4503     1.0  0.91782  0.54514  0.61652  1.0000
  H   H4504     1.0  0.89575  0.55985  0.63728  1.0000
  H   H4505     1.0  0.87771  0.57928  0.63245  1.0000
  H   H4506     1.0  0.86417  0.55929  0.63498  1.0000
  C   C5640     1.0  0.97969  0.53040  0.62951  1.0000
  C   C5641     1.0  0.95365  0.53591  0.63424  1.0000
  C   C5642     1.0  0.79011  0.80019  0.62291  1.0000
  C   C5643     1.0  0.82253  0.99192  0.72963  1.0000
  C   C5644     1.0  0.80916  0.66990  0.60798  1.0000
  C   C5645     1.0  0.80119  0.51820  0.61056  1.0000
  C   C5646     1.0  0.79867  0.81386  0.84427  1.0000
  C   C5647     1.0  0.80760  0.50255  0.73652  1.0000
  H   H4507     1.0  0.81987  0.73922  0.61206  1.0000
  C   C5648     1.0  0.79132  0.51603  0.60922  1.0000
  H   H4508     1.0  0.79056  0.50123  0.60655  1.0000
  S   S767      1.0  0.79848  0.58975  0.53577  1.0000
  H   H4509     1.0  0.83680  0.56401  0.59524  1.0000
  C   C5649     1.0  0.80362  0.83761  0.79324  1.0000
  C   C5650     1.0  0.81160  0.83550  0.77504  1.0000
  C   C5651     1.0  0.81008  0.82707  0.75953  1.0000
  C   C5652     1.0  0.82108  0.51990  0.73820  1.0000
  C   C5653     1.0  0.85805  0.69978  0.57633  1.0000
  H   H4510     1.0  0.96379  0.58834  0.63062  1.0000
  S   S768      1.0  0.81840  0.64738  0.67778  1.0000
  C   C5654     1.0  0.85474  0.58088  0.59869  1.0000
  C   C5655     1.0  0.89598  0.64543  0.56276  1.0000
  C   C5656     1.0  0.80882  0.72429  0.60662  1.0000
  C   C5657     1.0  0.80490  0.81995  0.51380  1.0000
  C   C5658     1.0  0.80716  0.79678  0.54770  1.0000
  C   C5659     1.0  0.80071  0.64483  0.53723  1.0000
  C   C5660     1.0  0.80243  0.80857  0.86288  1.0000
  H   H4511     1.0  0.80486  0.84463  0.80489  1.0000
  H   H4512     1.0  0.81888  0.84089  0.77267  1.0000
  H   H4513     1.0  0.81626  0.82550  0.74540  1.0000
  H   H4514     1.0  0.98155  0.59565  0.82670  1.0000
  C   C5661     1.0  0.84932  0.50316  0.60162  1.0000
  C   C5662     1.0  0.94366  0.53282  0.71865  1.0000
  H   H4515     1.0  0.94912  0.49624  0.84911  1.0000
  C   C5663     1.0  0.85613  0.58173  0.50420  1.0000
  C   C5664     1.0  0.81502  0.50420  0.74695  1.0000
  H   H4516     1.0  0.81013  0.79794  0.86371  1.0000
  C   C5665     1.0  0.85216  0.65241  0.52004  1.0000
  C   C5666     1.0  0.84131  0.65460  0.52953  1.0000
  C   C5667     1.0  0.83485  0.67497  0.53116  1.0000
  C   C5668     1.0  0.83947  0.69292  0.52369  1.0000
  P   P185      1.0  0.82094  0.67756  0.54413  1.0000
  C   C5669     1.0  0.81501  0.66219  0.53407  1.0000
  C   C5670     1.0  0.81982  0.66950  0.57240  1.0000
  H   H4517     1.0  0.98170  0.52701  0.67976  1.0000
  C   C5671     1.0  0.80686  0.91960  0.94066  1.0000
  C   C5672     1.0  0.83064  0.98317  0.86126  1.0000
  C   C5673     1.0  0.82813  0.65556  0.60267  1.0000
  C   C5674     1.0  0.82891  0.65988  0.58090  1.0000
  C   C5675     1.0  0.81883  0.65981  0.51306  1.0000
  C   C5676     1.0  0.81373  0.70510  0.53871  1.0000
  H   H4518     1.0  0.85711  0.63673  0.51855  1.0000
  H   H4519     1.0  0.83795  0.64043  0.53578  1.0000
  H   H4520     1.0  0.85995  0.80627  0.55889  1.0000
  H   H4521     1.0  0.86504  0.66877  0.50499  1.0000
  C   C5677     1.0  0.98451  0.53640  0.91162  1.0000
  H   H4522     1.0  0.83518  0.64816  0.60908  1.0000
  H   H4523     1.0  0.83666  0.65565  0.57095  1.0000
  C   C5678     1.0  0.86032  0.73568  0.52558  1.0000
  H   H4524     1.0  0.81960  0.71453  0.56087  1.0000
  C   C5679     1.0  0.89404  0.70111  0.65858  1.0000
  C   C5680     1.0  0.90269  0.69056  0.64540  1.0000
  C   C5681     1.0  0.90951  0.67225  0.65411  1.0000
  C   C5682     1.0  0.90762  0.66437  0.67598  1.0000
  C   C5683     1.0  0.89905  0.67504  0.68937  1.0000
  C   C5684     1.0  0.89213  0.69326  0.68047  1.0000
  P   P186      1.0  0.89592  0.66335  0.71726  1.0000
  C   C5685     1.0  0.88757  0.64523  0.71971  1.0000
  C   C5686     1.0  0.90767  0.65027  0.72786  1.0000
  C   C5687     1.0  0.90700  0.63462  0.74676  1.0000
  C   C5688     1.0  0.91609  0.62425  0.75491  1.0000
  C   C5689     1.0  0.92585  0.62976  0.74454  1.0000
  C   C5690     1.0  0.92653  0.64577  0.72609  1.0000
  C   C5691     1.0  0.91745  0.65620  0.71791  1.0000
  C   C5692     1.0  0.87705  0.65358  0.71714  1.0000
  C   C5693     1.0  0.87070  0.63996  0.71735  1.0000
  C   C5694     1.0  0.87481  0.61790  0.72006  1.0000
  C   C5695     1.0  0.88529  0.60946  0.72248  1.0000
  C   C5696     1.0  0.89170  0.62307  0.72210  1.0000
  C   C5697     1.0  0.88894  0.68405  0.73177  1.0000
  C   C5698     1.0  0.88039  0.68069  0.74899  1.0000
  C   C5699     1.0  0.87493  0.69698  0.75992  1.0000
  C   C5700     1.0  0.87806  0.71658  0.75394  1.0000
  C   C5701     1.0  0.88673  0.71983  0.73716  1.0000
  C   C5702     1.0  0.89220  0.70358  0.72618  1.0000
  H   H4525     1.0  0.88848  0.71469  0.65173  1.0000
  H   H4526     1.0  0.90385  0.69604  0.62840  1.0000
  H   H4527     1.0  0.91603  0.66362  0.64389  1.0000
  H   H4528     1.0  0.91265  0.64954  0.68235  1.0000
  H   H4529     1.0  0.88504  0.70099  0.69025  1.0000
  H   H4530     1.0  0.89949  0.63020  0.75504  1.0000
  H   H4531     1.0  0.91567  0.61158  0.76903  1.0000
  H   H4532     1.0  0.93294  0.62129  0.75059  1.0000
  H   H4533     1.0  0.91815  0.66870  0.70373  1.0000
  H   H4534     1.0  0.87384  0.67068  0.71447  1.0000
  H   H4535     1.0  0.86267  0.64655  0.71484  1.0000
  H   H4536     1.0  0.86999  0.60738  0.71958  1.0000
  H   H4537     1.0  0.88856  0.59243  0.72372  1.0000
  H   H4538     1.0  0.89996  0.61631  0.72280  1.0000
  H   H4539     1.0  0.87790  0.66556  0.75394  1.0000
  H   H4540     1.0  0.86822  0.69444  0.77296  1.0000
  H   H4541     1.0  0.87376  0.72925  0.76232  1.0000
  H   H4542     1.0  0.88918  0.73499  0.73258  1.0000
  H   H4543     1.0  0.89892  0.70628  0.71321  1.0000
  C   C5703     1.0  0.79449  0.86910  0.89550  1.0000
  P   P187      1.0  0.79066  0.79315  0.58372  1.0000
  H   H4544     1.0  0.97446  0.53780  0.61861  1.0000
  H   H4545     1.0  0.94512  0.58229  0.65221  1.0000
  H   H4546     1.0  0.90245  0.55010  0.70265  1.0000
  C   C5704     1.0  0.89611  0.66218  0.57137  1.0000
  C   C5705     1.0  0.80597  0.65437  0.54621  1.0000
  H   H4547     1.0  0.79348  0.90960  0.96400  1.0000
  H   H4548     1.0  0.89244  0.75563  0.55364  1.0000
  H   H4549     1.0  0.80660  0.70191  0.51466  1.0000
  H   H4550     1.0  0.90224  0.63110  0.56380  1.0000
  H   H4551     1.0  0.85610  0.63129  0.59866  1.0000
  C   C5706     1.0  0.87256  0.72888  0.56405  1.0000
  C   C5707     1.0  0.85953  0.57607  0.52318  1.0000
  H   H4552     1.0  0.87397  0.55387  0.59073  1.0000
  H   H4553     1.0  0.85392  0.56582  0.60964  1.0000
  H   H4554     1.0  0.79615  0.71404  0.60091  1.0000
  H   H4555     1.0  0.79924  0.81553  0.74936  1.0000
  C   C5708     1.0  0.94820  0.54336  0.69854  1.0000
  H   H4556     1.0  0.79943  0.81378  0.89438  1.0000
  H   H4557     1.0  0.80800  0.54093  0.66038  1.0000
  C   C5709     1.0  0.80465  0.64234  0.51638  1.0000
  C   C5710     1.0  0.88470  0.75167  0.56016  1.0000
  C   C5711     1.0  0.87961  0.66558  0.55194  1.0000
  H   H4558     1.0  0.90239  0.52334  0.55310  1.0000
  C   C5712     1.0  0.85599  0.58277  0.57692  1.0000
  C   C5713     1.0  0.82269  0.98081  0.79632  1.0000
  H   H4559     1.0  0.79391  0.98554  0.87859  1.0000
  H   H4560     1.0  0.96867  0.55989  0.69390  1.0000
  H   H4561     1.0  0.86281  0.51222  0.57842  1.0000
  C   C5714     1.0  0.79407  0.92836  0.91145  1.0000
  H   H4562     1.0  0.80728  0.97878  0.81687  1.0000
  H   H4563     1.0  0.94462  0.55987  0.69256  1.0000
  P   P188      1.0  0.86964  0.70696  0.55731  1.0000
  H   H4564     1.0  0.78902  0.93131  0.90041  1.0000
  C   C5715     1.0  0.84043  0.54706  0.59708  1.0000
  C   C5716     1.0  0.85504  0.51802  0.58763  1.0000
  Fe  Fe383     1.0  0.80471  0.59111  0.50058  1.0000
  C   C5717     1.0  0.84032  0.56791  0.52227  1.0000
  C   C5718     1.0  0.85593  0.61789  0.59262  1.0000
  C   C5719     1.0  0.79407  0.83120  0.79608  1.0000
  P   P189      1.0  0.85780  0.55925  0.56657  1.0000
  H   H4565     1.0  0.79227  0.97277  0.80109  1.0000
  H   H4566     1.0  0.80070  0.51596  0.70893  1.0000
  H   H4567     1.0  0.80975  0.53892  0.61536  1.0000
  C   C5720     1.0  0.80528  0.68521  0.66192  1.0000
  C   C5721     1.0  0.81385  0.64936  0.50450  1.0000
  H   H4568     1.0  0.85805  0.60452  0.54638  1.0000
  H   H4569     1.0  0.82456  0.54614  0.71216  1.0000
  H   H4570     1.0  0.79586  0.85915  0.91057  1.0000
  H   H4571     1.0  0.89207  0.52222  0.52811  1.0000
  C   C5722     1.0  0.98381  0.52444  0.66376  1.0000
  P   P190      1.0  0.96950  0.52247  0.87313  1.0000
  H   H4572     1.0  0.98295  0.53726  0.92804  1.0000
  P   P191      1.0  0.96324  0.54696  0.66071  1.0000
  H   H4573     1.0  0.80043  0.67549  0.66015  1.0000
  C   C5723     1.0  0.91788  0.50402  0.58534  1.0000
  C   C5724     1.0  0.81385  0.98677  0.81229  1.0000
  H   H4574     1.0  0.93429  0.53048  0.66809  1.0000
  H   H4575     1.0  0.80806  0.50511  0.60891  1.0000
  C   C5725     1.0  0.88814  0.68087  0.56985  1.0000
  C   C5726     1.0  0.83473  0.53214  0.61098  1.0000
  H   H4576     1.0  0.83290  0.56461  0.52181  1.0000
  H   H4577     1.0  0.83856  0.55537  0.55553  1.0000
  C   C5727     1.0  0.97699  0.53137  0.90397  1.0000
  C   C5728     1.0  0.96165  0.54687  0.86043  1.0000
  C   C5729     1.0  0.96172  0.56685  0.86358  1.0000
  C   C5730     1.0  0.95627  0.58572  0.85237  1.0000
  C   C5731     1.0  0.95069  0.58477  0.83802  1.0000
  C   C5732     1.0  0.95049  0.56494  0.83498  1.0000
  C   C5733     1.0  0.95597  0.54606  0.84606  1.0000
  C   C5734     1.0  0.79639  0.81742  0.88018  1.0000
  C   C5735     1.0  0.79168  0.97719  0.86939  1.0000
  C   C5736     1.0  0.94570  0.57043  0.64345  1.0000
  C   C5737     1.0  0.85874  0.69186  0.59762  1.0000
  C   C5738     1.0  0.79933  0.72758  0.60014  1.0000
  Fe  Fe384     1.0  0.98054  0.55012  0.73212  1.0000
  C   C5739     1.0  0.84972  0.68807  0.61323  1.0000
  C   C5740     1.0  0.91087  0.52566  0.66078  1.0000
  H   H4578     1.0  0.85784  0.63523  0.56031  1.0000
  H   H4579     1.0  0.88751  0.63394  0.54673  1.0000
  C   C5741     1.0  0.85686  0.62012  0.57103  1.0000
  C   C5742     1.0  0.85069  0.54010  0.58549  1.0000
  H   H4580     1.0  0.96856  0.50223  0.68506  1.0000
  H   H4581     1.0  0.90231  0.66058  0.57954  1.0000
  H   H4582     1.0  0.96949  0.52906  0.91458  1.0000
  H   H4583     1.0  0.96621  0.56799  0.87420  1.0000
  H   H4584     1.0  0.95662  0.60111  0.85434  1.0000
  H   H4585     1.0  0.94674  0.59939  0.82886  1.0000
  H   H4586     1.0  0.94637  0.56423  0.82351  1.0000
  H   H4587     1.0  0.95604  0.53085  0.84297  1.0000
  H   H4588     1.0  0.94637  0.52790  0.61336  1.0000
  H   H4589     1.0  0.81050  0.77600  0.59895  1.0000
  C   C5743     1.0  0.81829  0.66065  0.61618  1.0000
  C   C5744     1.0  0.96548  0.57189  0.66248  1.0000
  H   H4590     1.0  0.85499  0.74312  0.53811  1.0000
  H   H4591     1.0  0.97241  0.62413  0.66505  1.0000
  H   H4592     1.0  0.85345  0.75934  0.50124  1.0000
  C   C5745     1.0  0.96127  0.50731  0.89468  1.0000
  P   P192      1.0  0.90574  0.51417  0.64532  1.0000
  C   C5746     1.0  0.96826  0.57334  0.68056  1.0000
  H   H4593     1.0  0.86706  0.57904  0.52309  1.0000
  C   C5747     1.0  0.84364  0.56250  0.54138  1.0000
  C   C5748     1.0  0.78893  0.82838  0.84276  1.0000
  C   C5749     1.0  0.84827  0.70315  0.57076  1.0000
  C   C5750     1.0  0.83927  0.69919  0.58646  1.0000
  C   C5751     1.0  0.83995  0.69191  0.60769  1.0000
  H   H4594     1.0  0.93295  0.56234  0.61006  1.0000
  H   H4595     1.0  0.88681  0.49997  0.64506  1.0000
  H   H4596     1.0  0.92739  0.51618  0.64548  1.0000
  H   H4597     1.0  0.82686  0.52106  0.74613  1.0000
  C   C5752     1.0  0.80993  0.67456  0.58614  1.0000
  H   H4598     1.0  0.78680  0.64589  0.61854  1.0000
  C   C5753     1.0  0.95039  0.51012  0.89552  1.0000
  H   H4599     1.0  0.86106  0.58892  0.48978  1.0000
  C   C5754     1.0  0.94824  0.51160  0.72675  1.0000
  H   H4600     1.0  0.78927  0.78373  0.62932  1.0000
  C   C5755     1.0  0.81730  0.99300  0.89147  1.0000
  H   H4601     1.0  0.82275  0.97741  0.72496  1.0000
  C   C5756     1.0  0.79137  0.54832  0.67505  1.0000
  H   H4602     1.0  0.83800  0.98679  0.77867  1.0000
  H   H4603     1.0  0.93588  0.49971  0.91231  1.0000
  C   C5757     1.0  0.87443  0.71785  0.49264  1.0000
  H   H4604     1.0  0.78952  0.90423  0.84137  1.0000
  C   C5758     1.0  0.98610  0.50512  0.81762  1.0000
  C   C5759     1.0  0.96169  0.51111  0.69428  1.0000
  C   C5760     1.0  0.91298  0.50145  0.60682  1.0000
  H   H4605     1.0  0.79341  0.83741  0.57663  1.0000
  H   H4606     1.0  0.78943  0.84053  0.51310  1.0000
  H   H4607     1.0  0.89138  0.49550  0.68270  1.0000
  H   H4608     1.0  0.84384  0.58217  0.48906  1.0000
